REMARK  4 active torsions:
REMARK  status: ('A' for Active; 'I' for Inactive)
REMARK    1  A    between atoms: C4_4  and  C5_5 
REMARK    2  A    between atoms: C5_5  and  C6_6 
REMARK    3  A    between atoms: C6_6  and  C7_7 
REMARK    4  A    between atoms: C7_7  and  C9_9 
ROOT
HETATM    1  C9  UNL     1      -2.365  -0.508  -0.373  1.00  0.00    -0.002 C 
HETATM    2  C10 UNL     1      -2.141  -1.917  -1.000  1.00  0.00     0.007 C 
HETATM    3  C11 UNL     1      -0.657  -2.250  -0.853  1.00  0.00     0.015 C 
HETATM    4  C12 UNL     1       0.030  -0.876  -0.913  1.00  0.00    -0.013 C 
HETATM    5  C13 UNL     1       0.043  -0.431  -2.405  1.00  0.00     0.021 C 
HETATM    6  C14 UNL     1       1.465  -0.791  -0.422  1.00  0.00    -0.070 C 
HETATM    7  C15 UNL     1       2.290  -1.845  -0.321  1.00  0.00    -0.022 C 
HETATM    8  C16 UNL     1       3.670  -1.717   0.239  1.00  0.00     0.034 C 
HETATM    9  C17 UNL     1       4.406  -0.386  -0.079  1.00  0.00     0.013 C 
HETATM   10  C18 UNL     1       5.510  -0.059   0.988  1.00  0.00     0.018 C 
HETATM   11  C19 UNL     1       4.973   0.153   2.415  1.00  0.00     0.023 C 
HETATM   12  C20 UNL     1       6.542  -1.214   1.050  1.00  0.00     0.023 C 
HETATM   13  C21 UNL     1       6.259   1.206   0.545  1.00  0.00     0.135 C 
HETATM   14  O1  UNL     1       7.488   1.326   0.651  1.00  0.00    -0.297 OA
HETATM   15  C22 UNL     1       5.467   2.356  -0.031  1.00  0.00     0.080 C 
HETATM   16  C23 UNL     1       3.965   2.172   0.080  1.00  0.00     0.017 C 
HETATM   17  C24 UNL     1       3.449   0.819  -0.473  1.00  0.00    -0.031 C 
HETATM   18  C25 UNL     1       3.471   0.922  -2.030  1.00  0.00     0.016 C 
HETATM   19  C26 UNL     1       1.975   0.568   0.039  1.00  0.00     0.024 C 
HETATM   20  C27 UNL     1       0.995   1.747  -0.217  1.00  0.00     0.010 C 
HETATM   21  C28 UNL     1      -0.524   1.460  -0.141  1.00  0.00     0.011 C 
HETATM   22  C29 UNL     1      -0.906  -0.023   0.009  1.00  0.00    -0.029 C 
HETATM   23  C30 UNL     1      -0.764  -0.376   1.530  1.00  0.00     0.016 C 
ENDROOT
BRANCH   1  24
HETATM   24  C7  UNL     1      -3.285   0.435  -1.214  1.00  0.00    -0.014 C 
HETATM   25  C8  UNL     1      -3.760   1.646  -0.392  1.00  0.00     0.010 C 
BRANCH  24  26
HETATM   26  C6  UNL     1      -4.514  -0.267  -1.861  1.00  0.00     0.008 C 
BRANCH  26  27
HETATM   27  C5  UNL     1      -5.461  -1.058  -0.939  1.00  0.00     0.028 C 
BRANCH  27  28
HETATM   28  C4  UNL     1      -6.386  -0.193  -0.130  1.00  0.00    -0.025 C 
HETATM   29  C2  UNL     1      -6.552  -0.161   1.209  1.00  0.00    -0.091 C 
HETATM   30  C1  UNL     1      -5.813  -1.016   2.201  1.00  0.00     0.042 C 
HETATM   31  C3  UNL     1      -7.538   0.797   1.833  1.00  0.00     0.042 C 
ENDBRANCH  27  28
ENDBRANCH  26  27
ENDBRANCH  24  26
ENDBRANCH   1  24
TORSDOF 4
