REMARK  9 active torsions:
REMARK  status: ('A' for Active; 'I' for Inactive)
REMARK    1  A    between atoms: C3_3  and  O1_4 
REMARK    2  A    between atoms: N1_14  and  O2_16 
REMARK    3  A    between atoms: O2_16  and  C13_17 
REMARK    4  A    between atoms: C13_17  and  C14_18 
REMARK       I    between atoms: C14_18  and  N2_20 
REMARK    5  A    between atoms: N2_20  and  C15_21 
REMARK    6  A    between atoms: C15_21  and  C16_22 
REMARK    7  A    between atoms: C15_21  and  C18_26 
REMARK    8  A    between atoms: C16_22  and  C17_23 
REMARK    9  A    between atoms: C17_23  and  O5_25 
ROOT
HETATM    1  C1  UNL     1      -8.643  -2.801  -0.832  1.00  0.00     0.015 C 
HETATM    2  C2  UNL     1      -8.357  -1.644  -0.690  1.00  0.00    -0.078 C 
HETATM    3  C3  UNL     1      -8.027  -0.218  -0.539  1.00  0.00     0.128 C 
HETATM    4  C4  UNL     1      -7.202   0.301  -1.712  1.00  0.00     0.052 C 
HETATM    5  C5  UNL     1      -6.652   1.626  -1.206  1.00  0.00     0.010 C 
HETATM    6  C6  UNL     1      -6.456   1.473   0.317  1.00  0.00     0.002 C 
HETATM    7  C7  UNL     1      -4.981   1.514   0.783  1.00  0.00    -0.004 C 
HETATM    8  C8  UNL     1      -4.317   2.866   0.477  1.00  0.00     0.010 C 
HETATM    9  C9  UNL     1      -2.891   2.913   1.009  1.00  0.00     0.035 C 
HETATM   10  C10 UNL     1      -2.060   1.761   0.492  1.00  0.00    -0.069 C 
HETATM   11  C11 UNL     1      -0.869   2.005  -0.082  1.00  0.00     0.030 C 
HETATM   12  C12 UNL     1       0.042   0.908  -0.497  1.00  0.00     0.032 C 
HETATM   13  N1  UNL     1       1.136   1.232  -1.124  1.00  0.00    -0.271 N 
ATOM     14  H1  UNL     1       1.381   2.185  -1.393  1.00  0.00     0.194 HD
HETATM   15  C25 UNL     1      -0.342  -0.503  -0.106  1.00  0.00     0.060 C 
HETATM   16  C26 UNL     1      -1.854  -0.672  -0.186  1.00  0.00     0.020 C 
HETATM   17  C27 UNL     1      -2.647   0.355   0.676  1.00  0.00    -0.016 C 
HETATM   18  C28 UNL     1      -2.517  -0.029   2.168  1.00  0.00     0.020 C 
HETATM   19  C29 UNL     1      -4.148   0.349   0.189  1.00  0.00     0.002 C 
HETATM   20  C30 UNL     1      -4.866  -1.010   0.352  1.00  0.00     0.007 C 
HETATM   21  C31 UNL     1      -6.150  -0.936   1.171  1.00  0.00     0.014 C 
HETATM   22  C32 UNL     1      -7.181   0.143   0.726  1.00  0.00     0.003 C 
HETATM   23  C33 UNL     1      -8.096   0.401   1.948  1.00  0.00     0.020 C 
ENDROOT
BRANCH   3  24
HETATM   24  O1  UNL     1      -9.252   0.525  -0.539  1.00  0.00    -0.377 OA
HETATM   25  H2  UNL     1      -9.803   0.164  -1.254  1.00  0.00     0.211 HD
ENDBRANCH   3  24
BRANCH  13  26
HETATM   26  O2  UNL     1       1.937   0.111  -1.385  1.00  0.00    -0.271 OA
BRANCH  26  27
HETATM   27  C13 UNL     1       2.958   0.477  -2.308  1.00  0.00     0.303 C 
BRANCH  27  28
HETATM   28  C14 UNL     1       4.122  -0.503  -2.227  1.00  0.00     0.244 C 
HETATM   29  O3  UNL     1       4.833  -0.763  -3.194  1.00  0.00    -0.271 OA
HETATM   30  N2  UNL     1       4.348  -1.009  -0.965  1.00  0.00    -0.354 N 
HETATM   31  H16 UNL     1       3.711  -0.722  -0.222  1.00  0.00     0.162 HD
BRANCH  30  32
HETATM   32  C15 UNL     1       5.451  -1.905  -0.626  1.00  0.00     0.098 C 
BRANCH  32  33
HETATM   33  C16 UNL     1       4.919  -3.078   0.213  1.00  0.00     0.135 C 
BRANCH  33  34
HETATM   34  C17 UNL     1       4.550  -2.704   1.621  1.00  0.00     0.141 C 
HETATM   35  O4  UNL     1       4.998  -3.211   2.636  1.00  0.00    -0.650 OA
BRANCH  34  36
HETATM   36  O5  UNL     1       3.607  -1.744   1.696  1.00  0.00    -0.776 OA
HETATM   37  H20 UNL     1       3.464  -1.637   2.662  1.00  0.00     0.167 HD
ENDBRANCH  34  36
ENDBRANCH  33  34
ENDBRANCH  32  33
BRANCH  32  38
HETATM   38  C18 UNL     1       6.624  -1.128   0.034  1.00  0.00     0.014 C 
HETATM   39  C19 UNL     1       7.774  -2.065   0.456  1.00  0.00     0.033 C 
HETATM   40  C20 UNL     1       9.140  -1.385   0.432  1.00  0.00     0.169 C 
HETATM   41  O6  UNL     1       9.020  -0.018   0.799  1.00  0.00    -0.381 OA
HETATM   42  C21 UNL     1       8.304   0.780  -0.158  1.00  0.00     0.054 C 
HETATM   43  C22 UNL     1       7.691   1.938   0.641  1.00  0.00     0.045 C 
HETATM   44  C23 UNL     1       9.298   1.353  -1.175  1.00  0.00     0.045 C 
HETATM   45  C24 UNL     1       7.194  -0.024  -0.875  1.00  0.00     0.044 C 
ENDBRANCH  32  38
ENDBRANCH  30  32
ENDBRANCH  27  28
ENDBRANCH  26  27
ENDBRANCH  13  26
TORSDOF 9
