REMARK  10 active torsions:
REMARK  status: ('A' for Active; 'I' for Inactive)
REMARK    1  A    between atoms: C2_2  and  O1_4 
REMARK    2  A    between atoms: C2_2  and  C4_5 
REMARK    3  A    between atoms: C4_5  and  O2_6 
REMARK    4  A    between atoms: C4_5  and  C5_7 
REMARK    5  A    between atoms: C5_7  and  O3_8 
REMARK    6  A    between atoms: C5_7  and  C6_9 
REMARK    7  A    between atoms: C6_9  and  C7_10 
REMARK    8  A    between atoms: C7_10  and  C8_11 
REMARK    9  A    between atoms: C7_10  and  C9_13 
REMARK   10  A    between atoms: C8_11  and  O4_12 
ROOT
HETATM    1  C9  UNL     1      -1.612   0.574   0.569  1.00  0.00     0.001 C 
HETATM    2  C10 UNL     1      -1.645   1.500  -0.685  1.00  0.00     0.007 C 
HETATM    3  C11 UNL     1      -0.191   1.762  -1.115  1.00  0.00     0.015 C 
HETATM    4  C12 UNL     1       0.666   1.262   0.063  1.00  0.00    -0.013 C 
HETATM    5  C13 UNL     1       0.705   2.423   1.107  1.00  0.00     0.021 C 
HETATM    6  C14 UNL     1       2.121   0.904  -0.218  1.00  0.00    -0.070 C 
HETATM    7  C15 UNL     1       2.858   1.553  -1.140  1.00  0.00    -0.022 C 
HETATM    8  C16 UNL     1       4.314   1.297  -1.400  1.00  0.00     0.034 C 
HETATM    9  C17 UNL     1       4.873   0.051  -0.677  1.00  0.00     0.013 C 
HETATM   10  C18 UNL     1       6.415  -0.159  -0.881  1.00  0.00     0.018 C 
HETATM   11  C19 UNL     1       6.682  -0.539  -2.359  1.00  0.00     0.023 C 
HETATM   12  C20 UNL     1       7.303   1.054  -0.565  1.00  0.00     0.023 C 
HETATM   13  C21 UNL     1       6.894  -1.328  -0.005  1.00  0.00     0.135 C 
HETATM   14  O5  UNL     1       7.713  -2.158  -0.404  1.00  0.00    -0.297 OA
HETATM   15  C22 UNL     1       6.409  -1.372   1.424  1.00  0.00     0.080 C 
HETATM   16  C23 UNL     1       4.893  -1.312   1.469  1.00  0.00     0.017 C 
HETATM   17  C24 UNL     1       4.307  -0.048   0.792  1.00  0.00    -0.031 C 
HETATM   18  C25 UNL     1       4.632   1.186   1.667  1.00  0.00     0.016 C 
HETATM   19  C26 UNL     1       2.736  -0.207   0.643  1.00  0.00     0.024 C 
HETATM   20  C27 UNL     1       1.965  -0.439   1.965  1.00  0.00     0.010 C 
HETATM   21  C28 UNL     1       0.425  -0.525   1.841  1.00  0.00     0.011 C 
HETATM   22  C29 UNL     1      -0.151  -0.001   0.510  1.00  0.00    -0.029 C 
HETATM   23  C30 UNL     1      -0.125  -1.157  -0.542  1.00  0.00     0.016 C 
ENDROOT
BRANCH   1  24
HETATM   24  C7  UNL     1      -2.813  -0.424   0.622  1.00  0.00     0.016 C 
BRANCH  24  25
HETATM   25  C6  UNL     1      -4.181   0.303   0.476  1.00  0.00     0.041 C 
BRANCH  25  26
HETATM   26  C5  UNL     1      -5.282  -0.604  -0.125  1.00  0.00     0.150 C 
BRANCH  26  27
HETATM   27  C4  UNL     1      -6.673   0.093  -0.205  1.00  0.00     0.180 C 
BRANCH  27  28
HETATM   28  C2  UNL     1      -7.654  -0.562  -1.225  1.00  0.00     0.079 C 
HETATM   29  C1  UNL     1      -9.037   0.102  -1.136  1.00  0.00     0.048 C 
HETATM   30  C3  UNL     1      -7.810  -2.074  -1.063  1.00  0.00     0.048 C 
BRANCH  28  31
HETATM   31  O1  UNL     1      -7.158  -0.312  -2.550  1.00  0.00    -0.388 OA
HETATM   32  H7  UNL     1      -6.917   0.637  -2.556  1.00  0.00     0.210 HD
ENDBRANCH  28  31
ENDBRANCH  27  28
BRANCH  27  33
HETATM   33  O2  UNL     1      -6.526   1.471  -0.600  1.00  0.00    -0.390 OA
HETATM   34  H9  UNL     1      -6.238   1.972   0.183  1.00  0.00     0.210 HD
ENDBRANCH  27  33
ENDBRANCH  26  27
BRANCH  26  35
HETATM   35  O3  UNL     1      -5.369  -1.812   0.639  1.00  0.00    -0.393 OA
HETATM   36  H11 UNL     1      -5.818  -1.616   1.479  1.00  0.00     0.210 HD
ENDBRANCH  26  35
ENDBRANCH  25  26
ENDBRANCH  24  25
BRANCH  24  37
HETATM   37  C8  UNL     1      -2.811  -1.249   1.925  1.00  0.00     0.169 C 
BRANCH  37  38
HETATM   38  O4  UNL     1      -2.541  -2.616   1.641  1.00  0.00    -0.400 OA
HETATM   39  H17 UNL     1      -3.269  -2.923   1.064  1.00  0.00     0.209 HD
ENDBRANCH  37  38
ENDBRANCH  24  37
ENDBRANCH   1  24
TORSDOF 10
