REMARK  6 active torsions:
REMARK  status: ('A' for Active; 'I' for Inactive)
REMARK    1  A    between atoms: C10_10  and  O1_12 
REMARK    2  A    between atoms: C12_13  and  C14_15 
REMARK    3  A    between atoms: C14_15  and  O2_16 
REMARK    4  A    between atoms: C15_17  and  C16_18 
REMARK    5  A    between atoms: C16_18  and  C17_19 
REMARK    6  A    between atoms: C21_25  and  O5_26 
ROOT
HETATM    1  C1  UNL     1       0.804  -1.514  -2.677  1.00  0.00     0.015 C 
HETATM    2  C2  UNL     1       0.662  -0.400  -1.940  1.00  0.00    -0.084 C 
HETATM    3  C3  UNL     1       0.051   0.855  -2.534  1.00  0.00     0.034 C 
HETATM    4  C4  UNL     1      -1.008   1.481  -1.605  1.00  0.00     0.010 C 
HETATM    5  C5  UNL     1      -1.535   0.442  -0.590  1.00  0.00     0.008 C 
HETATM    6  C6  UNL     1      -0.366  -0.004   0.382  1.00  0.00    -0.032 C 
HETATM    7  C7  UNL     1       0.013   1.063   1.442  1.00  0.00     0.016 C 
HETATM    8  C8  UNL     1      -0.864  -1.273   1.116  1.00  0.00     0.013 C 
HETATM    9  C9  UNL     1      -2.217  -1.084   1.817  1.00  0.00     0.039 C 
HETATM   10  C10 UNL     1      -3.348  -0.609   0.881  1.00  0.00     0.064 C 
HETATM   11  C11 UNL     1      -4.634  -0.474   1.715  1.00  0.00     0.046 C 
HETATM   12  C12 UNL     1      -2.953   0.695   0.067  1.00  0.00     0.012 C 
HETATM   13  C13 UNL     1      -3.978   0.917  -1.089  1.00  0.00     0.021 C 
HETATM   14  C15 UNL     1       0.979  -0.249  -0.454  1.00  0.00     0.025 C 
ENDROOT
BRANCH  14  15
HETATM   15  C16 UNL     1       1.927  -1.310   0.167  1.00  0.00     0.037 C 
BRANCH  15  16
HETATM   16  C17 UNL     1       3.314  -1.295  -0.435  1.00  0.00    -0.010 C 
HETATM   17  C18 UNL     1       4.417  -0.717   0.069  1.00  0.00     0.044 C 
HETATM   18  C19 UNL     1       4.539   0.046   1.335  1.00  0.00     0.291 C 
HETATM   19  C21 UNL     1       5.767  -0.754  -0.543  1.00  0.00     0.181 C 
HETATM   20  O3  UNL     1       3.628   0.467   2.023  1.00  0.00    -0.260 OA
HETATM   21  O4  UNL     1       5.863   0.214   1.607  1.00  0.00    -0.315 OA
HETATM   22  C20 UNL     1       6.651  -0.522   0.664  1.00  0.00     0.215 C 
BRANCH  19  23
HETATM   23  O5  UNL     1       5.903   0.311  -1.478  1.00  0.00    -0.389 OA
HETATM   24  H32 UNL     1       5.114   0.308  -2.049  1.00  0.00     0.210 HD
ENDBRANCH  19  23
ENDBRANCH  15  16
ENDBRANCH  14  15
BRANCH  12  25
HETATM   25  C14 UNL     1      -3.052   1.956   0.964  1.00  0.00     0.176 C 
BRANCH  25  26
HETATM   26  O2  UNL     1      -2.513   3.107   0.333  1.00  0.00    -0.400 OA
HETATM   27  H24 UNL     1      -2.557   3.837   0.974  1.00  0.00     0.209 HD
ENDBRANCH  25  26
ENDBRANCH  12  25
BRANCH  10  28
HETATM   28  O1  UNL     1      -3.568  -1.703  -0.029  1.00  0.00    -0.389 OA
HETATM   29  H18 UNL     1      -4.402  -1.548  -0.503  1.00  0.00     0.210 HD
ENDBRANCH  10  28
TORSDOF 6
