REMARK  8 active torsions:
REMARK  status: ('A' for Active; 'I' for Inactive)
REMARK    1  A    between atoms: C3_3  and  C4_4 
REMARK    2  A    between atoms: C4_4  and  O1_5 
REMARK    3  A    between atoms: C6_9  and  C7_10 
REMARK    4  A    between atoms: C7_10  and  O4_12 
REMARK    5  A    between atoms: C7_10  and  C9_13 
REMARK    6  A    between atoms: C9_13  and  O5_14 
REMARK    7  A    between atoms: C12_17  and  O6_18 
REMARK    8  A    between atoms: C27_34  and  O8_35 
ROOT
HETATM    1  C9  UNL     1      -1.553  -1.961   0.137  1.00  0.00     0.101 C 
HETATM    2  C10 UNL     1      -0.944  -3.182   0.938  1.00  0.00     0.045 C 
HETATM    3  C11 UNL     1       0.588  -3.104   0.864  1.00  0.00     0.045 C 
HETATM    4  C12 UNL     1       0.851  -1.616   0.696  1.00  0.00     0.100 C 
HETATM    5  C13 UNL     1      -0.221  -1.222  -0.383  1.00  0.00     0.024 C 
HETATM    6  C14 UNL     1       0.097  -1.770  -1.818  1.00  0.00     0.022 C 
HETATM    7  C15 UNL     1      -0.190   0.312  -0.475  1.00  0.00     0.016 C 
HETATM    8  C16 UNL     1       1.216   0.850  -0.827  1.00  0.00     0.010 C 
HETATM    9  C17 UNL     1       2.341   0.373   0.138  1.00  0.00     0.043 C 
HETATM   10  C18 UNL     1       3.784   0.912  -0.222  1.00  0.00     0.046 C 
HETATM   11  C19 UNL     1       4.088   0.880  -1.733  1.00  0.00     0.029 C 
HETATM   12  C20 UNL     1       3.865   2.398   0.227  1.00  0.00     0.140 C 
HETATM   13  O7  UNL     1       3.037   3.243  -0.123  1.00  0.00    -0.297 OA
HETATM   14  C21 UNL     1       5.018   2.813   1.122  1.00  0.00     0.080 C 
HETATM   15  C22 UNL     1       6.314   2.251   0.564  1.00  0.00     0.012 C 
HETATM   16  C23 UNL     1       6.291   0.725   0.479  1.00  0.00     0.035 C 
HETATM   17  C24 UNL     1       4.888   0.158   0.545  1.00  0.00    -0.067 C 
HETATM   18  C25 UNL     1       4.645  -0.916   1.318  1.00  0.00    -0.020 C 
HETATM   19  C26 UNL     1       3.296  -1.549   1.484  1.00  0.00     0.069 C 
HETATM   20  C27 UNL     1       2.311  -1.180   0.346  1.00  0.00     0.098 C 
ENDROOT
BRANCH   1  21
HETATM   21  C7  UNL     1      -2.620  -1.178   1.029  1.00  0.00     0.113 C 
HETATM   22  C8  UNL     1      -3.716  -2.153   1.544  1.00  0.00     0.052 C 
BRANCH  21  23
HETATM   23  C6  UNL     1      -3.323   0.063   0.371  1.00  0.00     0.173 C 
HETATM   24  O3  UNL     1      -4.174   0.649   1.397  1.00  0.00    -0.309 OA
HETATM   25  C5  UNL     1      -5.002   1.682   1.104  1.00  0.00     0.292 C 
HETATM   26  C3  UNL     1      -5.234   1.976  -0.338  1.00  0.00     0.042 C 
HETATM   27  O2  UNL     1      -5.563   2.302   1.998  1.00  0.00    -0.260 OA
HETATM   28  C2  UNL     1      -4.898   1.058  -1.272  1.00  0.00    -0.067 C 
HETATM   29  C1  UNL     1      -5.201   1.171  -2.742  1.00  0.00     0.044 C 
HETATM   30  C28 UNL     1      -4.156  -0.197  -0.879  1.00  0.00     0.070 C 
BRANCH  26  31
HETATM   31  C4  UNL     1      -5.957   3.265  -0.610  1.00  0.00     0.209 C 
BRANCH  31  32
HETATM   32  O1  UNL     1      -5.050   4.220  -1.154  1.00  0.00    -0.396 OA
HETATM   33  H6  UNL     1      -4.628   3.821  -1.931  1.00  0.00     0.209 HD
ENDBRANCH  31  32
ENDBRANCH  26  31
ENDBRANCH  21  23
BRANCH  21  34
HETATM   34  O4  UNL     1      -1.950  -0.681   2.209  1.00  0.00    -0.384 OA
HETATM   35  H11 UNL     1      -2.616  -0.153   2.700  1.00  0.00     0.210 HD
ENDBRANCH  21  34
ENDBRANCH   1  21
BRANCH   1  36
HETATM   36  O5  UNL     1      -2.295  -2.581  -0.932  1.00  0.00    -0.386 OA
HETATM   37  H12 UNL     1      -2.264  -2.032  -1.728  1.00  0.00     0.210 HD
ENDBRANCH   1  36
BRANCH   4  38
HETATM   38  O6  UNL     1       0.584  -1.002   1.974  1.00  0.00    -0.386 OA
HETATM   39  H17 UNL     1      -0.379  -0.923   2.140  1.00  0.00     0.210 HD
ENDBRANCH   4  38
BRANCH  20  40
HETATM   40  O8  UNL     1       2.763  -1.837  -0.847  1.00  0.00    -0.386 OA
HETATM   41  H38 UNL     1       3.081  -2.724  -0.609  1.00  0.00     0.210 HD
ENDBRANCH  20  40
TORSDOF 8
