REMARK  11 active torsions:
REMARK  status: ('A' for Active; 'I' for Inactive)
REMARK    1  A    between atoms: C2_2  and  C3_3 
REMARK    2  A    between atoms: C2_2  and  C4_5 
REMARK    3  A    between atoms: C3_3  and  O1_4 
REMARK    4  A    between atoms: C13_14  and  C14_15 
REMARK    5  A    between atoms: C14_15  and  C16_17 
REMARK    6  A    between atoms: C16_17  and  C17_18 
REMARK    7  A    between atoms: C17_18  and  C18_19 
REMARK    8  A    between atoms: C27_28  and  C28_29 
REMARK    9  A    between atoms: C28_29  and  C29_30 
REMARK   10  A    between atoms: C29_30  and  C30_31 
REMARK   11  A    between atoms: C30_31  and  O3_33 
ROOT
HETATM    1  C4  UNL     1      -4.385  -0.123   0.023  1.00  0.00     0.025 C 
HETATM    2  C5  UNL     1      -4.252  -1.578   0.509  1.00  0.00     0.010 C 
HETATM    3  C6  UNL     1      -2.834  -2.140   0.623  1.00  0.00     0.007 C 
HETATM    4  C7  UNL     1      -1.690  -1.279   0.048  1.00  0.00     0.004 C 
HETATM    5  C8  UNL     1      -1.793   0.163   0.595  1.00  0.00    -0.027 A 
HETATM    6  C9  UNL     1      -0.728   0.558   1.617  1.00  0.00     0.011 C 
HETATM    7  C10 UNL     1       0.729   0.219   1.214  1.00  0.00     0.011 C 
HETATM    8  C11 UNL     1       0.846  -0.821   0.086  1.00  0.00    -0.032 C 
HETATM    9  C12 UNL     1       0.768  -0.079  -1.275  1.00  0.00     0.016 C 
HETATM   10  C13 UNL     1       2.137  -1.700   0.104  1.00  0.00    -0.002 C 
HETATM   11  C22 UNL     1       1.712  -2.962  -0.692  1.00  0.00     0.006 C 
HETATM   12  C23 UNL     1       0.165  -2.977  -0.722  1.00  0.00     0.011 C 
HETATM   13  C24 UNL     1      -0.271  -1.907   0.300  1.00  0.00    -0.032 C 
HETATM   14  C25 UNL     1      -0.210  -2.618   1.698  1.00  0.00     0.016 C 
HETATM   15  C26 UNL     1      -2.212   1.298  -0.320  1.00  0.00     0.022 A 
HETATM   16  C27 UNL     1      -3.243   0.739   0.626  1.00  0.00    -0.024 A 
ENDROOT
BRANCH  10  17
HETATM   17  C14 UNL     1       3.517  -1.064  -0.259  1.00  0.00    -0.014 C 
HETATM   18  C15 UNL     1       4.619  -1.812   0.516  1.00  0.00     0.010 C 
BRANCH  17  19
HETATM   19  C16 UNL     1       3.877  -1.033  -1.766  1.00  0.00     0.008 C 
BRANCH  19  20
HETATM   20  C17 UNL     1       5.174  -0.285  -2.131  1.00  0.00     0.028 C 
BRANCH  20  21
HETATM   21  C18 UNL     1       5.229   1.124  -1.608  1.00  0.00    -0.025 C 
HETATM   22  C19 UNL     1       6.195   1.696  -0.860  1.00  0.00    -0.091 C 
HETATM   23  C20 UNL     1       6.067   3.133  -0.418  1.00  0.00     0.042 C 
HETATM   24  C21 UNL     1       7.462   1.029  -0.397  1.00  0.00     0.042 C 
ENDBRANCH  20  21
ENDBRANCH  19  20
ENDBRANCH  17  19
ENDBRANCH  10  17
BRANCH  16  25
HETATM   25  C28 UNL     1      -3.669   1.569   1.835  1.00  0.00     0.021 C 
BRANCH  25  26
HETATM   26  C29 UNL     1      -4.561   2.753   1.462  1.00  0.00     0.111 C 
BRANCH  26  27
HETATM   27  C30 UNL     1      -5.004   3.505   2.685  1.00  0.00     0.139 C 
HETATM   28  O2  UNL     1      -4.710   3.284   3.848  1.00  0.00    -0.650 OA
BRANCH  27  29
HETATM   29  O3  UNL     1      -5.828   4.528   2.375  1.00  0.00    -0.776 OA
HETATM   30  H48 UNL     1      -6.052   4.914   3.247  1.00  0.00     0.167 HD
ENDBRANCH  27  29
ENDBRANCH  26  27
ENDBRANCH  25  26
ENDBRANCH  16  25
BRANCH   1  31
HETATM   31  C2  UNL     1      -4.678   0.027  -1.481  1.00  0.00    -0.061 C 
HETATM   32  C1  UNL     1      -4.324  -0.873  -2.419  1.00  0.00     0.017 C 
BRANCH  31  33
HETATM   33  C3  UNL     1      -5.506   1.225  -1.882  1.00  0.00     0.198 C 
BRANCH  33  34
HETATM   34  O1  UNL     1      -4.751   2.412  -1.723  1.00  0.00    -0.397 OA
HETATM   35  H5  UNL     1      -5.326   3.149  -1.989  1.00  0.00     0.209 HD
ENDBRANCH  33  34
ENDBRANCH  31  33
ENDBRANCH   1  31
TORSDOF 11
