REMARK  8 active torsions:
REMARK  status: ('A' for Active; 'I' for Inactive)
REMARK    1  A    between atoms: C4_5  and  C5_6 
REMARK    2  A    between atoms: C5_6  and  O2_7 
REMARK    3  A    between atoms: C5_6  and  C6_8 
REMARK    4  A    between atoms: C6_8  and  O3_10 
REMARK    5  A    between atoms: C6_8  and  C8_11 
REMARK    6  A    between atoms: C15_19  and  C16_20 
REMARK    7  A    between atoms: C38_44  and  C39_45 
REMARK    8  A    between atoms: C39_45  and  O7_46 
ROOT
HETATM    1  C8  UNL     1      -2.162   0.859   0.209  1.00  0.00     0.034 C 
HETATM    2  C9  UNL     1      -2.204   0.178  -1.183  1.00  0.00     0.012 C 
HETATM    3  C10 UNL     1      -0.813   0.348  -1.815  1.00  0.00     0.044 C 
HETATM    4  C11 UNL     1       0.124   0.657  -0.628  1.00  0.00     0.093 C 
HETATM    5  O4  UNL     1       0.332  -0.542   0.157  1.00  0.00    -0.363 OA
HETATM    6  C12 UNL     1       0.894  -1.670  -0.525  1.00  0.00     0.263 C 
HETATM    7  C13 UNL     1       2.139  -2.114   0.121  1.00  0.00    -0.080 C 
HETATM    8  C14 UNL     1       3.189  -2.470   0.585  1.00  0.00    -0.093 C 
HETATM    9  C15 UNL     1       4.513  -2.829   1.156  1.00  0.00     0.121 C 
HETATM   10  C22 UNL     1       5.659  -2.079   0.420  1.00  0.00     0.190 C 
HETATM   11  O5  UNL     1       5.961  -0.789   0.986  1.00  0.00    -0.384 OA
HETATM   12  C23 UNL     1       5.022   0.240   0.679  1.00  0.00     0.122 C 
HETATM   13  C24 UNL     1       5.067   1.280   1.797  1.00  0.00     0.033 C 
HETATM   14  C25 UNL     1       4.428   2.625   1.441  1.00  0.00     0.013 C 
HETATM   15  C26 UNL     1       3.506   2.609   0.193  1.00  0.00    -0.026 C 
HETATM   16  C27 UNL     1       3.175   4.089  -0.144  1.00  0.00     0.016 C 
HETATM   17  C28 UNL     1       4.343   2.050  -0.996  1.00  0.00     0.071 C 
HETATM   18  C29 UNL     1       5.276   0.864  -0.686  1.00  0.00     0.045 C 
HETATM   19  C30 UNL     1       3.489   1.749  -2.207  1.00  0.00     0.154 C 
HETATM   20  O6  UNL     1       3.936   1.831  -3.348  1.00  0.00    -0.293 OA
HETATM   21  C31 UNL     1       2.091   1.309  -2.031  1.00  0.00     0.057 C 
HETATM   22  C32 UNL     1       1.500   1.278  -0.826  1.00  0.00    -0.036 C 
HETATM   23  C33 UNL     1       2.181   1.776   0.459  1.00  0.00     0.026 C 
HETATM   24  C34 UNL     1       1.218   2.492   1.452  1.00  0.00     0.011 C 
HETATM   25  C35 UNL     1      -0.170   1.853   1.576  1.00  0.00     0.014 C 
HETATM   26  C36 UNL     1      -0.798   1.644   0.184  1.00  0.00    -0.002 C 
HETATM   27  C37 UNL     1      -0.942   3.024  -0.521  1.00  0.00     0.019 C 
ENDROOT
BRANCH   1  28
HETATM   28  C6  UNL     1      -3.491   1.565   0.668  1.00  0.00     0.087 C 
HETATM   29  C7  UNL     1      -4.050   2.610  -0.302  1.00  0.00     0.049 C 
BRANCH  28  30
HETATM   30  C5  UNL     1      -4.626   0.571   1.120  1.00  0.00     0.181 C 
BRANCH  30  31
HETATM   31  C4  UNL     1      -5.340  -0.287   0.062  1.00  0.00     0.159 C 
HETATM   32  O1  UNL     1      -6.087  -1.333   0.747  1.00  0.00    -0.382 OA
HETATM   33  C3  UNL     1      -6.928  -1.939  -0.250  1.00  0.00     0.173 C 
HETATM   34  C2  UNL     1      -7.136  -0.908  -1.361  1.00  0.00     0.014 C 
HETATM   35  C1  UNL     1      -6.589  -1.393  -2.709  1.00  0.00     0.012 C 
HETATM   36  C38 UNL     1      -6.403   0.341  -0.837  1.00  0.00     0.046 C 
BRANCH  36  37
HETATM   37  C39 UNL     1      -7.399   1.232  -0.092  1.00  0.00     0.172 C 
BRANCH  37  38
HETATM   38  O7  UNL     1      -8.245   1.869  -1.047  1.00  0.00    -0.400 OA
HETATM   39  H52 UNL     1      -9.122   1.447  -1.003  1.00  0.00     0.209 HD
ENDBRANCH  37  38
ENDBRANCH  36  37
ENDBRANCH  30  31
BRANCH  30  40
HETATM   40  O2  UNL     1      -4.063  -0.328   2.105  1.00  0.00    -0.390 OA
HETATM   41  H9  UNL     1      -4.745  -1.019   2.230  1.00  0.00     0.210 HD
ENDBRANCH  30  40
ENDBRANCH  28  30
BRANCH  28  42
HETATM   42  O3  UNL     1      -3.167   2.299   1.870  1.00  0.00    -0.387 OA
HETATM   43  H13 UNL     1      -3.101   1.617   2.570  1.00  0.00     0.210 HD
ENDBRANCH  28  42
ENDBRANCH   1  28
BRANCH   9  44
HETATM   44  C16 UNL     1       4.691  -4.340   1.135  1.00  0.00    -0.040 A 
HETATM   45  C17 UNL     1       4.991  -5.036  -0.042  1.00  0.00     0.008 A 
HETATM   46  C18 UNL     1       5.131  -6.426  -0.037  1.00  0.00     0.001 A 
HETATM   47  C19 UNL     1       4.946  -7.144   1.144  1.00  0.00     0.000 A 
HETATM   48  C20 UNL     1       4.636  -6.471   2.323  1.00  0.00     0.001 A 
HETATM   49  C21 UNL     1       4.513  -5.078   2.321  1.00  0.00     0.008 A 
ENDBRANCH   9  44
TORSDOF 8
