REMARK  12 active torsions:
REMARK  status: ('A' for Active; 'I' for Inactive)
REMARK    1  A    between atoms: C3_3  and  O1_4 
REMARK    2  A    between atoms: N1_14  and  O2_16 
REMARK    3  A    between atoms: O2_16  and  C13_17 
REMARK    4  A    between atoms: C13_17  and  C14_18 
REMARK       I    between atoms: C14_18  and  N2_20 
REMARK    5  A    between atoms: N2_20  and  C15_21 
REMARK    6  A    between atoms: C15_21  and  C16_22 
REMARK    7  A    between atoms: C15_21  and  C27_38 
REMARK       I    between atoms: C16_22  and  N3_24 
REMARK    8  A    between atoms: N3_24  and  C17_25 
REMARK    9  A    between atoms: C17_25  and  C18_26 
REMARK   10  A    between atoms: C17_25  and  C20_30 
REMARK   11  A    between atoms: C18_26  and  C19_27 
REMARK   12  A    between atoms: C19_27  and  O6_29 
ROOT
HETATM    1  C1  UNL     1     -11.053  -2.126   1.950  1.00  0.00     0.015 C 
HETATM    2  C2  UNL     1     -10.358  -1.148   1.876  1.00  0.00    -0.078 C 
HETATM    3  C3  UNL     1      -9.527   0.076   1.830  1.00  0.00     0.128 C 
HETATM    4  C4  UNL     1      -8.523   0.040   2.997  1.00  0.00     0.052 C 
HETATM    5  C5  UNL     1      -7.229  -0.564   2.425  1.00  0.00     0.010 C 
HETATM    6  C6  UNL     1      -7.468  -0.795   0.919  1.00  0.00     0.002 C 
HETATM    7  C7  UNL     1      -6.228  -0.673   0.014  1.00  0.00    -0.004 C 
HETATM    8  C8  UNL     1      -5.100  -1.602   0.485  1.00  0.00     0.010 C 
HETATM    9  C9  UNL     1      -3.939  -1.602  -0.501  1.00  0.00     0.035 C 
HETATM   10  C10 UNL     1      -3.402  -0.212  -0.761  1.00  0.00    -0.069 C 
HETATM   11  C11 UNL     1      -2.071  -0.007  -0.769  1.00  0.00     0.030 C 
HETATM   12  C12 UNL     1      -1.480   1.306  -1.146  1.00  0.00     0.032 C 
HETATM   13  N1  UNL     1      -0.219   1.573  -1.269  1.00  0.00    -0.271 N 
ATOM     14  H1  UNL     1       0.140   2.496  -1.514  1.00  0.00     0.194 HD
HETATM   15  C30 UNL     1      -2.429   2.431  -1.497  1.00  0.00     0.060 C 
HETATM   16  C31 UNL     1      -3.784   2.269  -0.836  1.00  0.00     0.020 C 
HETATM   17  C32 UNL     1      -4.435   0.879  -1.073  1.00  0.00    -0.016 C 
HETATM   18  C33 UNL     1      -4.818   0.727  -2.564  1.00  0.00     0.020 C 
HETATM   19  C34 UNL     1      -5.703   0.773  -0.130  1.00  0.00     0.002 C 
HETATM   20  C35 UNL     1      -6.859   1.707  -0.554  1.00  0.00     0.007 C 
HETATM   21  C36 UNL     1      -8.058   1.623   0.390  1.00  0.00     0.014 C 
HETATM   22  C37 UNL     1      -8.614   0.182   0.566  1.00  0.00     0.003 C 
HETATM   23  C38 UNL     1      -9.337  -0.229  -0.732  1.00  0.00     0.020 C 
ENDROOT
BRANCH   3  24
HETATM   24  O1  UNL     1     -10.407   1.186   1.924  1.00  0.00    -0.377 OA
HETATM   25  H2  UNL     1      -9.933   1.926   2.340  1.00  0.00     0.211 HD
ENDBRANCH   3  24
BRANCH  13  26
HETATM   26  O2  UNL     1       0.603   0.461  -1.031  1.00  0.00    -0.271 OA
BRANCH  26  27
HETATM   27  C13 UNL     1       1.736   0.562  -1.891  1.00  0.00     0.303 C 
BRANCH  27  28
HETATM   28  C14 UNL     1       2.742  -0.564  -1.667  1.00  0.00     0.244 C 
HETATM   29  O3  UNL     1       3.535  -0.913  -2.543  1.00  0.00    -0.271 OA
HETATM   30  N2  UNL     1       2.727  -1.131  -0.409  1.00  0.00    -0.346 N 
HETATM   31  H16 UNL     1       2.271  -0.560   0.302  1.00  0.00     0.163 HD
BRANCH  30  32
HETATM   32  C15 UNL     1       3.862  -1.930   0.034  1.00  0.00     0.180 C 
BRANCH  32  33
HETATM   33  C16 UNL     1       4.881  -0.972   0.688  1.00  0.00     0.241 C 
HETATM   34  O4  UNL     1       4.535   0.056   1.273  1.00  0.00    -0.271 OA
HETATM   35  N3  UNL     1       6.198  -1.383   0.588  1.00  0.00    -0.354 N 
HETATM   36  H18 UNL     1       6.410  -2.148  -0.043  1.00  0.00     0.162 HD
BRANCH  35  37
HETATM   37  C17 UNL     1       7.316  -0.552   1.060  1.00  0.00     0.098 C 
BRANCH  37  38
HETATM   38  C18 UNL     1       8.163  -1.420   2.001  1.00  0.00     0.135 C 
BRANCH  38  39
HETATM   39  C19 UNL     1       8.943  -0.604   2.994  1.00  0.00     0.141 C 
HETATM   40  O5  UNL     1       8.559   0.378   3.607  1.00  0.00    -0.650 OA
BRANCH  39  41
HETATM   41  O6  UNL     1      10.174  -1.116   3.219  1.00  0.00    -0.776 OA
HETATM   42  H22 UNL     1      10.553  -0.527   3.908  1.00  0.00     0.167 HD
ENDBRANCH  39  41
ENDBRANCH  38  39
ENDBRANCH  37  38
BRANCH  37  43
HETATM   43  C20 UNL     1       8.123  -0.022  -0.169  1.00  0.00     0.014 C 
HETATM   44  C21 UNL     1       9.344   0.831   0.221  1.00  0.00     0.033 C 
HETATM   45  C22 UNL     1       9.746   1.755  -0.920  1.00  0.00     0.169 C 
HETATM   46  O7  UNL     1       8.742   2.723  -1.214  1.00  0.00    -0.381 OA
HETATM   47  C23 UNL     1       7.388   2.255  -1.201  1.00  0.00     0.054 C 
HETATM   48  C24 UNL     1       6.690   2.854   0.026  1.00  0.00     0.045 C 
HETATM   49  C25 UNL     1       6.718   2.833  -2.458  1.00  0.00     0.045 C 
HETATM   50  C26 UNL     1       7.272   0.719  -1.228  1.00  0.00     0.044 C 
ENDBRANCH  37  43
ENDBRANCH  35  37
ENDBRANCH  32  33
BRANCH  32  51
HETATM   51  C27 UNL     1       3.478  -3.078   0.992  1.00  0.00     0.009 C 
HETATM   52  C28 UNL     1       2.743  -4.189   0.233  1.00  0.00     0.012 C 
HETATM   53  C29 UNL     1       2.637  -2.631   2.191  1.00  0.00     0.012 C 
ENDBRANCH  32  51
ENDBRANCH  30  32
ENDBRANCH  27  28
ENDBRANCH  26  27
ENDBRANCH  13  26
TORSDOF 12
