REMARK  9 active torsions:
REMARK  status: ('A' for Active; 'I' for Inactive)
REMARK    1  A    between atoms: C2_2  and  C3_3 
REMARK    2  A    between atoms: C2_2  and  C9_12 
REMARK    3  A    between atoms: C3_3  and  C4_4 
REMARK    4  A    between atoms: C4_4  and  C5_5 
REMARK    5  A    between atoms: C5_5  and  O1_6 
REMARK    6  A    between atoms: C5_5  and  C6_7 
REMARK    7  A    between atoms: C6_7  and  O2_9 
REMARK    8  A    between atoms: C6_7  and  C8_10 
REMARK    9  A    between atoms: C8_10  and  O3_11 
ROOT
HETATM    1  C9  UNL     1       1.545   1.029   1.380  1.00  0.00    -0.002 C 
HETATM    2  C10 UNL     1       1.164   2.474   1.805  1.00  0.00     0.007 C 
HETATM    3  C11 UNL     1      -0.347   2.636   1.547  1.00  0.00     0.015 C 
HETATM    4  C12 UNL     1      -0.883   1.200   1.384  1.00  0.00    -0.005 C 
HETATM    5  C13 UNL     1      -1.090   0.629   2.822  1.00  0.00     0.021 C 
HETATM    6  C14 UNL     1      -2.207   0.933   0.681  1.00  0.00    -0.000 C 
HETATM    7  C15 UNL     1      -2.427  -0.238   0.025  1.00  0.00    -0.060 C 
HETATM    8  C16 UNL     1      -1.321  -1.294  -0.085  1.00  0.00     0.036 C 
HETATM    9  C17 UNL     1       0.062  -0.955   0.508  1.00  0.00     0.015 C 
HETATM   10  C18 UNL     1       0.306   0.557   0.561  1.00  0.00    -0.028 C 
HETATM   11  C19 UNL     1       0.390   1.088  -0.900  1.00  0.00     0.016 C 
HETATM   12  C20 UNL     1      -3.767  -0.559  -0.692  1.00  0.00    -0.014 C 
HETATM   13  C21 UNL     1      -3.574  -0.106  -2.158  1.00  0.00     0.020 C 
HETATM   14  C22 UNL     1      -4.090  -2.076  -0.660  1.00  0.00     0.021 C 
HETATM   15  C23 UNL     1      -5.465  -2.418  -1.213  1.00  0.00     0.080 C 
HETATM   16  C24 UNL     1      -6.531  -1.692  -0.433  1.00  0.00     0.135 C 
HETATM   17  O4  UNL     1      -7.493  -2.313   0.018  1.00  0.00    -0.297 OA
HETATM   18  C25 UNL     1      -6.395  -0.167  -0.303  1.00  0.00     0.018 C 
HETATM   19  C26 UNL     1      -7.340   0.296   0.836  1.00  0.00     0.023 C 
HETATM   20  C27 UNL     1      -6.908   0.477  -1.599  1.00  0.00     0.023 C 
HETATM   21  C28 UNL     1      -4.914   0.185   0.079  1.00  0.00     0.020 C 
HETATM   22  C29 UNL     1      -4.626   1.688   0.115  1.00  0.00     0.090 C 
HETATM   23  C30 UNL     1      -3.289   1.970   0.761  1.00  0.00     0.157 C 
HETATM   24  O5  UNL     1      -3.101   3.049   1.319  1.00  0.00    -0.293 OA
ENDROOT
BRANCH   1  25
HETATM   25  C2  UNL     1       3.013   0.890   0.870  1.00  0.00    -0.014 C 
HETATM   26  C1  UNL     1       3.414   1.771  -0.317  1.00  0.00     0.010 C 
BRANCH  25  27
HETATM   27  C3  UNL     1       3.387  -0.591   0.624  1.00  0.00     0.007 C 
BRANCH  27  28
HETATM   28  C4  UNL     1       4.900  -0.877   0.573  1.00  0.00     0.035 C 
BRANCH  28  29
HETATM   29  C5  UNL     1       5.494  -0.883  -0.843  1.00  0.00     0.154 C 
BRANCH  29  30
HETATM   30  O1  UNL     1       4.846  -1.908  -1.612  1.00  0.00    -0.392 OA
HETATM   31  H10 UNL     1       5.384  -1.977  -2.429  1.00  0.00     0.210 HD
ENDBRANCH  29  30
BRANCH  29  32
HETATM   32  C6  UNL     1       7.027  -1.116  -0.903  1.00  0.00     0.101 C 
HETATM   33  C7  UNL     1       7.452  -2.469  -0.317  1.00  0.00     0.051 C 
BRANCH  32  34
HETATM   34  O2  UNL     1       7.379  -1.156  -2.308  1.00  0.00    -0.385 OA
HETATM   35  H14 UNL     1       8.326  -0.904  -2.345  1.00  0.00     0.210 HD
ENDBRANCH  32  34
BRANCH  32  36
HETATM   36  C8  UNL     1       7.807   0.046  -0.256  1.00  0.00     0.204 C 
BRANCH  36  37
HETATM   37  O3  UNL     1       9.203  -0.089  -0.542  1.00  0.00    -0.398 OA
HETATM   38  H17 UNL     1       9.580  -0.698   0.118  1.00  0.00     0.209 HD
ENDBRANCH  36  37
ENDBRANCH  32  36
ENDBRANCH  29  32
ENDBRANCH  28  29
ENDBRANCH  27  28
ENDBRANCH  25  27
ENDBRANCH   1  25
TORSDOF 9
