REMARK  8 active torsions:
REMARK  status: ('A' for Active; 'I' for Inactive)
REMARK    1  A    between atoms: C3_4  and  O2_5 
REMARK    2  A    between atoms: O2_5  and  C4_6 
REMARK    3  A    between atoms: C7_10  and  O4_11 
REMARK    4  A    between atoms: O4_11  and  C8_12 
REMARK    5  A    between atoms: C11_16  and  O6_17 
REMARK    6  A    between atoms: O6_17  and  C12_18 
REMARK    7  A    between atoms: C26_33  and  C27_34 
REMARK    8  A    between atoms: C33_42  and  O10_43 
ROOT
HETATM    1  C12 UNL     1      -0.928   0.619   1.106  1.00  0.00     0.125 C 
HETATM    2  C13 UNL     1      -0.339  -0.757   1.112  1.00  0.00     0.033 C 
HETATM    3  C14 UNL     1      -1.372  -1.795   1.465  1.00  0.00     0.012 C 
HETATM    4  C15 UNL     1      -2.353  -1.399   2.643  1.00  0.00    -0.036 C 
HETATM    5  C16 UNL     1      -2.494  -2.596   3.613  1.00  0.00     0.016 C 
HETATM    6  C17 UNL     1      -1.804  -0.125   3.363  1.00  0.00    -0.004 C 
HETATM    7  C18 UNL     1      -2.786   0.268   4.500  1.00  0.00     0.006 C 
HETATM    8  C19 UNL     1      -4.170   0.640   3.996  1.00  0.00     0.008 C 
HETATM    9  C20 UNL     1      -4.790  -0.295   2.883  1.00  0.00     0.026 C 
HETATM   10  C21 UNL     1      -3.733  -1.043   2.025  1.00  0.00     0.008 C 
HETATM   11  C22 UNL     1      -4.436  -2.208   1.292  1.00  0.00     0.085 C 
HETATM   12  C23 UNL     1      -5.836  -1.896   0.808  1.00  0.00     0.139 C 
HETATM   13  O7  UNL     1      -6.696  -2.774   0.660  1.00  0.00    -0.297 OA
HETATM   14  C24 UNL     1      -6.120  -0.426   0.523  1.00  0.00     0.055 C 
HETATM   15  C25 UNL     1      -7.562  -0.239  -0.066  1.00  0.00     0.027 C 
HETATM   16  C26 UNL     1      -5.096   0.208  -0.478  1.00  0.00     0.035 C 
HETATM   17  C31 UNL     1      -5.202   1.726  -0.184  1.00  0.00     0.013 C 
HETATM   18  C32 UNL     1      -5.324   1.804   1.323  1.00  0.00     0.040 C 
HETATM   19  C33 UNL     1      -5.837   0.403   1.860  1.00  0.00     0.077 C 
HETATM   20  C34 UNL     1      -1.580   1.040   2.398  1.00  0.00     0.037 C 
ENDROOT
BRANCH   1  21
HETATM   21  O6  UNL     1      -0.740   1.579   0.237  1.00  0.00    -0.355 OA
BRANCH  21  22
HETATM   22  C11 UNL     1      -0.287   1.394  -0.959  1.00  0.00     0.274 C 
HETATM   23  C10 UNL     1       0.539   2.459  -1.618  1.00  0.00     0.147 C 
HETATM   24  C9  UNL     1       1.915   1.763  -1.834  1.00  0.00     0.190 C 
HETATM   25  C8  UNL     1       1.799   0.548  -2.404  1.00  0.00     0.150 C 
HETATM   26  O5  UNL     1       2.899   2.441  -1.470  1.00  0.00    -0.290 OA
HETATM   27  C35 UNL     1       0.444  -0.007  -2.538  1.00  0.00     0.100 C 
HETATM   28  O11 UNL     1      -0.393   0.206  -1.404  1.00  0.00    -0.318 OA
HETATM   29  C36 UNL     1       0.090  -0.906  -3.449  1.00  0.00     0.054 C 
BRANCH  25  30
HETATM   30  O4  UNL     1       2.904  -0.261  -2.786  1.00  0.00    -0.313 OA
BRANCH  30  31
HETATM   31  C7  UNL     1       4.012  -0.043  -2.029  1.00  0.00     0.280 C 
HETATM   32  C6  UNL     1       5.258   0.183  -2.885  1.00  0.00     0.147 C 
HETATM   33  C5  UNL     1       6.572   0.346  -2.111  1.00  0.00     0.190 C 
HETATM   34  C4  UNL     1       6.483   0.389  -0.764  1.00  0.00     0.150 C 
HETATM   35  O3  UNL     1       7.588   0.394  -2.870  1.00  0.00    -0.290 OA
HETATM   36  C37 UNL     1       5.200   0.231  -0.078  1.00  0.00     0.100 C 
HETATM   37  O12 UNL     1       4.024  -0.174  -0.735  1.00  0.00    -0.318 OA
HETATM   38  C38 UNL     1       5.019   0.315   1.250  1.00  0.00     0.054 C 
BRANCH  34  39
HETATM   39  O2  UNL     1       7.597   0.628   0.109  1.00  0.00    -0.313 OA
BRANCH  39  40
HETATM   40  C3  UNL     1       8.787   0.578  -0.540  1.00  0.00     0.280 C 
HETATM   41  O1  UNL     1       9.446  -0.539  -0.682  1.00  0.00    -0.316 OA
HETATM   42  C2  UNL     1      10.424  -0.567  -1.683  1.00  0.00     0.116 C 
HETATM   43  C1  UNL     1      10.934  -1.795  -1.848  1.00  0.00     0.055 C 
HETATM   44  C41 UNL     1      10.840   0.571  -2.526  1.00  0.00     0.249 C 
HETATM   45  C40 UNL     1      10.405   1.883  -1.941  1.00  0.00     0.206 C 
HETATM   46  O14 UNL     1      11.512   0.537  -3.541  1.00  0.00    -0.281 OA
HETATM   47  C39 UNL     1       9.341   1.887  -0.913  1.00  0.00     0.149 C 
HETATM   48  O13 UNL     1      11.009   2.904  -2.214  1.00  0.00    -0.289 OA
ENDBRANCH  39  40
ENDBRANCH  34  39
ENDBRANCH  30  31
ENDBRANCH  25  30
ENDBRANCH  21  22
ENDBRANCH   1  21
BRANCH  19  49
HETATM   49  O10 UNL     1      -6.928   0.650   2.545  1.00  0.00    -0.388 OA
ATOM     50  H10 UNL     1      -7.541   1.059   1.946  1.00  0.00     0.210 HD
ENDBRANCH  19  49
BRANCH  16  51
HETATM   51  C27 UNL     1      -5.018  -0.065  -1.963  1.00  0.00    -0.045 C 
HETATM   52  C28 UNL     1      -4.147   0.498  -2.713  1.00  0.00     0.087 C 
HETATM   53  C29 UNL     1      -3.482  -0.196  -3.607  1.00  0.00     0.283 C 
HETATM   54  O8  UNL     1      -2.567   0.392  -4.233  1.00  0.00    -0.260 OA
HETATM   55  O9  UNL     1      -4.149  -1.423  -3.723  1.00  0.00    -0.314 OA
HETATM   56  C30 UNL     1      -5.136  -1.443  -2.571  1.00  0.00     0.213 C 
ENDBRANCH  16  51
TORSDOF 8
