REMARK  6 active torsions:
REMARK  status: ('A' for Active; 'I' for Inactive)
REMARK    1  A    between atoms: C4_4  and  C5_5 
REMARK    2  A    between atoms: C5_5  and  C6_6 
REMARK    3  A    between atoms: C6_6  and  C7_7 
REMARK    4  A    between atoms: C7_7  and  C9_9 
REMARK    5  A    between atoms: C17_17  and  C18_18 
REMARK    6  A    between atoms: C18_18  and  O1_21 
ROOT
HETATM    1  C9  UNL     1       2.234   0.422   2.015  1.00  0.00    -0.002 C 
HETATM    2  C10 UNL     1       2.116  -1.091   2.354  1.00  0.00     0.006 C 
HETATM    3  C11 UNL     1       0.683  -1.525   1.933  1.00  0.00     0.011 C 
HETATM    4  C12 UNL     1      -0.066  -0.194   1.693  1.00  0.00    -0.032 C 
HETATM    5  C13 UNL     1      -0.468   0.302   3.123  1.00  0.00     0.016 C 
HETATM    6  C14 UNL     1      -1.304  -0.254   0.750  1.00  0.00     0.003 C 
HETATM    7  C15 UNL     1      -2.450  -1.143   1.236  1.00  0.00     0.009 C 
HETATM    8  C16 UNL     1      -3.348  -1.488   0.052  1.00  0.00     0.042 C 
HETATM    9  C17 UNL     1      -3.898  -0.280  -0.766  1.00  0.00     0.095 C 
HETATM   10  O2  UNL     1      -4.939   0.259   0.085  1.00  0.00    -0.377 OA
HETATM   11  C21 UNL     1      -5.673   1.356  -0.444  1.00  0.00     0.169 C 
HETATM   12  C22 UNL     1      -4.810   2.520  -0.901  1.00  0.00     0.027 C 
HETATM   13  C23 UNL     1      -3.478   2.135  -1.543  1.00  0.00     0.010 C 
HETATM   14  C24 UNL     1      -2.819   0.857  -0.973  1.00  0.00     0.032 C 
HETATM   15  C25 UNL     1      -1.857   1.147   0.281  1.00  0.00    -0.033 C 
HETATM   16  C26 UNL     1      -2.613   1.912   1.394  1.00  0.00     0.016 C 
HETATM   17  C27 UNL     1      -0.667   2.085  -0.156  1.00  0.00     0.011 C 
HETATM   18  C28 UNL     1       0.585   2.069   0.756  1.00  0.00     0.011 C 
HETATM   19  C29 UNL     1       1.086   0.635   0.988  1.00  0.00    -0.032 C 
HETATM   20  C30 UNL     1       1.519   0.073  -0.402  1.00  0.00     0.016 C 
ENDROOT
BRANCH   1  21
HETATM   21  C7  UNL     1       3.653   1.017   1.816  1.00  0.00    -0.014 C 
HETATM   22  C8  UNL     1       4.447   0.886   3.132  1.00  0.00     0.010 C 
BRANCH  21  23
HETATM   23  C6  UNL     1       4.557   0.607   0.634  1.00  0.00     0.008 C 
BRANCH  23  24
HETATM   24  C5  UNL     1       4.973  -0.861   0.530  1.00  0.00     0.028 C 
BRANCH  24  25
HETATM   25  C4  UNL     1       6.164  -1.037  -0.376  1.00  0.00    -0.025 C 
HETATM   26  C2  UNL     1       6.159  -1.240  -1.707  1.00  0.00    -0.091 C 
HETATM   27  C1  UNL     1       4.925  -1.264  -2.569  1.00  0.00     0.042 C 
HETATM   28  C3  UNL     1       7.452  -1.414  -2.460  1.00  0.00     0.042 C 
ENDBRANCH  24  25
ENDBRANCH  23  24
ENDBRANCH  21  23
ENDBRANCH   1  21
BRANCH   9  29
HETATM   29  C18 UNL     1      -4.517  -0.868  -2.146  1.00  0.00     0.082 C 
HETATM   30  C19 UNL     1      -5.665  -1.864  -1.878  1.00  0.00     0.049 C 
HETATM   31  C20 UNL     1      -3.470  -1.548  -3.053  1.00  0.00     0.049 C 
BRANCH  29  32
HETATM   32  O1  UNL     1      -5.078   0.174  -2.964  1.00  0.00    -0.388 OA
HETATM   33  H35 UNL     1      -5.470  -0.234  -3.754  1.00  0.00     0.210 HD
ENDBRANCH  29  32
ENDBRANCH   9  29
TORSDOF 6
