REMARK  12 active torsions:
REMARK  status: ('A' for Active; 'I' for Inactive)
REMARK    1  A    between atoms: N1_6  and  O1_8 
REMARK    2  A    between atoms: O1_8  and  C6_9 
REMARK    3  A    between atoms: C6_9  and  C7_10 
REMARK       I    between atoms: C7_10  and  N2_12 
REMARK    4  A    between atoms: N2_12  and  C8_13 
REMARK    5  A    between atoms: C8_13  and  C9_14 
REMARK    6  A    between atoms: C12_17  and  C13_18 
REMARK    7  A    between atoms: C13_18  and  O4_20 
REMARK    8  A    between atoms: C22_29  and  O5_30 
REMARK    9  A    between atoms: C29_37  and  O6_38 
REMARK   10  A    between atoms: C29_37  and  C30_39 
REMARK   11  A    between atoms: C30_39  and  C31_41 
REMARK   12  A    between atoms: C31_41  and  O8_42 
ROOT
HETATM    1  C1  UNL     1      -0.317   1.865  -0.582  1.00  0.00     0.020 C 
HETATM    2  C2  UNL     1      -0.602   0.347  -0.571  1.00  0.00    -0.014 C 
HETATM    3  C3  UNL     1       0.310  -0.328   0.496  1.00  0.00     0.020 C 
HETATM    4  C4  UNL     1       1.767  -0.457   0.074  1.00  0.00     0.060 C 
HETATM    5  C5  UNL     1       1.859  -1.209  -1.236  1.00  0.00     0.032 C 
HETATM    6  N1  UNL     1       2.801  -2.050  -1.552  1.00  0.00    -0.271 N 
ATOM      7  H1  UNL     1       2.867  -2.517  -2.456  1.00  0.00     0.194 HD
HETATM    8  C16 UNL     1       0.819  -0.924  -2.257  1.00  0.00     0.030 C 
HETATM    9  C17 UNL     1      -0.269  -0.189  -1.971  1.00  0.00    -0.069 C 
HETATM   10  C18 UNL     1      -1.247   0.160  -3.067  1.00  0.00     0.035 C 
HETATM   11  C19 UNL     1      -2.663  -0.258  -2.698  1.00  0.00     0.010 C 
HETATM   12  C20 UNL     1      -3.108   0.354  -1.360  1.00  0.00    -0.002 C 
HETATM   13  C21 UNL     1      -2.103  -0.017  -0.224  1.00  0.00     0.031 C 
HETATM   14  C22 UNL     1      -2.600   0.460   1.173  1.00  0.00     0.124 C 
HETATM   15  C23 UNL     1      -4.062   0.060   1.467  1.00  0.00     0.045 C 
HETATM   16  C24 UNL     1      -5.052   0.452   0.344  1.00  0.00     0.001 C 
HETATM   17  C25 UNL     1      -5.219   1.993   0.263  1.00  0.00     0.019 C 
HETATM   18  C26 UNL     1      -4.501  -0.166  -0.965  1.00  0.00     0.002 C 
HETATM   19  C27 UNL     1      -5.647   0.001  -1.953  1.00  0.00     0.009 C 
HETATM   20  C28 UNL     1      -6.912  -0.213  -1.103  1.00  0.00     0.047 C 
HETATM   21  C29 UNL     1      -6.465  -0.220   0.390  1.00  0.00     0.128 C 
ENDROOT
BRANCH   6  22
HETATM   22  O1  UNL     1       3.714  -2.239  -0.505  1.00  0.00    -0.271 OA
BRANCH  22  23
HETATM   23  C6  UNL     1       4.555  -3.352  -0.805  1.00  0.00     0.303 C 
BRANCH  23  24
HETATM   24  C7  UNL     1       5.988  -2.903  -1.072  1.00  0.00     0.244 C 
HETATM   25  O2  UNL     1       6.953  -3.634  -0.860  1.00  0.00    -0.271 OA
HETATM   26  N2  UNL     1       6.092  -1.633  -1.600  1.00  0.00    -0.355 N 
HETATM   27  H10 UNL     1       5.239  -1.081  -1.597  1.00  0.00     0.162 HD
BRANCH  26  28
HETATM   28  C8  UNL     1       7.361  -0.964  -1.749  1.00  0.00     0.161 C 
BRANCH  28  29
HETATM   29  C9  UNL     1       7.689  -0.159  -0.516  1.00  0.00    -0.040 A 
HETATM   30  C10 UNL     1       8.295  -0.781   0.588  1.00  0.00     0.010 A 
HETATM   31  C11 UNL     1       8.572  -0.055   1.751  1.00  0.00     0.019 A 
HETATM   32  C12 UNL     1       8.243   1.303   1.823  1.00  0.00     0.037 A 
HETATM   33  C14 UNL     1       7.636   1.929   0.726  1.00  0.00     0.019 A 
HETATM   34  C15 UNL     1       7.356   1.201  -0.434  1.00  0.00     0.010 A 
BRANCH  32  35
HETATM   35  C13 UNL     1       8.512   2.116   3.035  1.00  0.00     0.176 C 
HETATM   36  O3  UNL     1       8.276   3.303   3.165  1.00  0.00    -0.646 OA
BRANCH  35  37
HETATM   37  O4  UNL     1       9.064   1.401   4.030  1.00  0.00    -0.773 OA
HETATM   38  H15 UNL     1       9.184   2.056   4.749  1.00  0.00     0.167 HD
ENDBRANCH  35  37
ENDBRANCH  32  35
ENDBRANCH  28  29
ENDBRANCH  26  28
ENDBRANCH  23  24
ENDBRANCH  22  23
ENDBRANCH   6  22
BRANCH  14  39
HETATM   39  O5  UNL     1      -2.468   1.867   1.317  1.00  0.00    -0.395 OA
HETATM   40  H26 UNL     1      -2.636   2.088   2.248  1.00  0.00     0.210 HD
ENDBRANCH  14  39
BRANCH  21  41
HETATM   41  O6  UNL     1      -6.355  -1.601   0.769  1.00  0.00    -0.381 OA
HETATM   42  H37 UNL     1      -6.163  -1.624   1.731  1.00  0.00     0.211 HD
ENDBRANCH  21  41
BRANCH  21  43
HETATM   43  C30 UNL     1      -7.514   0.477   1.299  1.00  0.00     0.184 C 
HETATM   44  O7  UNL     1      -8.513   1.053   0.864  1.00  0.00    -0.292 OA
BRANCH  43  45
HETATM   45  C31 UNL     1      -7.259   0.450   2.802  1.00  0.00     0.245 C 
BRANCH  45  46
HETATM   46  O8  UNL     1      -6.936  -0.844   3.284  1.00  0.00    -0.393 OA
HETATM   47  H40 UNL     1      -7.780  -1.335   3.336  1.00  0.00     0.209 HD
ENDBRANCH  45  46
ENDBRANCH  43  45
ENDBRANCH  21  43
TORSDOF 12
