REMARK  9 active torsions:
REMARK  status: ('A' for Active; 'I' for Inactive)
REMARK    1  A    between atoms: O1_2  and  C2_3 
REMARK    2  A    between atoms: C2_3  and  C3_4 
REMARK    3  A    between atoms: C3_4  and  N1_5 
REMARK       I    between atoms: N1_5  and  C4_6 
REMARK    4  A    between atoms: C4_6  and  C5_8 
REMARK    5  A    between atoms: C5_8  and  C7_10 
REMARK    6  A    between atoms: C15_20  and  C16_21 
REMARK    7  A    between atoms: C16_21  and  O3_22 
REMARK    8  A    between atoms: O3_22  and  C17_23 
REMARK    9  A    between atoms: C26_34  and  O4_35 
ROOT
HETATM    1  C7  UNL     1      -2.354  -0.498   1.233  1.00  0.00     0.027 C 
HETATM    2  C8  UNL     1      -1.903  -1.838   1.856  1.00  0.00     0.009 C 
HETATM    3  C9  UNL     1      -0.408  -2.132   1.734  1.00  0.00     0.010 C 
HETATM    4  C10 UNL     1       0.224  -1.698   0.396  1.00  0.00    -0.033 C 
HETATM    5  C11 UNL     1      -0.416  -2.523  -0.754  1.00  0.00     0.016 C 
HETATM    6  C12 UNL     1       1.740  -2.090   0.442  1.00  0.00     0.058 C 
HETATM    7  C13 UNL     1       2.512  -1.280  -0.531  1.00  0.00     0.008 A 
HETATM    8  C14 UNL     1       2.270   0.053  -0.752  1.00  0.00     0.027 A 
HETATM    9  N2  UNL     1       3.076   0.653  -1.692  1.00  0.00    -0.354 N 
ATOM     10  H2  UNL     1       3.007   1.625  -1.994  1.00  0.00     0.166 HD
HETATM   11  C15 UNL     1       3.954  -0.228  -2.143  1.00  0.00     0.076 A 
HETATM   12  S1  UNL     1       3.793  -1.824  -1.493  1.00  0.00    -0.077 SA
HETATM   13  C23 UNL     1       1.198   0.782  -0.006  1.00  0.00     0.040 C 
HETATM   14  C24 UNL     1       1.745   1.296   1.331  1.00  0.00     0.017 C 
HETATM   15  C25 UNL     1      -0.063  -0.151   0.128  1.00  0.00     0.033 C 
HETATM   16  C26 UNL     1      -1.136   0.442   1.081  1.00  0.00     0.128 C 
ENDROOT
BRANCH   1  17
HETATM   17  C5  UNL     1      -3.538   0.126   2.033  1.00  0.00     0.080 C 
HETATM   18  C6  UNL     1      -4.676  -0.871   2.295  1.00  0.00     0.020 C 
BRANCH  17  19
HETATM   19  C4  UNL     1      -4.165   1.351   1.366  1.00  0.00     0.222 C 
HETATM   20  N1  UNL     1      -4.533   1.175   0.045  1.00  0.00    -0.359 N 
HETATM   21  H8  UNL     1      -4.710   0.224  -0.253  1.00  0.00     0.162 HD
HETATM   22  O2  UNL     1      -4.380   2.388   1.985  1.00  0.00    -0.273 OA
BRANCH  20  23
HETATM   23  C3  UNL     1      -5.347   2.183  -0.619  1.00  0.00     0.148 C 
BRANCH  23  24
HETATM   24  C2  UNL     1      -6.827   2.039  -0.245  1.00  0.00     0.186 C 
BRANCH  24  25
HETATM   25  O1  UNL     1      -7.320   0.747  -0.628  1.00  0.00    -0.394 OA
HETATM   26  C1  UNL     1      -7.843   0.724  -1.950  1.00  0.00     0.201 C 
ENDBRANCH  24  25
ENDBRANCH  23  24
ENDBRANCH  20  23
ENDBRANCH  17  19
ENDBRANCH   1  17
BRANCH  16  27
HETATM   27  O4  UNL     1      -1.510   1.718   0.580  1.00  0.00    -0.395 OA
HETATM   28  H35 UNL     1      -2.072   1.601  -0.207  1.00  0.00     0.210 HD
ENDBRANCH  16  27
BRANCH  11  29
HETATM   29  C16 UNL     1       5.010   0.060  -3.169  1.00  0.00     0.240 C 
BRANCH  29  30
HETATM   30  O3  UNL     1       5.926   1.039  -2.663  1.00  0.00    -0.345 OA
BRANCH  30  31
HETATM   31  C17 UNL     1       6.859   0.653  -1.741  1.00  0.00     0.070 A 
HETATM   32  C18 UNL     1       7.352  -0.641  -1.563  1.00  0.00     0.037 A 
HETATM   33  C19 UNL     1       8.312  -0.899  -0.580  1.00  0.00     0.004 A 
HETATM   34  C20 UNL     1       8.791   0.136   0.221  1.00  0.00     0.024 A 
HETATM   35  C21 UNL     1       8.314   1.431   0.028  1.00  0.00     0.036 A 
HETATM   36 CL1  UNL     1       8.912   2.714   1.007  1.00  0.00    -0.084 Cl
HETATM   37  C22 UNL     1       7.357   1.691  -0.950  1.00  0.00     0.060 A 
ENDBRANCH  30  31
ENDBRANCH  29  30
ENDBRANCH  11  29
TORSDOF 9
