REMARK  6 active torsions:
REMARK  status: ('A' for Active; 'I' for Inactive)
REMARK    1  A    between atoms: C2_2  and  C30_31 
REMARK    2  A    between atoms: C3_3  and  C4_4 
REMARK    3  A    between atoms: C4_4  and  C5_5 
REMARK    4  A    between atoms: C5_5  and  C6_6 
REMARK    5  A    between atoms: C6_6  and  C8_8 
REMARK    6  A    between atoms: C30_31  and  O3_33 
ROOT
HETATM    1  C8  UNL     1       2.184   1.597   1.773  1.00  0.00    -0.002 C 
HETATM    2  C9  UNL     1       2.530   0.303   2.523  1.00  0.00     0.007 C 
HETATM    3  C10 UNL     1       1.402  -0.635   2.149  1.00  0.00     0.015 C 
HETATM    4  C11 UNL     1       0.106   0.213   2.279  1.00  0.00    -0.013 C 
HETATM    5  C12 UNL     1      -0.480  -0.021   3.703  1.00  0.00     0.021 C 
HETATM    6  C13 UNL     1      -0.957  -0.320   1.285  1.00  0.00    -0.070 C 
HETATM    7  C14 UNL     1      -1.302  -1.627   1.271  1.00  0.00    -0.022 C 
HETATM    8  C15 UNL     1      -2.382  -2.232   0.429  1.00  0.00     0.034 C 
HETATM    9  C16 UNL     1      -2.922  -1.300  -0.672  1.00  0.00     0.013 C 
HETATM   10  C17 UNL     1      -4.146  -1.873  -1.483  1.00  0.00     0.018 C 
HETATM   11  C18 UNL     1      -3.659  -2.344  -2.870  1.00  0.00     0.023 C 
HETATM   12  C19 UNL     1      -4.822  -3.082  -0.798  1.00  0.00     0.023 C 
HETATM   13  C20 UNL     1      -5.242  -0.830  -1.752  1.00  0.00     0.135 C 
HETATM   14  O1  UNL     1      -6.422  -1.161  -1.907  1.00  0.00    -0.297 OA
HETATM   15  C21 UNL     1      -4.873   0.620  -1.935  1.00  0.00     0.080 C 
HETATM   16  C22 UNL     1      -3.533   1.018  -1.347  1.00  0.00     0.017 C 
HETATM   17  C23 UNL     1      -3.083   0.161  -0.139  1.00  0.00    -0.031 C 
HETATM   18  C24 UNL     1      -4.111   0.264   1.011  1.00  0.00     0.016 C 
HETATM   19  C25 UNL     1      -1.660   0.648   0.347  1.00  0.00     0.024 C 
HETATM   20  C26 UNL     1      -1.647   2.059   0.946  1.00  0.00     0.010 C 
HETATM   21  C27 UNL     1      -0.197   2.521   1.027  1.00  0.00     0.011 C 
HETATM   22  C28 UNL     1       0.623   1.730   2.074  1.00  0.00    -0.029 C 
HETATM   23  C29 UNL     1       0.520   2.582   3.381  1.00  0.00     0.016 C 
ENDROOT
BRANCH   1  24
HETATM   24  C6  UNL     1       2.610   1.611   0.263  1.00  0.00    -0.014 C 
HETATM   25  C7  UNL     1       2.790   3.071  -0.200  1.00  0.00     0.010 C 
BRANCH  24  26
HETATM   26  C5  UNL     1       3.906   0.816  -0.038  1.00  0.00     0.008 C 
BRANCH  26  27
HETATM   27  C4  UNL     1       4.371   0.900  -1.497  1.00  0.00     0.028 C 
BRANCH  27  28
HETATM   28  C3  UNL     1       5.523  -0.037  -1.750  1.00  0.00    -0.013 C 
HETATM   29  C2  UNL     1       5.512  -1.227  -2.384  1.00  0.00     0.008 C 
HETATM   30  C1  UNL     1       6.774  -2.023  -2.564  1.00  0.00     0.055 C 
BRANCH  29  31
HETATM   31  C30 UNL     1       4.259  -1.840  -2.888  1.00  0.00     0.171 C 
HETATM   32  O2  UNL     1       3.122  -1.628  -2.510  1.00  0.00    -0.646 OA
BRANCH  31  33
HETATM   33  O3  UNL     1       4.502  -2.730  -3.865  1.00  0.00    -0.773 OA
HETATM   34  H46 UNL     1       3.609  -3.055  -4.104  1.00  0.00     0.167 HD
ENDBRANCH  31  33
ENDBRANCH  29  31
ENDBRANCH  27  28
ENDBRANCH  26  27
ENDBRANCH  24  26
ENDBRANCH   1  24
TORSDOF 6
