REMARK  9 active torsions:
REMARK  status: ('A' for Active; 'I' for Inactive)
REMARK    1  A    between atoms: C11_11  and  C13_13 
REMARK    2  A    between atoms: C13_13  and  O2_15 
REMARK    3  A    between atoms: C15_17  and  C16_18 
REMARK    4  A    between atoms: C16_18  and  C17_19 
REMARK    5  A    between atoms: C17_19  and  C18_20 
REMARK    6  A    between atoms: C19_21  and  C20_22 
REMARK    7  A    between atoms: C20_22  and  O3_23 
REMARK    8  A    between atoms: O3_23  and  C21_24 
REMARK    9  A    between atoms: C21_24  and  C22_26 
ROOT
HETATM    1  C16 UNL     1      -0.097   0.833  -1.708  1.00  0.00     0.014 C 
ENDROOT
BRANCH   1   2
HETATM    2  C15 UNL     1      -0.725   0.456  -0.335  1.00  0.00     0.022 C 
HETATM    3  C2  UNL     1      -0.392   1.405   0.819  1.00  0.00    -0.084 C 
HETATM    4  C1  UNL     1       0.166   2.623   0.717  1.00  0.00     0.014 C 
HETATM    5  C3  UNL     1      -0.802   0.874   2.168  1.00  0.00     0.034 C 
HETATM    6  C4  UNL     1      -2.304   0.592   2.195  1.00  0.00     0.011 C 
HETATM    7  C5  UNL     1      -2.735  -0.347   1.044  1.00  0.00     0.012 C 
HETATM    8  C6  UNL     1      -2.298   0.210  -0.374  1.00  0.00    -0.032 C 
HETATM    9  C11 UNL     1      -4.214  -0.874   1.135  1.00  0.00     0.049 C 
HETATM   10  C7  UNL     1      -3.023   1.525  -0.749  1.00  0.00     0.016 C 
HETATM   11  C8  UNL     1      -2.637  -0.865  -1.444  1.00  0.00     0.010 C 
HETATM   12  C9  UNL     1      -4.071  -1.379  -1.384  1.00  0.00     0.002 C 
HETATM   13  C10 UNL     1      -4.431  -1.906  -0.002  1.00  0.00     0.020 C 
HETATM   14  C12 UNL     1      -4.446  -1.631   2.466  1.00  0.00     0.026 C 
BRANCH   9  15
HETATM   15  C13 UNL     1      -5.266   0.253   1.146  1.00  0.00     0.267 C 
HETATM   16  O1  UNL     1      -5.207   1.243   1.864  1.00  0.00    -0.264 OA
BRANCH  15  17
HETATM   17  O2  UNL     1      -6.309  -0.005   0.310  1.00  0.00    -0.326 OA
HETATM   18  C14 UNL     1      -7.322   1.002   0.300  1.00  0.00     0.213 C 
ENDBRANCH  15  17
ENDBRANCH   9  15
ENDBRANCH   1   2
BRANCH   1  19
HETATM   19  C17 UNL     1       1.438   0.721  -1.770  1.00  0.00     0.042 C 
BRANCH  19  20
HETATM   20  C18 UNL     1       1.941  -0.675  -1.585  1.00  0.00    -0.024 A 
HETATM   21  C19 UNL     1       2.602  -1.198  -0.484  1.00  0.00     0.083 A 
HETATM   22  O5  UNL     1       2.885  -2.518  -0.687  1.00  0.00    -0.324 OA
HETATM   23  C28 UNL     1       2.422  -2.842  -1.919  1.00  0.00     0.143 A 
HETATM   24  C29 UNL     1       1.837  -1.751  -2.513  1.00  0.00     0.034 A 
BRANCH  21  25
HETATM   25  C20 UNL     1       3.036  -0.628   0.817  1.00  0.00     0.244 C 
BRANCH  25  26
HETATM   26  O3  UNL     1       4.470  -0.601   0.826  1.00  0.00    -0.311 OA
BRANCH  26  27
HETATM   27  C21 UNL     1       5.038   0.550   0.402  1.00  0.00     0.293 C 
HETATM   28  O4  UNL     1       4.454   1.569   0.066  1.00  0.00    -0.259 OA
BRANCH  27  29
HETATM   29  C22 UNL     1       6.522   0.425   0.412  1.00  0.00     0.039 A 
HETATM   30  C23 UNL     1       7.286   1.580   0.189  1.00  0.00     0.019 A 
HETATM   31  C24 UNL     1       8.682   1.513   0.190  1.00  0.00     0.025 A 
HETATM   32  C25 UNL     1       9.318   0.292   0.410  1.00  0.00     0.034 A 
HETATM   33 CL1  UNL     1      11.036   0.210   0.411  1.00  0.00    -0.084 Cl
HETATM   34  C26 UNL     1       8.569  -0.864   0.628  1.00  0.00     0.025 A 
HETATM   35  C27 UNL     1       7.172  -0.799   0.628  1.00  0.00     0.019 A 
ENDBRANCH  27  29
ENDBRANCH  26  27
ENDBRANCH  25  26
ENDBRANCH  21  25
ENDBRANCH  19  20
ENDBRANCH   1  19
TORSDOF 9
