REMARK  9 active torsions:
REMARK  status: ('A' for Active; 'I' for Inactive)
REMARK    1  A    between atoms: C3_3  and  C4_4 
REMARK    2  A    between atoms: C3_3  and  C27_30 
REMARK    3  A    between atoms: C4_4  and  C5_5 
REMARK    4  A    between atoms: C5_5  and  C6_6 
REMARK    5  A    between atoms: C6_6  and  C8_8 
REMARK    6  A    between atoms: C15_15  and  O1_16 
REMARK    7  A    between atoms: C18_19  and  C19_20 
REMARK    8  A    between atoms: C19_20  and  O2_21 
REMARK    9  A    between atoms: C22_24  and  O3_25 
ROOT
HETATM    1  C8  UNL     1       1.538  -1.138  -1.637  1.00  0.00     0.001 C 
HETATM    2  C9  UNL     1       1.168  -2.638  -1.739  1.00  0.00     0.006 C 
HETATM    3  C10 UNL     1      -0.356  -2.726  -1.534  1.00  0.00     0.010 C 
HETATM    4  C11 UNL     1      -0.830  -1.271  -1.527  1.00  0.00     0.026 C 
HETATM    5  C12 UNL     1      -2.189  -0.889  -0.984  1.00  0.00    -0.072 C 
HETATM    6  C13 UNL     1      -2.418   0.383  -0.562  1.00  0.00    -0.064 C 
HETATM    7  C14 UNL     1      -1.287   1.422  -0.545  1.00  0.00     0.068 C 
HETATM    8  C15 UNL     1       0.080   0.975  -1.119  1.00  0.00     0.131 C 
HETATM    9  C16 UNL     1       0.345  -0.519  -0.845  1.00  0.00    -0.006 C 
HETATM   10  C17 UNL     1       0.444  -0.804   0.674  1.00  0.00     0.019 C 
HETATM   11  C18 UNL     1      -3.807   0.823  -0.006  1.00  0.00     0.009 C 
HETATM   12  C20 UNL     1      -4.207   2.272  -0.444  1.00  0.00     0.019 C 
HETATM   13  C21 UNL     1      -5.660   2.466  -0.910  1.00  0.00     0.033 C 
HETATM   14  C22 UNL     1      -6.696   1.645  -0.153  1.00  0.00     0.118 C 
HETATM   15  C23 UNL     1      -6.328   0.162  -0.042  1.00  0.00     0.037 C 
HETATM   16  C24 UNL     1      -4.908  -0.147  -0.549  1.00  0.00     0.003 C 
HETATM   17  C25 UNL     1      -4.550  -1.611  -0.304  1.00  0.00     0.010 C 
HETATM   18  C26 UNL     1      -3.244  -1.970  -1.010  1.00  0.00     0.035 C 
ENDROOT
BRANCH   1  19
HETATM   19  C6  UNL     1       2.994  -0.816  -1.185  1.00  0.00    -0.013 C 
HETATM   20  C7  UNL     1       3.917  -0.861  -2.417  1.00  0.00     0.010 C 
BRANCH  19  21
HETATM   21  C5  UNL     1       3.568  -1.739  -0.083  1.00  0.00     0.009 C 
BRANCH  21  22
HETATM   22  C4  UNL     1       4.879  -1.271   0.578  1.00  0.00     0.034 C 
BRANCH  22  23
HETATM   23  C3  UNL     1       4.777   0.015   1.383  1.00  0.00    -0.081 C 
HETATM   24  C2  UNL     1       4.354   0.039   2.666  1.00  0.00    -0.028 C 
HETATM   25  C1  UNL     1       3.879  -1.113   3.496  1.00  0.00     0.036 C 
BRANCH  23  26
HETATM   26  C27 UNL     1       5.278   1.272   0.664  1.00  0.00     0.006 C 
HETATM   27  C28 UNL     1       4.548   2.568   1.041  1.00  0.00     0.014 C 
HETATM   28  C29 UNL     1       6.787   1.442   0.873  1.00  0.00     0.014 C 
ENDBRANCH  23  26
ENDBRANCH  22  23
ENDBRANCH  21  22
ENDBRANCH  19  21
ENDBRANCH   1  19
BRANCH   8  29
HETATM   29  O1  UNL     1       1.113   1.817  -0.611  1.00  0.00    -0.394 OA
HETATM   30  H22 UNL     1       1.162   1.702   0.351  1.00  0.00     0.210 HD
ENDBRANCH   8  29
BRANCH  11  31
HETATM   31  C19 UNL     1      -3.641   0.769   1.551  1.00  0.00     0.178 C 
BRANCH  31  32
HETATM   32  O2  UNL     1      -4.789   1.207   2.268  1.00  0.00    -0.400 OA
HETATM   33  H28 UNL     1      -4.589   1.075   3.215  1.00  0.00     0.209 HD
ENDBRANCH  31  32
ENDBRANCH  11  31
BRANCH  14  34
HETATM   34  O3  UNL     1      -6.895   2.204   1.143  1.00  0.00    -0.396 OA
HETATM   35  H34 UNL     1      -6.097   1.975   1.666  1.00  0.00     0.210 HD
ENDBRANCH  14  34
TORSDOF 9
