REMARK  7 active torsions:
REMARK  status: ('A' for Active; 'I' for Inactive)
REMARK    1  A    between atoms: C16_17  and  O2_18 
REMARK    2  A    between atoms: O2_18  and  C17_19 
REMARK    3  A    between atoms: C17_19  and  C18_21 
REMARK    4  A    between atoms: C18_21  and  C19_22 
REMARK    5  A    between atoms: C19_22  and  C20_23 
REMARK       I    between atoms: C20_23  and  N1_25 
REMARK    6  A    between atoms: N1_25  and  C21_26 
REMARK    7  A    between atoms: C21_26  and  C22_27 
ROOT
HETATM    1  C1  UNL     1      -5.343   0.883  -1.274  1.00  0.00     0.020 C 
HETATM    2  C2  UNL     1      -4.927  -0.125  -0.181  1.00  0.00    -0.016 C 
HETATM    3  C3  UNL     1      -5.547  -1.514  -0.515  1.00  0.00     0.022 C 
HETATM    4  C4  UNL     1      -7.040  -1.607  -0.229  1.00  0.00     0.084 C 
HETATM    5  C5  UNL     1      -7.315  -1.243   1.204  1.00  0.00     0.149 C 
HETATM    6  O1  UNL     1      -8.224  -1.755   1.851  1.00  0.00    -0.293 OA
HETATM    7  C6  UNL     1      -6.505  -0.163   1.812  1.00  0.00     0.053 C 
HETATM    8  C7  UNL     1      -5.457   0.380   1.170  1.00  0.00    -0.068 C 
HETATM    9  C8  UNL     1      -4.735   1.557   1.782  1.00  0.00     0.035 C 
HETATM   10  C9  UNL     1      -3.232   1.325   1.861  1.00  0.00     0.010 C 
HETATM   11  C10 UNL     1      -2.647   0.969   0.488  1.00  0.00    -0.004 C 
HETATM   12  C11 UNL     1      -3.361  -0.289  -0.092  1.00  0.00     0.002 C 
HETATM   13  C12 UNL     1      -2.703  -0.769  -1.412  1.00  0.00     0.007 C 
HETATM   14  C13 UNL     1      -1.174  -0.912  -1.325  1.00  0.00     0.012 C 
HETATM   15  C14 UNL     1      -0.505   0.360  -0.785  1.00  0.00    -0.013 C 
HETATM   16  C15 UNL     1      -0.628   1.493  -1.834  1.00  0.00     0.018 C 
HETATM   17  C16 UNL     1       0.969   0.191  -0.341  1.00  0.00     0.140 C 
HETATM   18  C27 UNL     1       1.174   1.325   0.690  1.00  0.00     0.034 C 
HETATM   19  C28 UNL     1      -0.225   1.742   1.171  1.00  0.00     0.008 C 
HETATM   20  C29 UNL     1      -1.145   0.679   0.582  1.00  0.00     0.001 C 
ENDROOT
BRANCH  17  21
HETATM   21  O2  UNL     1       1.927   0.350  -1.393  1.00  0.00    -0.315 OA
BRANCH  21  22
HETATM   22  C17 UNL     1       2.244  -0.776  -2.092  1.00  0.00     0.259 C 
HETATM   23  O3  UNL     1       1.731  -1.875  -1.936  1.00  0.00    -0.265 OA
BRANCH  22  24
HETATM   24  C18 UNL     1       3.271  -0.460  -3.152  1.00  0.00     0.120 C 
BRANCH  24  25
HETATM   25  C19 UNL     1       4.532   0.164  -2.570  1.00  0.00     0.112 C 
BRANCH  25  26
HETATM   26  C20 UNL     1       5.373  -0.848  -1.818  1.00  0.00     0.218 C 
HETATM   27  O4  UNL     1       5.076  -2.030  -1.710  1.00  0.00    -0.274 OA
HETATM   28  N1  UNL     1       6.512  -0.301  -1.269  1.00  0.00    -0.357 N 
HETATM   29  H27 UNL     1       6.625   0.703  -1.262  1.00  0.00     0.162 HD
BRANCH  28  30
HETATM   30  C21 UNL     1       7.398  -1.087  -0.436  1.00  0.00     0.162 C 
BRANCH  30  31
HETATM   31  C22 UNL     1       7.134  -0.840   1.020  1.00  0.00    -0.025 A 
HETATM   32  C23 UNL     1       7.930   0.026   1.776  1.00  0.00     0.011 A 
HETATM   33  C24 UNL     1       7.640   0.231   3.122  1.00  0.00     0.018 A 
HETATM   34  C25 UNL     1       6.555  -0.433   3.669  1.00  0.00     0.087 A 
HETATM   35  N2  UNL     1       5.758  -1.269   2.971  1.00  0.00    -0.375 N 
HETATM   36  C26 UNL     1       6.064  -1.456   1.666  1.00  0.00     0.096 A 
ATOM     37  H2  UNL     1       4.963  -1.737   3.406  1.00  0.00     0.164 HD
ENDBRANCH  30  31
ENDBRANCH  28  30
ENDBRANCH  25  26
ENDBRANCH  24  25
ENDBRANCH  22  24
ENDBRANCH  21  22
ENDBRANCH  17  21
TORSDOF 7
