REMARK  7 active torsions:
REMARK  status: ('A' for Active; 'I' for Inactive)
REMARK    1  A    between atoms: C2_2  and  C3_3 
REMARK    2  A    between atoms: C9_10  and  O1_11 
REMARK    3  A    between atoms: C18_22  and  C19_23 
REMARK    4  A    between atoms: C33_39  and  C34_40 
REMARK    5  A    between atoms: C34_40  and  O2_41 
REMARK    6  A    between atoms: C35_42  and  C38_45 
REMARK    7  A    between atoms: C39_46  and  O3_47 
ROOT
HETATM    1  C19 UNL     1      -0.070  -0.687  -0.567  1.00  0.00    -0.003 C 
HETATM    2  C20 UNL     1      -0.052   0.230  -1.557  1.00  0.00     0.102 C 
HETATM    3  N3  UNL     1      -1.135   1.014  -1.905  1.00  0.00    -0.349 N 
HETATM    4  C21 UNL     1      -1.069   2.429  -2.040  1.00  0.00     0.041 A 
HETATM    5  C22 UNL     1       0.049   3.194  -2.332  1.00  0.00     0.030 A 
HETATM    6  C23 UNL     1      -0.073   4.581  -2.386  1.00  0.00     0.002 A 
HETATM    7  C24 UNL     1      -1.306   5.199  -2.149  1.00  0.00     0.001 A 
HETATM    8  C25 UNL     1      -2.438   4.432  -1.867  1.00  0.00     0.010 A 
HETATM    9  C26 UNL     1      -2.304   3.051  -1.813  1.00  0.00    -0.018 A 
HETATM   10  C27 UNL     1      -3.345   1.998  -1.553  1.00  0.00     0.041 C 
HETATM   11  C28 UNL     1      -4.229   1.792  -2.788  1.00  0.00     0.046 C 
HETATM   12  C29 UNL     1      -5.353   0.909  -2.277  1.00  0.00     0.239 C 
HETATM   13  N4  UNL     1      -5.632   1.437  -0.855  1.00  0.00    -0.062 N 
HETATM   14  C30 UNL     1      -6.876   2.320  -0.877  1.00  0.00     0.273 C 
HETATM   15  C31 UNL     1      -5.882   0.276   0.100  1.00  0.00     0.271 C 
HETATM   16  C32 UNL     1      -4.630  -0.403   0.602  1.00  0.00    -0.051 C 
HETATM   17  C33 UNL     1      -4.554  -1.739   0.758  1.00  0.00     0.004 C 
HETATM   18  C35 UNL     1      -3.489   0.503   1.039  1.00  0.00     0.027 C 
HETATM   19  C36 UNL     1      -3.953   1.964   0.969  1.00  0.00     0.044 C 
HETATM   20  C37 UNL     1      -4.380   2.292  -0.456  1.00  0.00     0.206 C 
HETATM   21  C38 UNL     1      -2.194   0.439   0.202  1.00  0.00     0.052 C 
HETATM   22  C39 UNL     1      -1.335  -0.851   0.277  1.00  0.00     0.160 C 
HETATM   23  C40 UNL     1      -2.449   0.756  -1.281  1.00  0.00     0.112 C 
ENDROOT
BRANCH   1  24
HETATM   24  C18 UNL     1       1.148  -1.431  -0.241  1.00  0.00    -0.016 A 
HETATM   25  C3  UNL     1       1.403  -2.846  -0.589  1.00  0.00    -0.032 A 
HETATM   26  C4  UNL     1       2.575  -3.396  -0.208  1.00  0.00     0.099 A 
HETATM   27  N1  UNL     1       3.582  -2.708   0.461  1.00  0.00    -0.354 N 
HETATM   28  C5  UNL     1       4.720  -3.434   1.072  1.00  0.00     0.133 C 
HETATM   29  C16 UNL     1       3.394  -1.345   0.781  1.00  0.00     0.062 A 
HETATM   30  C6  UNL     1       5.969  -2.550   1.202  1.00  0.00     0.062 C 
HETATM   31  C7  UNL     1       5.652  -1.173   1.696  1.00  0.00    -0.012 A 
HETATM   32  C8  UNL     1       6.393  -0.271   2.348  1.00  0.00     0.033 A 
HETATM   33  C15 UNL     1       4.346  -0.623   1.405  1.00  0.00     0.067 A 
HETATM   34  C9  UNL     1       7.727  -0.173   2.867  1.00  0.00     0.081 A 
HETATM   35  C14 UNL     1       5.457   0.874   2.385  1.00  0.00     0.046 A 
HETATM   36  C11 UNL     1       8.106   1.006   3.403  1.00  0.00     0.038 A 
HETATM   37  C12 UNL     1       7.205   2.150   3.465  1.00  0.00     0.005 A 
HETATM   38  C13 UNL     1       5.946   2.120   3.003  1.00  0.00     0.030 A 
HETATM   39  N2  UNL     1       4.291   0.681   1.850  1.00  0.00    -0.353 N 
ATOM     40  H2  UNL     1       3.515   1.339   1.776  1.00  0.00     0.166 HD
HETATM   41  C17 UNL     1       2.119  -0.745   0.403  1.00  0.00     0.044 A 
BRANCH  25  42
HETATM   42  C2  UNL     1       0.384  -3.664  -1.345  1.00  0.00     0.036 C 
HETATM   43  C1  UNL     1       0.242  -3.256  -2.806  1.00  0.00     0.010 C 
ENDBRANCH  25  42
BRANCH  34  44
HETATM   44  O1  UNL     1       8.480  -1.315   2.735  1.00  0.00    -0.355 OA
HETATM   45  C10 UNL     1       9.828  -1.266   3.212  1.00  0.00     0.210 C 
ENDBRANCH  34  44
ENDBRANCH   1  24
BRANCH  22  46
HETATM   46  O3  UNL     1      -1.079  -1.101   1.656  1.00  0.00    -0.390 OA
HETATM   47  H42 UNL     1      -0.124  -1.228   1.773  1.00  0.00     0.210 HD
ENDBRANCH  22  46
BRANCH  17  48
HETATM   48  C34 UNL     1      -5.616  -2.728   0.398  1.00  0.00     0.191 C 
BRANCH  48  49
HETATM   49  O2  UNL     1      -5.652  -2.782  -1.027  1.00  0.00    -0.397 OA
HETATM   50  H35 UNL     1      -6.245  -3.525  -1.258  1.00  0.00     0.209 HD
ENDBRANCH  48  49
ENDBRANCH  17  48
TORSDOF 7
