REMARK  13 active torsions:
REMARK  status: ('A' for Active; 'I' for Inactive)
REMARK    1  A    between atoms: C3_3  and  O1_4 
REMARK    2  A    between atoms: N1_14  and  O2_16 
REMARK    3  A    between atoms: O2_16  and  C13_17 
REMARK    4  A    between atoms: C13_17  and  C14_18 
REMARK       I    between atoms: C14_18  and  N2_20 
REMARK    5  A    between atoms: N2_20  and  C15_21 
REMARK    6  A    between atoms: C15_21  and  C17_23 
REMARK       I    between atoms: C17_23  and  N3_25 
REMARK    7  A    between atoms: N3_25  and  C18_26 
REMARK    8  A    between atoms: C18_26  and  C19_27 
REMARK    9  A    between atoms: C18_26  and  C22_31 
REMARK   10  A    between atoms: C19_27  and  C20_28 
REMARK   11  A    between atoms: C20_28  and  S1_29 
REMARK   12  A    between atoms: C22_31  and  O6_33 
REMARK   13  A    between atoms: C28_39  and  O7_40 
ROOT
HETATM    1  C1  UNL     1      -8.799  -2.248   3.239  1.00  0.00     0.015 C 
HETATM    2  C2  UNL     1      -8.558  -1.772   2.165  1.00  0.00    -0.078 C 
HETATM    3  C3  UNL     1      -8.262  -1.193   0.844  1.00  0.00     0.128 C 
HETATM    4  C4  UNL     1      -7.769  -2.255  -0.152  1.00  0.00     0.052 C 
HETATM    5  C5  UNL     1      -6.849  -1.514  -1.130  1.00  0.00     0.010 C 
HETATM    6  C6  UNL     1      -6.778  -0.049  -0.654  1.00  0.00     0.002 C 
HETATM    7  C7  UNL     1      -5.509   0.769  -1.011  1.00  0.00    -0.002 C 
HETATM    8  C8  UNL     1      -5.026   0.484  -2.450  1.00  0.00     0.010 C 
HETATM    9  C9  UNL     1      -3.776  -0.382  -2.498  1.00  0.00     0.035 C 
HETATM   10  C10 UNL     1      -2.632   0.270  -1.772  1.00  0.00    -0.069 C 
HETATM   11  C11 UNL     1      -1.375   0.104  -2.222  1.00  0.00     0.030 C 
HETATM   12  C12 UNL     1      -0.218   0.742  -1.539  1.00  0.00     0.032 C 
HETATM   13  N1  UNL     1       0.902   0.822  -2.198  1.00  0.00    -0.271 N 
ATOM     14  H1  UNL     1       1.035   0.475  -3.148  1.00  0.00     0.194 HD
HETATM   15  C23 UNL     1      -0.415   1.305  -0.142  1.00  0.00     0.060 C 
HETATM   16  C24 UNL     1      -1.774   0.924   0.448  1.00  0.00     0.020 C 
HETATM   17  C25 UNL     1      -2.955   1.115  -0.540  1.00  0.00    -0.014 C 
HETATM   18  C26 UNL     1      -2.991   2.618  -0.955  1.00  0.00     0.020 C 
HETATM   19  C27 UNL     1      -4.377   0.762   0.079  1.00  0.00     0.031 C 
HETATM   20  C28 UNL     1      -4.490  -0.492   0.971  1.00  0.00     0.124 C 
HETATM   21  C29 UNL     1      -5.868  -0.624   1.652  1.00  0.00     0.045 C 
HETATM   22  C30 UNL     1      -7.106  -0.139   0.848  1.00  0.00     0.005 C 
HETATM   23  C31 UNL     1      -7.579   1.221   1.398  1.00  0.00     0.020 C 
ENDROOT
BRANCH   3  24
HETATM   24  O1  UNL     1      -9.475  -0.620   0.351  1.00  0.00    -0.377 OA
HETATM   25  H2  UNL     1      -9.454  -0.610  -0.619  1.00  0.00     0.211 HD
ENDBRANCH   3  24
BRANCH  20  26
HETATM   26  O7  UNL     1      -3.543  -0.456   2.040  1.00  0.00    -0.395 OA
HETATM   27  H40 UNL     1      -3.645  -1.278   2.553  1.00  0.00     0.210 HD
ENDBRANCH  20  26
BRANCH  13  28
HETATM   28  O2  UNL     1       1.905   1.446  -1.438  1.00  0.00    -0.271 OA
BRANCH  28  29
HETATM   29  C13 UNL     1       2.627   2.348  -2.271  1.00  0.00     0.303 C 
BRANCH  29  30
HETATM   30  C14 UNL     1       4.076   2.492  -1.827  1.00  0.00     0.244 C 
HETATM   31  O3  UNL     1       4.706   3.541  -1.965  1.00  0.00    -0.271 OA
HETATM   32  N2  UNL     1       4.648   1.341  -1.342  1.00  0.00    -0.346 N 
HETATM   33  H16 UNL     1       4.074   0.503  -1.234  1.00  0.00     0.163 HD
BRANCH  32  34
HETATM   34  C15 UNL     1       6.078   1.227  -1.085  1.00  0.00     0.172 C 
HETATM   35  C16 UNL     1       6.845   1.096  -2.402  1.00  0.00     0.042 C 
BRANCH  34  36
HETATM   36  C17 UNL     1       6.347   0.002  -0.186  1.00  0.00     0.240 C 
HETATM   37  O4  UNL     1       5.491  -0.844   0.068  1.00  0.00    -0.271 OA
HETATM   38  N3  UNL     1       7.644  -0.089   0.291  1.00  0.00    -0.345 N 
HETATM   39  H21 UNL     1       8.340   0.464  -0.199  1.00  0.00     0.163 HD
BRANCH  38  40
HETATM   40  C18 UNL     1       8.121  -1.350   0.862  1.00  0.00     0.183 C 
BRANCH  40  41
HETATM   41  C19 UNL     1       9.354  -1.129   1.745  1.00  0.00     0.046 C 
BRANCH  41  42
HETATM   42  C20 UNL     1       8.975  -0.518   3.090  1.00  0.00     0.076 C 
BRANCH  42  43
HETATM   43  S1  UNL     1      10.452  -0.055   4.064  1.00  0.00    -0.173 SA
HETATM   44  C21 UNL     1      11.096  -1.701   4.455  1.00  0.00     0.089 C 
ENDBRANCH  42  43
ENDBRANCH  41  42
ENDBRANCH  40  41
BRANCH  40  45
HETATM   45  C22 UNL     1       8.496  -2.275  -0.298  1.00  0.00     0.163 C 
HETATM   46  O5  UNL     1       8.770  -1.931  -1.438  1.00  0.00    -0.648 OA
BRANCH  45  47
HETATM   47  O6  UNL     1       8.540  -3.572   0.058  1.00  0.00    -0.775 OA
HETATM   48  H30 UNL     1       8.742  -4.042  -0.778  1.00  0.00     0.167 HD
ENDBRANCH  45  47
ENDBRANCH  40  45
ENDBRANCH  38  40
ENDBRANCH  34  36
ENDBRANCH  32  34
ENDBRANCH  29  30
ENDBRANCH  28  29
ENDBRANCH  13  28
TORSDOF 13
