REMARK  7 active torsions:
REMARK  status: ('A' for Active; 'I' for Inactive)
REMARK    1  A    between atoms: C2_2  and  C30_34 
REMARK    2  A    between atoms: C3_3  and  C4_4 
REMARK    3  A    between atoms: C4_4  and  C5_5 
REMARK    4  A    between atoms: C5_5  and  C6_6 
REMARK    5  A    between atoms: C6_6  and  C8_8 
REMARK    6  A    between atoms: C15_16  and  O2_17 
REMARK    7  A    between atoms: C30_34  and  O6_36 
ROOT
HETATM    1  C8  UNL     1       2.129   0.087  -0.433  1.00  0.00     0.006 C 
HETATM    2  C9  UNL     1       1.968   0.242  -1.964  1.00  0.00     0.085 C 
HETATM    3  C10 UNL     1       0.499   0.625  -2.131  1.00  0.00     0.141 C 
HETATM    4  O1  UNL     1      -0.039   0.680  -3.226  1.00  0.00    -0.297 OA
HETATM    5  C11 UNL     1      -0.163   0.885  -0.768  1.00  0.00     0.055 C 
HETATM    6  C12 UNL     1       0.138   2.366  -0.419  1.00  0.00     0.030 C 
HETATM    7  C13 UNL     1      -1.630   0.653  -0.516  1.00  0.00     0.010 C 
HETATM    8  C14 UNL     1      -2.119   0.208   0.670  1.00  0.00    -0.032 C 
HETATM    9  C15 UNL     1      -1.133  -0.048   1.831  1.00  0.00     0.149 C 
HETATM   10  C16 UNL     1       0.386   0.006   1.517  1.00  0.00     0.047 C 
HETATM   11  C17 UNL     1       0.665  -0.200   0.028  1.00  0.00    -0.018 C 
HETATM   12  C18 UNL     1       0.272  -1.671  -0.335  1.00  0.00     0.017 C 
HETATM   13  C19 UNL     1      -3.646  -0.114   0.905  1.00  0.00    -0.012 C 
HETATM   14  C20 UNL     1      -4.101   0.568   2.215  1.00  0.00     0.021 C 
HETATM   15  C21 UNL     1      -3.763  -1.658   1.037  1.00  0.00     0.021 C 
HETATM   16  C22 UNL     1      -5.186  -2.170   1.168  1.00  0.00     0.080 C 
HETATM   17  C23 UNL     1      -6.013  -1.743  -0.015  1.00  0.00     0.135 C 
HETATM   18  O3  UNL     1      -6.699  -2.570  -0.620  1.00  0.00    -0.297 OA
HETATM   19  C24 UNL     1      -6.052  -0.247  -0.345  1.00  0.00     0.018 C 
HETATM   20  C25 UNL     1      -6.703  -0.070  -1.740  1.00  0.00     0.023 C 
HETATM   21  C26 UNL     1      -7.024   0.426   0.649  1.00  0.00     0.023 C 
HETATM   22  C27 UNL     1      -4.590   0.371  -0.287  1.00  0.00     0.020 C 
HETATM   23  C28 UNL     1      -3.851   0.191  -1.627  1.00  0.00     0.090 C 
HETATM   24  C29 UNL     1      -2.595   1.004  -1.578  1.00  0.00     0.157 C 
HETATM   25  O4  UNL     1      -2.408   1.958  -2.324  1.00  0.00    -0.293 OA
ENDROOT
BRANCH   1  26
HETATM   26  C6  UNL     1       3.232  -0.890   0.068  1.00  0.00    -0.013 C 
HETATM   27  C7  UNL     1       3.573  -2.056  -0.866  1.00  0.00     0.010 C 
BRANCH  26  28
HETATM   28  C5  UNL     1       4.526  -0.133   0.472  1.00  0.00     0.008 C 
BRANCH  28  29
HETATM   29  C4  UNL     1       5.257   0.578  -0.669  1.00  0.00     0.028 C 
BRANCH  29  30
HETATM   30  C3  UNL     1       6.505   1.259  -0.175  1.00  0.00    -0.013 C 
HETATM   31  C2  UNL     1       7.770   0.810  -0.320  1.00  0.00     0.008 C 
HETATM   32  C1  UNL     1       8.130  -0.510  -0.939  1.00  0.00     0.055 C 
BRANCH  31  33
HETATM   33  C30 UNL     1       8.927   1.609   0.163  1.00  0.00     0.171 C 
HETATM   34  O5  UNL     1      10.098   1.294   0.053  1.00  0.00    -0.646 OA
BRANCH  33  35
HETATM   35  O6  UNL     1       8.583   2.763   0.760  1.00  0.00    -0.773 OA
HETATM   36  H42 UNL     1       9.445   3.158   1.005  1.00  0.00     0.167 HD
ENDBRANCH  33  35
ENDBRANCH  31  33
ENDBRANCH  29  30
ENDBRANCH  28  29
ENDBRANCH  26  28
ENDBRANCH   1  26
BRANCH   9  37
HETATM   37  O2  UNL     1      -1.367   0.927   2.843  1.00  0.00    -0.391 OA
HETATM   38  H20 UNL     1      -0.841   0.679   3.621  1.00  0.00     0.210 HD
ENDBRANCH   9  37
TORSDOF 7
