REMARK  6 active torsions:
REMARK  status: ('A' for Active; 'I' for Inactive)
REMARK    1  A    between atoms: C2_2  and  C3_3 
REMARK    2  A    between atoms: C2_2  and  C27_30 
REMARK    3  A    between atoms: C3_3  and  C4_4 
REMARK    4  A    between atoms: C4_4  and  C5_5 
REMARK    5  A    between atoms: C5_5  and  C7_7 
REMARK    6  A    between atoms: C26_28  and  O3_29 
ROOT
HETATM    1  C7  UNL     1      -1.713   0.683  -0.726  1.00  0.00    -0.002 C 
HETATM    2  C8  UNL     1      -1.779   1.595   0.527  1.00  0.00     0.006 C 
HETATM    3  C9  UNL     1      -0.353   1.716   1.077  1.00  0.00     0.010 C 
HETATM    4  C10 UNL     1       0.519   1.064   0.008  1.00  0.00     0.027 C 
HETATM    5  C11 UNL     1       1.935   0.639   0.319  1.00  0.00    -0.036 C 
HETATM    6  C12 UNL     1       2.556  -0.309  -0.426  1.00  0.00     0.002 C 
HETATM    7  C13 UNL     1       1.760  -1.005  -1.515  1.00  0.00     0.157 C 
HETATM    8  O1  UNL     1       2.274  -1.885  -2.206  1.00  0.00    -0.293 OA
HETATM    9  C14 UNL     1       0.316  -0.604  -1.778  1.00  0.00     0.093 C 
HETATM   10  C15 UNL     1      -0.373  -0.090  -0.513  1.00  0.00    -0.026 C 
HETATM   11  C16 UNL     1      -0.549  -1.246   0.505  1.00  0.00     0.016 C 
HETATM   12  C17 UNL     1       4.030  -0.717  -0.219  1.00  0.00    -0.008 C 
HETATM   13  C18 UNL     1       4.008  -2.095   0.495  1.00  0.00     0.021 C 
HETATM   14  C19 UNL     1       4.807  -0.853  -1.570  1.00  0.00     0.022 C 
HETATM   15  C20 UNL     1       6.295  -0.502  -1.525  1.00  0.00     0.080 C 
HETATM   16  C21 UNL     1       6.896  -0.752  -0.167  1.00  0.00     0.131 C 
HETATM   17  O2  UNL     1       7.926  -1.411  -0.030  1.00  0.00    -0.298 OA
HETATM   18  C22 UNL     1       6.217  -0.083   1.018  1.00  0.00     0.056 C 
HETATM   19  C23 UNL     1       7.096   1.078   1.483  1.00  0.00     0.018 C 
HETATM   20  C24 UNL     1       4.787   0.365   0.633  1.00  0.00     0.012 C 
HETATM   21  C25 UNL     1       3.965   0.777   1.861  1.00  0.00     0.042 C 
HETATM   22  C26 UNL     1       2.625   1.377   1.436  1.00  0.00     0.148 C 
ENDROOT
BRANCH   1  23
HETATM   23  C5  UNL     1      -3.034  -0.110  -0.969  1.00  0.00    -0.014 C 
HETATM   24  C6  UNL     1      -2.905  -1.059  -2.169  1.00  0.00     0.010 C 
BRANCH  23  25
HETATM   25  C4  UNL     1      -4.242   0.835  -1.238  1.00  0.00     0.009 C 
BRANCH  25  26
HETATM   26  C3  UNL     1      -5.052   1.291  -0.014  1.00  0.00     0.034 C 
BRANCH  26  27
HETATM   27  C2  UNL     1      -5.676   0.197   0.835  1.00  0.00    -0.086 C 
HETATM   28  C1  UNL     1      -5.239  -0.008   2.092  1.00  0.00     0.014 C 
BRANCH  27  29
HETATM   29  C27 UNL     1      -6.858  -0.614   0.310  1.00  0.00     0.005 C 
HETATM   30  C28 UNL     1      -7.907   0.229  -0.419  1.00  0.00     0.014 C 
HETATM   31  C29 UNL     1      -6.422  -1.800  -0.552  1.00  0.00     0.014 C 
ENDBRANCH  27  29
ENDBRANCH  26  27
ENDBRANCH  25  26
ENDBRANCH  23  25
ENDBRANCH   1  23
BRANCH  22  32
HETATM   32  O3  UNL     1       2.828   2.710   0.978  1.00  0.00    -0.391 OA
HETATM   33  H37 UNL     1       3.138   3.234   1.736  1.00  0.00     0.210 HD
ENDBRANCH  22  32
TORSDOF 6
