REMARK  6 active torsions:
REMARK  status: ('A' for Active; 'I' for Inactive)
REMARK    1  A    between atoms: O1_2  and  C2_3 
REMARK    2  A    between atoms: C9_12  and  C10_13 
REMARK    3  A    between atoms: C13_16  and  O4_17 
REMARK    4  A    between atoms: O4_17  and  C14_18 
REMARK    5  A    between atoms: C14_18  and  C15_19 
REMARK       I    between atoms: C15_19  and  N1_21 
REMARK    6  A    between atoms: N1_21  and  C16_22 
ROOT
HETATM    1  C10 UNL     1       2.754  -0.281   0.190  1.00  0.00    -0.020 A 
HETATM    2  C11 UNL     1       2.370  -1.172  -0.820  1.00  0.00     0.015 A 
HETATM    3  C12 UNL     1       1.018  -1.383  -1.118  1.00  0.00     0.037 A 
HETATM    4  C13 UNL     1       0.029  -0.706  -0.406  1.00  0.00     0.069 A 
HETATM    5  C23 UNL     1       0.405   0.183   0.604  1.00  0.00     0.037 A 
HETATM    6  C24 UNL     1       1.754   0.395   0.902  1.00  0.00     0.015 A 
ENDROOT
BRANCH   4   7
HETATM    7  O4  UNL     1      -1.320  -0.823  -0.591  1.00  0.00    -0.342 OA
BRANCH   7   8
HETATM    8  C14 UNL     1      -1.755  -1.732  -1.602  1.00  0.00     0.278 C 
BRANCH   8   9
HETATM    9  C15 UNL     1      -3.282  -1.768  -1.665  1.00  0.00     0.242 C 
HETATM   10  O5  UNL     1      -3.887  -2.195  -2.645  1.00  0.00    -0.271 OA
HETATM   11  N1  UNL     1      -3.907  -1.322  -0.518  1.00  0.00    -0.354 N 
HETATM   12  H11 UNL     1      -3.312  -0.809   0.127  1.00  0.00     0.162 HD
BRANCH  11  13
HETATM   13  C16 UNL     1      -5.355  -1.170  -0.429  1.00  0.00     0.089 C 
HETATM   14  C17 UNL     1      -5.814  -1.198   1.032  1.00  0.00     0.051 C 
HETATM   15  C18 UNL     1      -6.447   0.121   1.444  1.00  0.00     0.171 C 
HETATM   16  O6  UNL     1      -7.547   0.434   0.597  1.00  0.00    -0.381 OA
HETATM   17  C19 UNL     1      -7.255   0.486  -0.808  1.00  0.00     0.055 C 
HETATM   18  C20 UNL     1      -7.537   1.919  -1.271  1.00  0.00     0.045 C 
HETATM   19  C21 UNL     1      -8.243  -0.466  -1.494  1.00  0.00     0.045 C 
HETATM   20  C22 UNL     1      -5.801   0.109  -1.146  1.00  0.00     0.062 C 
ENDBRANCH  11  13
ENDBRANCH   8   9
ENDBRANCH   7   8
ENDBRANCH   4   7
BRANCH   1  21
HETATM   21  C9  UNL     1       4.183  -0.063   0.494  1.00  0.00     0.051 A 
HETATM   22  C8  UNL     1       5.063  -1.207   0.874  1.00  0.00     0.299 A 
HETATM   23  O2  UNL     1       6.395  -0.913   1.135  1.00  0.00    -0.271 OA
HETATM   24  O3  UNL     1       4.641  -2.357   0.955  1.00  0.00    -0.259 OA
HETATM   25  C7  UNL     1       6.917   0.396   1.042  1.00  0.00     0.123 A 
HETATM   26  C2  UNL     1       8.277   0.587   1.324  1.00  0.00     0.102 A 
HETATM   27  C6  UNL     1       6.083   1.448   0.675  1.00  0.00     0.002 A 
HETATM   28  C3  UNL     1       8.796   1.880   1.231  1.00  0.00     0.040 A 
HETATM   29  C4  UNL     1       7.970   2.948   0.862  1.00  0.00     0.004 A 
HETATM   30  C5  UNL     1       6.618   2.734   0.585  1.00  0.00     0.014 A 
HETATM   31  C25 UNL     1       4.682   1.181   0.396  1.00  0.00     0.032 A 
BRANCH  26  32
HETATM   32  O1  UNL     1       8.987  -0.529   1.673  1.00  0.00    -0.353 OA
HETATM   33  C1  UNL     1      10.367  -0.361   1.967  1.00  0.00     0.210 C 
ENDBRANCH  26  32
ENDBRANCH   1  21
TORSDOF 6
