REMARK  20 active torsions:
REMARK  status: ('A' for Active; 'I' for Inactive)
REMARK    1  A    between atoms: C2_2  and  C18_24 
REMARK    2  A    between atoms: C3_3  and  C4_4 
REMARK    3  A    between atoms: C4_4  and  O2_6 
REMARK    4  A    between atoms: O2_6  and  C5_7 
REMARK    5  A    between atoms: C5_7  and  C6_8 
REMARK    6  A    between atoms: C6_8  and  C7_9 
REMARK    7  A    between atoms: C7_9  and  C8_10 
REMARK    8  A    between atoms: C8_10  and  C9_11 
REMARK    9  A    between atoms: C9_11  and  C10_12 
REMARK   10  A    between atoms: C10_12  and  C11_13 
REMARK   11  A    between atoms: C11_13  and  C12_14 
REMARK       I    between atoms: C12_14  and  N1_16 
REMARK   12  A    between atoms: N1_16  and  C13_17 
REMARK   13  A    between atoms: C18_24  and  C19_25 
REMARK   14  A    between atoms: C21_28  and  C22_29 
REMARK   15  A    between atoms: C22_29  and  C23_30 
REMARK   16  A    between atoms: C24_31  and  C25_32 
REMARK   17  A    between atoms: C25_32  and  C27_34 
REMARK   18  A    between atoms: C27_34  and  O6_36 
REMARK   19  A    between atoms: C29_37  and  O7_38 
REMARK   20  A    between atoms: C30_39  and  O8_40 
ROOT
HETATM    1  C1  UNL     1      -1.396   2.645   0.165  1.00  0.00     0.043 C 
HETATM    2  C2  UNL     1      -1.015   2.419   1.606  1.00  0.00    -0.075 C 
HETATM    3  C3  UNL     1       0.249   2.266   2.051  1.00  0.00     0.084 C 
ENDROOT
BRANCH   3   4
HETATM    4  C4  UNL     1       1.489   2.150   1.250  1.00  0.00     0.283 C 
HETATM    5  O1  UNL     1       2.583   2.487   1.680  1.00  0.00    -0.260 OA
BRANCH   4   6
HETATM    6  O2  UNL     1       1.249   1.522   0.076  1.00  0.00    -0.318 OA
BRANCH   6   7
HETATM    7  C5  UNL     1       2.421   1.182  -0.676  1.00  0.00     0.179 C 
BRANCH   7   8
HETATM    8  C6  UNL     1       1.961   0.422  -1.915  1.00  0.00     0.027 C 
BRANCH   8   9
HETATM    9  C7  UNL     1       3.108  -0.116  -2.769  1.00  0.00     0.002 C 
BRANCH   9  10
HETATM   10  C8  UNL     1       3.856  -1.268  -2.090  1.00  0.00     0.000 C 
BRANCH  10  11
HETATM   11  C9  UNL     1       4.806  -2.013  -3.030  1.00  0.00     0.000 C 
BRANCH  11  12
HETATM   12  C10 UNL     1       5.912  -1.173  -3.677  1.00  0.00     0.009 C 
BRANCH  12  13
HETATM   13  C11 UNL     1       6.825  -0.415  -2.714  1.00  0.00     0.103 C 
BRANCH  13  14
HETATM   14  C12 UNL     1       7.743  -1.305  -1.894  1.00  0.00     0.218 C 
HETATM   15  O3  UNL     1       7.666  -2.526  -1.860  1.00  0.00    -0.274 OA
HETATM   16  N1  UNL     1       8.664  -0.588  -1.157  1.00  0.00    -0.348 N 
HETATM   17  H19 UNL     1       8.847   0.365  -1.450  1.00  0.00     0.163 HD
BRANCH  16  18
HETATM   18  C13 UNL     1       9.738  -1.275  -0.446  1.00  0.00     0.176 C 
HETATM   19  C14 UNL     1       9.277  -1.962   0.843  1.00  0.00     0.036 C 
HETATM   20  C15 UNL     1       8.873  -0.984   1.951  1.00  0.00     0.022 C 
HETATM   21  C16 UNL     1       9.473   0.407   1.790  1.00  0.00     0.122 C 
HETATM   22  N2  UNL     1      10.729   0.390   1.082  1.00  0.00    -0.359 N 
HETATM   23  C17 UNL     1      10.848  -0.263  -0.122  1.00  0.00     0.240 C 
HETATM   24  H27 UNL     1      11.387   1.152   1.204  1.00  0.00     0.162 HD
HETATM   25  O4  UNL     1      11.728   0.050  -0.920  1.00  0.00    -0.271 OA
ENDBRANCH  16  18
ENDBRANCH  13  14
ENDBRANCH  12  13
ENDBRANCH  11  12
ENDBRANCH  10  11
ENDBRANCH   9  10
ENDBRANCH   8   9
ENDBRANCH   7   8
ENDBRANCH   6   7
ENDBRANCH   4   6
ENDBRANCH   3   4
BRANCH   2  26
HETATM   26  C18 UNL     1      -2.174   2.392   2.593  1.00  0.00     0.068 C 
BRANCH  26  27
HETATM   27  C19 UNL     1      -2.910   1.037   2.600  1.00  0.00     0.156 C 
HETATM   28  O5  UNL     1      -3.634   0.918   1.354  1.00  0.00    -0.382 OA
HETATM   29  C20 UNL     1      -4.548  -0.179   1.376  1.00  0.00     0.175 C 
HETATM   30  C21 UNL     1      -5.745   0.165   2.275  1.00  0.00     0.044 C 
HETATM   31  C29 UNL     1      -5.321   1.172   3.365  1.00  0.00     0.155 C 
HETATM   32  C30 UNL     1      -3.870   0.932   3.805  1.00  0.00     0.176 C 
BRANCH  30  33
HETATM   33  C22 UNL     1      -6.922   0.739   1.457  1.00  0.00     0.036 C 
BRANCH  33  34
HETATM   34  C23 UNL     1      -7.599  -0.307   0.608  1.00  0.00    -0.030 C 
HETATM   35  C24 UNL     1      -7.680  -0.250  -0.731  1.00  0.00    -0.024 C 
BRANCH  35  36
HETATM   36  C25 UNL     1      -8.336  -1.261  -1.657  1.00  0.00     0.032 C 
HETATM   37  C26 UNL     1      -8.856  -2.534  -0.975  1.00  0.00     0.017 C 
BRANCH  36  38
HETATM   38  C27 UNL     1      -9.419  -0.587  -2.541  1.00  0.00     0.121 C 
HETATM   39  C28 UNL     1     -10.665  -0.141  -1.784  1.00  0.00     0.040 C 
BRANCH  38  40
HETATM   40  O6  UNL     1      -9.839  -1.475  -3.582  1.00  0.00    -0.395 OA
HETATM   41  H46 UNL     1      -9.048  -1.721  -4.090  1.00  0.00     0.210 HD
ENDBRANCH  38  40
ENDBRANCH  36  38
ENDBRANCH  35  36
ENDBRANCH  33  34
ENDBRANCH  30  33
BRANCH  31  42
HETATM   42  O7  UNL     1      -6.162   1.011   4.518  1.00  0.00    -0.392 OA
HETATM   43  H48 UNL     1      -7.054   1.317   4.276  1.00  0.00     0.210 HD
ENDBRANCH  31  42
BRANCH  32  44
HETATM   44  O8  UNL     1      -3.788  -0.394   4.363  1.00  0.00    -0.390 OA
HETATM   45  H50 UNL     1      -4.528  -0.444   5.002  1.00  0.00     0.210 HD
ENDBRANCH  32  44
ENDBRANCH  26  27
ENDBRANCH   2  26
TORSDOF 20
