REMARK  5 active torsions:
REMARK  status: ('A' for Active; 'I' for Inactive)
REMARK    1  A    between atoms: C2_2  and  C4_4 
REMARK    2  A    between atoms: C7_7  and  C8_8 
REMARK    3  A    between atoms: C8_8  and  O2_10 
REMARK    4  A    between atoms: C11_13  and  C12_14 
REMARK    5  A    between atoms: C12_14  and  O4_16 
ROOT
HETATM    1  C4  UNL     1      -4.232   0.047  -0.765  1.00  0.00     0.019 C 
HETATM    2  C5  UNL     1      -5.416   0.853  -0.168  1.00  0.00     0.011 C 
HETATM    3  C6  UNL     1      -4.847   1.693   0.987  1.00  0.00     0.021 C 
HETATM    4  C7  UNL     1      -3.581   0.936   1.405  1.00  0.00     0.050 C 
HETATM    5  C9  UNL     1      -2.542   1.772   2.164  1.00  0.00     0.022 C 
HETATM    6  C10 UNL     1      -1.210   1.001   2.294  1.00  0.00     0.023 C 
HETATM    7  C11 UNL     1      -0.592   0.555   0.919  1.00  0.00     0.057 C 
HETATM    8  C13 UNL     1      -1.703  -0.259   0.132  1.00  0.00     0.011 C 
HETATM    9  C14 UNL     1      -1.205  -0.833  -1.202  1.00  0.00     0.007 C 
HETATM   10  C15 UNL     1       0.108  -1.608  -1.075  1.00  0.00     0.006 C 
HETATM   11  C16 UNL     1       1.213  -0.810  -0.346  1.00  0.00     0.003 C 
HETATM   12  C17 UNL     1       2.661  -1.447  -0.486  1.00  0.00    -0.035 C 
HETATM   13  C18 UNL     1       2.684  -2.951  -0.090  1.00  0.00     0.016 C 
HETATM   14  C19 UNL     1       3.066  -1.408  -2.000  1.00  0.00     0.017 C 
HETATM   15  C20 UNL     1       4.565  -1.421  -2.233  1.00  0.00     0.080 C 
HETATM   16  C21 UNL     1       5.256  -0.250  -1.570  1.00  0.00     0.135 C 
HETATM   17  O5  UNL     1       6.362   0.110  -1.988  1.00  0.00    -0.297 OA
HETATM   18  C22 UNL     1       4.567   0.417  -0.362  1.00  0.00     0.017 C 
HETATM   19  C23 UNL     1       3.775   1.628  -0.873  1.00  0.00     0.023 C 
HETATM   20  C24 UNL     1       5.687   0.966   0.555  1.00  0.00     0.023 C 
HETATM   21  C25 UNL     1       3.745  -0.700   0.384  1.00  0.00     0.009 C 
HETATM   22  C26 UNL     1       3.212  -0.325   1.782  1.00  0.00     0.007 C 
HETATM   23  C27 UNL     1       1.879   0.412   1.779  1.00  0.00     0.011 C 
HETATM   24  C28 UNL     1       0.732  -0.364   1.087  1.00  0.00    -0.022 C 
HETATM   25  C29 UNL     1       0.401  -1.585   1.998  1.00  0.00     0.017 C 
HETATM   26  C30 UNL     1      -3.004   0.571   0.017  1.00  0.00     0.018 C 
ENDROOT
BRANCH   4  27
HETATM   27  C8  UNL     1      -4.046  -0.188   2.347  1.00  0.00     0.149 C 
HETATM   28  O1  UNL     1      -4.468  -0.024   3.482  1.00  0.00    -0.649 OA
BRANCH  27  29
HETATM   29  O2  UNL     1      -4.001  -1.429   1.843  1.00  0.00    -0.776 OA
HETATM   30  H11 UNL     1      -4.383  -1.986   2.553  1.00  0.00     0.167 HD
ENDBRANCH  27  29
ENDBRANCH   4  27
BRANCH   1  31
HETATM   31  C2  UNL     1      -4.197   0.165  -2.280  1.00  0.00    -0.088 C 
HETATM   32  C1  UNL     1      -4.627  -0.840  -3.061  1.00  0.00     0.014 C 
HETATM   33  C3  UNL     1      -3.706   1.447  -2.898  1.00  0.00     0.043 C 
ENDBRANCH   1  31
BRANCH   7  34
HETATM   34  C12 UNL     1      -0.235   1.852   0.136  1.00  0.00     0.149 C 
HETATM   35  O3  UNL     1      -0.330   2.040  -1.067  1.00  0.00    -0.649 OA
BRANCH  34  36
HETATM   36  O4  UNL     1       0.228   2.858   0.904  1.00  0.00    -0.776 OA
HETATM   37  H16 UNL     1       0.391   3.587   0.270  1.00  0.00     0.167 HD
ENDBRANCH  34  36
ENDBRANCH   7  34
TORSDOF 5
