REMARK  11 active torsions:
REMARK  status: ('A' for Active; 'I' for Inactive)
REMARK    1  A    between atoms: C3_3  and  C4_4 
REMARK    2  A    between atoms: C5_5  and  C6_6 
REMARK    3  A    between atoms: C6_6  and  O1_7 
REMARK       I    between atoms: N1_12  and  C11_13 
REMARK    4  A    between atoms: C11_13  and  C12_15 
REMARK    5  A    between atoms: C12_15  and  C14_17 
REMARK    6  A    between atoms: C14_17  and  C15_19 
REMARK    7  A    between atoms: C15_19  and  C16_20 
REMARK    8  A    between atoms: C16_20  and  C17_21 
REMARK    9  A    between atoms: C17_21  and  C18_22 
REMARK   10  A    between atoms: C18_22  and  C19_23 
REMARK   11  A    between atoms: C27_32  and  O5_34 
ROOT
HETATM    1  C6  UNL     1      -4.545   0.434  -0.400  1.00  0.00     0.069 C 
HETATM    2  C7  UNL     1      -3.667  -0.383   0.220  1.00  0.00    -0.026 C 
HETATM    3  C8  UNL     1      -2.605  -1.192  -0.574  1.00  0.00     0.044 C 
HETATM    4  C9  UNL     1      -1.748  -0.329  -1.528  1.00  0.00     0.031 C 
HETATM    5  C10 UNL     1      -0.476  -0.048  -0.754  1.00  0.00     0.127 C 
HETATM    6  N1  UNL     1      -0.231  -1.291  -0.053  1.00  0.00    -0.344 N 
HETATM    7  C11 UNL     1       0.996  -1.924   0.055  1.00  0.00     0.231 C 
HETATM    8  O2  UNL     1       1.075  -3.139   0.240  1.00  0.00    -0.273 OA
HETATM    9  C22 UNL     1      -1.493  -1.995   0.233  1.00  0.00     0.118 C 
HETATM   10  C23 UNL     1      -1.804  -2.111   1.739  1.00  0.00     0.102 C 
HETATM   11  C24 UNL     1      -0.736  -2.646   2.674  1.00  0.00     0.034 C 
HETATM   12  C25 UNL     1      -2.291  -0.739   2.141  1.00  0.00     0.156 C 
HETATM   13  O4  UNL     1      -1.612   0.177   2.579  1.00  0.00    -0.296 OA
HETATM   14  C26 UNL     1      -3.734  -0.624   1.726  1.00  0.00     0.130 C 
HETATM   15  C27 UNL     1      -4.278  -2.016   2.130  1.00  0.00     0.130 C 
HETATM   16  C28 UNL     1      -5.522  -2.474   1.373  1.00  0.00     0.055 C 
HETATM   17  C29 UNL     1      -3.079  -2.929   1.868  1.00  0.00     0.179 C 
HETATM   18  O6  UNL     1      -3.151  -4.148   1.778  1.00  0.00    -0.293 OA
ENDROOT
BRANCH   7  19
HETATM   19  C12 UNL     1       2.249  -1.074  -0.110  1.00  0.00     0.143 C 
HETATM   20  C13 UNL     1       2.787  -1.317  -1.521  1.00  0.00     0.028 C 
BRANCH  19  21
HETATM   21  C14 UNL     1       3.262  -1.347   1.000  1.00  0.00     0.139 C 
HETATM   22  O3  UNL     1       2.903  -1.641   2.145  1.00  0.00    -0.297 OA
BRANCH  21  23
HETATM   23  C15 UNL     1       4.734  -1.090   0.740  1.00  0.00     0.079 C 
BRANCH  23  24
HETATM   24  C16 UNL     1       5.046   0.402   0.824  1.00  0.00     0.008 C 
BRANCH  24  25
HETATM   25  C17 UNL     1       6.547   0.698   0.816  1.00  0.00     0.004 C 
BRANCH  25  26
HETATM   26  C18 UNL     1       7.225   0.376  -0.520  1.00  0.00     0.027 C 
BRANCH  26  27
HETATM   27  C19 UNL     1       8.696   0.668  -0.456  1.00  0.00    -0.031 C 
HETATM   28  C20 UNL     1       9.385   1.596  -1.138  1.00  0.00    -0.035 C 
HETATM   29  C21 UNL     1       8.867   2.572  -2.146  1.00  0.00     0.036 C 
ENDBRANCH  26  27
ENDBRANCH  25  26
ENDBRANCH  24  25
ENDBRANCH  23  24
ENDBRANCH  21  23
ENDBRANCH  19  21
ENDBRANCH   7  19
BRANCH   1  30
HETATM   30  C5  UNL     1      -5.609   1.169   0.257  1.00  0.00     0.037 C 
HETATM   31  C4  UNL     1      -6.012   2.432   0.021  1.00  0.00     0.002 C 
BRANCH  31  32
HETATM   32  C3  UNL     1      -5.362   3.387  -0.848  1.00  0.00    -0.004 C 
HETATM   33  C2  UNL     1      -5.878   4.548  -1.278  1.00  0.00    -0.031 C 
HETATM   34  C1  UNL     1      -7.237   5.118  -1.025  1.00  0.00     0.036 C 
ENDBRANCH  31  32
ENDBRANCH   1  30
BRANCH   1  35
HETATM   35  O1  UNL     1      -4.570   0.491  -1.780  1.00  0.00    -0.360 OA
HETATM   36  H8  UNL     1      -5.272   1.114  -2.046  1.00  0.00     0.217 HD
ENDBRANCH   1  35
BRANCH  15  37
HETATM   37  O5  UNL     1      -4.565  -2.005   3.527  1.00  0.00    -0.381 OA
HETATM   38  H39 UNL     1      -5.005  -2.845   3.763  1.00  0.00     0.211 HD
ENDBRANCH  15  37
TORSDOF 11
