REMARK  7 active torsions:
REMARK  status: ('A' for Active; 'I' for Inactive)
REMARK    1  A    between atoms: C2_2  and  C3_3 
REMARK    2  A    between atoms: C2_2  and  C9_10 
REMARK    3  A    between atoms: C3_3  and  C4_4 
REMARK    4  A    between atoms: C5_5  and  C6_6 
REMARK    5  A    between atoms: C6_6  and  O1_9 
REMARK    6  A    between atoms: C17_18  and  C18_19 
REMARK    7  A    between atoms: C18_19  and  O2_22 
ROOT
HETATM    1  C9  UNL     1       2.151  -0.294   1.169  1.00  0.00    -0.002 C 
HETATM    2  C10 UNL     1       2.116   1.251   1.408  1.00  0.00     0.006 C 
HETATM    3  C11 UNL     1       0.766   1.774   0.870  1.00  0.00     0.011 C 
HETATM    4  C12 UNL     1       0.202   0.595   0.056  1.00  0.00    -0.032 C 
HETATM    5  C13 UNL     1       0.938   0.656  -1.326  1.00  0.00     0.016 C 
HETATM    6  C14 UNL     1      -1.342   0.580  -0.121  1.00  0.00     0.003 C 
HETATM    7  C15 UNL     1      -1.937   1.870  -0.713  1.00  0.00     0.009 C 
HETATM    8  C16 UNL     1      -3.314   1.697  -1.345  1.00  0.00     0.042 C 
HETATM    9  C17 UNL     1      -4.243   0.628  -0.711  1.00  0.00     0.095 C 
HETATM   10  O3  UNL     1      -5.356   0.433  -1.622  1.00  0.00    -0.377 OA
HETATM   11  C21 UNL     1      -5.095  -0.403  -2.738  1.00  0.00     0.169 C 
HETATM   12  C22 UNL     1      -4.913  -1.839  -2.297  1.00  0.00     0.027 C 
HETATM   13  C23 UNL     1      -4.266  -1.967  -0.925  1.00  0.00     0.010 C 
HETATM   14  C24 UNL     1      -3.476  -0.734  -0.434  1.00  0.00     0.032 C 
HETATM   15  C25 UNL     1      -1.913  -0.741  -0.756  1.00  0.00    -0.033 C 
HETATM   16  C26 UNL     1      -1.634  -0.879  -2.269  1.00  0.00     0.016 C 
HETATM   17  C27 UNL     1      -1.255  -2.001  -0.075  1.00  0.00     0.011 C 
HETATM   18  C28 UNL     1       0.261  -1.923   0.228  1.00  0.00     0.011 C 
HETATM   19  C29 UNL     1       0.638  -0.624   0.965  1.00  0.00    -0.032 C 
HETATM   20  C30 UNL     1      -0.044  -0.671   2.373  1.00  0.00     0.016 C 
ENDROOT
BRANCH   1  21
HETATM   21  C2  UNL     1       2.970  -1.034   2.266  1.00  0.00    -0.010 C 
HETATM   22  C1  UNL     1       3.001  -2.552   2.057  1.00  0.00     0.010 C 
BRANCH  21  23
HETATM   23  C3  UNL     1       4.420  -0.490   2.396  1.00  0.00     0.031 C 
BRANCH  23  24
HETATM   24  C4  UNL     1       5.254  -0.603   1.147  1.00  0.00    -0.027 C 
HETATM   25  C5  UNL     1       5.806   0.455   0.527  1.00  0.00     0.006 C 
BRANCH  25  26
HETATM   26  C6  UNL     1       6.630   0.461  -0.736  1.00  0.00     0.068 C 
HETATM   27  C7  UNL     1       6.588  -0.842  -1.542  1.00  0.00     0.050 C 
HETATM   28  C8  UNL     1       8.078   0.836  -0.410  1.00  0.00     0.050 C 
BRANCH  26  29
HETATM   29  O1  UNL     1       6.077   1.501  -1.549  1.00  0.00    -0.387 OA
HETATM   30  H15 UNL     1       6.543   1.490  -2.400  1.00  0.00     0.211 HD
ENDBRANCH  26  29
ENDBRANCH  25  26
ENDBRANCH  23  24
ENDBRANCH  21  23
ENDBRANCH   1  21
BRANCH   9  31
HETATM   31  C18 UNL     1      -4.926   1.192   0.628  1.00  0.00     0.082 C 
HETATM   32  C19 UNL     1      -5.939   0.195   1.228  1.00  0.00     0.049 C 
HETATM   33  C20 UNL     1      -5.678   2.520   0.402  1.00  0.00     0.049 C 
BRANCH  31  34
HETATM   34  O2  UNL     1      -3.935   1.440   1.635  1.00  0.00    -0.388 OA
HETATM   35  H35 UNL     1      -4.388   1.793   2.419  1.00  0.00     0.210 HD
ENDBRANCH  31  34
ENDBRANCH   9  31
TORSDOF 7
