REMARK  8 active torsions:
REMARK  status: ('A' for Active; 'I' for Inactive)
REMARK    1  A    between atoms: C4_4  and  C5_5 
REMARK    2  A    between atoms: C5_5  and  C6_6 
REMARK    3  A    between atoms: C12_14  and  O3_15 
REMARK    4  A    between atoms: C20_24  and  O5_25 
REMARK    5  A    between atoms: C27_33  and  C28_34 
REMARK    6  A    between atoms: C28_34  and  C29_35 
REMARK    7  A    between atoms: C30_36  and  C32_38 
REMARK    8  A    between atoms: C32_38  and  O8_40 
ROOT
HETATM    1  C6  UNL     1       1.493   0.161  -0.167  1.00  0.00     0.014 A 
HETATM    2  C7  UNL     1       0.619  -0.882   0.188  1.00  0.00     0.096 A 
HETATM    3  O1  UNL     1      -0.710  -0.571   0.342  1.00  0.00    -0.333 OA
HETATM    4  C8  UNL     1      -1.638  -1.667   0.378  1.00  0.00     0.126 C 
HETATM    5  C9  UNL     1      -1.138  -2.721   1.382  1.00  0.00     0.129 C 
HETATM    6  C10 UNL     1       0.194  -3.211   0.862  1.00  0.00     0.174 C 
HETATM    7  O2  UNL     1       0.545  -4.386   0.851  1.00  0.00    -0.292 OA
HETATM    8  C11 UNL     1       1.118  -2.173   0.373  1.00  0.00     0.078 A 
HETATM    9  C12 UNL     1       2.467  -2.462   0.128  1.00  0.00     0.095 A 
HETATM   10  C13 UNL     1       3.344  -1.444  -0.270  1.00  0.00     0.032 A 
HETATM   11  C14 UNL     1       2.855  -0.137  -0.404  1.00  0.00     0.092 A 
HETATM   12  O4  UNL     1       3.645   0.912  -0.793  1.00  0.00    -0.335 OA
HETATM   13  C15 UNL     1       5.068   0.735  -0.925  1.00  0.00     0.078 C 
HETATM   14  C16 UNL     1       5.727   1.561   0.187  1.00  0.00     0.051 C 
HETATM   15  C17 UNL     1       5.438   1.319  -2.294  1.00  0.00     0.051 C 
HETATM   16  C18 UNL     1       5.552  -0.691  -0.846  1.00  0.00     0.012 C 
HETATM   17  C19 UNL     1       4.751  -1.715  -0.542  1.00  0.00     0.016 C 
HETATM   18  C20 UNL     1      -2.147  -3.863   1.555  1.00  0.00     0.144 C 
HETATM   19  C21 UNL     1      -3.257  -3.729   0.514  1.00  0.00     0.089 C 
HETATM   20  C22 UNL     1      -2.628  -3.602  -0.880  1.00  0.00     0.025 C 
HETATM   21  C23 UNL     1      -1.956  -2.211  -1.049  1.00  0.00     0.060 C 
HETATM   22  C24 UNL     1      -2.904  -1.109  -1.625  1.00  0.00     0.062 C 
HETATM   23  C25 UNL     1      -2.134  -0.007  -2.365  1.00  0.00     0.046 C 
HETATM   24  C26 UNL     1      -4.010  -1.602  -2.565  1.00  0.00     0.046 C 
HETATM   25  O6  UNL     1      -3.543  -0.505  -0.482  1.00  0.00    -0.358 OA
HETATM   26  C27 UNL     1      -3.077  -1.172   0.715  1.00  0.00     0.158 C 
HETATM   27  C33 UNL     1      -3.970  -2.430   0.840  1.00  0.00     0.171 C 
HETATM   28  O9  UNL     1      -5.160  -2.420   1.143  1.00  0.00    -0.294 OA
ENDROOT
BRANCH  26  29
HETATM   29  C28 UNL     1      -3.280  -0.281   1.951  1.00  0.00     0.077 C 
BRANCH  29  30
HETATM   30  C29 UNL     1      -2.543   1.037   1.948  1.00  0.00    -0.010 C 
HETATM   31  C30 UNL     1      -2.969   2.216   1.451  1.00  0.00     0.008 C 
HETATM   32  C31 UNL     1      -2.139   3.462   1.510  1.00  0.00     0.055 C 
BRANCH  31  33
HETATM   33  C32 UNL     1      -4.298   2.355   0.818  1.00  0.00     0.171 C 
HETATM   34  O7  UNL     1      -5.359   1.928   1.232  1.00  0.00    -0.646 OA
BRANCH  33  35
HETATM   35  O8  UNL     1      -4.224   3.069  -0.319  1.00  0.00    -0.773 OA
HETATM   36  H38 UNL     1      -5.147   3.045  -0.646  1.00  0.00     0.167 HD
ENDBRANCH  33  35
ENDBRANCH  31  33
ENDBRANCH  29  30
ENDBRANCH  26  29
BRANCH  18  37
HETATM   37  O5  UNL     1      -2.684  -3.792   2.875  1.00  0.00    -0.394 OA
HETATM   38  H21 UNL     1      -3.380  -4.471   2.966  1.00  0.00     0.210 HD
ENDBRANCH  18  37
BRANCH   1  39
HETATM   39  C5  UNL     1       1.011   1.599  -0.255  1.00  0.00     0.072 C 
BRANCH  39  40
HETATM   40  C4  UNL     1       1.348   2.384   0.988  1.00  0.00    -0.020 C 
HETATM   41  C2  UNL     1       2.010   3.553   1.086  1.00  0.00    -0.091 C 
HETATM   42  C1  UNL     1       2.568   4.338  -0.069  1.00  0.00     0.042 C 
HETATM   43  C3  UNL     1       2.251   4.184   2.433  1.00  0.00     0.042 C 
ENDBRANCH  39  40
ENDBRANCH   1  39
BRANCH   9  44
HETATM   44  O3  UNL     1       2.971  -3.733   0.276  1.00  0.00    -0.359 OA
HETATM   45  H11 UNL     1       2.235  -4.342   0.510  1.00  0.00     0.217 HD
ENDBRANCH   9  44
TORSDOF 8
