REMARK  9 active torsions:
REMARK  status: ('A' for Active; 'I' for Inactive)
REMARK    1  A    between atoms: C13_13  and  S1_14 
REMARK    2  A    between atoms: C25_30  and  O5_31 
REMARK    3  A    between atoms: C31_37  and  C32_38 
REMARK    4  A    between atoms: C32_38  and  O6_39 
REMARK    5  A    between atoms: C40_47  and  C41_48 
REMARK    6  A    between atoms: C40_47  and  N1_52 
REMARK    7  A    between atoms: C41_48  and  C42_49 
REMARK    8  A    between atoms: C42_49  and  C43_50 
REMARK    9  A    between atoms: C43_50  and  O7_51 
REMARK       I    between atoms: C44_54  and  N2_55 
REMARK       I    between atoms: C44_54  and  N3_56 
ROOT
HETATM    1  C1  UNL     1      -0.928   5.752   0.573  1.00  0.00     0.010 C 
HETATM    2  C2  UNL     1      -1.765   4.633  -0.037  1.00  0.00    -0.010 C 
HETATM    3  C3  UNL     1      -3.291   4.851   0.255  1.00  0.00     0.009 C 
HETATM    4  C4  UNL     1      -4.138   3.552   0.385  1.00  0.00     0.039 C 
HETATM    5  C5  UNL     1      -3.627   2.469  -0.528  1.00  0.00    -0.049 C 
HETATM    6  C6  UNL     1      -4.431   1.481  -1.085  1.00  0.00     0.044 C 
HETATM    7  C7  UNL     1      -3.840   0.576  -1.958  1.00  0.00     0.072 C 
HETATM    8  C8  UNL     1      -2.569   0.809  -2.484  1.00  0.00     0.037 C 
HETATM    9  C9  UNL     1      -1.739   1.707  -1.830  1.00  0.00     0.011 C 
HETATM   10  C10 UNL     1      -2.237   2.409  -0.734  1.00  0.00    -0.047 C 
HETATM   11  C11 UNL     1      -1.396   3.168   0.298  1.00  0.00     0.024 C 
HETATM   12  C12 UNL     1       0.077   2.706   0.373  1.00  0.00     0.033 C 
HETATM   13  C13 UNL     1       0.745   2.449   1.753  1.00  0.00     0.139 C 
HETATM   14  C14 UNL     1       1.487   1.080   1.915  1.00  0.00     0.038 C 
HETATM   15  C15 UNL     1       2.879   1.051   1.278  1.00  0.00    -0.014 C 
HETATM   16  C16 UNL     1       3.737   0.095   1.701  1.00  0.00    -0.050 C 
HETATM   17  C17 UNL     1       3.167  -0.946   2.648  1.00  0.00     0.042 C 
HETATM   18  C18 UNL     1       1.951  -1.534   1.901  1.00  0.00     0.001 C 
HETATM   19  C19 UNL     1       2.386  -2.152   0.514  1.00  0.00     0.038 C 
HETATM   20  C20 UNL     1       3.896  -2.409   0.262  1.00  0.00     0.130 C 
HETATM   21  O4  UNL     1       4.453  -1.139  -0.090  1.00  0.00    -0.371 OA
HETATM   22  C21 UNL     1       4.979  -0.376   1.002  1.00  0.00     0.185 C 
HETATM   23  C22 UNL     1       6.032   0.569   0.439  1.00  0.00    -0.006 A 
HETATM   24  C23 UNL     1       6.128   1.908   0.845  1.00  0.00     0.014 A 
HETATM   25  C24 UNL     1       7.147   2.728   0.350  1.00  0.00     0.037 A 
HETATM   26  C25 UNL     1       8.086   2.216  -0.539  1.00  0.00     0.067 A 
HETATM   27  C26 UNL     1       8.040   0.885  -0.943  1.00  0.00     0.057 A 
HETATM   28  C27 UNL     1       7.028   0.059  -0.450  1.00  0.00     0.029 A 
HETATM   29  C28 UNL     1       6.985  -1.325  -0.857  1.00  0.00    -0.066 C 
HETATM   30  C29 UNL     1       6.596  -2.448  -1.042  1.00  0.00    -0.101 C 
HETATM   31  C30 UNL     1       5.753  -3.663  -1.053  1.00  0.00     0.103 C 
HETATM   32  C31 UNL     1       4.216  -3.358  -0.933  1.00  0.00     0.049 C 
HETATM   33  C33 UNL     1       0.806  -0.385   1.869  1.00  0.00     0.030 C 
HETATM   34  C34 UNL     1      -0.463  -0.722   1.067  1.00  0.00    -0.050 A 
HETATM   35  C35 UNL     1      -1.716  -0.555   1.677  1.00  0.00     0.006 A 
HETATM   36  C36 UNL     1      -2.929  -0.844   1.022  1.00  0.00     0.010 A 
HETATM   37  C37 UNL     1      -2.963  -1.415  -0.259  1.00  0.00    -0.000 A 
HETATM   38  C38 UNL     1      -1.713  -1.643  -0.851  1.00  0.00     0.138 A 
HETATM   39  C39 UNL     1      -0.508  -1.249  -0.227  1.00  0.00     0.133 A 
HETATM   40  C40 UNL     1      -4.307  -1.590  -1.063  1.00  0.00     0.169 C 
HETATM   41  O8  UNL     1      -4.392  -0.650  -2.211  1.00  0.00    -0.316 OA
HETATM   42 NA1  UNL     1       0.000   0.000   0.000  1.00  0.00    -0.401 Na
ATOM     43  HA1 UNL     1       0.549   0.818   0.263  1.00  0.00     0.154 HD
ENDROOT
BRANCH  40  44
HETATM   44  C41 UNL     1      -4.329  -2.990  -1.782  1.00  0.00     0.069 C 
BRANCH  44  45
HETATM   45  C42 UNL     1      -5.403  -3.200  -2.864  1.00  0.00     0.031 C 
BRANCH  45  46
HETATM   46  C43 UNL     1      -6.839  -2.975  -2.419  1.00  0.00     0.164 C 
BRANCH  46  47
HETATM   47  O7  UNL     1      -7.713  -3.420  -3.455  1.00  0.00    -0.401 OA
HETATM   48  H46 UNL     1      -8.609  -3.151  -3.188  1.00  0.00     0.209 HD
ENDBRANCH  46  47
ENDBRANCH  45  46
ENDBRANCH  44  45
ENDBRANCH  40  44
BRANCH  40  49
HETATM   49  N1  UNL     1      -5.513  -1.517  -0.204  1.00  0.00    -0.336 N 
HETATM   50  C44 UNL     1      -5.747  -2.267   0.798  1.00  0.00     0.124 C 
HETATM   51  N2  UNL     1      -6.902  -2.106   1.484  1.00  0.00    -0.279 NA
HETATM   52  N3  UNL     1      -5.038  -3.269   1.363  1.00  0.00    -0.279 NA
HETATM   53  H47 UNL     1      -7.372  -2.981   1.674  1.00  0.00     0.126 HD
HETATM   54  H48 UNL     1      -7.509  -1.450   1.003  1.00  0.00     0.126 HD
HETATM   55  H49 UNL     1      -5.113  -3.243   2.375  1.00  0.00     0.126 HD
HETATM   56  H50 UNL     1      -4.053  -3.263   1.114  1.00  0.00     0.126 HD
ATOM     57  H1  UNL     1      -6.211  -0.810  -0.434  1.00  0.00     0.165 HD
ENDBRANCH  40  49
BRANCH  13  58
HETATM   58  S1  UNL     1      -0.114   2.892   3.286  1.00  0.00     0.106 S 
HETATM   59  O1  UNL     1      -0.609   4.243   3.058  1.00  0.00    -0.595 OA
HETATM   60  O2  UNL     1      -1.153   1.884   3.450  1.00  0.00    -0.595 OA
HETATM   61  O3  UNL     1       0.933   2.832   4.307  1.00  0.00    -0.595 OA
ENDBRANCH  13  58
BRANCH  32  62
HETATM   62  C32 UNL     1       3.680  -2.828  -2.272  1.00  0.00     0.172 C 
BRANCH  62  63
HETATM   63  O6  UNL     1       3.756  -3.852  -3.265  1.00  0.00    -0.400 OA
HETATM   64  H34 UNL     1       3.044  -4.487  -3.076  1.00  0.00     0.209 HD
ENDBRANCH  62  63
ENDBRANCH  32  62
BRANCH  26  65
HETATM   65  O5  UNL     1       9.058   3.060  -0.991  1.00  0.00    -0.361 OA
HETATM   66  H27 UNL     1       9.620   2.572  -1.615  1.00  0.00     0.217 HD
ENDBRANCH  26  65
TORSDOF 9
