REMARK  6 active torsions:
REMARK  status: ('A' for Active; 'I' for Inactive)
REMARK    1  A    between atoms: C2_2  and  C30_31 
REMARK    2  A    between atoms: C3_3  and  C4_4 
REMARK    3  A    between atoms: C4_4  and  C5_5 
REMARK    4  A    between atoms: C5_5  and  C6_6 
REMARK    5  A    between atoms: C6_6  and  C8_8 
REMARK    6  A    between atoms: C30_31  and  O3_33 
ROOT
HETATM    1  C8  UNL     1       2.070   0.459   0.994  1.00  0.00    -0.002 C 
HETATM    2  C9  UNL     1       2.056  -0.786   1.916  1.00  0.00     0.007 C 
HETATM    3  C10 UNL     1       0.595  -1.283   1.964  1.00  0.00     0.015 C 
HETATM    4  C11 UNL     1      -0.243  -0.139   1.344  1.00  0.00    -0.013 C 
HETATM    5  C12 UNL     1      -0.515   0.869   2.501  1.00  0.00     0.021 C 
HETATM    6  C13 UNL     1      -1.591  -0.467   0.732  1.00  0.00    -0.070 C 
HETATM    7  C14 UNL     1      -2.267  -1.601   0.964  1.00  0.00    -0.022 C 
HETATM    8  C15 UNL     1      -3.568  -1.866   0.281  1.00  0.00     0.034 C 
HETATM    9  C16 UNL     1      -4.488  -0.620   0.306  1.00  0.00     0.013 C 
HETATM   10  C17 UNL     1      -5.873  -0.890  -0.395  1.00  0.00     0.018 C 
HETATM   11  C18 UNL     1      -6.957   0.100   0.075  1.00  0.00     0.023 C 
HETATM   12  C19 UNL     1      -6.415  -2.302  -0.073  1.00  0.00     0.023 C 
HETATM   13  C20 UNL     1      -5.741  -0.766  -1.917  1.00  0.00     0.135 C 
HETATM   14  O1  UNL     1      -6.511  -1.344  -2.688  1.00  0.00    -0.297 OA
HETATM   15  C21 UNL     1      -4.625   0.086  -2.471  1.00  0.00     0.080 C 
HETATM   16  C22 UNL     1      -4.288   1.221  -1.519  1.00  0.00     0.017 C 
HETATM   17  C23 UNL     1      -3.730   0.710  -0.160  1.00  0.00    -0.031 C 
HETATM   18  C24 UNL     1      -4.009   1.803   0.906  1.00  0.00     0.016 C 
HETATM   19  C25 UNL     1      -2.153   0.496  -0.310  1.00  0.00     0.024 C 
HETATM   20  C26 UNL     1      -1.322   1.806  -0.471  1.00  0.00     0.010 C 
HETATM   21  C27 UNL     1       0.217   1.695  -0.360  1.00  0.00     0.011 C 
HETATM   22  C28 UNL     1       0.722   0.360   0.214  1.00  0.00    -0.029 C 
HETATM   23  C29 UNL     1       0.856  -0.638  -0.973  1.00  0.00     0.016 C 
ENDROOT
BRANCH   1  24
HETATM   24  C6  UNL     1       3.383   0.724   0.195  1.00  0.00    -0.014 C 
HETATM   25  C7  UNL     1       4.344   1.518   1.101  1.00  0.00     0.010 C 
BRANCH  24  26
HETATM   26  C5  UNL     1       4.092  -0.546  -0.340  1.00  0.00     0.008 C 
BRANCH  26  27
HETATM   27  C4  UNL     1       4.947  -0.337  -1.601  1.00  0.00     0.028 C 
BRANCH  27  28
HETATM   28  C3  UNL     1       6.229   0.418  -1.388  1.00  0.00    -0.013 C 
HETATM   29  C2  UNL     1       7.403  -0.041  -0.907  1.00  0.00     0.008 C 
HETATM   30  C1  UNL     1       8.583   0.879  -0.747  1.00  0.00     0.055 C 
BRANCH  29  31
HETATM   31  C30 UNL     1       7.589  -1.456  -0.489  1.00  0.00     0.171 C 
HETATM   32  O2  UNL     1       6.817  -2.386  -0.640  1.00  0.00    -0.646 OA
BRANCH  31  33
HETATM   33  O3  UNL     1       8.772  -1.650   0.123  1.00  0.00    -0.773 OA
HETATM   34  H46 UNL     1       8.755  -2.603   0.346  1.00  0.00     0.167 HD
ENDBRANCH  31  33
ENDBRANCH  29  31
ENDBRANCH  27  28
ENDBRANCH  26  27
ENDBRANCH  24  26
ENDBRANCH   1  24
TORSDOF 6
