REMARK  12 active torsions:
REMARK  status: ('A' for Active; 'I' for Inactive)
REMARK    1  A    between atoms: C3_3  and  O1_4 
REMARK    2  A    between atoms: N1_14  and  O2_16 
REMARK    3  A    between atoms: O2_16  and  C13_17 
REMARK    4  A    between atoms: C13_17  and  C14_18 
REMARK       I    between atoms: C14_18  and  N2_20 
REMARK    5  A    between atoms: N2_20  and  C15_21 
REMARK    6  A    between atoms: C15_21  and  C16_22 
REMARK    7  A    between atoms: C15_21  and  C26_36 
REMARK       I    between atoms: C16_22  and  N3_24 
REMARK    8  A    between atoms: N3_24  and  C17_25 
REMARK    9  A    between atoms: C17_25  and  C18_26 
REMARK   10  A    between atoms: C17_25  and  C25_33 
REMARK   11  A    between atoms: C18_26  and  C19_27 
REMARK   12  A    between atoms: C25_33  and  O6_35 
ROOT
HETATM    1  C1  UNL     1     -11.246  -1.733   0.728  1.00  0.00     0.015 C 
HETATM    2  C2  UNL     1     -10.332  -1.063   0.330  1.00  0.00    -0.078 C 
HETATM    3  C3  UNL     1      -9.228  -0.225  -0.189  1.00  0.00     0.128 C 
HETATM    4  C4  UNL     1      -9.306   1.179   0.417  1.00  0.00     0.052 C 
HETATM    5  C5  UNL     1      -8.664   1.012   1.785  1.00  0.00     0.010 C 
HETATM    6  C6  UNL     1      -7.488   0.049   1.558  1.00  0.00     0.002 C 
HETATM    7  C7  UNL     1      -6.079   0.701   1.676  1.00  0.00    -0.004 C 
HETATM    8  C8  UNL     1      -5.905   2.128   1.116  1.00  0.00     0.010 C 
HETATM    9  C9  UNL     1      -4.491   2.669   1.355  1.00  0.00     0.035 C 
HETATM   10  C10 UNL     1      -3.391   1.723   0.923  1.00  0.00    -0.069 C 
HETATM   11  C11 UNL     1      -2.340   2.185   0.222  1.00  0.00     0.030 C 
HETATM   12  C12 UNL     1      -1.168   1.325  -0.093  1.00  0.00     0.032 C 
HETATM   13  N1  UNL     1      -0.236   1.817  -0.859  1.00  0.00    -0.271 N 
ATOM     14  H1  UNL     1      -0.275   2.742  -1.287  1.00  0.00     0.194 HD
HETATM   15  C29 UNL     1      -1.111  -0.047   0.551  1.00  0.00     0.060 C 
HETATM   16  C30 UNL     1      -2.510  -0.645   0.623  1.00  0.00     0.020 C 
HETATM   17  C31 UNL     1      -3.536   0.266   1.359  1.00  0.00    -0.016 C 
HETATM   18  C32 UNL     1      -3.230   0.180   2.877  1.00  0.00     0.020 C 
HETATM   19  C33 UNL     1      -5.005  -0.238   1.077  1.00  0.00     0.002 C 
HETATM   20  C34 UNL     1      -5.290  -0.484  -0.428  1.00  0.00     0.007 C 
HETATM   21  C35 UNL     1      -6.750  -0.342  -0.865  1.00  0.00     0.014 C 
HETATM   22  C36 UNL     1      -7.788  -0.709   0.219  1.00  0.00     0.003 C 
HETATM   23  C37 UNL     1      -7.721  -2.243   0.422  1.00  0.00     0.020 C 
ENDROOT
BRANCH   3  24
HETATM   24  O1  UNL     1      -9.386  -0.131  -1.599  1.00  0.00    -0.377 OA
HETATM   25  H2  UNL     1      -9.420  -1.042  -1.936  1.00  0.00     0.211 HD
ENDBRANCH   3  24
BRANCH  13  26
HETATM   26  O2  UNL     1       0.826   0.918  -1.022  1.00  0.00    -0.271 OA
BRANCH  26  27
HETATM   27  C13 UNL     1       1.655   1.359  -2.093  1.00  0.00     0.303 C 
BRANCH  27  28
HETATM   28  C14 UNL     1       2.796   0.367  -2.312  1.00  0.00     0.244 C 
HETATM   29  O3  UNL     1       3.339   0.234  -3.406  1.00  0.00    -0.271 OA
HETATM   30  N2  UNL     1       3.145  -0.346  -1.180  1.00  0.00    -0.346 N 
HETATM   31  H16 UNL     1       2.748   0.014  -0.320  1.00  0.00     0.163 HD
BRANCH  30  32
HETATM   32  C15 UNL     1       4.348  -1.174  -1.058  1.00  0.00     0.180 C 
BRANCH  32  33
HETATM   33  C16 UNL     1       5.549  -0.240  -0.754  1.00  0.00     0.241 C 
HETATM   34  O4  UNL     1       5.635   0.919  -1.152  1.00  0.00    -0.271 OA
HETATM   35  N3  UNL     1       6.528  -0.804   0.035  1.00  0.00    -0.345 N 
HETATM   36  H18 UNL     1       6.458  -1.769   0.343  1.00  0.00     0.163 HD
BRANCH  35  37
HETATM   37  C17 UNL     1       7.766  -0.085   0.365  1.00  0.00     0.186 C 
BRANCH  37  38
HETATM   38  C18 UNL     1       8.779  -0.194  -0.782  1.00  0.00     0.074 C 
BRANCH  38  39
HETATM   39  C19 UNL     1       9.923   0.783  -0.665  1.00  0.00    -0.056 A 
HETATM   40  C20 UNL     1       9.729   2.132  -0.992  1.00  0.00     0.007 A 
HETATM   41  C21 UNL     1      10.779   3.045  -0.879  1.00  0.00     0.001 A 
HETATM   42  C22 UNL     1      12.028   2.619  -0.434  1.00  0.00     0.000 A 
HETATM   43  C23 UNL     1      12.231   1.279  -0.104  1.00  0.00     0.001 A 
HETATM   44  C24 UNL     1      11.184   0.363  -0.220  1.00  0.00     0.007 A 
ENDBRANCH  38  39
ENDBRANCH  37  38
BRANCH  37  45
HETATM   45  C25 UNL     1       8.319  -0.739   1.626  1.00  0.00     0.163 C 
HETATM   46  O5  UNL     1       8.204  -1.922   1.920  1.00  0.00    -0.648 OA
BRANCH  45  47
HETATM   47  O6  UNL     1       8.970   0.110   2.442  1.00  0.00    -0.775 OA
HETATM   48  H27 UNL     1       9.286  -0.439   3.189  1.00  0.00     0.167 HD
ENDBRANCH  45  47
ENDBRANCH  37  45
ENDBRANCH  35  37
ENDBRANCH  32  33
BRANCH  32  49
HETATM   49  C26 UNL     1       4.599  -2.167  -2.223  1.00  0.00     0.009 C 
HETATM   50  C27 UNL     1       5.784  -3.105  -1.960  1.00  0.00     0.012 C 
HETATM   51  C28 UNL     1       3.359  -3.030  -2.494  1.00  0.00     0.012 C 
ENDBRANCH  32  49
ENDBRANCH  30  32
ENDBRANCH  27  28
ENDBRANCH  26  27
ENDBRANCH  13  26
TORSDOF 12
