REMARK  10 active torsions:
REMARK  status: ('A' for Active; 'I' for Inactive)
REMARK    1  A    between atoms: C2_2  and  C4_4 
REMARK    2  A    between atoms: C7_7  and  C8_8 
REMARK    3  A    between atoms: C8_8  and  O2_10 
REMARK    4  A    between atoms: C21_23  and  O3_24 
REMARK    5  A    between atoms: O3_24  and  C22_25 
REMARK    6  A    between atoms: C24_28  and  O5_29 
REMARK    7  A    between atoms: C25_30  and  O6_31 
REMARK    8  A    between atoms: C26_32  and  O7_33 
REMARK    9  A    between atoms: C27_34  and  C29_36 
REMARK   10  A    between atoms: C29_36  and  O8_37 
ROOT
HETATM    1  C4  UNL     1      -5.473  -0.629  -1.570  1.00  0.00     0.019 C 
HETATM    2  C5  UNL     1      -6.908  -1.014  -1.120  1.00  0.00     0.011 C 
HETATM    3  C6  UNL     1      -6.903  -1.043   0.420  1.00  0.00     0.021 C 
HETATM    4  C7  UNL     1      -5.430  -1.231   0.793  1.00  0.00     0.050 C 
HETATM    5  C9  UNL     1      -5.035  -0.763   2.200  1.00  0.00     0.022 C 
HETATM    6  C10 UNL     1      -3.502  -0.802   2.373  1.00  0.00     0.011 C 
HETATM    7  C11 UNL     1      -2.691   0.011   1.298  1.00  0.00    -0.032 C 
HETATM    8  C12 UNL     1      -2.995   1.513   1.596  1.00  0.00     0.016 C 
HETATM    9  C13 UNL     1      -3.214  -0.387  -0.145  1.00  0.00     0.000 C 
HETATM   10  C14 UNL     1      -2.471   0.371  -1.252  1.00  0.00     0.006 C 
HETATM   11  C15 UNL     1      -0.964   0.119  -1.191  1.00  0.00     0.006 C 
HETATM   12  C16 UNL     1      -0.357   0.483   0.182  1.00  0.00     0.003 C 
HETATM   13  C17 UNL     1       1.241   0.497   0.205  1.00  0.00    -0.035 C 
HETATM   14  C18 UNL     1       1.833  -0.886  -0.156  1.00  0.00     0.016 C 
HETATM   15  C19 UNL     1       1.742   1.523  -0.870  1.00  0.00     0.012 C 
HETATM   16  C20 UNL     1       2.962   2.368  -0.483  1.00  0.00     0.034 C 
HETATM   17  C21 UNL     1       3.941   1.678   0.463  1.00  0.00     0.135 C 
HETATM   18  C27 UNL     1       3.245   1.267   1.808  1.00  0.00     0.008 C 
HETATM   19  C28 UNL     1       3.986   0.066   2.441  1.00  0.00     0.020 C 
HETATM   20  C30 UNL     1       1.694   1.009   1.618  1.00  0.00     0.007 C 
HETATM   21  C31 UNL     1       1.058   0.188   2.762  1.00  0.00     0.007 C 
HETATM   22  C32 UNL     1      -0.474   0.231   2.708  1.00  0.00     0.011 C 
HETATM   23  C33 UNL     1      -1.084  -0.277   1.371  1.00  0.00    -0.032 C 
HETATM   24  C34 UNL     1      -0.828  -1.813   1.312  1.00  0.00     0.016 C 
HETATM   25  C35 UNL     1      -4.755  -0.291  -0.238  1.00  0.00     0.017 C 
ENDROOT
BRANCH  17  26
HETATM   26  O3  UNL     1       4.536   0.530  -0.150  1.00  0.00    -0.352 OA
BRANCH  26  27
HETATM   27  C22 UNL     1       5.602   0.803  -1.060  1.00  0.00     0.291 C 
HETATM   28  O4  UNL     1       5.137   0.905  -2.406  1.00  0.00    -0.356 OA
HETATM   29  C23 UNL     1       5.022  -0.358  -3.057  1.00  0.00     0.205 C 
HETATM   30  C24 UNL     1       6.385  -1.044  -3.223  1.00  0.00     0.173 C 
HETATM   31  C25 UNL     1       7.384  -0.577  -2.155  1.00  0.00     0.182 C 
HETATM   32  C26 UNL     1       6.655  -0.310  -0.846  1.00  0.00     0.204 C 
BRANCH  30  33
HETATM   33  O5  UNL     1       6.212  -2.466  -3.140  1.00  0.00    -0.391 OA
HETATM   34  H37 UNL     1       7.096  -2.808  -2.881  1.00  0.00     0.210 HD
ENDBRANCH  30  33
BRANCH  31  35
HETATM   35  O6  UNL     1       8.390  -1.590  -1.973  1.00  0.00    -0.390 OA
HETATM   36  H39 UNL     1       8.890  -1.297  -1.179  1.00  0.00     0.210 HD
ENDBRANCH  31  35
BRANCH  32  37
HETATM   37  O7  UNL     1       7.613   0.059   0.169  1.00  0.00    -0.388 OA
HETATM   38  H41 UNL     1       7.091   0.423   0.906  1.00  0.00     0.210 HD
ENDBRANCH  32  37
ENDBRANCH  26  27
ENDBRANCH  17  26
BRANCH  18  39
HETATM   39  C29 UNL     1       3.384   2.469   2.804  1.00  0.00     0.176 C 
BRANCH  39  40
HETATM   40  O8  UNL     1       4.747   2.755   3.111  1.00  0.00    -0.400 OA
HETATM   41  H47 UNL     1       4.977   2.244   3.907  1.00  0.00     0.209 HD
ENDBRANCH  39  40
ENDBRANCH  18  39
BRANCH   1  42
HETATM   42  C2  UNL     1      -5.520   0.414  -2.679  1.00  0.00    -0.088 C 
HETATM   43  C1  UNL     1      -5.406   1.743  -2.499  1.00  0.00     0.014 C 
HETATM   44  C3  UNL     1      -5.684  -0.154  -4.068  1.00  0.00     0.043 C 
ENDBRANCH   1  42
BRANCH   4  45
HETATM   45  C8  UNL     1      -5.117  -2.726   0.635  1.00  0.00     0.149 C 
HETATM   46  O1  UNL     1      -4.526  -3.276  -0.280  1.00  0.00    -0.649 OA
BRANCH  45  47
HETATM   47  O2  UNL     1      -5.622  -3.480   1.637  1.00  0.00    -0.776 OA
HETATM   48  H11 UNL     1      -5.366  -4.391   1.388  1.00  0.00     0.167 HD
ENDBRANCH  45  47
ENDBRANCH   4  45
TORSDOF 10
