REMARK  9 active torsions:
REMARK  status: ('A' for Active; 'I' for Inactive)
REMARK    1  A    between atoms: C2_2  and  O1_3 
REMARK    2  A    between atoms: O1_3  and  C3_4 
REMARK    3  A    between atoms: C14_15  and  O2_16 
REMARK    4  A    between atoms: O2_16  and  C15_17 
REMARK    5  A    between atoms: C21_24  and  O4_25 
REMARK    6  A    between atoms: O4_25  and  C22_26 
REMARK    7  A    between atoms: C24_29  and  O6_30 
REMARK    8  A    between atoms: C25_31  and  O7_32 
REMARK    9  A    between atoms: C26_33  and  O8_34 
ROOT
HETATM    1  C3  UNL     1       6.300   2.169   0.583  1.00  0.00     0.260 C 
HETATM    2  C4  UNL     1       6.207   2.443  -0.928  1.00  0.00     0.065 C 
HETATM    3  C5  UNL     1       4.742   2.475  -1.379  1.00  0.00    -0.007 C 
HETATM    4  C6  UNL     1       4.630   2.893  -2.842  1.00  0.00     0.010 C 
HETATM    5  C7  UNL     1       4.143   1.076  -1.122  1.00  0.00     0.027 C 
HETATM    6  C8  UNL     1       4.705   0.450   0.188  1.00  0.00     0.130 C 
HETATM    7  C9  UNL     1       3.545  -0.320   0.849  1.00  0.00     0.042 C 
HETATM    8  C10 UNL     1       2.494  -0.485  -0.267  1.00  0.00    -0.029 C 
HETATM    9  C11 UNL     1       2.948  -1.692  -1.148  1.00  0.00     0.016 C 
HETATM   10  C12 UNL     1       1.048  -0.704   0.247  1.00  0.00     0.006 C 
HETATM   11  C13 UNL     1       0.791  -2.108   0.806  1.00  0.00     0.039 C 
HETATM   12  C14 UNL     1      -0.614  -2.193   1.410  1.00  0.00     0.138 C 
HETATM   13  C17 UNL     1      -1.679  -2.102   0.290  1.00  0.00     0.035 C 
HETATM   14  C18 UNL     1      -3.189  -2.108   0.775  1.00  0.00    -0.015 C 
HETATM   15  C19 UNL     1      -3.655  -3.577   0.971  1.00  0.00     0.018 C 
HETATM   16  C20 UNL     1      -3.391  -1.390   2.127  1.00  0.00     0.018 C 
HETATM   17  C21 UNL     1      -4.134  -1.459  -0.310  1.00  0.00     0.133 C 
HETATM   18  C27 UNL     1      -3.622  -1.759  -1.721  1.00  0.00     0.034 C 
HETATM   19  C28 UNL     1      -2.249  -1.141  -1.988  1.00  0.00     0.013 C 
HETATM   20  C29 UNL     1      -1.418  -0.977  -0.720  1.00  0.00    -0.025 A 
HETATM   21  C30 UNL     1      -1.209   0.438  -0.243  1.00  0.00     0.021 A 
HETATM   22  C31 UNL     1      -0.016  -0.314  -0.803  1.00  0.00    -0.027 A 
HETATM   23  C32 UNL     1       0.478   0.087  -2.197  1.00  0.00     0.011 C 
HETATM   24  C33 UNL     1       1.813   0.847  -2.292  1.00  0.00     0.011 C 
HETATM   25  C34 UNL     1       2.599   0.913  -0.978  1.00  0.00    -0.030 C 
HETATM   26  C35 UNL     1       2.029   2.102  -0.147  1.00  0.00     0.016 C 
HETATM   27  O9  UNL     1       5.166   1.458   1.080  1.00  0.00    -0.356 OA
ENDROOT
BRANCH  17  28
HETATM   28  O4  UNL     1      -4.212  -0.048  -0.089  1.00  0.00    -0.353 OA
BRANCH  28  29
HETATM   29  C22 UNL     1      -5.410   0.571  -0.568  1.00  0.00     0.291 C 
HETATM   30  O5  UNL     1      -5.275   0.910  -1.953  1.00  0.00    -0.356 OA
HETATM   31  C23 UNL     1      -6.524   1.336  -2.523  1.00  0.00     0.205 C 
HETATM   32  C24 UNL     1      -7.360   2.206  -1.568  1.00  0.00     0.173 C 
HETATM   33  C25 UNL     1      -6.449   2.899  -0.539  1.00  0.00     0.182 C 
HETATM   34  C26 UNL     1      -5.596   1.878   0.242  1.00  0.00     0.204 C 
BRANCH  32  35
HETATM   35  O6  UNL     1      -8.321   1.364  -0.922  1.00  0.00    -0.391 OA
HETATM   36  H39 UNL     1      -8.692   1.849  -0.162  1.00  0.00     0.210 HD
ENDBRANCH  32  35
BRANCH  33  37
HETATM   37  O7  UNL     1      -5.604   3.857  -1.192  1.00  0.00    -0.390 OA
HETATM   38  H41 UNL     1      -4.988   3.367  -1.775  1.00  0.00     0.210 HD
ENDBRANCH  33  37
BRANCH  34  39
HETATM   39  O8  UNL     1      -6.206   1.599   1.514  1.00  0.00    -0.388 OA
HETATM   40  H43 UNL     1      -5.810   2.231   2.141  1.00  0.00     0.210 HD
ENDBRANCH  34  39
ENDBRANCH  28  29
ENDBRANCH  17  28
BRANCH  12  41
HETATM   41  O2  UNL     1      -0.740  -3.472   2.067  1.00  0.00    -0.316 OA
BRANCH  41  42
HETATM   42  C15 UNL     1      -0.279  -3.537   3.348  1.00  0.00     0.255 C 
HETATM   43  C16 UNL     1      -0.456  -4.927   3.880  1.00  0.00     0.126 C 
HETATM   44  O3  UNL     1       0.232  -2.620   3.976  1.00  0.00    -0.266 OA
ENDBRANCH  41  42
ENDBRANCH  12  41
BRANCH   1  45
HETATM   45  O1  UNL     1       7.521   1.472   0.842  1.00  0.00    -0.362 OA
BRANCH  45  46
HETATM   46  C2  UNL     1       7.960   1.558   2.193  1.00  0.00     0.166 C 
HETATM   47  C1  UNL     1       7.186   0.643   3.128  1.00  0.00     0.033 C 
ENDBRANCH  45  46
ENDBRANCH   1  45
TORSDOF 9
