REMARK  2 active torsions:
REMARK  status: ('A' for Active; 'I' for Inactive)
REMARK    1  A    between atoms: C13_16  and  C14_17 
REMARK    2  A    between atoms: C14_17  and  O4_19 
ROOT
HETATM    1  C1  UNL     1      -4.074   3.362   3.488  1.00  0.00     0.046 C 
HETATM    2  C2  UNL     1      -3.666   2.300   2.509  1.00  0.00    -0.054 C 
HETATM    3  C3  UNL     1      -4.208   2.226   1.281  1.00  0.00     0.011 C 
HETATM    4  C4  UNL     1      -3.791   1.187   0.274  1.00  0.00     0.159 C 
HETATM    5  O1  UNL     1      -4.792   0.157   0.388  1.00  0.00    -0.372 OA
HETATM    6  C5  UNL     1      -4.488  -1.067  -0.279  1.00  0.00     0.162 C 
HETATM    7  C6  UNL     1      -3.780  -2.006   0.740  1.00  0.00     0.068 C 
HETATM    8  C7  UNL     1      -2.331  -2.073   0.219  1.00  0.00     0.147 C 
HETATM    9  O2  UNL     1      -1.302  -2.308   1.181  1.00  0.00    -0.312 OA
HETATM   10  C8  UNL     1      -0.267  -3.080   0.748  1.00  0.00     0.283 C 
HETATM   11  O3  UNL     1      -0.317  -3.911  -0.146  1.00  0.00    -0.260 OA
HETATM   12  C9  UNL     1       0.964  -2.677   1.457  1.00  0.00     0.082 C 
HETATM   13  C10 UNL     1       2.128  -3.249   1.113  1.00  0.00     0.006 C 
HETATM   14  C11 UNL     1       3.394  -2.952   1.733  1.00  0.00    -0.001 C 
HETATM   15  C12 UNL     1       4.234  -1.929   1.493  1.00  0.00     0.007 C 
HETATM   16  C13 UNL     1       4.149  -0.763   0.517  1.00  0.00     0.172 C 
HETATM   17  O5  UNL     1       2.784  -0.330   0.487  1.00  0.00    -0.379 OA
HETATM   18  C16 UNL     1       2.427   0.735  -0.402  1.00  0.00     0.173 C 
HETATM   19  C17 UNL     1       2.539   0.364  -1.887  1.00  0.00     0.060 C 
HETATM   20  C18 UNL     1       1.790   1.143  -2.971  1.00  0.00    -0.076 C 
HETATM   21  C19 UNL     1       2.240   0.750  -4.362  1.00  0.00     0.043 C 
HETATM   22  C20 UNL     1       0.810   2.067  -2.865  1.00  0.00     0.084 C 
HETATM   23  C21 UNL     1       0.207   2.554  -1.616  1.00  0.00     0.283 C 
HETATM   24  O6  UNL     1       0.741   3.365  -0.878  1.00  0.00    -0.260 OA
HETATM   25  O7  UNL     1      -0.962   1.889  -1.403  1.00  0.00    -0.317 OA
HETATM   26  C22 UNL     1      -1.331   1.846  -0.023  1.00  0.00     0.195 C 
HETATM   27  C23 UNL     1      -2.286   0.658   0.399  1.00  0.00     0.053 C 
HETATM   28  C24 UNL     1      -2.039   0.412   1.928  1.00  0.00     0.170 A 
HETATM   29  O8  UNL     1      -1.289   1.419   2.633  1.00  0.00    -0.370 OA
HETATM   30  C25 UNL     1      -2.670   1.328   2.971  1.00  0.00     0.180 A 
HETATM   31  C26 UNL     1      -2.149  -0.709  -0.541  1.00  0.00     0.034 C 
HETATM   32  C27 UNL     1      -0.898  -0.837  -1.408  1.00  0.00     0.022 C 
HETATM   33  C28 UNL     1      -3.441  -0.835  -1.319  1.00  0.00     0.119 A 
HETATM   34  C29 UNL     1      -3.590  -1.355  -2.735  1.00  0.00     0.210 A 
HETATM   35  O9  UNL     1      -3.699   0.043  -2.409  1.00  0.00    -0.371 OA
ENDROOT
BRANCH  16  36
HETATM   36  C14 UNL     1       5.124   0.425   0.842  1.00  0.00     0.146 C 
HETATM   37  C15 UNL     1       6.510   0.040   1.355  1.00  0.00     0.042 C 
BRANCH  36  38
HETATM   38  O4  UNL     1       5.358   1.199  -0.351  1.00  0.00    -0.393 OA
HETATM   39  H19 UNL     1       5.892   0.661  -0.961  1.00  0.00     0.210 HD
ENDBRANCH  36  38
ENDBRANCH  16  36
TORSDOF 2
