REMARK  4 active torsions:
REMARK  status: ('A' for Active; 'I' for Inactive)
REMARK    1  A    between atoms: C4_4  and  O1_5 
REMARK    2  A    between atoms: C4_4  and  C5_6 
REMARK    3  A    between atoms: C5_6  and  C6_7 
REMARK    4  A    between atoms: C6_7  and  C8_9 
ROOT
HETATM    1  C8  UNL     1       2.306  -0.474  -1.302  1.00  0.00    -0.001 C 
HETATM    2  C9  UNL     1       2.182  -2.017  -1.199  1.00  0.00     0.007 C 
HETATM    3  C10 UNL     1       0.677  -2.320  -0.990  1.00  0.00     0.015 C 
HETATM    4  C11 UNL     1      -0.047  -0.971  -1.229  1.00  0.00    -0.013 C 
HETATM    5  C12 UNL     1      -0.259  -0.847  -2.775  1.00  0.00     0.021 C 
HETATM    6  C13 UNL     1      -1.431  -0.755  -0.615  1.00  0.00    -0.070 C 
HETATM    7  C14 UNL     1      -2.337  -1.744  -0.560  1.00  0.00    -0.022 C 
HETATM    8  C15 UNL     1      -3.742  -1.575  -0.089  1.00  0.00     0.034 C 
HETATM    9  C16 UNL     1      -4.047  -0.244   0.646  1.00  0.00     0.013 C 
HETATM   10  C17 UNL     1      -5.591  -0.028   0.861  1.00  0.00     0.018 C 
HETATM   11  C18 UNL     1      -5.841   0.520   2.289  1.00  0.00     0.023 C 
HETATM   12  C19 UNL     1      -6.447  -1.312   0.743  1.00  0.00     0.023 C 
HETATM   13  C20 UNL     1      -6.154   0.971  -0.160  1.00  0.00     0.135 C 
HETATM   14  O2  UNL     1      -7.196   1.598   0.061  1.00  0.00    -0.297 OA
HETATM   15  C21 UNL     1      -5.471   1.109  -1.504  1.00  0.00     0.080 C 
HETATM   16  C22 UNL     1      -3.943   1.172  -1.458  1.00  0.00     0.017 C 
HETATM   17  C23 UNL     1      -3.319   0.968  -0.058  1.00  0.00    -0.031 C 
HETATM   18  C24 UNL     1      -3.489   2.282   0.757  1.00  0.00     0.016 C 
HETATM   19  C25 UNL     1      -1.764   0.660  -0.129  1.00  0.00     0.024 C 
HETATM   20  C26 UNL     1      -0.921   1.737  -0.867  1.00  0.00     0.010 C 
HETATM   21  C27 UNL     1       0.603   1.470  -0.933  1.00  0.00     0.011 C 
HETATM   22  C28 UNL     1       1.003   0.022  -0.603  1.00  0.00    -0.029 C 
HETATM   23  C29 UNL     1       1.107  -0.158   0.949  1.00  0.00     0.016 C 
ENDROOT
BRANCH   1  24
HETATM   24  C6  UNL     1       3.711   0.136  -1.006  1.00  0.00    -0.008 C 
HETATM   25  C7  UNL     1       4.739  -0.532  -1.939  1.00  0.00     0.010 C 
BRANCH  24  26
HETATM   26  C5  UNL     1       4.175   0.110   0.467  1.00  0.00     0.078 C 
BRANCH  26  27
HETATM   27  C4  UNL     1       5.585   0.664   0.772  1.00  0.00     0.191 A 
HETATM   28  C3  UNL     1       5.813   0.783   2.232  1.00  0.00     0.054 A 
HETATM   29  C2  UNL     1       6.840   0.030   2.621  1.00  0.00     0.015 A 
HETATM   30  C1  UNL     1       7.424  -0.183   3.961  1.00  0.00     0.054 C 
HETATM   31  C30 UNL     1       7.352  -0.615   1.409  1.00  0.00     0.291 A 
HETATM   32  O3  UNL     1       6.601  -0.231   0.343  1.00  0.00    -0.276 OA
HETATM   33  O4  UNL     1       8.295  -1.387   1.363  1.00  0.00    -0.260 OA
BRANCH  27  34
HETATM   34  O1  UNL     1       5.781   1.949   0.220  1.00  0.00    -0.362 OA
HETATM   35  H5  UNL     1       5.764   1.833  -0.744  1.00  0.00     0.213 HD
ENDBRANCH  27  34
ENDBRANCH  26  27
ENDBRANCH  24  26
ENDBRANCH   1  24
TORSDOF 4
