REMARK  12 active torsions:
REMARK  status: ('A' for Active; 'I' for Inactive)
REMARK    1  A    between atoms: C2_2  and  C3_3 
REMARK    2  A    between atoms: C2_2  and  C9_10 
REMARK    3  A    between atoms: C3_3  and  C4_4 
REMARK    4  A    between atoms: C5_5  and  C6_6 
REMARK    5  A    between atoms: C6_6  and  O1_9 
REMARK    6  A    between atoms: C27_29  and  O3_30 
REMARK    7  A    between atoms: O3_30  and  C28_31 
REMARK    8  A    between atoms: C29_33  and  C30_34 
REMARK    9  A    between atoms: C30_34  and  O5_35 
REMARK   10  A    between atoms: C31_36  and  O6_37 
REMARK   11  A    between atoms: C32_38  and  O7_39 
REMARK   12  A    between atoms: C33_40  and  O8_41 
ROOT
HETATM    1  C9  UNL     1       3.894  -1.390  -0.371  1.00  0.00    -0.002 C 
HETATM    2  C10 UNL     1       3.557  -2.734   0.337  1.00  0.00     0.006 C 
HETATM    3  C11 UNL     1       2.025  -2.704   0.639  1.00  0.00     0.011 C 
HETATM    4  C12 UNL     1       1.504  -1.444  -0.097  1.00  0.00    -0.029 C 
HETATM    5  C13 UNL     1       1.293  -1.915  -1.591  1.00  0.00     0.016 C 
HETATM    6  C14 UNL     1       0.140  -0.776   0.321  1.00  0.00     0.028 C 
HETATM    7  C15 UNL     1      -0.652  -1.268   1.497  1.00  0.00    -0.021 C 
HETATM    8  C16 UNL     1      -1.633  -0.486   1.986  1.00  0.00     0.008 C 
HETATM    9  C17 UNL     1      -1.918   0.925   1.441  1.00  0.00     0.092 C 
HETATM   10  O2  UNL     1      -1.033   1.744   2.220  1.00  0.00    -0.374 OA
HETATM   11  C18 UNL     1       0.277   1.602   1.588  1.00  0.00     0.179 C 
HETATM   12  C19 UNL     1       0.105   0.804   0.237  1.00  0.00    -0.004 C 
HETATM   13  C20 UNL     1       1.078   1.315  -0.836  1.00  0.00     0.014 C 
HETATM   14  C21 UNL     1       2.536   0.816  -0.713  1.00  0.00     0.011 C 
HETATM   15  C22 UNL     1       2.725  -0.475   0.106  1.00  0.00    -0.032 C 
HETATM   16  C23 UNL     1       2.911  -0.151   1.620  1.00  0.00     0.016 C 
HETATM   17  C24 UNL     1      -1.366   1.217   0.025  1.00  0.00     0.036 C 
HETATM   18  C25 UNL     1      -2.219   0.669  -1.116  1.00  0.00     0.011 C 
HETATM   19  C26 UNL     1      -3.430  -0.151  -0.665  1.00  0.00     0.033 C 
HETATM   20  C27 UNL     1      -4.224   0.393   0.551  1.00  0.00     0.136 C 
HETATM   21  C34 UNL     1      -3.414   1.343   1.502  1.00  0.00     0.014 C 
HETATM   22  C35 UNL     1      -3.599   2.836   1.106  1.00  0.00     0.021 C 
HETATM   23  C36 UNL     1      -3.993   1.245   2.936  1.00  0.00     0.021 C 
ENDROOT
BRANCH  20  24
HETATM   24  O3  UNL     1      -5.418   1.071   0.133  1.00  0.00    -0.352 OA
BRANCH  24  25
HETATM   25  C28 UNL     1      -6.548   0.219  -0.090  1.00  0.00     0.292 C 
HETATM   26  O4  UNL     1      -6.448  -0.465  -1.330  1.00  0.00    -0.348 OA
HETATM   27  C29 UNL     1      -7.478  -1.467  -1.495  1.00  0.00     0.179 C 
HETATM   28  C31 UNL     1      -8.829  -1.055  -0.880  1.00  0.00     0.180 C 
HETATM   29  C32 UNL     1      -8.970   0.471  -0.843  1.00  0.00     0.183 C 
HETATM   30  C33 UNL     1      -7.785   1.144  -0.130  1.00  0.00     0.204 C 
BRANCH  27  31
HETATM   31  C30 UNL     1      -7.602  -1.689  -3.006  1.00  0.00     0.198 C 
BRANCH  31  32
HETATM   32  O5  UNL     1      -6.339  -2.075  -3.543  1.00  0.00    -0.398 OA
HETATM   33  H46 UNL     1      -5.689  -1.462  -3.147  1.00  0.00     0.209 HD
ENDBRANCH  31  32
ENDBRANCH  27  31
BRANCH  28  34
HETATM   34  O6  UNL     1      -8.899  -1.545   0.473  1.00  0.00    -0.390 OA
HETATM   35  H48 UNL     1      -9.723  -1.164   0.839  1.00  0.00     0.210 HD
ENDBRANCH  28  34
BRANCH  29  36
HETATM   36  O7  UNL     1     -10.204   0.811  -0.192  1.00  0.00    -0.390 OA
HETATM   37  H50 UNL     1      -9.934   1.292   0.623  1.00  0.00     0.210 HD
ENDBRANCH  29  36
BRANCH  30  38
HETATM   38  O8  UNL     1      -8.179   1.555   1.197  1.00  0.00    -0.388 OA
HETATM   39  H52 UNL     1      -7.357   1.841   1.637  1.00  0.00     0.210 HD
ENDBRANCH  30  38
ENDBRANCH  24  25
ENDBRANCH  20  24
BRANCH   1  40
HETATM   40  C2  UNL     1       5.383  -0.921  -0.389  1.00  0.00    -0.010 C 
HETATM   41  C1  UNL     1       6.259  -2.092  -0.881  1.00  0.00     0.010 C 
BRANCH  40  42
HETATM   42  C3  UNL     1       5.957  -0.325   0.911  1.00  0.00     0.031 C 
BRANCH  42  43
HETATM   43  C4  UNL     1       7.344   0.277   0.895  1.00  0.00    -0.027 C 
HETATM   44  C5  UNL     1       8.060   0.671  -0.174  1.00  0.00     0.006 C 
BRANCH  44  45
HETATM   45  C6  UNL     1       9.438   1.299  -0.165  1.00  0.00     0.068 C 
HETATM   46  C7  UNL     1      10.416   0.443  -0.975  1.00  0.00     0.050 C 
HETATM   47  C8  UNL     1       9.376   2.719  -0.734  1.00  0.00     0.050 C 
BRANCH  45  48
HETATM   48  O1  UNL     1       9.937   1.395   1.169  1.00  0.00    -0.387 OA
HETATM   49  H15 UNL     1      10.009   0.488   1.511  1.00  0.00     0.211 HD
ENDBRANCH  45  48
ENDBRANCH  44  45
ENDBRANCH  42  43
ENDBRANCH  40  42
ENDBRANCH   1  40
TORSDOF 12
