REMARK  9 active torsions:
REMARK  status: ('A' for Active; 'I' for Inactive)
REMARK    1  A    between atoms: C6_6  and  C8_8 
REMARK    2  A    between atoms: C8_8  and  O2_10 
REMARK    3  A    between atoms: O2_10  and  C9_11 
REMARK    4  A    between atoms: C9_11  and  C10_12 
REMARK    5  A    between atoms: C10_12  and  O3_13 
REMARK    6  A    between atoms: C27_33  and  O7_34 
REMARK    7  A    between atoms: C38_45  and  O8_46 
REMARK    8  A    between atoms: C38_45  and  C39_47 
REMARK    9  A    between atoms: C39_47  and  O9_48 
ROOT
HETATM    1  O2  UNL     1       0.025  -0.299  -1.066  1.00  0.00    -0.317 OA
ENDROOT
BRANCH   1   2
HETATM    2  C8  UNL     1       0.799   0.194  -0.065  1.00  0.00     0.267 C 
HETATM    3  O1  UNL     1       0.505   0.116   1.122  1.00  0.00    -0.264 OA
BRANCH   2   4
HETATM    4  C6  UNL     1       2.043   0.917  -0.599  1.00  0.00     0.049 C 
HETATM    5  C5  UNL     1       2.342   0.647  -2.101  1.00  0.00     0.020 C 
HETATM    6  C4  UNL     1       2.956  -0.720  -2.391  1.00  0.00     0.002 C 
HETATM    7  C3  UNL     1       4.179  -1.020  -1.519  1.00  0.00     0.010 C 
HETATM    8  C2  UNL     1       3.909  -0.866   0.001  1.00  0.00    -0.035 C 
HETATM    9  C1  UNL     1       2.915  -1.988   0.416  1.00  0.00     0.016 C 
HETATM   10  C29 UNL     1       3.338   0.581   0.211  1.00  0.00     0.012 C 
HETATM   11  C37 UNL     1       5.195  -1.097   0.914  1.00  0.00     0.010 C 
HETATM   12  C30 UNL     1       3.346   0.953   1.696  1.00  0.00     0.008 C 
HETATM   13  C31 UNL     1       4.781   1.110   2.211  1.00  0.00     0.018 C 
HETATM   14  C32 UNL     1       5.808   0.181   1.549  1.00  0.00     0.028 C 
HETATM   15  C33 UNL     1       6.872  -0.242   2.593  1.00  0.00     0.026 C 
HETATM   16  C40 UNL     1       6.743   0.883   0.549  1.00  0.00     0.172 C 
HETATM   17  C34 UNL     1       8.017  -0.751   1.713  1.00  0.00     0.031 C 
HETATM   18  C35 UNL     1       7.576  -2.088   1.092  1.00  0.00     0.009 C 
HETATM   19  C38 UNL     1       8.191   0.422   0.725  1.00  0.00     0.143 C 
HETATM   20  C36 UNL     1       6.280  -1.998   0.274  1.00  0.00     0.007 C 
HETATM   21  O10 UNL     1       6.408   1.732  -0.269  1.00  0.00    -0.294 OA
HETATM   22  C7  UNL     1       1.692   2.421  -0.486  1.00  0.00     0.026 C 
BRANCH  19  23
HETATM   23  O8  UNL     1       8.920   1.467   1.394  1.00  0.00    -0.379 OA
HETATM   24  H53 UNL     1       8.801   2.277   0.860  1.00  0.00     0.211 HD
ENDBRANCH  19  23
BRANCH  19  25
HETATM   25  C39 UNL     1       8.908   0.123  -0.589  1.00  0.00     0.210 C 
BRANCH  25  26
HETATM   26  O9  UNL     1      10.213  -0.397  -0.329  1.00  0.00    -0.397 OA
HETATM   27  H56 UNL     1      10.603   0.177   0.359  1.00  0.00     0.209 HD
ENDBRANCH  25  26
ENDBRANCH  19  25
ENDBRANCH   2   4
ENDBRANCH   1   2
BRANCH   1  28
HETATM   28  C9  UNL     1      -1.234  -0.883  -0.685  1.00  0.00     0.227 C 
BRANCH  28  29
HETATM   29  C10 UNL     1      -2.280  -0.556  -1.749  1.00  0.00     0.171 C 
HETATM   30  C11 UNL     1      -3.709  -0.896  -1.322  1.00  0.00     0.175 C 
HETATM   31  O4  UNL     1      -4.012  -1.956  -0.786  1.00  0.00    -0.294 OA
HETATM   32  C12 UNL     1      -4.700   0.236  -1.668  1.00  0.00     0.037 C 
HETATM   33  C13 UNL     1      -6.016  -0.292  -2.265  1.00  0.00     0.019 C 
HETATM   34  C23 UNL     1      -4.892   1.167  -0.418  1.00  0.00     0.003 C 
HETATM   35  C28 UNL     1      -3.855   0.910  -2.771  1.00  0.00     0.059 C 
HETATM   36  C14 UNL     1      -7.193  -0.369  -1.286  1.00  0.00     0.010 C 
HETATM   37  C15 UNL     1      -6.730  -0.659   0.137  1.00  0.00     0.040 C 
HETATM   38  C16 UNL     1      -7.810  -0.636   1.227  1.00  0.00     0.051 C 
HETATM   39  C21 UNL     1      -5.771   0.413   0.689  1.00  0.00     0.084 C 
HETATM   40  C17 UNL     1      -9.166  -1.201   0.820  1.00  0.00     0.026 C 
HETATM   41  C18 UNL     1      -7.293  -1.285   2.529  1.00  0.00     0.020 C 
HETATM   42  C22 UNL     1      -7.891   0.842   1.515  1.00  0.00     0.268 C 
HETATM   43  C19 UNL     1      -5.765  -1.305   2.646  1.00  0.00     0.004 C 
HETATM   44  C20 UNL     1      -5.003  -0.200   1.890  1.00  0.00     0.040 C 
HETATM   45  O5  UNL     1      -6.668   1.395   1.273  1.00  0.00    -0.308 OA
HETATM   46  O6  UNL     1      -8.853   1.460   1.937  1.00  0.00    -0.264 OA
HETATM   47  C24 UNL     1      -5.607   2.492  -0.857  1.00  0.00     0.019 C 
HETATM   48  C25 UNL     1      -3.500   1.636   0.121  1.00  0.00     0.016 C 
HETATM   49  C26 UNL     1      -2.470   1.947  -0.978  1.00  0.00     0.042 C 
HETATM   50  C27 UNL     1      -2.462   0.935  -2.138  1.00  0.00     0.099 C 
BRANCH  29  51
HETATM   51  O3  UNL     1      -1.989  -1.297  -2.954  1.00  0.00    -0.377 OA
HETATM   52  H15 UNL     1      -2.014  -2.245  -2.720  1.00  0.00     0.211 HD
ENDBRANCH  29  51
BRANCH  50  53
HETATM   53  O7  UNL     1      -1.509   1.348  -3.112  1.00  0.00    -0.386 OA
HETATM   54  H37 UNL     1      -1.304   0.551  -3.645  1.00  0.00     0.210 HD
ENDBRANCH  50  53
ENDBRANCH  28  29
ENDBRANCH   1  28
TORSDOF 9
