REMARK  11 active torsions:
REMARK  status: ('A' for Active; 'I' for Inactive)
REMARK    1  A    between atoms: C2_2  and  C3_3 
REMARK    2  A    between atoms: C2_2  and  C4_5 
REMARK    3  A    between atoms: C3_3  and  O1_4 
REMARK    4  A    between atoms: C13_14  and  C14_15 
REMARK    5  A    between atoms: C14_15  and  C16_17 
REMARK    6  A    between atoms: C16_17  and  C17_18 
REMARK    7  A    between atoms: C17_18  and  C18_19 
REMARK    8  A    between atoms: C27_28  and  C28_29 
REMARK    9  A    between atoms: C28_29  and  C29_30 
REMARK   10  A    between atoms: C29_30  and  C30_31 
REMARK   11  A    between atoms: C30_31  and  O3_33 
ROOT
HETATM    1  C4  UNL     1      -4.410   0.255   0.980  1.00  0.00     0.025 C 
HETATM    2  C5  UNL     1      -3.645   1.455   1.602  1.00  0.00     0.010 C 
HETATM    3  C6  UNL     1      -2.122   1.323   1.692  1.00  0.00     0.007 C 
HETATM    4  C7  UNL     1      -1.595  -0.015   1.182  1.00  0.00     0.004 C 
HETATM    5  C8  UNL     1      -2.143  -0.367  -0.219  1.00  0.00    -0.027 A 
HETATM    6  C9  UNL     1      -1.304  -1.406  -0.960  1.00  0.00     0.011 C 
HETATM    7  C10 UNL     1       0.190  -1.043  -1.089  1.00  0.00     0.011 C 
HETATM    8  C11 UNL     1       0.688   0.012  -0.081  1.00  0.00    -0.032 C 
HETATM    9  C12 UNL     1       0.458   1.427  -0.689  1.00  0.00     0.016 C 
HETATM   10  C13 UNL     1       2.193  -0.099   0.346  1.00  0.00    -0.002 C 
HETATM   11  C22 UNL     1       2.206   0.626   1.727  1.00  0.00     0.006 C 
HETATM   12  C23 UNL     1       0.746   0.740   2.208  1.00  0.00     0.011 C 
HETATM   13  C24 UNL     1      -0.044  -0.212   1.292  1.00  0.00    -0.032 C 
HETATM   14  C25 UNL     1       0.180  -1.645   1.900  1.00  0.00     0.016 C 
HETATM   15  C26 UNL     1      -2.906   0.578  -1.139  1.00  0.00     0.022 A 
HETATM   16  C27 UNL     1      -3.704  -0.358  -0.268  1.00  0.00    -0.024 A 
ENDROOT
BRANCH  10  17
HETATM   17  C14 UNL     1       3.322   0.419  -0.599  1.00  0.00    -0.014 C 
HETATM   18  C15 UNL     1       3.292  -0.275  -1.965  1.00  0.00     0.010 C 
BRANCH  17  19
HETATM   19  C16 UNL     1       4.710   0.216   0.071  1.00  0.00     0.008 C 
BRANCH  19  20
HETATM   20  C17 UNL     1       5.878   0.839  -0.701  1.00  0.00     0.028 C 
BRANCH  20  21
HETATM   21  C18 UNL     1       7.147   0.802   0.108  1.00  0.00    -0.025 C 
HETATM   22  C19 UNL     1       8.107  -0.144   0.081  1.00  0.00    -0.091 C 
HETATM   23  C20 UNL     1       9.332  -0.020   0.947  1.00  0.00     0.042 C 
HETATM   24  C21 UNL     1       8.063  -1.390  -0.759  1.00  0.00     0.042 C 
ENDBRANCH  20  21
ENDBRANCH  19  20
ENDBRANCH  17  19
ENDBRANCH  10  17
BRANCH  16  25
HETATM   25  C28 UNL     1      -4.332  -1.651  -0.818  1.00  0.00     0.021 C 
BRANCH  25  26
HETATM   26  C29 UNL     1      -5.705  -1.595  -1.482  1.00  0.00     0.111 C 
BRANCH  26  27
HETATM   27  C30 UNL     1      -5.713  -1.021  -2.873  1.00  0.00     0.139 C 
HETATM   28  O2  UNL     1      -4.912  -0.260  -3.384  1.00  0.00    -0.650 OA
BRANCH  27  29
HETATM   29  O3  UNL     1      -6.793  -1.428  -3.572  1.00  0.00    -0.776 OA
HETATM   30  H48 UNL     1      -6.701  -0.974  -4.436  1.00  0.00     0.167 HD
ENDBRANCH  27  29
ENDBRANCH  26  27
ENDBRANCH  25  26
ENDBRANCH  16  25
BRANCH   1  31
HETATM   31  C2  UNL     1      -5.867   0.684   0.795  1.00  0.00    -0.061 C 
HETATM   32  C1  UNL     1      -6.833   0.149   1.569  1.00  0.00     0.017 C 
BRANCH  31  33
HETATM   33  C3  UNL     1      -6.146   1.716  -0.275  1.00  0.00     0.198 C 
BRANCH  33  34
HETATM   34  O1  UNL     1      -7.542   1.833  -0.531  1.00  0.00    -0.397 OA
HETATM   35  H5  UNL     1      -7.625   2.439  -1.283  1.00  0.00     0.209 HD
ENDBRANCH  33  34
ENDBRANCH  31  33
ENDBRANCH   1  31
TORSDOF 11
