REMARK  5 active torsions:
REMARK  status: ('A' for Active; 'I' for Inactive)
REMARK    1  A    between atoms: N1_1  and  C1_2 
REMARK    2  A    between atoms: C4_5  and  C5_6 
REMARK       I    between atoms: C5_6  and  N2_8 
REMARK    3  A    between atoms: C10_13  and  S1_14 
REMARK    4  A    between atoms: S1_14  and  N3_17 
REMARK    5  A    between atoms: C12_19  and  C13_20 
ROOT
HETATM    1  C5  UNL     1      -3.837  -0.142   1.024  1.00  0.00     0.258 C 
HETATM    2  O1  UNL     1      -3.645  -0.287   2.228  1.00  0.00    -0.267 OA
HETATM    3  N2  UNL     1      -2.993  -0.530  -0.006  1.00  0.00    -0.313 N 
HETATM    4  C6  UNL     1      -3.221  -0.303  -1.445  1.00  0.00     0.137 A 
HETATM    5  C7  UNL     1      -2.009  -0.862  -2.201  1.00  0.00     0.061 A 
HETATM    6  C8  UNL     1      -1.146  -1.364  -1.089  1.00  0.00    -0.028 A 
HETATM    7  C9  UNL     1       0.098  -1.968  -1.201  1.00  0.00     0.034 A 
HETATM    8  C10 UNL     1       0.736  -2.373  -0.024  1.00  0.00     0.080 A 
HETATM    9  C20 UNL     1       0.125  -2.200   1.231  1.00  0.00     0.027 A 
HETATM   10  C21 UNL     1      -1.128  -1.584   1.323  1.00  0.00     0.032 A 
HETATM   11  C22 UNL     1      -1.750  -1.168   0.156  1.00  0.00     0.043 A 
ENDROOT
BRANCH   8  12
HETATM   12  S1  UNL     1       2.339  -3.148  -0.106  1.00  0.00     0.268 S 
HETATM   13  O2  UNL     1       2.625  -3.385  -1.509  1.00  0.00    -0.200 OA
HETATM   14  O3  UNL     1       2.340  -4.242   0.838  1.00  0.00    -0.200 OA
BRANCH  12  15
HETATM   15  N3  UNL     1       3.336  -1.919   0.400  1.00  0.00    -0.221 N 
HETATM   16  C11 UNL     1       3.743  -0.872  -0.557  1.00  0.00     0.176 C 
HETATM   17  C12 UNL     1       4.159   0.267   0.400  1.00  0.00     0.138 C 
HETATM   18  N4  UNL     1       4.230  -0.352   1.706  1.00  0.00    -0.332 N 
HETATM   19  C19 UNL     1       3.569  -1.550   1.726  1.00  0.00     0.332 C 
HETATM   20  H18 UNL     1       4.302   0.168   2.568  1.00  0.00     0.165 HD
HETATM   21  O4  UNL     1       3.211  -2.129   2.733  1.00  0.00    -0.246 OA
BRANCH  17  22
HETATM   22  C13 UNL     1       5.437   0.968   0.022  1.00  0.00    -0.034 A 
HETATM   23  C14 UNL     1       5.400   2.278  -0.481  1.00  0.00     0.009 A 
HETATM   24  C15 UNL     1       6.578   2.933  -0.848  1.00  0.00     0.001 A 
HETATM   25  C16 UNL     1       7.806   2.286  -0.720  1.00  0.00     0.000 A 
HETATM   26  C17 UNL     1       7.859   0.985  -0.225  1.00  0.00     0.001 A 
HETATM   27  C18 UNL     1       6.682   0.329   0.143  1.00  0.00     0.009 A 
ENDBRANCH  17  22
ENDBRANCH  12  15
ENDBRANCH   8  12
BRANCH   1  28
HETATM   28  C4  UNL     1      -5.088   0.531   0.624  1.00  0.00     0.032 A 
HETATM   29  C3  UNL     1      -5.141   1.925   0.619  1.00  0.00     0.019 A 
HETATM   30  C2  UNL     1      -6.315   2.564   0.214  1.00  0.00     0.024 A 
HETATM   31  C1  UNL     1      -7.450   1.821  -0.131  1.00  0.00     0.005 A 
HETATM   32  C24 UNL     1      -7.366   0.424  -0.156  1.00  0.00     0.024 A 
HETATM   33  C23 UNL     1      -6.196  -0.227   0.244  1.00  0.00     0.019 A 
BRANCH  31  34
HETATM   34  N1  UNL     1      -8.578   2.465  -0.654  1.00  0.00    -0.303 NA
HETATM   35  H1  UNL     1      -9.436   1.930  -0.548  1.00  0.00     0.124 HD
HETATM   36  H2  UNL     1      -8.690   3.421  -0.331  1.00  0.00     0.124 HD
ENDBRANCH  31  34
ENDBRANCH   1  28
TORSDOF 5
