REMARK  5 active torsions:
REMARK  status: ('A' for Active; 'I' for Inactive)
REMARK    1  A    between atoms: C5_5  and  C6_6 
REMARK    2  A    between atoms: C6_6  and  C7_8 
REMARK    3  A    between atoms: C7_8  and  O2_9 
REMARK    4  A    between atoms: O2_9  and  C8_10 
REMARK    5  A    between atoms: C14_17  and  C15_18 
ROOT
HETATM    1  C8  UNL     1       0.919   1.146  -0.673  1.00  0.00     0.093 A 
HETATM    2  C9  UNL     1       0.957  -0.229  -0.904  1.00  0.00     0.076 A 
HETATM    3  C10 UNL     1       2.173  -0.912  -0.813  1.00  0.00     0.093 A 
HETATM    4  C11 UNL     1       3.368  -0.272  -0.493  1.00  0.00     0.011 A 
HETATM    5  C12 UNL     1       3.330   1.106  -0.263  1.00  0.00     0.042 A 
HETATM    6  C13 UNL     1       2.119   1.805  -0.351  1.00  0.00     0.068 A 
HETATM    7 CL1  UNL     1       2.154   3.511  -0.059  1.00  0.00    -0.081 Cl
HETATM    8  C14 UNL     1       4.607  -1.059  -0.410  1.00  0.00    -0.007 A 
HETATM    9  C21 UNL     1       4.533  -2.377  -0.654  1.00  0.00     0.095 A 
HETATM   10  C22 UNL     1       3.282  -3.067  -1.002  1.00  0.00     0.289 A 
HETATM   11  O3  UNL     1       3.273  -4.272  -1.227  1.00  0.00    -0.260 OA
HETATM   12  O4  UNL     1       2.134  -2.297  -1.064  1.00  0.00    -0.275 OA
ENDROOT
BRANCH   1  13
HETATM   13  O2  UNL     1      -0.210   1.919  -0.727  1.00  0.00    -0.342 OA
BRANCH  13  14
HETATM   14  C7  UNL     1      -1.441   1.333  -1.112  1.00  0.00     0.254 C 
BRANCH  14  15
HETATM   15  C6  UNL     1      -2.165   0.520  -0.031  1.00  0.00     0.155 C 
HETATM   16  O1  UNL     1      -1.678   0.312   1.081  1.00  0.00    -0.295 OA
BRANCH  15  17
HETATM   17  C5  UNL     1      -3.541  -0.015  -0.411  1.00  0.00     0.062 C 
HETATM   18  C4  UNL     1      -4.597   1.084  -0.246  1.00  0.00     0.049 C 
HETATM   19  C2  UNL     1      -6.033   0.529  -0.121  1.00  0.00     0.054 C 
HETATM   20  C1  UNL     1      -6.985   1.364  -0.991  1.00  0.00     0.045 C 
HETATM   21  C3  UNL     1      -6.548   0.578   1.326  1.00  0.00     0.045 C 
HETATM   22  O5  UNL     1      -6.088  -0.802  -0.647  1.00  0.00    -0.381 OA
HETATM   23  C24 UNL     1      -5.288  -1.767   0.034  1.00  0.00     0.169 C 
HETATM   24  C23 UNL     1      -3.908  -1.245   0.413  1.00  0.00     0.038 C 
ENDBRANCH  15  17
ENDBRANCH  14  15
ENDBRANCH  13  14
ENDBRANCH   1  13
BRANCH   8  25
HETATM   25  C15 UNL     1       5.941  -0.533  -0.068  1.00  0.00    -0.025 A 
HETATM   26  C16 UNL     1       6.322  -0.400   1.274  1.00  0.00     0.012 A 
HETATM   27  C17 UNL     1       7.584   0.101   1.598  1.00  0.00     0.001 A 
HETATM   28  C18 UNL     1       8.470   0.470   0.587  1.00  0.00     0.000 A 
HETATM   29  C19 UNL     1       8.097   0.339  -0.751  1.00  0.00     0.001 A 
HETATM   30  C20 UNL     1       6.836  -0.161  -1.079  1.00  0.00     0.012 A 
ENDBRANCH   8  25
TORSDOF 5
