REMARK  5 active torsions:
REMARK  status: ('A' for Active; 'I' for Inactive)
REMARK    1  A    between atoms: C2_2  and  C3_3 
REMARK    2  A    between atoms: C6_6  and  C7_7 
REMARK    3  A    between atoms: C7_7  and  O1_9 
REMARK    4  A    between atoms: C23_29  and  O6_30 
REMARK    5  A    between atoms: C28_36  and  O8_37 
ROOT
HETATM    1  C3  UNL     1       1.189   2.198  -0.814  1.00  0.00     0.008 C 
HETATM    2  C4  UNL     1       2.073   1.108  -1.395  1.00  0.00    -0.023 C 
HETATM    3  C5  UNL     1       2.435  -0.070  -0.859  1.00  0.00     0.004 C 
HETATM    4  C6  UNL     1       2.179  -0.639   0.523  1.00  0.00     0.183 C 
HETATM    5  O2  UNL     1       1.385  -1.827   0.313  1.00  0.00    -0.306 OA
HETATM    6  C9  UNL     1       0.599  -2.218   1.340  1.00  0.00     0.289 C 
HETATM    7  O3  UNL     1       0.558  -1.707   2.451  1.00  0.00    -0.260 OA
HETATM    8  C10 UNL     1      -0.216  -3.409   0.973  1.00  0.00     0.010 C 
HETATM    9  C11 UNL     1      -0.220  -4.479   2.025  1.00  0.00     0.054 C 
HETATM   10  C12 UNL     1      -0.962  -3.500  -0.148  1.00  0.00     0.004 C 
HETATM   11  C13 UNL     1      -1.073  -2.508  -1.281  1.00  0.00     0.147 C 
HETATM   12  C14 UNL     1      -1.197  -3.220  -2.642  1.00  0.00     0.233 C 
HETATM   13  O4  UNL     1      -0.700  -4.284  -2.976  1.00  0.00    -0.272 OA
HETATM   14  N1  UNL     1      -1.929  -2.383  -3.472  1.00  0.00    -0.327 N 
HETATM   15  C15 UNL     1      -2.350  -1.270  -2.805  1.00  0.00     0.056 C 
HETATM   16  C16 UNL     1      -2.598  -0.093  -3.370  1.00  0.00     0.084 C 
HETATM   17  C17 UNL     1      -2.698   1.098  -2.495  1.00  0.00     0.185 C 
HETATM   18  O5  UNL     1      -3.000   2.174  -2.991  1.00  0.00    -0.287 OA
HETATM   19  C18 UNL     1      -2.361   0.959  -1.048  1.00  0.00     0.040 C 
HETATM   20  C19 UNL     1      -2.271  -0.322  -0.471  1.00  0.00    -0.001 C 
HETATM   21  C20 UNL     1      -2.194  -0.429   0.932  1.00  0.00     0.021 C 
HETATM   22  C21 UNL     1      -2.113   0.698   1.757  1.00  0.00    -0.027 C 
HETATM   23  C22 UNL     1      -2.045   0.546   3.248  1.00  0.00     0.051 C 
HETATM   24  C23 UNL     1      -2.115   1.956   1.159  1.00  0.00     0.086 C 
HETATM   25  C24 UNL     1      -2.186   2.091  -0.238  1.00  0.00     0.058 C 
HETATM   26  C25 UNL     1      -1.967   3.453  -0.761  1.00  0.00     0.163 C 
HETATM   27  O7  UNL     1      -2.702   4.340  -0.316  1.00  0.00    -0.292 OA
HETATM   28  C26 UNL     1      -0.764   3.786  -1.640  1.00  0.00     0.084 C 
HETATM   29  C27 UNL     1       0.282   2.712  -1.970  1.00  0.00     0.016 C 
HETATM   30  C28 UNL     1      -2.311  -1.564  -1.324  1.00  0.00     0.143 C 
HETATM   31  H20 UNL     1      -1.921  -2.519  -4.476  1.00  0.00     0.168 HD
ENDROOT
BRANCH   4  32
HETATM   32  C7  UNL     1       3.551  -0.950   1.201  1.00  0.00     0.147 C 
HETATM   33  C8  UNL     1       3.461  -1.374   2.661  1.00  0.00     0.042 C 
BRANCH  32  34
HETATM   34  O1  UNL     1       4.251  -1.980   0.488  1.00  0.00    -0.393 OA
HETATM   35  H14 UNL     1       5.114  -2.096   0.921  1.00  0.00     0.210 HD
ENDBRANCH  32  34
ENDBRANCH   4  32
BRANCH   1  36
HETATM   36  C2  UNL     1       2.008   3.344  -0.191  1.00  0.00     0.004 C 
HETATM   37  C1  UNL     1       2.916   2.911   0.954  1.00  0.00     0.006 C 
ENDBRANCH   1  36
BRANCH  30  38
HETATM   38  O8  UNL     1      -3.509  -2.269  -0.973  1.00  0.00    -0.377 OA
HETATM   39  H31 UNL     1      -3.767  -2.829  -1.728  1.00  0.00     0.211 HD
ENDBRANCH  30  38
BRANCH  24  40
HETATM   40  O6  UNL     1      -2.047   3.055   1.982  1.00  0.00    -0.359 OA
HETATM   41  H26 UNL     1      -2.429   3.823   1.498  1.00  0.00     0.217 HD
ENDBRANCH  24  40
TORSDOF 5
