REMARK  4 active torsions:
REMARK  status: ('A' for Active; 'I' for Inactive)
REMARK    1  A    between atoms: O1_2  and  C2_3 
REMARK    2  A    between atoms: C5_10  and  N3_11 
REMARK    3  A    between atoms: N3_11  and  S1_12 
REMARK    4  A    between atoms: S1_12  and  C6_15 
ROOT
HETATM    1  N3  UNL     1       0.609  -1.888  -0.164  1.00  0.00    -0.163 NA
HETATM    2  H6  UNL     1       0.795  -2.889  -0.197  1.00  0.00     0.147 HD
ENDROOT
BRANCH   1   3
HETATM    3  C5  UNL     1       1.784  -1.150   0.107  1.00  0.00     0.146 A 
HETATM    4  C2  UNL     1       1.848   0.213   0.430  1.00  0.00     0.182 A 
HETATM    5  N1  UNL     1       3.027   0.827   0.698  1.00  0.00    -0.343 N 
HETATM    6  C3  UNL     1       4.121   0.034   0.631  1.00  0.00     0.107 A 
ATOM      7  H1  UNL     1       3.085   1.818   0.934  1.00  0.00     0.167 HD
HETATM    8  C4  UNL     1       4.047  -1.318   0.330  1.00  0.00     0.106 A 
HETATM    9  N2  UNL     1       2.876  -1.945   0.073  1.00  0.00    -0.351 N 
ATOM     10  H2  UNL     1       2.822  -2.943  -0.131  1.00  0.00     0.166 HD
BRANCH   4  11
HETATM   11  O1  UNL     1       0.674   0.927   0.546  1.00  0.00    -0.338 OA
HETATM   12  C1  UNL     1       0.882   2.310   0.817  1.00  0.00     0.211 C 
ENDBRANCH   4  11
ENDBRANCH   1   3
BRANCH   1  13
HETATM   13  S1  UNL     1      -0.317  -1.409  -1.476  1.00  0.00     0.248 S 
HETATM   14  O2  UNL     1      -0.866  -2.609  -2.072  1.00  0.00    -0.205 OA
HETATM   15  O3  UNL     1       0.442  -0.477  -2.283  1.00  0.00    -0.205 OA
BRANCH  13  16
HETATM   16  C6  UNL     1      -1.689  -0.537  -0.762  1.00  0.00     0.098 A 
HETATM   17  C7  UNL     1      -1.952   0.760  -1.242  1.00  0.00     0.027 A 
HETATM   18  C8  UNL     1      -3.015   1.498  -0.731  1.00  0.00     0.003 A 
HETATM   19  C9  UNL     1      -3.823   0.943   0.256  1.00  0.00     0.026 A 
HETATM   20  C10 UNL     1      -3.574  -0.352   0.728  1.00  0.00     0.057 A 
HETATM   21 CL1  UNL     1      -4.644  -0.949   1.954  1.00  0.00    -0.083 Cl
HETATM   22  C11 UNL     1      -2.506  -1.112   0.220  1.00  0.00     0.078 A 
HETATM   23 CL2  UNL     1      -2.250  -2.722   0.815  1.00  0.00    -0.081 Cl
ENDBRANCH  13  16
ENDBRANCH   1  13
TORSDOF 4
