REMARK  4 active torsions:
REMARK  status: ('A' for Active; 'I' for Inactive)
REMARK    1  A    between atoms: C13_14  and  O2_15 
REMARK    2  A    between atoms: C22_24  and  O3_25 
REMARK    3  A    between atoms: C22_24  and  C23_26 
REMARK    4  A    between atoms: C23_26  and  O4_27 
ROOT
HETATM    1  C1  UNL     1      -4.432   1.178   2.024  1.00  0.00     0.078 C 
HETATM    2  C2  UNL     1      -4.709   0.398   0.735  1.00  0.00     0.157 C 
HETATM    3  C3  UNL     1      -6.217   0.129   0.668  1.00  0.00     0.078 C 
HETATM    4  O1  UNL     1      -4.408   1.151  -0.431  1.00  0.00    -0.355 OA
HETATM    5  C4  UNL     1      -3.014   1.291  -0.667  1.00  0.00     0.183 C 
HETATM    6  C5  UNL     1      -2.320  -0.083  -0.838  1.00  0.00     0.011 C 
HETATM    7  C6  UNL     1      -2.883  -0.723  -2.131  1.00  0.00     0.020 C 
HETATM    8  C7  UNL     1      -2.734  -0.978   0.357  1.00  0.00     0.136 C 
HETATM    9  C8  UNL     1      -1.799  -0.828   1.552  1.00  0.00     0.034 C 
HETATM   10  C9  UNL     1      -0.417  -1.394   1.227  1.00  0.00     0.013 C 
HETATM   11  C10 UNL     1       0.110  -1.035  -0.203  1.00  0.00    -0.029 C 
HETATM   12  C11 UNL     1       0.009  -2.340  -1.047  1.00  0.00     0.016 C 
HETATM   13  C12 UNL     1      -0.744   0.128  -0.873  1.00  0.00     0.036 C 
HETATM   14  C13 UNL     1      -0.168   0.556  -2.260  1.00  0.00     0.124 C 
HETATM   15  C14 UNL     1       1.334   0.887  -2.238  1.00  0.00     0.037 C 
HETATM   16  C15 UNL     1       2.128  -0.199  -1.535  1.00  0.00    -0.002 C 
HETATM   17  C16 UNL     1       3.626   0.039  -1.328  1.00  0.00     0.013 C 
HETATM   18  C17 UNL     1       3.971  -0.741  -0.028  1.00  0.00     0.023 C 
HETATM   19  C18 UNL     1       2.690  -1.563   0.260  1.00  0.00     0.018 C 
HETATM   20  C19 UNL     1       1.607  -0.530  -0.115  1.00  0.00    -0.028 C 
HETATM   21  C20 UNL     1       1.763   0.737   0.832  1.00  0.00     0.014 C 
HETATM   22  C21 UNL     1       2.931   0.661   1.827  1.00  0.00     0.041 C 
HETATM   23  C22 UNL     1       4.247   0.158   1.199  1.00  0.00     0.083 C 
HETATM   24  O5  UNL     1      -4.104  -0.886   0.733  1.00  0.00    -0.350 OA
ENDROOT
BRANCH  23  25
HETATM   25  O3  UNL     1       4.876  -0.681   2.194  1.00  0.00    -0.387 OA
HETATM   26  H35 UNL     1       5.267  -0.053   2.837  1.00  0.00     0.210 HD
ENDBRANCH  23  25
BRANCH  23  27
HETATM   27  C23 UNL     1       5.245   1.303   0.924  1.00  0.00     0.202 C 
BRANCH  27  28
HETATM   28  O4  UNL     1       5.670   1.860   2.175  1.00  0.00    -0.398 OA
HETATM   29  H38 UNL     1       6.302   2.570   1.964  1.00  0.00     0.209 HD
ENDBRANCH  27  28
ENDBRANCH  23  27
BRANCH  14  30
HETATM   30  O2  UNL     1      -0.844   1.722  -2.724  1.00  0.00    -0.395 OA
HETATM   31  H22 UNL     1      -0.552   1.888  -3.638  1.00  0.00     0.210 HD
ENDBRANCH  14  30
TORSDOF 4
