REMARK  12 active torsions:
REMARK  status: ('A' for Active; 'I' for Inactive)
REMARK    1  A    between atoms: C3_4  and  O2_5 
REMARK    2  A    between atoms: O2_5  and  C4_6 
REMARK    3  A    between atoms: C7_9  and  C8_10 
REMARK    4  A    between atoms: N1_11  and  C9_13 
REMARK    5  A    between atoms: C9_13  and  C10_14 
REMARK    6  A    between atoms: C10_14  and  C11_15 
REMARK    7  A    between atoms: C11_15  and  O3_16 
REMARK    8  A    between atoms: C17_22  and  C18_23 
REMARK    9  A    between atoms: C24_31  and  O6_32 
REMARK   10  A    between atoms: C28_36  and  O7_37 
REMARK   11  A    between atoms: C31_40  and  O8_41 
REMARK   12  A    between atoms: C32_42  and  O9_43 
ROOT
HETATM    1  C4  UNL     1      -2.776   1.300   0.969  1.00  0.00     0.127 C 
HETATM    2  C5  UNL     1      -2.599  -0.154   1.431  1.00  0.00     0.033 C 
HETATM    3  C6  UNL     1      -1.129  -0.554   1.487  1.00  0.00     0.021 C 
HETATM    4  C7  UNL     1      -0.372  -0.417   0.124  1.00  0.00     0.026 C 
HETATM    5  C12 UNL     1       1.072   0.168   0.425  1.00  0.00     0.009 C 
HETATM    6  C13 UNL     1       1.922  -0.706   1.376  1.00  0.00     0.007 C 
HETATM    7  C14 UNL     1       3.270  -0.065   1.696  1.00  0.00     0.013 C 
HETATM    8  C15 UNL     1       4.116   0.275   0.434  1.00  0.00    -0.005 C 
HETATM    9  C16 UNL     1       4.612  -1.046  -0.187  1.00  0.00     0.019 C 
HETATM   10  C17 UNL     1       5.280   1.236   0.875  1.00  0.00     0.028 C 
HETATM   11  C22 UNL     1       4.713   2.666   0.698  1.00  0.00     0.013 C 
HETATM   12  C23 UNL     1       3.305   2.527   0.114  1.00  0.00     0.040 C 
HETATM   13  C24 UNL     1       3.283   1.140  -0.547  1.00  0.00     0.070 C 
HETATM   14  C25 UNL     1       1.865   0.571  -0.847  1.00  0.00     0.026 C 
HETATM   15  C26 UNL     1       1.027   1.542  -1.698  1.00  0.00     0.011 C 
HETATM   16  C27 UNL     1      -0.316   0.940  -2.071  1.00  0.00     0.039 C 
HETATM   17  C28 UNL     1      -1.167   0.510  -0.867  1.00  0.00     0.073 C 
HETATM   18  C29 UNL     1      -1.752   1.718  -0.106  1.00  0.00     0.071 C 
ENDROOT
BRANCH   1  19
HETATM   19  O2  UNL     1      -4.087   1.536   0.436  1.00  0.00    -0.356 OA
BRANCH  19  20
HETATM   20  C3  UNL     1      -5.127   1.471   1.413  1.00  0.00     0.263 C 
HETATM   21  O1  UNL     1      -5.700   0.166   1.514  1.00  0.00    -0.354 OA
HETATM   22  C2  UNL     1      -6.537  -0.272   0.427  1.00  0.00     0.151 C 
HETATM   23  C1  UNL     1      -5.740  -0.686  -0.806  1.00  0.00     0.042 C 
HETATM   24  C32 UNL     1      -7.635   0.759   0.124  1.00  0.00     0.175 C 
HETATM   25  C31 UNL     1      -7.015   2.149  -0.098  1.00  0.00     0.154 C 
HETATM   26  C30 UNL     1      -6.166   2.544   1.100  1.00  0.00     0.095 C 
BRANCH  24  27
HETATM   27  O9  UNL     1      -8.549   0.787   1.241  1.00  0.00    -0.390 OA
HETATM   28  H49 UNL     1      -8.018   0.736   2.057  1.00  0.00     0.210 HD
ENDBRANCH  24  27
BRANCH  25  29
HETATM   29  O8  UNL     1      -8.036   3.123  -0.317  1.00  0.00    -0.393 OA
HETATM   30  H47 UNL     1      -7.611   3.993  -0.405  1.00  0.00     0.210 HD
ENDBRANCH  25  29
ENDBRANCH  19  20
ENDBRANCH   1  19
BRANCH  17  31
HETATM   31  O7  UNL     1      -2.284  -0.200  -1.437  1.00  0.00    -0.389 OA
HETATM   32  H41 UNL     1      -2.872   0.449  -1.862  1.00  0.00     0.210 HD
ENDBRANCH  17  31
BRANCH   4  33
HETATM   33  C8  UNL     1      -0.366  -1.819  -0.504  1.00  0.00     0.068 C 
HETATM   34  N1  UNL     1       0.714  -2.452  -0.812  1.00  0.00    -0.401 N 
ATOM     35  H1  UNL     1       1.643  -2.067  -0.639  1.00  0.00     0.158 HD
BRANCH  34  36
HETATM   36  C9  UNL     1       0.508  -3.767  -1.430  1.00  0.00     0.121 C 
BRANCH  36  37
HETATM   37  C10 UNL     1       0.079  -4.801  -0.386  1.00  0.00     0.045 C 
BRANCH  37  38
HETATM   38  C11 UNL     1       0.028  -6.205  -0.975  1.00  0.00     0.165 C 
BRANCH  38  39
HETATM   39  O3  UNL     1       1.342  -6.660  -1.293  1.00  0.00    -0.401 OA
HETATM   40  H18 UNL     1       1.831  -6.745  -0.452  1.00  0.00     0.209 HD
ENDBRANCH  38  39
ENDBRANCH  37  38
ENDBRANCH  36  37
ENDBRANCH  34  36
ENDBRANCH   4  33
BRANCH  13  41
HETATM   41  O6  UNL     1       4.007   1.252  -1.781  1.00  0.00    -0.389 OA
HETATM   42  H35 UNL     1       3.567   1.904  -2.349  1.00  0.00     0.210 HD
ENDBRANCH  13  41
BRANCH  10  43
HETATM   43  C18 UNL     1       6.639   1.082   0.241  1.00  0.00    -0.045 A 
HETATM   44  C19 UNL     1       7.741   0.687   0.884  1.00  0.00     0.087 A 
HETATM   45  C20 UNL     1       8.844   0.726  -0.072  1.00  0.00     0.283 A 
HETATM   46  O4  UNL     1       9.996   0.434   0.188  1.00  0.00    -0.260 OA
HETATM   47  O5  UNL     1       8.377   1.155  -1.271  1.00  0.00    -0.314 OA
HETATM   48  C21 UNL     1       6.966   1.377  -1.177  1.00  0.00     0.213 A 
ENDBRANCH  10  43
TORSDOF 12
