REMARK  6 active torsions:
REMARK  status: ('A' for Active; 'I' for Inactive)
REMARK    1  A    between atoms: C2_2  and  C3_3 
REMARK    2  A    between atoms: C11_12  and  C12_13 
REMARK    3  A    between atoms: C25_28  and  C26_29 
REMARK    4  A    between atoms: C27_32  and  C30_35 
REMARK    5  A    between atoms: C31_36  and  O3_37 
REMARK    6  A    between atoms: C37_44  and  O4_45 
ROOT
HETATM    1  C12 UNL     1      -0.266  -0.090   0.391  1.00  0.00    -0.003 C 
HETATM    2  C13 UNL     1      -0.719  -0.491   1.590  1.00  0.00     0.102 C 
HETATM    3  N2  UNL     1      -1.914  -1.138   1.773  1.00  0.00    -0.349 N 
HETATM    4  C14 UNL     1      -2.657  -1.241   2.972  1.00  0.00     0.041 A 
HETATM    5  C15 UNL     1      -2.191  -1.067   4.269  1.00  0.00     0.030 A 
HETATM    6  C16 UNL     1      -3.092  -1.137   5.336  1.00  0.00     0.002 A 
HETATM    7  C17 UNL     1      -4.452  -1.388   5.107  1.00  0.00     0.001 A 
HETATM    8  C18 UNL     1      -4.924  -1.560   3.807  1.00  0.00     0.010 A 
HETATM    9  C19 UNL     1      -4.022  -1.489   2.756  1.00  0.00    -0.018 A 
HETATM   10  C20 UNL     1      -4.304  -1.534   1.293  1.00  0.00     0.043 C 
HETATM   11  C21 UNL     1      -5.332  -2.570   0.780  1.00  0.00     0.049 C 
HETATM   12  C22 UNL     1      -6.474  -1.773   0.023  1.00  0.00     0.274 C 
HETATM   13  N3  UNL     1      -6.256  -0.306   0.199  1.00  0.00     0.098 N 
HETATM   14  C23 UNL     1      -6.127   0.469  -1.135  1.00  0.00     0.308 C 
HETATM   15  C24 UNL     1      -4.645   0.890  -1.627  1.00  0.00    -0.041 C 
HETATM   16  C25 UNL     1      -4.354   1.217  -2.903  1.00  0.00     0.089 C 
HETATM   17  C27 UNL     1      -3.447   0.903  -0.580  1.00  0.00     0.027 C 
HETATM   18  C28 UNL     1      -4.149   1.004   0.759  1.00  0.00     0.046 C 
HETATM   19  C29 UNL     1      -4.914  -0.305   0.720  1.00  0.00     0.239 C 
HETATM   20  C30 UNL     1      -2.588  -0.492  -0.603  1.00  0.00     0.052 C 
HETATM   21  C31 UNL     1      -1.074  -0.322  -0.863  1.00  0.00     0.160 C 
HETATM   22  C32 UNL     1      -2.828  -1.510   0.656  1.00  0.00     0.112 C 
ENDROOT
BRANCH   1  23
HETATM   23  C11 UNL     1       1.022   0.611   0.287  1.00  0.00    -0.016 A 
HETATM   24  C3  UNL     1       1.148   1.997   0.435  1.00  0.00    -0.032 A 
HETATM   25  C4  UNL     1       2.416   2.567   0.278  1.00  0.00     0.104 A 
HETATM   26  N1  UNL     1       3.520   1.829  -0.008  1.00  0.00    -0.330 N 
HETATM   27  C5  UNL     1       4.720   2.439  -0.148  1.00  0.00     0.097 A 
HETATM   28  C9  UNL     1       3.399   0.475  -0.147  1.00  0.00     0.067 A 
HETATM   29  C6  UNL     1       5.885   1.736  -0.426  1.00  0.00     0.032 A 
HETATM   30  C7  UNL     1       5.813   0.345  -0.569  1.00  0.00     0.009 A 
HETATM   31  C8  UNL     1       4.569  -0.258  -0.431  1.00  0.00     0.071 A 
HETATM   32  C39 UNL     1       6.785  -0.672  -0.843  1.00  0.00     0.036 A 
HETATM   33  N4  UNL     1       4.768  -1.608  -0.638  1.00  0.00    -0.353 N 
HETATM   34  C33 UNL     1       6.093  -1.879  -0.890  1.00  0.00     0.046 A 
HETATM   35  H30 UNL     1       4.043  -2.320  -0.632  1.00  0.00     0.166 HD
HETATM   36  C34 UNL     1       6.717  -3.099  -1.154  1.00  0.00     0.030 A 
HETATM   37  C35 UNL     1       8.094  -3.077  -1.379  1.00  0.00     0.005 A 
HETATM   38  C36 UNL     1       8.821  -1.887  -1.323  1.00  0.00     0.038 A 
HETATM   39  C37 UNL     1       8.190  -0.665  -1.048  1.00  0.00     0.081 A 
HETATM   40  C10 UNL     1       2.153  -0.150  -0.003  1.00  0.00     0.045 A 
BRANCH  24  41
HETATM   41  C2  UNL     1      -0.033   2.902   0.743  1.00  0.00     0.036 C 
HETATM   42  C1  UNL     1      -0.306   3.917  -0.360  1.00  0.00     0.010 C 
ENDBRANCH  24  41
BRANCH  39  43
HETATM   43  O4  UNL     1       8.830   0.543  -0.957  1.00  0.00    -0.355 OA
HETATM   44  C38 UNL     1      10.246   0.553  -1.129  1.00  0.00     0.210 C 
ENDBRANCH  39  43
ENDBRANCH   1  23
BRANCH  21  45
HETATM   45  O3  UNL     1      -0.809   0.715  -1.810  1.00  0.00    -0.390 OA
HETATM   46  H28 UNL     1      -1.452   0.621  -2.543  1.00  0.00     0.210 HD
ENDBRANCH  21  45
BRANCH  16  47
HETATM   47  C26 UNL     1      -5.264   1.263  -4.137  1.00  0.00     0.198 C 
HETATM   48  O1  UNL     1      -4.613   1.346  -5.219  1.00  0.00    -0.645 OA
HETATM   49  O2  UNL     1      -6.504   1.207  -3.926  1.00  0.00    -0.645 OA
ENDBRANCH  16  47
TORSDOF 6
