REMARK  9 active torsions:
REMARK  status: ('A' for Active; 'I' for Inactive)
REMARK    1  A    between atoms: C2_2  and  C3_3 
REMARK    2  A    between atoms: C2_2  and  C27_31 
REMARK    3  A    between atoms: C3_3  and  C4_4 
REMARK    4  A    between atoms: C4_4  and  C5_5 
REMARK    5  A    between atoms: C5_5  and  C7_7 
REMARK    6  A    between atoms: C22_24  and  O3_26 
REMARK    7  A    between atoms: C26_29  and  O4_30 
REMARK    8  A    between atoms: C27_31  and  C29_33 
REMARK    9  A    between atoms: C29_33  and  O6_35 
ROOT
HETATM    1  C7  UNL     1       1.751   0.571  -0.761  1.00  0.00    -0.002 C 
HETATM    2  C8  UNL     1       1.593  -0.962  -0.909  1.00  0.00     0.006 C 
HETATM    3  C9  UNL     1       0.342  -1.362  -0.133  1.00  0.00     0.010 C 
HETATM    4  C10 UNL     1      -0.353  -0.056   0.272  1.00  0.00     0.027 C 
HETATM    5  C11 UNL     1      -1.865  -0.151   0.251  1.00  0.00    -0.036 C 
HETATM    6  C12 UNL     1      -2.648   0.383  -0.714  1.00  0.00     0.002 C 
HETATM    7  C13 UNL     1      -1.960   0.953  -1.936  1.00  0.00     0.157 C 
HETATM    8  O1  UNL     1      -2.607   1.334  -2.912  1.00  0.00    -0.293 OA
HETATM    9  C14 UNL     1      -0.448   0.965  -2.018  1.00  0.00     0.093 C 
HETATM   10  C15 UNL     1       0.246   1.028  -0.644  1.00  0.00    -0.026 C 
HETATM   11  C16 UNL     1       0.021   2.432  -0.059  1.00  0.00     0.016 C 
HETATM   12  C17 UNL     1      -4.202   0.418  -0.644  1.00  0.00    -0.006 C 
HETATM   13  C18 UNL     1      -4.667   1.886  -0.848  1.00  0.00     0.021 C 
HETATM   14  C19 UNL     1      -4.770  -0.499  -1.766  1.00  0.00     0.022 C 
HETATM   15  C20 UNL     1      -6.276  -0.711  -1.709  1.00  0.00     0.083 C 
HETATM   16  C21 UNL     1      -6.648  -1.258  -0.357  1.00  0.00     0.161 C 
HETATM   17  O2  UNL     1      -7.206  -2.349  -0.239  1.00  0.00    -0.295 OA
HETATM   18  C22 UNL     1      -6.265  -0.373   0.837  1.00  0.00     0.119 C 
HETATM   19  C23 UNL     1      -6.731  -1.020   2.148  1.00  0.00     0.055 C 
HETATM   20  C24 UNL     1      -4.733  -0.073   0.780  1.00  0.00     0.043 C 
HETATM   21  C25 UNL     1      -3.897  -1.272   1.268  1.00  0.00     0.045 C 
HETATM   22  C26 UNL     1      -2.434  -0.884   1.433  1.00  0.00     0.148 C 
ENDROOT
BRANCH   1  23
HETATM   23  C5  UNL     1       2.699   1.006   0.414  1.00  0.00    -0.014 C 
HETATM   24  C6  UNL     1       3.229   2.440   0.209  1.00  0.00     0.010 C 
BRANCH  23  25
HETATM   25  C4  UNL     1       3.920   0.084   0.674  1.00  0.00     0.009 C 
BRANCH  25  26
HETATM   26  C3  UNL     1       4.895  -0.048  -0.505  1.00  0.00     0.034 C 
BRANCH  26  27
HETATM   27  C2  UNL     1       5.970  -1.096  -0.253  1.00  0.00    -0.075 C 
HETATM   28  C1  UNL     1       5.906  -2.276  -0.897  1.00  0.00     0.015 C 
BRANCH  27  29
HETATM   29  C27 UNL     1       7.076  -0.708   0.731  1.00  0.00     0.107 C 
HETATM   30  C28 UNL     1       7.994  -1.846   1.182  1.00  0.00     0.026 C 
BRANCH  29  31
HETATM   31  C29 UNL     1       7.951   0.402   0.153  1.00  0.00     0.147 C 
HETATM   32  O5  UNL     1       8.157   0.663  -1.021  1.00  0.00    -0.650 OA
BRANCH  31  33
HETATM   33  O6  UNL     1       8.547   1.137   1.117  1.00  0.00    -0.776 OA
HETATM   34  H42 UNL     1       9.066   1.802   0.616  1.00  0.00     0.167 HD
ENDBRANCH  31  33
ENDBRANCH  29  31
ENDBRANCH  27  29
ENDBRANCH  26  27
ENDBRANCH  25  26
ENDBRANCH  23  25
ENDBRANCH   1  23
BRANCH  22  35
HETATM   35  O4  UNL     1      -2.292  -0.032   2.566  1.00  0.00    -0.391 OA
HETATM   36  H37 UNL     1      -2.504  -0.556   3.356  1.00  0.00     0.210 HD
ENDBRANCH  22  35
BRANCH  18  37
HETATM   37  O3  UNL     1      -6.995   0.852   0.721  1.00  0.00    -0.382 OA
HETATM   38  H32 UNL     1      -6.950   1.318   1.574  1.00  0.00     0.211 HD
ENDBRANCH  18  37
TORSDOF 9
