REMARK  3 active torsions:
REMARK  status: ('A' for Active; 'I' for Inactive)
REMARK    1  A    between atoms: C8_8  and  N1_9 
REMARK       I    between atoms: N1_9  and  C9_10 
REMARK    2  A    between atoms: C9_10  and  C10_12 
REMARK    3  A    between atoms: C14_18  and  O2_19 
ROOT
HETATM    1  N1  UNL     1      -0.014  -0.213  -0.242  1.00  0.00    -0.322 N 
HETATM    2  C9  UNL     1      -0.790   0.521   0.637  1.00  0.00     0.260 C 
HETATM    3  O1  UNL     1      -0.384   1.308   1.488  1.00  0.00    -0.267 OA
HETATM    4  H10 UNL     1      -0.415  -1.096  -0.524  1.00  0.00     0.169 HD
ENDROOT
BRANCH   2   5
HETATM    5  C10 UNL     1      -2.248   0.247   0.599  1.00  0.00     0.083 A 
HETATM    6  C11 UNL     1      -2.882  -0.247  -0.548  1.00  0.00     0.023 A 
HETATM    7  C12 UNL     1      -4.253  -0.492  -0.521  1.00  0.00     0.018 A 
HETATM    8  C13 UNL     1      -4.945  -0.229   0.649  1.00  0.00     0.090 A 
HETATM    9  N2  UNL     1      -4.367   0.262   1.765  1.00  0.00    -0.346 N 
HETATM   10  C14 UNL     1      -3.040   0.505   1.718  1.00  0.00     0.155 A 
ATOM     11  H2  UNL     1      -4.910   0.442   2.609  1.00  0.00     0.167 HD
BRANCH  10  12
HETATM   12  O2  UNL     1      -2.540   1.023   2.880  1.00  0.00    -0.345 OA
HETATM   13  H14 UNL     1      -1.622   1.315   2.700  1.00  0.00     0.219 HD
ENDBRANCH  10  12
ENDBRANCH   2   5
BRANCH   1  14
HETATM   14  C8  UNL     1       1.392  -0.103  -0.400  1.00  0.00     0.046 A 
HETATM   15  C2  UNL     1       2.074   1.133  -0.424  1.00  0.00    -0.035 A 
HETATM   16  C1  UNL     1       1.403   2.480  -0.379  1.00  0.00     0.050 C 
HETATM   17  C3  UNL     1       3.477   1.140  -0.543  1.00  0.00     0.009 A 
HETATM   18  C4  UNL     1       4.193  -0.041  -0.700  1.00  0.00     0.001 A 
HETATM   19  C5  UNL     1       3.517  -1.254  -0.746  1.00  0.00     0.009 A 
HETATM   20  C6  UNL     1       2.121  -1.303  -0.602  1.00  0.00    -0.035 A 
HETATM   21  C7  UNL     1       1.459  -2.657  -0.633  1.00  0.00     0.050 C 
ENDBRANCH   1  14
TORSDOF 3
