REMARK  10 active torsions:
REMARK  status: ('A' for Active; 'I' for Inactive)
REMARK    1  A    between atoms: C16_18  and  C17_19 
REMARK    2  A    between atoms: C26_30  and  C27_31 
REMARK    3  A    between atoms: C27_31  and  O1_33 
REMARK    4  A    between atoms: C30_35  and  C31_36 
REMARK    5  A    between atoms: C31_36  and  O3_38 
REMARK    6  A    between atoms: C37_44  and  O4_45 
REMARK    7  A    between atoms: C41_49  and  C42_50 
REMARK    8  A    between atoms: C41_49  and  C43_52 
REMARK    9  A    between atoms: C42_50  and  O5_51 
REMARK   10  A    between atoms: C43_52  and  O7_54 
ROOT
HETATM    1  C17 UNL     1      -0.358   1.215   2.345  1.00  0.00     0.013 A 
HETATM    2  C18 UNL     1       0.880   0.957   1.704  1.00  0.00     0.053 A 
HETATM    3  N3  UNL     1       1.137   0.325   0.509  1.00  0.00    -0.357 N 
HETATM    4  C19 UNL     1       2.486   0.301   0.237  1.00  0.00     0.038 A 
HETATM    5  C20 UNL     1       3.129   0.908   1.304  1.00  0.00    -0.020 A 
HETATM    6  C21 UNL     1       4.603   1.109   1.441  1.00  0.00     0.072 C 
HETATM    7  C22 UNL     1       5.420  -0.180   1.259  1.00  0.00     0.277 C 
HETATM    8  N4  UNL     1       5.238  -0.957   0.025  1.00  0.00     0.096 N 
HETATM    9  C23 UNL     1       4.635  -2.281   0.257  1.00  0.00     0.277 C 
HETATM   10  C24 UNL     1       3.862  -2.725  -1.003  1.00  0.00     0.016 C 
HETATM   11  C25 UNL     1       4.772  -2.544  -2.227  1.00  0.00     0.015 C 
HETATM   12  C26 UNL     1       5.087  -1.044  -2.405  1.00  0.00     0.049 C 
HETATM   13  C29 UNL     1       4.612  -0.266  -1.129  1.00  0.00     0.253 C 
HETATM   14  C30 UNL     1       3.032  -0.312  -1.054  1.00  0.00     0.122 C 
HETATM   15  C33 UNL     1       2.620  -1.822  -1.156  1.00  0.00     0.035 C 
HETATM   16  C34 UNL     1       2.116   1.327   2.226  1.00  0.00    -0.000 A 
HETATM   17  C35 UNL     1       2.147   1.993   3.461  1.00  0.00     0.017 A 
HETATM   18  C36 UNL     1       0.952   2.278   4.127  1.00  0.00     0.038 A 
HETATM   19  C37 UNL     1      -0.280   1.902   3.587  1.00  0.00     0.077 A 
HETATM   20  H19 UNL     1       0.423  -0.070  -0.089  1.00  0.00     0.166 HD
ENDROOT
BRANCH   1  21
HETATM   21  C16 UNL     1      -1.721   0.798   1.762  1.00  0.00     0.075 C 
HETATM   22  C9  UNL     1      -1.762  -0.684   1.446  1.00  0.00     0.025 A 
HETATM   23  C8  UNL     1      -2.086  -1.427   0.316  1.00  0.00    -0.020 A 
HETATM   24  N2  UNL     1      -1.493  -1.589   2.453  1.00  0.00    -0.358 N 
HETATM   25  C7  UNL     1      -2.404  -0.905  -1.049  1.00  0.00     0.079 C 
HETATM   26  C15 UNL     1      -2.092  -2.806   0.696  1.00  0.00    -0.001 A 
HETATM   27  C6  UNL     1      -3.827  -0.321  -1.265  1.00  0.00     0.248 C 
HETATM   28  N1  UNL     1      -3.902   0.502  -2.512  1.00  0.00     0.094 N 
HETATM   29  C41 UNL     1      -4.452   0.532  -0.107  1.00  0.00     0.107 C 
HETATM   30  C4  UNL     1      -3.194   1.790  -2.424  1.00  0.00     0.306 C 
HETATM   31  C5  UNL     1      -3.520  -0.229  -3.717  1.00  0.00     0.310 C 
HETATM   32  C3  UNL     1      -3.588   2.599  -1.195  1.00  0.00    -0.051 C 
HETATM   33  C2  UNL     1      -3.950   3.897  -1.200  1.00  0.00    -0.026 C 
HETATM   34  C40 UNL     1      -3.586   1.811   0.128  1.00  0.00     0.039 C 
HETATM   35  C1  UNL     1      -4.033   4.833  -2.364  1.00  0.00     0.036 C 
HETATM   36  C39 UNL     1      -2.095   1.717   0.587  1.00  0.00     0.026 C 
HETATM   37  C10 UNL     1      -1.700  -2.875   2.033  1.00  0.00     0.043 A 
HETATM   38  C14 UNL     1      -2.408  -4.003   0.021  1.00  0.00     0.014 A 
HETATM   39  C11 UNL     1      -1.593  -4.086   2.731  1.00  0.00     0.030 A 
HETATM   40  C12 UNL     1      -1.912  -5.260   2.041  1.00  0.00     0.002 A 
HETATM   41  C13 UNL     1      -2.322  -5.222   0.706  1.00  0.00     0.001 A 
HETATM   42  H13 UNL     1      -1.239  -1.328   3.399  1.00  0.00     0.166 HD
BRANCH  29  43
HETATM   43  C42 UNL     1      -5.927   0.917  -0.527  1.00  0.00     0.186 C 
BRANCH  43  44
HETATM   44  O5  UNL     1      -6.558   1.817   0.383  1.00  0.00    -0.399 OA
HETATM   45  H51 UNL     1      -6.173   2.695   0.227  1.00  0.00     0.209 HD
ENDBRANCH  43  44
ENDBRANCH  29  43
BRANCH  29  46
HETATM   46  C43 UNL     1      -4.742  -0.244   1.186  1.00  0.00     0.272 C 
HETATM   47  O6  UNL     1      -4.676   0.233   2.314  1.00  0.00    -0.264 OA
BRANCH  46  48
HETATM   48  O7  UNL     1      -5.164  -1.523   0.925  1.00  0.00    -0.326 OA
HETATM   49  C44 UNL     1      -5.566  -2.251   2.083  1.00  0.00     0.213 C 
ENDBRANCH  46  48
ENDBRANCH  29  46
ENDBRANCH   1  21
BRANCH  19  50
HETATM   50  O4  UNL     1      -1.483   2.168   4.194  1.00  0.00    -0.355 OA
HETATM   51  C38 UNL     1      -1.474   2.880   5.424  1.00  0.00     0.210 C 
ENDBRANCH  19  50
BRANCH  14  52
HETATM   52  C31 UNL     1       2.384   0.494  -2.206  1.00  0.00     0.275 C 
HETATM   53  O2  UNL     1       1.255   0.274  -2.638  1.00  0.00    -0.264 OA
BRANCH  52  54
HETATM   54  O3  UNL     1       3.185   1.514  -2.629  1.00  0.00    -0.326 OA
HETATM   55  C32 UNL     1       2.633   2.309  -3.682  1.00  0.00     0.213 C 
ENDBRANCH  52  54
ENDBRANCH  14  52
BRANCH  12  56
HETATM   56  C27 UNL     1       6.541  -0.796  -2.862  1.00  0.00     0.120 C 
HETATM   57  C28 UNL     1       7.645  -1.073  -1.852  1.00  0.00     0.040 C 
BRANCH  56  58
HETATM   58  O1  UNL     1       6.671   0.558  -3.312  1.00  0.00    -0.396 OA
HETATM   59  H34 UNL     1       6.648   1.134  -2.535  1.00  0.00     0.210 HD
ENDBRANCH  56  58
ENDBRANCH  12  56
TORSDOF 10
