REMARK  6 active torsions:
REMARK  status: ('A' for Active; 'I' for Inactive)
REMARK    1  A    between atoms: C4_4  and  C5_5 
REMARK    2  A    between atoms: C5_5  and  C6_6 
REMARK    3  A    between atoms: C6_6  and  C7_7 
REMARK    4  A    between atoms: C7_7  and  C9_9 
REMARK    5  A    between atoms: C24_24  and  O1_25 
REMARK    6  A    between atoms: C27_28  and  O2_29 
ROOT
HETATM    1  C9  UNL     1       1.953  -0.346   0.605  1.00  0.00    -0.002 C 
HETATM    2  C10 UNL     1       1.954  -1.897   0.650  1.00  0.00     0.007 C 
HETATM    3  C11 UNL     1       0.495  -2.352   0.411  1.00  0.00     0.015 C 
HETATM    4  C12 UNL     1      -0.230  -1.099  -0.118  1.00  0.00    -0.013 C 
HETATM    5  C13 UNL     1       0.064  -1.017  -1.649  1.00  0.00     0.021 C 
HETATM    6  C14 UNL     1      -1.749  -0.994  -0.016  1.00  0.00    -0.065 C 
HETATM    7  C15 UNL     1      -2.340   0.229   0.056  1.00  0.00    -0.068 C 
HETATM    8  C16 UNL     1      -1.509   1.517   0.190  1.00  0.00     0.036 C 
HETATM    9  C17 UNL     1       0.028   1.377   0.228  1.00  0.00     0.015 C 
HETATM   10  C18 UNL     1       0.447   0.009   0.775  1.00  0.00    -0.029 C 
HETATM   11  C19 UNL     1       0.005  -0.079   2.265  1.00  0.00     0.016 C 
HETATM   12  C20 UNL     1      -3.884   0.389   0.102  1.00  0.00    -0.014 C 
HETATM   13  C21 UNL     1      -4.233   0.662   1.589  1.00  0.00     0.020 C 
HETATM   14  C22 UNL     1      -4.365   1.577  -0.791  1.00  0.00     0.016 C 
HETATM   15  C23 UNL     1      -5.689   1.356  -1.541  1.00  0.00     0.033 C 
HETATM   16  C24 UNL     1      -6.700   0.526  -0.769  1.00  0.00     0.118 C 
HETATM   17  C25 UNL     1      -6.128  -0.828  -0.331  1.00  0.00     0.039 C 
HETATM   18  C26 UNL     1      -4.586  -0.899  -0.422  1.00  0.00     0.029 C 
HETATM   19  C27 UNL     1      -4.025  -2.160   0.241  1.00  0.00     0.127 C 
HETATM   20  C28 UNL     1      -2.524  -2.291  -0.039  1.00  0.00     0.067 C 
ENDROOT
BRANCH   1  21
HETATM   21  C7  UNL     1       3.057   0.359   1.444  1.00  0.00    -0.014 C 
HETATM   22  C8  UNL     1       3.049   0.080   2.953  1.00  0.00     0.010 C 
BRANCH  21  23
HETATM   23  C6  UNL     1       4.483   0.008   0.932  1.00  0.00     0.008 C 
BRANCH  23  24
HETATM   24  C5  UNL     1       4.765   0.406  -0.522  1.00  0.00     0.028 C 
BRANCH  24  25
HETATM   25  C4  UNL     1       6.216   0.185  -0.860  1.00  0.00    -0.025 C 
HETATM   26  C2  UNL     1       7.111   1.083  -1.319  1.00  0.00    -0.091 C 
HETATM   27  C1  UNL     1       8.540   0.678  -1.569  1.00  0.00     0.042 C 
HETATM   28  C3  UNL     1       6.816   2.526  -1.619  1.00  0.00     0.042 C 
ENDBRANCH  24  25
ENDBRANCH  23  24
ENDBRANCH  21  23
ENDBRANCH   1  21
BRANCH  19  29
HETATM   29  O2  UNL     1      -4.694  -3.326  -0.249  1.00  0.00    -0.395 OA
HETATM   30  H44 UNL     1      -4.551  -3.369  -1.209  1.00  0.00     0.210 HD
ENDBRANCH  19  29
BRANCH  16  31
HETATM   31  O1  UNL     1      -7.139   1.257   0.371  1.00  0.00    -0.396 OA
HETATM   32  H39 UNL     1      -7.554   2.077   0.054  1.00  0.00     0.210 HD
ENDBRANCH  16  31
TORSDOF 6
