REMARK  8 active torsions:
REMARK  status: ('A' for Active; 'I' for Inactive)
REMARK    1  A    between atoms: C2_2  and  C30_34 
REMARK    2  A    between atoms: C3_3  and  C4_4 
REMARK    3  A    between atoms: C4_4  and  O1_5 
REMARK    4  A    between atoms: C4_4  and  C5_6 
REMARK    5  A    between atoms: C5_6  and  C6_7 
REMARK    6  A    between atoms: C6_7  and  C8_9 
REMARK    7  A    between atoms: C10_11  and  O2_12 
REMARK    8  A    between atoms: C30_34  and  O6_36 
ROOT
HETATM    1  C8  UNL     1       2.134   0.619  -0.847  1.00  0.00     0.001 C 
HETATM    2  C9  UNL     1       1.750   1.704  -1.894  1.00  0.00     0.038 C 
HETATM    3  C10 UNL     1       0.225   1.910  -1.786  1.00  0.00     0.131 C 
HETATM    4  C11 UNL     1      -0.150   1.301  -0.409  1.00  0.00     0.014 C 
HETATM    5  C12 UNL     1       0.183   2.341   0.708  1.00  0.00     0.023 C 
HETATM    6  C13 UNL     1      -1.594   0.881  -0.150  1.00  0.00    -0.058 C 
HETATM    7  C14 UNL     1      -1.890  -0.127   0.708  1.00  0.00    -0.000 C 
HETATM    8  C15 UNL     1      -0.739  -0.760   1.474  1.00  0.00     0.157 C 
HETATM    9  O3  UNL     1      -0.947  -1.358   2.529  1.00  0.00    -0.293 OA
HETATM   10  C16 UNL     1       0.694  -0.624   0.964  1.00  0.00     0.094 C 
HETATM   11  C17 UNL     1       0.760   0.012  -0.426  1.00  0.00    -0.019 C 
HETATM   12  C18 UNL     1       0.302  -1.056  -1.464  1.00  0.00     0.017 C 
HETATM   13  C19 UNL     1      -3.329  -0.615   0.995  1.00  0.00    -0.008 C 
HETATM   14  C20 UNL     1      -3.365  -2.162   0.852  1.00  0.00     0.021 C 
HETATM   15  C21 UNL     1      -3.699  -0.214   2.453  1.00  0.00     0.022 C 
HETATM   16  C22 UNL     1      -5.168   0.082   2.714  1.00  0.00     0.080 C 
HETATM   17  C23 UNL     1      -6.059  -0.653   1.751  1.00  0.00     0.135 C 
HETATM   18  O4  UNL     1      -6.929  -1.423   2.155  1.00  0.00    -0.297 OA
HETATM   19  C24 UNL     1      -5.878  -0.318   0.269  1.00  0.00     0.018 C 
HETATM   20  C25 UNL     1      -6.357  -1.511  -0.590  1.00  0.00     0.023 C 
HETATM   21  C26 UNL     1      -6.848   0.845  -0.025  1.00  0.00     0.023 C 
HETATM   22  C27 UNL     1      -4.361  -0.005  -0.045  1.00  0.00     0.014 C 
HETATM   23  C28 UNL     1      -4.056   1.490  -0.250  1.00  0.00     0.011 C 
HETATM   24  C29 UNL     1      -2.661   1.688  -0.836  1.00  0.00     0.036 C 
ENDROOT
BRANCH   1  25
HETATM   25  C6  UNL     1       3.362  -0.246  -1.263  1.00  0.00    -0.011 C 
HETATM   26  C7  UNL     1       3.248  -1.028  -2.577  1.00  0.00     0.010 C 
BRANCH  25  27
HETATM   27  C5  UNL     1       3.812  -1.176  -0.113  1.00  0.00     0.040 C 
BRANCH  27  28
HETATM   28  C4  UNL     1       5.205  -1.805  -0.274  1.00  0.00     0.142 C 
BRANCH  28  29
HETATM   29  C3  UNL     1       6.319  -0.799  -0.374  1.00  0.00     0.018 C 
HETATM   30  C2  UNL     1       6.981  -0.162   0.616  1.00  0.00     0.010 C 
HETATM   31  C1  UNL     1       6.692  -0.284   2.084  1.00  0.00     0.055 C 
BRANCH  30  32
HETATM   32  C30 UNL     1       8.086   0.782   0.299  1.00  0.00     0.171 C 
HETATM   33  O5  UNL     1       8.783   1.353   1.119  1.00  0.00    -0.646 OA
BRANCH  32  34
HETATM   34  O6  UNL     1       8.276   0.981  -1.016  1.00  0.00    -0.773 OA
HETATM   35  H44 UNL     1       9.022   1.615  -1.041  1.00  0.00     0.167 HD
ENDBRANCH  32  34
ENDBRANCH  30  32
ENDBRANCH  28  29
BRANCH  28  36
HETATM   36  O1  UNL     1       5.432  -2.682   0.824  1.00  0.00    -0.392 OA
HETATM   37  H6  UNL     1       6.336  -3.029   0.731  1.00  0.00     0.210 HD
ENDBRANCH  28  36
ENDBRANCH  27  28
ENDBRANCH  25  27
ENDBRANCH   1  25
BRANCH   3  38
HETATM   38  O2  UNL     1      -0.101   3.286  -1.907  1.00  0.00    -0.394 OA
HETATM   39  H17 UNL     1       0.261   3.602  -2.753  1.00  0.00     0.210 HD
ENDBRANCH   3  38
TORSDOF 8
