REMARK  12 active torsions:
REMARK  status: ('A' for Active; 'I' for Inactive)
REMARK    1  A    between atoms: C2_2  and  O2_4 
REMARK    2  A    between atoms: O2_4  and  C3_5 
REMARK    3  A    between atoms: C4_6  and  O3_7 
REMARK    4  A    between atoms: O3_7  and  C5_8 
REMARK    5  A    between atoms: C5_8  and  C6_10 
REMARK    6  A    between atoms: C12_16  and  C13_17 
REMARK    7  A    between atoms: C13_17  and  O5_18 
REMARK    8  A    between atoms: O5_18  and  C14_19 
REMARK    9  A    between atoms: C14_19  and  C15_21 
REMARK   10  A    between atoms: C20_28  and  O7_29 
REMARK   11  A    between atoms: O7_29  and  C21_30 
REMARK   12  A    between atoms: C21_30  and  C22_32 
ROOT
HETATM    1  C3  UNL     1       1.379   1.086  -1.298  1.00  0.00     0.169 C 
HETATM    2  C4  UNL     1       0.813  -0.225  -0.681  1.00  0.00     0.178 C 
HETATM    3  C12 UNL     1      -0.728  -0.435  -0.950  1.00  0.00     0.069 C 
HETATM    4  C20 UNL     1      -0.992  -1.997  -0.931  1.00  0.00     0.148 C 
HETATM    5  C25 UNL     1      -2.076  -2.495  -1.906  1.00  0.00     0.034 C 
HETATM    6  C26 UNL     1      -3.135  -1.445  -2.188  1.00  0.00     0.010 C 
HETATM    7  C27 UNL     1      -2.545  -0.177  -2.836  1.00  0.00     0.017 C 
HETATM    8  C28 UNL     1      -3.526   0.984  -2.638  1.00  0.00     0.013 C 
HETATM    9  C29 UNL     1      -1.077   0.104  -2.387  1.00  0.00     0.080 C 
HETATM   10  C30 UNL     1      -0.641   1.556  -2.608  1.00  0.00     0.050 C 
HETATM   11  C31 UNL     1       0.858   1.372  -2.723  1.00  0.00     0.054 C 
HETATM   12  C32 UNL     1       0.907   0.192  -3.714  1.00  0.00     0.061 C 
HETATM   13  C33 UNL     1       2.211  -0.612  -3.748  1.00  0.00     0.046 C 
HETATM   14  C34 UNL     1       0.625   0.639  -5.165  1.00  0.00     0.046 C 
HETATM   15  O9  UNL     1      -0.196  -0.650  -3.303  1.00  0.00    -0.368 OA
ENDROOT
BRANCH   3  16
HETATM   16  C13 UNL     1      -1.555   0.248   0.189  1.00  0.00     0.197 C 
BRANCH  16  17
HETATM   17  O5  UNL     1      -1.263   1.645   0.353  1.00  0.00    -0.316 OA
BRANCH  17  18
HETATM   18  C14 UNL     1      -1.979   2.233   1.351  1.00  0.00     0.294 C 
HETATM   19  O6  UNL     1      -2.842   1.689   2.022  1.00  0.00    -0.259 OA
BRANCH  18  20
HETATM   20  C15 UNL     1      -1.605   3.651   1.526  1.00  0.00     0.054 A 
HETATM   21  C16 UNL     1      -0.486   4.246   0.937  1.00  0.00     0.020 A 
HETATM   22  C17 UNL     1      -0.223   5.596   1.172  1.00  0.00     0.018 A 
HETATM   23  C18 UNL     1      -1.089   6.305   1.991  1.00  0.00     0.087 A 
HETATM   24  N1  UNL     1      -2.172   5.760   2.585  1.00  0.00    -0.374 N 
HETATM   25  C19 UNL     1      -2.404   4.445   2.340  1.00  0.00     0.105 A 
ATOM     26  H1  UNL     1      -2.785   6.309   3.188  1.00  0.00     0.164 HD
ENDBRANCH  18  20
ENDBRANCH  17  18
ENDBRANCH  16  17
ENDBRANCH   3  16
BRANCH   2  27
HETATM   27  O3  UNL     1       1.051  -0.248   0.749  1.00  0.00    -0.308 OA
BRANCH  27  28
HETATM   28  C5  UNL     1       2.209  -0.799   1.189  1.00  0.00     0.293 C 
HETATM   29  O4  UNL     1       3.100  -1.256   0.490  1.00  0.00    -0.259 OA
BRANCH  28  30
HETATM   30  C6  UNL     1       2.265  -0.771   2.674  1.00  0.00     0.039 A 
HETATM   31  C7  UNL     1       3.351  -1.394   3.304  1.00  0.00     0.017 A 
HETATM   32  C8  UNL     1       3.458  -1.382   4.696  1.00  0.00     0.001 A 
HETATM   33  C9  UNL     1       2.479  -0.751   5.465  1.00  0.00     0.000 A 
HETATM   34  C10 UNL     1       1.394  -0.131   4.846  1.00  0.00     0.001 A 
HETATM   35  C11 UNL     1       1.285  -0.138   3.453  1.00  0.00     0.017 A 
ENDBRANCH  28  30
ENDBRANCH  27  28
ENDBRANCH   2  27
BRANCH   4  36
HETATM   36  O7  UNL     1      -1.404  -2.414   0.391  1.00  0.00    -0.315 OA
BRANCH  36  37
HETATM   37  C21 UNL     1      -0.713  -3.423   0.993  1.00  0.00     0.262 C 
HETATM   38  O8  UNL     1       0.271  -3.981   0.529  1.00  0.00    -0.265 OA
BRANCH  37  39
HETATM   39  C22 UNL     1      -1.370  -3.763   2.320  1.00  0.00     0.077 C 
HETATM   40  C23 UNL     1      -0.406  -4.516   3.233  1.00  0.00     0.020 C 
HETATM   41  C24 UNL     1      -2.630  -4.581   2.058  1.00  0.00     0.020 C 
ENDBRANCH  37  39
ENDBRANCH  36  37
ENDBRANCH   4  36
BRANCH   1  42
HETATM   42  O2  UNL     1       2.821   1.052  -1.354  1.00  0.00    -0.313 OA
BRANCH  42  43
HETATM   43  C2  UNL     1       3.493   1.721  -0.379  1.00  0.00     0.255 C 
HETATM   44  C1  UNL     1       4.969   1.517  -0.535  1.00  0.00     0.126 C 
HETATM   45  O1  UNL     1       2.982   2.421   0.486  1.00  0.00    -0.266 OA
ENDBRANCH  42  43
ENDBRANCH   1  42
TORSDOF 12
