REMARK  10 active torsions:
REMARK  status: ('A' for Active; 'I' for Inactive)
REMARK    1  A    between atoms: C3_3  and  O1_4 
REMARK    2  A    between atoms: N1_14  and  O2_16 
REMARK    3  A    between atoms: O2_16  and  C13_17 
REMARK    4  A    between atoms: C13_17  and  C14_18 
REMARK       I    between atoms: C14_18  and  N2_20 
REMARK    5  A    between atoms: N2_20  and  C15_21 
REMARK    6  A    between atoms: C15_21  and  C16_22 
REMARK       I    between atoms: C16_22  and  N3_24 
REMARK    7  A    between atoms: N3_24  and  C17_25 
REMARK    8  A    between atoms: C17_25  and  C18_26 
REMARK    9  A    between atoms: C17_25  and  C19_29 
REMARK   10  A    between atoms: C18_26  and  O6_28 
ROOT
HETATM    1  C1  UNL     1      -8.673   3.098  -2.409  1.00  0.00     0.015 C 
HETATM    2  C2  UNL     1      -7.912   2.458  -1.734  1.00  0.00    -0.078 C 
HETATM    3  C3  UNL     1      -6.968   1.702  -0.894  1.00  0.00     0.128 C 
HETATM    4  C4  UNL     1      -7.565   1.356   0.469  1.00  0.00     0.052 C 
HETATM    5  C5  UNL     1      -6.570   0.341   1.016  1.00  0.00     0.010 C 
HETATM    6  C6  UNL     1      -6.175  -0.533  -0.191  1.00  0.00     0.002 C 
HETATM    7  C7  UNL     1      -4.724  -1.083  -0.168  1.00  0.00    -0.004 C 
HETATM    8  C8  UNL     1      -4.400  -1.718   1.197  1.00  0.00     0.010 C 
HETATM    9  C9  UNL     1      -2.985  -2.272   1.256  1.00  0.00     0.035 C 
HETATM   10  C10 UNL     1      -1.964  -1.218   0.895  1.00  0.00    -0.069 C 
HETATM   11  C11 UNL     1      -0.926  -0.975   1.716  1.00  0.00     0.030 C 
HETATM   12  C12 UNL     1       0.168  -0.042   1.337  1.00  0.00     0.032 C 
HETATM   13  N1  UNL     1       1.078   0.220   2.230  1.00  0.00    -0.271 N 
ATOM     14  H1  UNL     1       1.073  -0.159   3.177  1.00  0.00     0.194 HD
HETATM   15  C22 UNL     1       0.172   0.487  -0.083  1.00  0.00     0.060 C 
HETATM   16  C23 UNL     1      -1.256   0.743  -0.545  1.00  0.00     0.020 C 
HETATM   17  C24 UNL     1      -2.180  -0.506  -0.443  1.00  0.00    -0.016 C 
HETATM   18  C25 UNL     1      -1.805  -1.514  -1.558  1.00  0.00     0.020 C 
HETATM   19  C26 UNL     1      -3.678  -0.010  -0.551  1.00  0.00     0.002 C 
HETATM   20  C27 UNL     1      -3.996   0.652  -1.911  1.00  0.00     0.007 C 
HETATM   21  C28 UNL     1      -5.385   0.354  -2.477  1.00  0.00     0.014 C 
HETATM   22  C29 UNL     1      -6.542   0.305  -1.462  1.00  0.00     0.003 C 
HETATM   23  C30 UNL     1      -7.732  -0.406  -2.166  1.00  0.00     0.020 C 
ENDROOT
BRANCH   3  24
HETATM   24  O1  UNL     1      -5.830   2.529  -0.659  1.00  0.00    -0.377 OA
HETATM   25  H2  UNL     1      -6.158   3.412  -0.405  1.00  0.00     0.211 HD
ENDBRANCH   3  24
BRANCH  13  26
HETATM   26  O2  UNL     1       2.068   1.085   1.737  1.00  0.00    -0.271 OA
BRANCH  26  27
HETATM   27  C13 UNL     1       2.971   1.416   2.787  1.00  0.00     0.303 C 
BRANCH  27  28
HETATM   28  C14 UNL     1       4.222   0.539   2.804  1.00  0.00     0.244 C 
HETATM   29  O3  UNL     1       5.263   0.889   3.360  1.00  0.00    -0.271 OA
HETATM   30  N2  UNL     1       4.086  -0.672   2.167  1.00  0.00    -0.350 N 
HETATM   31  H16 UNL     1       3.259  -0.786   1.582  1.00  0.00     0.163 HD
BRANCH  30  32
HETATM   32  C15 UNL     1       5.228  -1.526   1.924  1.00  0.00     0.225 C 
BRANCH  32  33
HETATM   33  C16 UNL     1       5.937  -1.075   0.642  1.00  0.00     0.236 C 
HETATM   34  O4  UNL     1       5.367  -1.045  -0.448  1.00  0.00    -0.272 OA
HETATM   35  N3  UNL     1       7.236  -0.654   0.827  1.00  0.00    -0.345 N 
HETATM   36  H19 UNL     1       7.689  -0.904   1.700  1.00  0.00     0.163 HD
BRANCH  35  37
HETATM   37  C17 UNL     1       8.101  -0.297  -0.303  1.00  0.00     0.185 C 
BRANCH  37  38
HETATM   38  C18 UNL     1       8.834  -1.564  -0.754  1.00  0.00     0.163 C 
HETATM   39  O5  UNL     1       9.116  -2.527  -0.053  1.00  0.00    -0.648 OA
BRANCH  38  40
HETATM   40  O6  UNL     1       9.200  -1.539  -2.050  1.00  0.00    -0.775 OA
HETATM   41  H21 UNL     1       9.633  -2.406  -2.196  1.00  0.00     0.167 HD
ENDBRANCH  38  40
ENDBRANCH  37  38
BRANCH  37  42
HETATM   42  C19 UNL     1       9.056   0.854   0.086  1.00  0.00     0.010 C 
HETATM   43  C20 UNL     1       9.696   1.501  -1.146  1.00  0.00     0.012 C 
HETATM   44  C21 UNL     1      10.148   0.446   1.079  1.00  0.00     0.012 C 
ENDBRANCH  37  42
ENDBRANCH  35  37
ENDBRANCH  32  33
ENDBRANCH  30  32
ENDBRANCH  27  28
ENDBRANCH  26  27
ENDBRANCH  13  26
TORSDOF 10
