REMARK  9 active torsions:
REMARK  status: ('A' for Active; 'I' for Inactive)
REMARK    1  A    between atoms: O1_2  and  C2_3 
REMARK    2  A    between atoms: C2_3  and  C3_4 
REMARK    3  A    between atoms: C3_4  and  N1_5 
REMARK       I    between atoms: N1_5  and  C4_6 
REMARK    4  A    between atoms: C4_6  and  C5_8 
REMARK    5  A    between atoms: C5_8  and  C7_10 
REMARK    6  A    between atoms: C15_20  and  C16_21 
REMARK    7  A    between atoms: C16_21  and  O3_22 
REMARK    8  A    between atoms: O3_22  and  C17_23 
REMARK    9  A    between atoms: C26_34  and  O4_35 
ROOT
HETATM    1  C7  UNL     1      -2.145   0.381   0.490  1.00  0.00     0.027 C 
HETATM    2  C8  UNL     1      -2.494   0.091  -0.976  1.00  0.00     0.009 C 
HETATM    3  C9  UNL     1      -1.302   0.320  -1.899  1.00  0.00     0.010 C 
HETATM    4  C10 UNL     1      -0.055  -0.501  -1.506  1.00  0.00    -0.033 C 
HETATM    5  C11 UNL     1      -0.351  -2.007  -1.727  1.00  0.00     0.016 C 
HETATM    6  C12 UNL     1       1.106  -0.068  -2.455  1.00  0.00     0.058 C 
HETATM    7  C13 UNL     1       2.401  -0.602  -1.957  1.00  0.00     0.008 A 
HETATM    8  C14 UNL     1       2.656  -0.995  -0.663  1.00  0.00     0.027 A 
HETATM    9  N2  UNL     1       3.921  -1.512  -0.456  1.00  0.00    -0.354 N 
ATOM     10  H2  UNL     1       4.259  -1.899   0.425  1.00  0.00     0.166 HD
HETATM   11  C15 UNL     1       4.626  -1.430  -1.570  1.00  0.00     0.076 A 
HETATM   12  S1  UNL     1       3.775  -0.812  -2.935  1.00  0.00    -0.077 SA
HETATM   13  C23 UNL     1       1.636  -0.948   0.453  1.00  0.00     0.040 C 
HETATM   14  C24 UNL     1       2.281  -0.342   1.709  1.00  0.00     0.017 C 
HETATM   15  C25 UNL     1       0.331  -0.182  -0.010  1.00  0.00     0.033 C 
HETATM   16  C26 UNL     1      -0.882  -0.404   0.938  1.00  0.00     0.128 C 
ENDROOT
BRANCH   1  17
HETATM   17  C5  UNL     1      -3.350   0.187   1.459  1.00  0.00     0.080 C 
HETATM   18  C6  UNL     1      -3.868  -1.249   1.564  1.00  0.00     0.020 C 
BRANCH  17  19
HETATM   19  C4  UNL     1      -4.460   1.205   1.179  1.00  0.00     0.222 C 
HETATM   20  N1  UNL     1      -5.386   0.856   0.227  1.00  0.00    -0.359 N 
HETATM   21  H8  UNL     1      -5.424  -0.085  -0.138  1.00  0.00     0.162 HD
HETATM   22  O2  UNL     1      -4.476   2.299   1.740  1.00  0.00    -0.273 OA
BRANCH  20  23
HETATM   23  C3  UNL     1      -6.443   1.768  -0.179  1.00  0.00     0.148 C 
BRANCH  23  24
HETATM   24  C2  UNL     1      -7.593   1.860   0.826  1.00  0.00     0.186 C 
BRANCH  24  25
HETATM   25  O1  UNL     1      -8.380   0.662   0.806  1.00  0.00    -0.394 OA
HETATM   26  C1  UNL     1      -8.131  -0.172   1.929  1.00  0.00     0.201 C 
ENDBRANCH  24  25
ENDBRANCH  23  24
ENDBRANCH  20  23
ENDBRANCH  17  19
ENDBRANCH   1  17
BRANCH  16  27
HETATM   27  O4  UNL     1      -0.535   0.037   2.245  1.00  0.00    -0.395 OA
HETATM   28  H35 UNL     1      -1.096  -0.427   2.891  1.00  0.00     0.210 HD
ENDBRANCH  16  27
BRANCH  11  29
HETATM   29  C16 UNL     1       6.058  -1.855  -1.695  1.00  0.00     0.240 C 
BRANCH  29  30
HETATM   30  O3  UNL     1       6.877  -0.727  -2.027  1.00  0.00    -0.345 OA
BRANCH  30  31
HETATM   31  C17 UNL     1       7.310   0.093  -1.021  1.00  0.00     0.070 A 
HETATM   32  C18 UNL     1       6.940   0.023   0.323  1.00  0.00     0.037 A 
HETATM   33  C19 UNL     1       7.461   0.937   1.246  1.00  0.00     0.004 A 
HETATM   34  C20 UNL     1       8.349   1.928   0.829  1.00  0.00     0.024 A 
HETATM   35  C21 UNL     1       8.711   2.003  -0.513  1.00  0.00     0.036 A 
HETATM   36 CL1  UNL     1       9.803   3.227  -1.036  1.00  0.00    -0.084 Cl
HETATM   37  C22 UNL     1       8.196   1.094  -1.435  1.00  0.00     0.060 A 
ENDBRANCH  30  31
ENDBRANCH  29  30
ENDBRANCH  11  29
TORSDOF 9
