REMARK  7 active torsions:
REMARK  status: ('A' for Active; 'I' for Inactive)
REMARK    1  A    between atoms: C3_3  and  C4_4 
REMARK    2  A    between atoms: C4_4  and  O1_5 
REMARK    3  A    between atoms: C6_9  and  C7_10 
REMARK    4  A    between atoms: C7_10  and  C9_12 
REMARK    5  A    between atoms: C9_12  and  O4_13 
REMARK    6  A    between atoms: C10_14  and  O5_15 
REMARK    7  A    between atoms: C17_22  and  O6_23 
ROOT
HETATM    1  C9  UNL     1       1.256  -0.769  -0.662  1.00  0.00     0.097 C 
HETATM    2  C10 UNL     1       1.464  -1.401   0.775  1.00  0.00     0.154 C 
HETATM    3  C11 UNL     1       0.098  -1.399   1.483  1.00  0.00     0.040 C 
HETATM    4  C12 UNL     1      -0.887  -0.932   0.421  1.00  0.00     0.004 C 
HETATM    5  C13 UNL     1      -2.246  -0.398   0.902  1.00  0.00    -0.001 C 
HETATM    6  C14 UNL     1      -2.957  -1.444   1.768  1.00  0.00     0.033 C 
HETATM    7  C15 UNL     1      -4.389  -1.111   2.028  1.00  0.00    -0.019 C 
HETATM    8  C16 UNL     1      -5.105  -0.207   1.331  1.00  0.00    -0.035 C 
HETATM    9  C17 UNL     1      -6.556   0.026   1.692  1.00  0.00     0.171 C 
HETATM   10  C18 UNL     1      -7.435   0.225   0.506  1.00  0.00     0.013 C 
HETATM   11  C19 UNL     1      -6.999   0.355  -0.752  1.00  0.00     0.050 C 
HETATM   12  C20 UNL     1      -5.543   0.381  -1.051  1.00  0.00     0.162 C 
HETATM   13  O7  UNL     1      -5.216   0.328  -2.236  1.00  0.00    -0.292 OA
HETATM   14  C21 UNL     1      -4.536   0.558   0.119  1.00  0.00     0.051 C 
HETATM   15  C22 UNL     1      -4.453   2.065   0.439  1.00  0.00     0.029 C 
HETATM   16  C23 UNL     1      -3.128  -0.020  -0.323  1.00  0.00     0.011 C 
HETATM   17  C24 UNL     1      -2.342   0.888  -1.308  1.00  0.00     0.007 C 
HETATM   18  C25 UNL     1      -0.951   0.342  -1.684  1.00  0.00     0.013 C 
HETATM   19  C26 UNL     1      -0.070   0.071  -0.442  1.00  0.00    -0.006 C 
HETATM   20  C27 UNL     1       0.223   1.397   0.309  1.00  0.00     0.019 C 
ENDROOT
BRANCH   1  21
HETATM   21  C7  UNL     1       2.531  -0.038  -1.241  1.00  0.00     0.049 C 
HETATM   22  C8  UNL     1       2.203   0.806  -2.485  1.00  0.00     0.016 C 
BRANCH  21  23
HETATM   23  C6  UNL     1       3.687  -1.035  -1.627  1.00  0.00     0.143 C 
HETATM   24  O3  UNL     1       3.968  -1.971  -0.568  1.00  0.00    -0.311 OA
HETATM   25  C5  UNL     1       4.785  -1.622   0.461  1.00  0.00     0.292 C 
HETATM   26  C3  UNL     1       5.617  -0.390   0.317  1.00  0.00     0.042 C 
HETATM   27  O2  UNL     1       4.796  -2.292   1.490  1.00  0.00    -0.260 OA
HETATM   28  C2  UNL     1       5.731   0.190  -0.900  1.00  0.00    -0.067 C 
HETATM   29  C1  UNL     1       6.533   1.426  -1.193  1.00  0.00     0.044 C 
HETATM   30  C28 UNL     1       5.015  -0.417  -2.073  1.00  0.00     0.067 C 
BRANCH  26  31
HETATM   31  C4  UNL     1       6.289  -0.002   1.610  1.00  0.00     0.209 C 
BRANCH  31  32
HETATM   32  O1  UNL     1       7.397   0.869   1.420  1.00  0.00    -0.396 OA
HETATM   33  H6  UNL     1       7.819   0.979   2.290  1.00  0.00     0.209 HD
ENDBRANCH  31  32
ENDBRANCH  26  31
ENDBRANCH  21  23
ENDBRANCH   1  21
BRANCH   1  34
HETATM   34  O4  UNL     1       0.929  -1.840  -1.575  1.00  0.00    -0.386 OA
HETATM   35  H12 UNL     1       1.562  -2.566  -1.429  1.00  0.00     0.210 HD
ENDBRANCH   1  34
BRANCH   2  36
HETATM   36  O5  UNL     1       2.366  -0.652   1.583  1.00  0.00    -0.392 OA
HETATM   37  H14 UNL     1       2.779  -1.289   2.201  1.00  0.00     0.210 HD
ENDBRANCH   2  36
BRANCH   9  38
HETATM   38  O6  UNL     1      -6.668   1.182   2.503  1.00  0.00    -0.387 OA
HETATM   39  H23 UNL     1      -5.963   1.124   3.170  1.00  0.00     0.210 HD
ENDBRANCH   9  38
TORSDOF 7
