REMARK  8 active torsions:
REMARK  status: ('A' for Active; 'I' for Inactive)
REMARK    1  A    between atoms: C5_5  and  O1_6 
REMARK    2  A    between atoms: C9_10  and  C10_11 
REMARK    3  A    between atoms: C10_11  and  C11_12 
REMARK    4  A    between atoms: C11_12  and  C12_13 
REMARK    5  A    between atoms: C14_15  and  C15_16 
REMARK    6  A    between atoms: C15_16  and  C16_17 
REMARK    7  A    between atoms: C16_17  and  C17_18 
REMARK    8  A    between atoms: C23_24  and  O2_25 
ROOT
HETATM    1  C12 UNL     1      -0.481   2.585  -0.195  1.00  0.00    -0.087 C 
HETATM    2  C13 UNL     1      -1.145   3.239  -1.381  1.00  0.00     0.043 C 
HETATM    3  C14 UNL     1       0.841   2.666   0.070  1.00  0.00    -0.024 C 
ENDROOT
BRANCH   3   4
HETATM    4  C15 UNL     1       1.866   3.403  -0.748  1.00  0.00     0.030 C 
BRANCH   4   5
HETATM    5  C16 UNL     1       3.302   2.852  -0.687  1.00  0.00     0.042 C 
BRANCH   5   6
HETATM    6  C17 UNL     1       3.583   1.456  -1.312  1.00  0.00     0.065 C 
HETATM    7  C18 UNL     1       2.911   1.320  -2.690  1.00  0.00     0.046 C 
HETATM    8  C19 UNL     1       5.117   1.312  -1.403  1.00  0.00     0.043 C 
HETATM    9  C20 UNL     1       5.523  -0.078  -1.859  1.00  0.00     0.044 C 
HETATM   10  C21 UNL     1       4.750  -1.118  -1.106  1.00  0.00    -0.021 A 
HETATM   11  C22 UNL     1       5.213  -2.442  -1.089  1.00  0.00     0.046 A 
HETATM   12  C27 UNL     1       3.555  -0.794  -0.449  1.00  0.00     0.082 A 
HETATM   13  C23 UNL     1       4.498  -3.417  -0.403  1.00  0.00     0.066 A 
HETATM   14  C24 UNL     1       3.323  -3.099   0.265  1.00  0.00     0.046 A 
HETATM   15  C25 UNL     1       2.843  -1.783   0.252  1.00  0.00    -0.025 A 
HETATM   16  C26 UNL     1       1.566  -1.446   0.963  1.00  0.00     0.051 C 
HETATM   17  O3  UNL     1       3.027   0.471  -0.422  1.00  0.00    -0.340 OA
BRANCH  13  18
HETATM   18  O2  UNL     1       4.923  -4.712  -0.360  1.00  0.00    -0.361 OA
HETATM   19  H36 UNL     1       5.769  -4.776  -0.832  1.00  0.00     0.217 HD
ENDBRANCH  13  18
ENDBRANCH   5   6
ENDBRANCH   4   5
ENDBRANCH   3   4
BRANCH   1  20
HETATM   20  C11 UNL     1      -1.429   1.886   0.767  1.00  0.00     0.034 C 
BRANCH  20  21
HETATM   21  C10 UNL     1      -2.034   0.594   0.191  1.00  0.00     0.014 C 
BRANCH  21  22
HETATM   22  C9  UNL     1      -3.235   0.059   1.017  1.00  0.00     0.024 C 
HETATM   23  C2  UNL     1      -2.951  -0.370   2.453  1.00  0.00    -0.084 C 
HETATM   24  C1  UNL     1      -1.748  -0.685   2.958  1.00  0.00     0.015 C 
HETATM   25  C3  UNL     1      -4.199  -0.499   3.304  1.00  0.00     0.036 C 
HETATM   26  C4  UNL     1      -5.394  -1.004   2.490  1.00  0.00     0.037 C 
HETATM   27  C5  UNL     1      -4.934  -1.876   1.321  1.00  0.00     0.127 C 
HETATM   28  C6  UNL     1      -4.056  -1.081   0.287  1.00  0.00    -0.014 C 
HETATM   29  C7  UNL     1      -4.943  -0.432  -0.804  1.00  0.00     0.018 C 
HETATM   30  C8  UNL     1      -3.136  -2.104  -0.418  1.00  0.00     0.018 C 
BRANCH  27  31
HETATM   31  O1  UNL     1      -6.065  -2.492   0.707  1.00  0.00    -0.395 OA
HETATM   32  H8  UNL     1      -6.727  -1.803   0.529  1.00  0.00     0.210 HD
ENDBRANCH  27  31
ENDBRANCH  21  22
ENDBRANCH  20  21
ENDBRANCH   1  20
TORSDOF 8
