REMARK  30 active torsions:
REMARK  status: ('A' for Active; 'I' for Inactive)
REMARK    1  A    between atoms: C2_2  and  C3_3 
REMARK    2  A    between atoms: C3_3  and  C4_4 
REMARK    3  A    between atoms: C4_4  and  C5_5 
REMARK    4  A    between atoms: C5_5  and  C6_6 
REMARK    5  A    between atoms: C6_6  and  C7_7 
REMARK    6  A    between atoms: C7_7  and  C8_8 
REMARK    7  A    between atoms: C8_8  and  C9_9 
REMARK    8  A    between atoms: C9_9  and  C10_10 
REMARK    9  A    between atoms: C10_10  and  C11_11 
REMARK   10  A    between atoms: C11_11  and  C12_12 
REMARK   11  A    between atoms: C12_12  and  C13_13 
REMARK   12  A    between atoms: C13_13  and  C14_14 
REMARK   13  A    between atoms: C14_14  and  C15_15 
REMARK   14  A    between atoms: C15_15  and  C16_16 
REMARK   15  A    between atoms: C16_16  and  N1_17 
REMARK       I    between atoms: N1_17  and  C17_18 
REMARK   16  A    between atoms: C17_18  and  C18_20 
REMARK   17  A    between atoms: C18_20  and  N2_21 
REMARK   18  A    between atoms: C18_20  and  C19_22 
REMARK   19  A    between atoms: C19_22  and  C20_23 
REMARK   20  A    between atoms: C23_26  and  O2_27 
REMARK   21  A    between atoms: O2_27  and  P1_28 
REMARK   22  A    between atoms: P1_28  and  O4_30 
REMARK   23  A    between atoms: P1_28  and  C24_31 
REMARK   24  A    between atoms: C24_31  and  O5_32 
REMARK   25  A    between atoms: O5_32  and  C25_33 
REMARK   26  A    between atoms: C25_33  and  C26_34 
REMARK   27  A    between atoms: C25_33  and  C27_36 
REMARK   28  A    between atoms: C26_34  and  O6_35 
REMARK   29  A    between atoms: C27_36  and  N3_37 
REMARK   30  A    between atoms: C30_40  and  N4_41 
ROOT
HETATM    1  C20 UNL     1      -2.330   1.217   1.589  1.00  0.00    -0.056 A 
HETATM    2  C21 UNL     1      -2.558  -0.151   1.782  1.00  0.00     0.010 A 
HETATM    3  C22 UNL     1      -3.841  -0.681   1.635  1.00  0.00     0.038 A 
HETATM    4  C23 UNL     1      -4.909   0.144   1.284  1.00  0.00     0.078 A 
HETATM    5  C32 UNL     1      -4.696   1.506   1.089  1.00  0.00     0.038 A 
HETATM    6  C33 UNL     1      -3.412   2.037   1.241  1.00  0.00     0.010 A 
ENDROOT
BRANCH   1   7
HETATM    7  C19 UNL     1      -0.949   1.804   1.766  1.00  0.00     0.083 C 
BRANCH   7   8
HETATM    8  C18 UNL     1      -0.095   1.914   0.488  1.00  0.00     0.313 C 
BRANCH   8   9
HETATM    9  C17 UNL     1       0.151   0.551  -0.201  1.00  0.00     0.251 C 
HETATM   10  N1  UNL     1       0.825  -0.377   0.565  1.00  0.00    -0.359 N 
HETATM   11  H34 UNL     1       1.053  -0.168   1.531  1.00  0.00     0.162 HD
HETATM   12  O1  UNL     1      -0.187   0.327  -1.364  1.00  0.00    -0.271 OA
BRANCH  10  13
HETATM   13  C16 UNL     1       1.131  -1.691   0.038  1.00  0.00     0.122 C 
BRANCH  13  14
HETATM   14  C15 UNL     1       1.879  -2.546   1.058  1.00  0.00     0.020 C 
BRANCH  14  15
HETATM   15  C14 UNL     1       2.245  -3.936   0.529  1.00  0.00     0.002 C 
BRANCH  15  16
HETATM   16  C13 UNL     1       3.303  -3.959  -0.582  1.00  0.00     0.000 C 
BRANCH  16  17
HETATM   17  C12 UNL     1       4.740  -4.184  -0.095  1.00  0.00     0.000 C 
BRANCH  17  18
HETATM   18  C11 UNL     1       5.314  -3.128   0.849  1.00  0.00     0.000 C 
BRANCH  18  19
HETATM   19  C10 UNL     1       5.434  -1.741   0.213  1.00  0.00     0.000 C 
BRANCH  19  20
HETATM   20  C9  UNL     1       5.956  -0.721   1.228  1.00  0.00     0.000 C 
BRANCH  20  21
HETATM   21  C8  UNL     1       5.987   0.711   0.688  1.00  0.00     0.000 C 
BRANCH  21  22
HETATM   22  C7  UNL     1       6.903   0.942  -0.517  1.00  0.00     0.000 C 
BRANCH  22  23
HETATM   23  C6  UNL     1       8.374   0.558  -0.319  1.00  0.00     0.000 C 
BRANCH  23  24
HETATM   24  C5  UNL     1       9.065   1.354   0.791  1.00  0.00     0.000 C 
BRANCH  24  25
HETATM   25  C4  UNL     1      10.532   0.968   1.002  1.00  0.00     0.000 C 
BRANCH  25  26
HETATM   26  C3  UNL     1      11.456   1.152  -0.206  1.00  0.00    -0.000 C 
BRANCH  26  27
HETATM   27  C2  UNL     1      11.488   2.586  -0.736  1.00  0.00    -0.005 C 
HETATM   28  C1  UNL     1      12.534   2.749  -1.828  1.00  0.00     0.005 C 
ENDBRANCH  26  27
ENDBRANCH  25  26
ENDBRANCH  24  25
ENDBRANCH  23  24
ENDBRANCH  22  23
ENDBRANCH  21  22
ENDBRANCH  20  21
ENDBRANCH  19  20
ENDBRANCH  18  19
ENDBRANCH  17  18
ENDBRANCH  16  17
ENDBRANCH  15  16
ENDBRANCH  14  15
ENDBRANCH  13  14
ENDBRANCH  10  13
ENDBRANCH   8   9
BRANCH   8  29
HETATM   29  N2  UNL     1      -0.664   2.874  -0.490  1.00  0.00     0.092 N 
HETATM   30  H36 UNL     1      -0.076   2.831  -1.326  1.00  0.00     0.313 HD
HETATM   31  H37 UNL     1      -1.546   2.470  -0.821  1.00  0.00     0.313 HD
ENDBRANCH   8  29
ENDBRANCH   7   8
ENDBRANCH   1   7
BRANCH   4  32
HETATM   32  O2  UNL     1      -6.127  -0.462   1.185  1.00  0.00    -0.275 OA
BRANCH  32  33
HETATM   33  P1  UNL     1      -7.382   0.127   0.364  1.00  0.00     0.267 P 
HETATM   34  O3  UNL     1      -7.874   1.464   0.836  1.00  0.00    -0.652 OA
BRANCH  33  35
HETATM   35  O4  UNL     1      -8.486  -1.012   0.650  1.00  0.00    -0.327 OA
HETATM   36  H42 UNL     1      -8.921  -0.897   1.517  1.00  0.00     0.220 HD
ENDBRANCH  33  35
BRANCH  33  37
HETATM   37  C24 UNL     1      -6.954  -0.059  -1.373  1.00  0.00     0.293 C 
BRANCH  37  38
HETATM   38  O5  UNL     1      -8.036   0.384  -2.208  1.00  0.00    -0.371 OA
BRANCH  38  39
HETATM   39  C25 UNL     1      -9.030  -0.626  -2.475  1.00  0.00     0.164 C 
BRANCH  39  40
HETATM   40  C26 UNL     1      -8.677  -1.366  -3.776  1.00  0.00     0.197 C 
BRANCH  40  41
HETATM   41  O6  UNL     1      -7.614  -2.297  -3.569  1.00  0.00    -0.398 OA
HETATM   42  H48 UNL     1      -7.957  -3.004  -2.995  1.00  0.00     0.209 HD
ENDBRANCH  40  41
ENDBRANCH  39  40
BRANCH  39  43
HETATM   43  C27 UNL     1     -10.388   0.086  -2.635  1.00  0.00     0.167 C 
BRANCH  43  44
HETATM   44  N3  UNL     1     -10.855   0.657  -1.368  1.00  0.00    -0.307 N 
HETATM   45  C28 UNL     1     -10.607   1.980  -1.089  1.00  0.00     0.099 A 
HETATM   46  C29 UNL     1     -10.931   2.504   0.091  1.00  0.00     0.059 A 
HETATM   47  C30 UNL     1     -11.539   1.573   1.059  1.00  0.00     0.082 A 
HETATM   48  N5  UNL     1     -11.761   0.319   0.811  1.00  0.00    -0.299 N 
HETATM   49  C31 UNL     1     -11.426  -0.197  -0.419  1.00  0.00     0.327 A 
ATOM     50  H5  UNL     1     -12.181  -0.279   1.523  1.00  0.00     0.171 HD
HETATM   51  O7  UNL     1     -11.605  -1.388  -0.673  1.00  0.00    -0.246 OA
BRANCH  47  52
HETATM   52  N4  UNL     1     -11.885   2.029   2.302  1.00  0.00    -0.288 NA
HETATM   53  H53 UNL     1     -11.268   2.726   2.702  1.00  0.00     0.125 HD
HETATM   54  H54 UNL     1     -12.080   1.265   2.940  1.00  0.00     0.125 HD
ENDBRANCH  47  52
ENDBRANCH  43  44
ENDBRANCH  39  43
ENDBRANCH  38  39
ENDBRANCH  37  38
ENDBRANCH  33  37
ENDBRANCH  32  33
ENDBRANCH   4  32
TORSDOF 30
