REMARK  7 active torsions:
REMARK  status: ('A' for Active; 'I' for Inactive)
REMARK    1  A    between atoms: C2_2  and  C30_32 
REMARK    2  A    between atoms: C3_3  and  C4_4 
REMARK    3  A    between atoms: C4_4  and  C5_5 
REMARK    4  A    between atoms: C5_5  and  C6_6 
REMARK    5  A    between atoms: C6_6  and  C8_8 
REMARK    6  A    between atoms: C10_10  and  O1_11 
REMARK    7  A    between atoms: C30_32  and  O4_34 
ROOT
HETATM    1  C8  UNL     1       2.101  -0.753  -1.764  1.00  0.00     0.001 C 
HETATM    2  C9  UNL     1       2.138  -2.148  -1.090  1.00  0.00     0.038 C 
HETATM    3  C10 UNL     1       0.798  -2.323  -0.341  1.00  0.00     0.128 C 
HETATM    4  C11 UNL     1      -0.126  -1.213  -0.903  1.00  0.00    -0.006 C 
HETATM    5  C12 UNL     1      -0.719  -1.777  -2.238  1.00  0.00     0.019 C 
HETATM    6  C13 UNL     1      -1.287  -0.745   0.018  1.00  0.00     0.006 C 
HETATM    7  C14 UNL     1      -2.405  -1.786   0.181  1.00  0.00     0.007 C 
HETATM    8  C15 UNL     1      -3.468  -1.280   1.151  1.00  0.00     0.007 C 
HETATM    9  C16 UNL     1      -4.236  -0.101   0.534  1.00  0.00     0.010 C 
HETATM   10  C17 UNL     1      -5.364   0.518   1.430  1.00  0.00     0.018 C 
HETATM   11  C18 UNL     1      -6.732  -0.037   0.987  1.00  0.00     0.023 C 
HETATM   12  C19 UNL     1      -5.183   0.205   2.930  1.00  0.00     0.023 C 
HETATM   13  C20 UNL     1      -5.441   2.050   1.277  1.00  0.00     0.135 C 
HETATM   14  O2  UNL     1      -5.824   2.777   2.198  1.00  0.00    -0.297 OA
HETATM   15  C21 UNL     1      -5.153   2.682  -0.070  1.00  0.00     0.080 C 
HETATM   16  C22 UNL     1      -4.132   1.931  -0.905  1.00  0.00     0.018 C 
HETATM   17  C23 UNL     1      -3.325   0.978  -0.050  1.00  0.00    -0.026 A 
HETATM   18  C24 UNL     1      -2.211   1.565   0.771  1.00  0.00     0.021 A 
HETATM   19  C25 UNL     1      -1.850   0.646  -0.394  1.00  0.00    -0.027 A 
HETATM   20  C26 UNL     1      -1.247   1.318  -1.635  1.00  0.00     0.011 C 
HETATM   21  C27 UNL     1       0.221   1.029  -1.988  1.00  0.00     0.011 C 
HETATM   22  C28 UNL     1       0.891  -0.025  -1.099  1.00  0.00    -0.030 C 
HETATM   23  C29 UNL     1       1.324   0.682   0.210  1.00  0.00     0.016 C 
ENDROOT
BRANCH   1  24
HETATM   24  C6  UNL     1       3.460  -0.034  -2.012  1.00  0.00    -0.013 C 
HETATM   25  C7  UNL     1       4.320  -0.889  -2.965  1.00  0.00     0.010 C 
BRANCH  24  26
HETATM   26  C5  UNL     1       4.346   0.467  -0.845  1.00  0.00     0.008 C 
BRANCH  26  27
HETATM   27  C4  UNL     1       4.849  -0.565   0.164  1.00  0.00     0.028 C 
BRANCH  27  28
HETATM   28  C3  UNL     1       5.916   0.020   1.051  1.00  0.00    -0.013 C 
HETATM   29  C2  UNL     1       5.825   0.341   2.358  1.00  0.00     0.008 C 
HETATM   30  C1  UNL     1       4.602   0.202   3.218  1.00  0.00     0.055 C 
BRANCH  29  31
HETATM   31  C30 UNL     1       6.997   0.900   3.085  1.00  0.00     0.171 C 
HETATM   32  O3  UNL     1       7.000   1.256   4.251  1.00  0.00    -0.646 OA
BRANCH  31  33
HETATM   33  O4  UNL     1       8.114   0.985   2.343  1.00  0.00    -0.773 OA
HETATM   34  H46 UNL     1       8.772   1.370   2.961  1.00  0.00     0.167 HD
ENDBRANCH  31  33
ENDBRANCH  29  31
ENDBRANCH  27  28
ENDBRANCH  26  27
ENDBRANCH  24  26
ENDBRANCH   1  24
BRANCH   3  35
HETATM   35  O1  UNL     1       1.009  -2.186   1.059  1.00  0.00    -0.395 OA
HETATM   36  H17 UNL     1       1.639  -2.874   1.333  1.00  0.00     0.210 HD
ENDBRANCH   3  35
TORSDOF 7
