REMARK  8 active torsions:
REMARK  status: ('A' for Active; 'I' for Inactive)
REMARK    1  A    between atoms: C2_2  and  C3_3 
REMARK    2  A    between atoms: C2_2  and  C9_11 
REMARK    3  A    between atoms: C3_3  and  C4_4 
REMARK    4  A    between atoms: C4_4  and  C5_5 
REMARK    5  A    between atoms: C6_6  and  C7_7 
REMARK    6  A    between atoms: C6_6  and  C8_9 
REMARK    7  A    between atoms: C7_7  and  O1_8 
REMARK    8  A    between atoms: C8_9  and  O2_10 
ROOT
HETATM    1  C9  UNL     1       1.674   2.376  -0.051  1.00  0.00    -0.001 C 
HETATM    2  C10 UNL     1       0.929   3.609  -0.637  1.00  0.00     0.007 C 
HETATM    3  C11 UNL     1      -0.567   3.252  -0.684  1.00  0.00     0.015 C 
HETATM    4  C12 UNL     1      -0.717   2.018   0.228  1.00  0.00    -0.004 C 
HETATM    5  C13 UNL     1      -0.808   2.548   1.693  1.00  0.00     0.021 C 
HETATM    6  C14 UNL     1      -1.905   1.072   0.087  1.00  0.00     0.007 C 
HETATM    7  C15 UNL     1      -1.847  -0.238   0.446  1.00  0.00     0.007 C 
HETATM    8  C16 UNL     1      -0.492  -0.779   0.887  1.00  0.00     0.157 C 
HETATM    9  O3  UNL     1      -0.365  -1.944   1.258  1.00  0.00    -0.293 OA
HETATM   10  C17 UNL     1       0.749   0.107   0.863  1.00  0.00     0.094 C 
HETATM   11  C18 UNL     1       0.606   1.246  -0.141  1.00  0.00    -0.022 C 
HETATM   12  C19 UNL     1       0.573   0.645  -1.578  1.00  0.00     0.017 C 
HETATM   13  C20 UNL     1      -3.052  -1.223   0.368  1.00  0.00    -0.007 C 
HETATM   14  C21 UNL     1      -2.814  -2.051  -0.915  1.00  0.00     0.021 C 
HETATM   15  C22 UNL     1      -3.164  -2.177   1.594  1.00  0.00     0.022 C 
HETATM   16  C23 UNL     1      -4.413  -3.049   1.590  1.00  0.00     0.080 C 
HETATM   17  C24 UNL     1      -5.673  -2.228   1.510  1.00  0.00     0.135 C 
HETATM   18  O4  UNL     1      -6.628  -2.496   2.241  1.00  0.00    -0.297 OA
HETATM   19  C25 UNL     1      -5.748  -1.149   0.422  1.00  0.00     0.018 C 
HETATM   20  C26 UNL     1      -6.880  -0.167   0.827  1.00  0.00     0.023 C 
HETATM   21  C27 UNL     1      -6.183  -1.812  -0.894  1.00  0.00     0.023 C 
HETATM   22  C28 UNL     1      -4.384  -0.378   0.365  1.00  0.00     0.021 C 
HETATM   23  C29 UNL     1      -4.327   0.686  -0.732  1.00  0.00     0.090 C 
HETATM   24  C30 UNL     1      -3.188   1.631  -0.450  1.00  0.00     0.157 C 
HETATM   25  O5  UNL     1      -3.313   2.830  -0.690  1.00  0.00    -0.293 OA
ENDROOT
BRANCH   1  26
HETATM   26  C2  UNL     1       3.139   2.245  -0.572  1.00  0.00    -0.014 C 
HETATM   27  C1  UNL     1       3.358   2.180  -2.086  1.00  0.00     0.010 C 
BRANCH  26  28
HETATM   28  C3  UNL     1       3.992   1.211   0.209  1.00  0.00     0.008 C 
BRANCH  28  29
HETATM   29  C4  UNL     1       4.238  -0.144  -0.464  1.00  0.00     0.028 C 
BRANCH  29  30
HETATM   30  C5  UNL     1       5.048  -1.045   0.430  1.00  0.00    -0.020 C 
HETATM   31  C6  UNL     1       6.341  -1.398   0.266  1.00  0.00    -0.037 C 
BRANCH  31  32
HETATM   32  C7  UNL     1       7.234  -0.882  -0.834  1.00  0.00     0.200 C 
BRANCH  32  33
HETATM   33  O1  UNL     1       7.382  -1.884  -1.831  1.00  0.00    -0.397 OA
HETATM   34  H12 UNL     1       7.482  -2.728  -1.336  1.00  0.00     0.209 HD
ENDBRANCH  32  33
ENDBRANCH  31  32
BRANCH  31  35
HETATM   35  C8  UNL     1       7.010  -2.361   1.213  1.00  0.00     0.200 C 
BRANCH  35  36
HETATM   36  O2  UNL     1       7.475  -3.471   0.457  1.00  0.00    -0.397 OA
HETATM   37  H15 UNL     1       7.992  -4.024   1.070  1.00  0.00     0.209 HD
ENDBRANCH  35  36
ENDBRANCH  31  35
ENDBRANCH  29  30
ENDBRANCH  28  29
ENDBRANCH  26  28
ENDBRANCH   1  26
TORSDOF 8
