REMARK  9 active torsions:
REMARK  status: ('A' for Active; 'I' for Inactive)
REMARK    1  A    between atoms: C2_2  and  C3_3 
REMARK    2  A    between atoms: C2_2  and  C9_12 
REMARK    3  A    between atoms: C3_3  and  C4_4 
REMARK    4  A    between atoms: C4_4  and  O1_5 
REMARK    5  A    between atoms: C4_4  and  C5_6 
REMARK    6  A    between atoms: C5_6  and  O2_7 
REMARK    7  A    between atoms: C5_6  and  C6_8 
REMARK    8  A    between atoms: C6_8  and  O3_11 
REMARK    9  A    between atoms: C16_19  and  O4_20 
ROOT
HETATM    1  C9  UNL     1      -1.876  -0.990  -0.881  1.00  0.00     0.097 A 
HETATM    2  C10 UNL     1      -1.619  -2.446  -1.134  1.00  0.00     0.042 C 
HETATM    3  C11 UNL     1      -0.112  -2.571  -1.403  1.00  0.00     0.016 C 
HETATM    4  C12 UNL     1       0.495  -1.134  -1.618  1.00  0.00    -0.002 C 
HETATM    5  C13 UNL     1       0.768  -0.961  -3.134  1.00  0.00     0.019 C 
HETATM    6  C14 UNL     1      -0.631  -0.191  -1.198  1.00  0.00     0.104 A 
HETATM    7  C15 UNL     1      -0.332   1.235  -0.851  1.00  0.00     0.074 C 
HETATM    8  C16 UNL     1       0.999   1.480  -0.127  1.00  0.00     0.126 C 
HETATM    9  C17 UNL     1       2.178   0.639  -0.708  1.00  0.00     0.032 C 
HETATM   10  C18 UNL     1       3.695   0.969  -0.205  1.00  0.00    -0.032 C 
HETATM   11  C19 UNL     1       4.440   1.546  -1.443  1.00  0.00     0.016 C 
HETATM   12  C20 UNL     1       3.727   2.018   0.934  1.00  0.00     0.017 C 
HETATM   13  C21 UNL     1       5.079   2.310   1.573  1.00  0.00     0.080 C 
HETATM   14  C22 UNL     1       6.219   1.426   1.149  1.00  0.00     0.135 C 
HETATM   15  O5  UNL     1       7.366   1.882   1.161  1.00  0.00    -0.297 OA
HETATM   16  C23 UNL     1       5.946  -0.045   0.830  1.00  0.00     0.017 C 
HETATM   17  C24 UNL     1       7.013  -0.513  -0.185  1.00  0.00     0.023 C 
HETATM   18  C25 UNL     1       6.197  -0.819   2.145  1.00  0.00     0.023 C 
HETATM   19  C26 UNL     1       4.457  -0.286   0.355  1.00  0.00     0.009 C 
HETATM   20  C27 UNL     1       4.295  -1.549  -0.506  1.00  0.00     0.007 C 
HETATM   21  C28 UNL     1       2.983  -1.679  -1.262  1.00  0.00     0.011 C 
HETATM   22  C29 UNL     1       1.789  -0.886  -0.694  1.00  0.00    -0.027 C 
HETATM   23  C30 UNL     1       1.484  -1.341   0.768  1.00  0.00     0.016 C 
HETATM   24  O6  UNL     1      -1.776  -0.228  -2.084  1.00  0.00    -0.362 OA
ENDROOT
BRANCH   1  25
HETATM   25  C2  UNL     1      -3.031  -0.541  -0.011  1.00  0.00     0.022 C 
HETATM   26  C1  UNL     1      -2.764  -0.879   1.457  1.00  0.00     0.013 C 
BRANCH  25  27
HETATM   27  C3  UNL     1      -4.353  -1.154  -0.522  1.00  0.00     0.041 C 
BRANCH  27  28
HETATM   28  C4  UNL     1      -5.637  -0.719   0.204  1.00  0.00     0.150 C 
BRANCH  28  29
HETATM   29  O1  UNL     1      -6.735  -1.407  -0.419  1.00  0.00    -0.393 OA
HETATM   30  H8  UNL     1      -6.587  -2.366  -0.319  1.00  0.00     0.210 HD
ENDBRANCH  28  29
BRANCH  28  31
HETATM   31  C5  UNL     1      -5.911   0.811   0.170  1.00  0.00     0.180 C 
BRANCH  31  32
HETATM   32  O2  UNL     1      -5.887   1.272  -1.188  1.00  0.00    -0.390 OA
HETATM   33  H10 UNL     1      -4.959   1.302  -1.486  1.00  0.00     0.210 HD
ENDBRANCH  31  32
BRANCH  31  34
HETATM   34  C6  UNL     1      -7.276   1.228   0.818  1.00  0.00     0.079 C 
HETATM   35  C7  UNL     1      -7.464   2.746   0.751  1.00  0.00     0.048 C 
HETATM   36  C8  UNL     1      -7.373   0.766   2.276  1.00  0.00     0.048 C 
BRANCH  34  37
HETATM   37  O3  UNL     1      -8.392   0.652   0.127  1.00  0.00    -0.388 OA
HETATM   38  H17 UNL     1      -8.032  -0.067  -0.438  1.00  0.00     0.210 HD
ENDBRANCH  34  37
ENDBRANCH  31  34
ENDBRANCH  28  31
ENDBRANCH  27  28
ENDBRANCH  25  27
ENDBRANCH   1  25
BRANCH   8  39
HETATM   39  O4  UNL     1       1.276   2.869  -0.271  1.00  0.00    -0.395 OA
HETATM   40  H28 UNL     1       0.540   3.371   0.116  1.00  0.00     0.210 HD
ENDBRANCH   8  39
TORSDOF 9
