REMARK  11 active torsions:
REMARK  status: ('A' for Active; 'I' for Inactive)
REMARK    1  A    between atoms: C2_2  and  C3_3 
REMARK    2  A    between atoms: C2_2  and  C9_12 
REMARK    3  A    between atoms: C3_3  and  C4_4 
REMARK    4  A    between atoms: C4_4  and  O1_5 
REMARK    5  A    between atoms: C4_4  and  C5_6 
REMARK    6  A    between atoms: C5_6  and  O2_7 
REMARK    7  A    between atoms: C5_6  and  C6_8 
REMARK    8  A    between atoms: C6_8  and  O3_11 
REMARK    9  A    between atoms: C15_18  and  O4_19 
REMARK   10  A    between atoms: C22_27  and  C24_29 
REMARK   11  A    between atoms: C24_29  and  O6_30 
ROOT
HETATM    1  C9  UNL     1       1.776  -1.099  -0.316  1.00  0.00    -0.002 C 
HETATM    2  C10 UNL     1       1.872  -1.431   1.199  1.00  0.00     0.006 C 
HETATM    3  C11 UNL     1       0.458  -1.326   1.792  1.00  0.00     0.011 C 
HETATM    4  C12 UNL     1      -0.488  -1.265   0.577  1.00  0.00    -0.030 C 
HETATM    5  C13 UNL     1      -0.734  -2.739   0.134  1.00  0.00     0.016 C 
HETATM    6  C14 UNL     1      -1.848  -0.547   0.838  1.00  0.00     0.032 C 
HETATM    7  C15 UNL     1      -2.856  -1.323   1.711  1.00  0.00     0.124 C 
HETATM    8  C16 UNL     1      -4.107  -0.474   1.959  1.00  0.00     0.038 C 
HETATM    9  C17 UNL     1      -4.905  -0.297   0.662  1.00  0.00     0.015 C 
HETATM   10  C18 UNL     1      -4.050   0.171  -0.522  1.00  0.00    -0.026 A 
HETATM   11  C19 UNL     1      -4.786   0.068  -1.861  1.00  0.00     0.018 C 
HETATM   12  C20 UNL     1      -6.293  -0.085  -1.719  1.00  0.00     0.080 C 
HETATM   13  C21 UNL     1      -6.819   0.767  -0.590  1.00  0.00     0.137 C 
HETATM   14  O5  UNL     1      -7.785   1.513  -0.761  1.00  0.00    -0.297 OA
HETATM   15  C22 UNL     1      -6.202   0.571   0.801  1.00  0.00     0.042 C 
HETATM   16  C23 UNL     1      -5.943   1.960   1.410  1.00  0.00     0.026 C 
HETATM   17  C25 UNL     1      -3.109   1.346  -0.384  1.00  0.00     0.021 A 
HETATM   18  C26 UNL     1      -2.508  -0.043  -0.476  1.00  0.00    -0.025 A 
HETATM   19  C27 UNL     1      -1.823  -0.428  -1.790  1.00  0.00     0.011 C 
HETATM   20  C28 UNL     1      -0.286  -0.456  -1.806  1.00  0.00     0.011 C 
HETATM   21  C29 UNL     1       0.376  -0.409  -0.424  1.00  0.00    -0.032 C 
HETATM   22  C30 UNL     1       0.518   1.087  -0.008  1.00  0.00     0.016 C 
ENDROOT
BRANCH   1  23
HETATM   23  C2  UNL     1       3.049  -0.364  -0.833  1.00  0.00    -0.011 C 
HETATM   24  C1  UNL     1       2.944  -0.007  -2.322  1.00  0.00     0.010 C 
BRANCH  23  25
HETATM   25  C3  UNL     1       4.321  -1.230  -0.612  1.00  0.00     0.039 C 
BRANCH  25  26
HETATM   26  C4  UNL     1       5.470  -0.487   0.098  1.00  0.00     0.150 C 
BRANCH  26  27
HETATM   27  O1  UNL     1       6.459  -1.476   0.418  1.00  0.00    -0.393 OA
HETATM   28  H8  UNL     1       7.338  -1.127   0.145  1.00  0.00     0.210 HD
ENDBRANCH  26  27
BRANCH  26  29
HETATM   29  C5  UNL     1       6.069   0.696  -0.717  1.00  0.00     0.180 C 
BRANCH  29  30
HETATM   30  O2  UNL     1       6.446   0.223  -2.021  1.00  0.00    -0.390 OA
HETATM   31  H10 UNL     1       7.296  -0.246  -1.904  1.00  0.00     0.210 HD
ENDBRANCH  29  30
BRANCH  29  32
HETATM   32  C6  UNL     1       7.320   1.357  -0.063  1.00  0.00     0.079 C 
HETATM   33  C7  UNL     1       7.817   2.536  -0.908  1.00  0.00     0.048 C 
HETATM   34  C8  UNL     1       7.055   1.821   1.371  1.00  0.00     0.048 C 
BRANCH  32  35
HETATM   35  O3  UNL     1       8.369   0.371  -0.050  1.00  0.00    -0.388 OA
HETATM   36  H17 UNL     1       9.142   0.762   0.405  1.00  0.00     0.210 HD
ENDBRANCH  32  35
ENDBRANCH  29  32
ENDBRANCH  26  29
ENDBRANCH  25  26
ENDBRANCH  23  25
ENDBRANCH   1  23
BRANCH   7  37
HETATM   37  O4  UNL     1      -2.293  -1.651   2.980  1.00  0.00    -0.395 OA
HETATM   38  H28 UNL     1      -2.033  -0.823   3.418  1.00  0.00     0.210 HD
ENDBRANCH   7  37
BRANCH  15  39
HETATM   39  C24 UNL     1      -7.268  -0.189   1.626  1.00  0.00     0.181 C 
BRANCH  39  40
HETATM   40  O6  UNL     1      -8.421   0.601   1.904  1.00  0.00    -0.400 OA
HETATM   41  H41 UNL     1      -8.702   1.027   1.068  1.00  0.00     0.209 HD
ENDBRANCH  39  40
ENDBRANCH  15  39
TORSDOF 11
