REMARK  4 active torsions:
REMARK  status: ('A' for Active; 'I' for Inactive)
REMARK    1  A    between atoms: C3_4  and  C4_5 
REMARK       I    between atoms: N3_16  and  C13_17 
REMARK    2  A    between atoms: C13_17  and  C14_19 
REMARK    3  A    between atoms: C14_19  and  C15_20 
REMARK    4  A    between atoms: C15_20  and  C16_21 
ROOT
HETATM    1  C4  UNL     1      -5.710   0.113   0.319  1.00  0.00    -0.020 A 
HETATM    2  C5  UNL     1      -5.760  -0.989   1.197  1.00  0.00     0.014 A 
HETATM    3  C6  UNL     1      -4.794  -2.004   1.149  1.00  0.00     0.027 A 
HETATM    4  C7  UNL     1      -3.780  -1.915   0.209  1.00  0.00     0.048 A 
HETATM    5  N2  UNL     1      -2.791  -2.903   0.044  1.00  0.00    -0.227 NA
HETATM    6  C8  UNL     1      -1.805  -3.038   1.008  1.00  0.00     0.202 C 
HETATM    7  O1  UNL     1      -1.856  -2.634   2.164  1.00  0.00    -0.280 OA
HETATM    8  C9  UNL     1      -0.580  -3.715   0.449  1.00  0.00     0.102 C 
HETATM    9  C10 UNL     1       0.563  -2.839  -0.087  1.00  0.00     0.001 C 
HETATM   10  C11 UNL     1       1.359  -2.078   0.972  1.00  0.00     0.025 C 
HETATM   11  C12 UNL     1       2.740  -1.704   0.409  1.00  0.00     0.126 C 
HETATM   12  N3  UNL     1       2.714  -1.154  -0.958  1.00  0.00    -0.352 N 
HETATM   13  C13 UNL     1       3.762  -0.388  -1.480  1.00  0.00     0.220 C 
HETATM   14  O2  UNL     1       3.884  -0.185  -2.688  1.00  0.00    -0.273 OA
HETATM   15  C22 UNL     1       1.800  -1.786  -1.929  1.00  0.00     0.130 C 
HETATM   16  C23 UNL     1       0.365  -1.935  -1.341  1.00  0.00     0.010 C 
HETATM   17  C24 UNL     1      -0.150  -0.463  -1.219  1.00  0.00     0.033 C 
HETATM   18  C25 UNL     1      -1.506  -0.148  -0.613  1.00  0.00     0.176 C 
HETATM   19  O3  UNL     1      -2.570  -0.678  -1.424  1.00  0.00    -0.349 OA
HETATM   20  C26 UNL     1      -3.690  -0.800  -0.629  1.00  0.00     0.091 A 
HETATM   21  C27 UNL     1      -4.655   0.200  -0.602  1.00  0.00     0.051 A 
HETATM   22  H7  UNL     1      -2.395  -2.867  -0.892  1.00  0.00     0.136 HD
ENDROOT
BRANCH  13  23
HETATM   23  C14 UNL     1       4.738   0.208  -0.478  1.00  0.00     0.107 C 
BRANCH  23  24
HETATM   24  C15 UNL     1       5.738   1.151  -1.151  1.00  0.00     0.047 C 
BRANCH  24  25
HETATM   25  C16 UNL     1       6.678   1.767  -0.140  1.00  0.00    -0.058 A 
HETATM   26  C17 UNL     1       6.283   2.886   0.607  1.00  0.00     0.007 A 
HETATM   27  C18 UNL     1       7.143   3.442   1.556  1.00  0.00     0.001 A 
HETATM   28  C19 UNL     1       8.404   2.885   1.768  1.00  0.00     0.000 A 
HETATM   29  C20 UNL     1       8.806   1.772   1.031  1.00  0.00     0.001 A 
HETATM   30  C21 UNL     1       7.947   1.212   0.082  1.00  0.00     0.007 A 
ENDBRANCH  24  25
ENDBRANCH  23  24
ENDBRANCH  13  23
BRANCH   1  31
HETATM   31  C3  UNL     1      -6.740   1.140   0.382  1.00  0.00     0.008 A 
HETATM   32  C2  UNL     1      -6.614   2.435  -0.079  1.00  0.00     0.123 A 
HETATM   33  N1  UNL     1      -7.807   3.053   0.167  1.00  0.00    -0.307 N 
HETATM   34  C1  UNL     1      -8.159   4.417  -0.143  1.00  0.00     0.177 C 
HETATM   35  N4  UNL     1      -8.713   2.253   0.755  1.00  0.00    -0.310 N 
HETATM   36  C28 UNL     1      -8.062   1.095   0.890  1.00  0.00     0.120 A 
ATOM     37  H4  UNL     1      -9.669   2.477   1.032  1.00  0.00     0.186 HD
ENDBRANCH   1  31
TORSDOF 4
