REMARK  5 active torsions:
REMARK  status: ('A' for Active; 'I' for Inactive)
REMARK    1  A    between atoms: O1_1  and  C1_2 
REMARK    2  A    between atoms: C4_5  and  C5_6 
REMARK    3  A    between atoms: C9_10  and  O2_11 
REMARK    4  A    between atoms: C13_16  and  C14_17 
REMARK    5  A    between atoms: C18_21  and  O4_22 
ROOT
HETATM    1  C5  UNL     1       0.192   0.515   0.354  1.00  0.00     0.065 C 
HETATM    2  C6  UNL     1       1.199   1.659   0.336  1.00  0.00    -0.015 A 
HETATM    3  C7  UNL     1       2.315   1.644   1.192  1.00  0.00     0.013 A 
HETATM    4  C8  UNL     1       3.249   2.681   1.163  1.00  0.00     0.037 A 
HETATM    5  C9  UNL     1       3.071   3.742   0.286  1.00  0.00     0.068 A 
HETATM    6  C10 UNL     1       1.965   3.791  -0.553  1.00  0.00     0.073 A 
HETATM    7  C11 UNL     1       1.021   2.762  -0.508  1.00  0.00     0.078 A 
HETATM    8  O3  UNL     1      -0.050   2.905  -1.349  1.00  0.00    -0.350 OA
HETATM    9  C12 UNL     1      -1.197   2.159  -0.932  1.00  0.00     0.186 C 
HETATM   10  C13 UNL     1      -0.865   0.674  -0.771  1.00  0.00     0.056 C 
ENDROOT
BRANCH   1  11
HETATM   11  C4  UNL     1       0.841  -0.869   0.284  1.00  0.00    -0.049 A 
HETATM   12  C3  UNL     1       0.507  -1.847   1.235  1.00  0.00     0.011 A 
HETATM   13  C2  UNL     1       1.080  -3.118   1.177  1.00  0.00     0.037 A 
HETATM   14  C1  UNL     1       1.987  -3.420   0.170  1.00  0.00     0.065 A 
HETATM   15  C21 UNL     1       2.331  -2.471  -0.787  1.00  0.00     0.037 A 
HETATM   16  C20 UNL     1       1.757  -1.199  -0.730  1.00  0.00     0.011 A 
BRANCH  14  17
HETATM   17  O1  UNL     1       2.524  -4.673   0.152  1.00  0.00    -0.361 OA
HETATM   18  H1  UNL     1       3.121  -4.740  -0.611  1.00  0.00     0.217 HD
ENDBRANCH  14  17
ENDBRANCH   1  11
BRANCH  10  19
HETATM   19  C14 UNL     1      -2.119  -0.157  -0.533  1.00  0.00    -0.048 A 
HETATM   20  C15 UNL     1      -2.993   0.104   0.534  1.00  0.00     0.008 A 
HETATM   21  C16 UNL     1      -4.131  -0.683   0.731  1.00  0.00     0.003 A 
HETATM   22  C17 UNL     1      -4.411  -1.741  -0.132  1.00  0.00     0.036 A 
HETATM   23  C18 UNL     1      -3.546  -2.005  -1.187  1.00  0.00     0.066 A 
HETATM   24  C19 UNL     1      -2.411  -1.227  -1.392  1.00  0.00     0.044 A 
BRANCH  23  25
HETATM   25  O4  UNL     1      -3.779  -3.030  -2.056  1.00  0.00    -0.361 OA
HETATM   26  H15 UNL     1      -4.574  -3.506  -1.768  1.00  0.00     0.217 HD
ENDBRANCH  23  25
ENDBRANCH  10  19
BRANCH   5  27
HETATM   27  O2  UNL     1       4.012   4.729   0.282  1.00  0.00    -0.361 OA
HETATM   28  H7  UNL     1       3.761   5.391  -0.383  1.00  0.00     0.217 HD
ENDBRANCH   5  27
TORSDOF 5
