REMARK  2 active torsions:
REMARK  status: ('A' for Active; 'I' for Inactive)
REMARK    1  A    between atoms: C21_27  and  C22_28 
REMARK    2  A    between atoms: C22_28  and  O7_30 
ROOT
HETATM    1  C1  UNL     1       2.939   2.695  -2.176  1.00  0.00     0.043 C 
HETATM    2  C2  UNL     1       2.527   2.218  -0.805  1.00  0.00    -0.076 C 
HETATM    3  C3  UNL     1       1.218   1.990  -0.574  1.00  0.00     0.084 C 
HETATM    4  C4  UNL     1       0.562   1.593   0.699  1.00  0.00     0.283 C 
HETATM    5  O1  UNL     1       1.077   1.484   1.795  1.00  0.00    -0.260 OA
HETATM    6  O2  UNL     1      -0.746   1.391   0.401  1.00  0.00    -0.317 OA
HETATM    7  C5  UNL     1      -1.597   0.936   1.464  1.00  0.00     0.195 C 
HETATM    8  C6  UNL     1      -2.997   0.496   0.868  1.00  0.00     0.053 C 
HETATM    9  C7  UNL     1      -3.711  -0.348   2.012  1.00  0.00     0.159 C 
HETATM   10  C8  UNL     1      -5.119   0.011   2.399  1.00  0.00     0.011 C 
HETATM   11  C9  UNL     1      -5.742   1.131   2.000  1.00  0.00    -0.054 C 
HETATM   12  C10 UNL     1      -7.162   1.417   2.401  1.00  0.00     0.046 C 
HETATM   13  C11 UNL     1      -5.105   2.119   1.125  1.00  0.00     0.180 A 
HETATM   14  O3  UNL     1      -4.865   1.830  -0.254  1.00  0.00    -0.370 OA
HETATM   15  C12 UNL     1      -3.714   1.836   0.596  1.00  0.00     0.170 A 
HETATM   16  O4  UNL     1      -3.672  -1.780   1.844  1.00  0.00    -0.372 OA
HETATM   17  C13 UNL     1      -3.868  -2.332   0.532  1.00  0.00     0.162 C 
HETATM   18  C14 UNL     1      -2.511  -2.852   0.066  1.00  0.00     0.068 C 
HETATM   19  C15 UNL     1      -1.736  -1.542  -0.188  1.00  0.00     0.147 C 
HETATM   20  O5  UNL     1      -0.790  -1.632  -1.261  1.00  0.00    -0.312 OA
HETATM   21  C16 UNL     1       0.339  -2.321  -0.943  1.00  0.00     0.283 C 
HETATM   22  O6  UNL     1       0.433  -3.175  -0.079  1.00  0.00    -0.260 OA
HETATM   23  C17 UNL     1       1.451  -1.750  -1.732  1.00  0.00     0.082 C 
HETATM   24  C18 UNL     1       2.702  -1.575  -1.271  1.00  0.00     0.006 C 
HETATM   25  C19 UNL     1       3.208  -1.986   0.019  1.00  0.00    -0.001 C 
HETATM   26  C20 UNL     1       4.349  -1.618   0.624  1.00  0.00     0.007 C 
HETATM   27  C21 UNL     1       5.435  -0.630   0.280  1.00  0.00     0.172 C 
HETATM   28  O8  UNL     1       5.024   0.292  -0.739  1.00  0.00    -0.379 OA
HETATM   29  C24 UNL     1       5.009   1.654  -0.302  1.00  0.00     0.173 C 
HETATM   30  C25 UNL     1       3.629   2.074   0.234  1.00  0.00     0.060 C 
HETATM   31  C26 UNL     1      -2.851  -0.409  -0.444  1.00  0.00     0.034 C 
HETATM   32  C27 UNL     1      -2.594   0.349  -1.755  1.00  0.00     0.022 C 
HETATM   33  C28 UNL     1      -4.083  -1.293  -0.497  1.00  0.00     0.119 A 
HETATM   34  C29 UNL     1      -4.915  -1.575  -1.738  1.00  0.00     0.210 A 
HETATM   35  O9  UNL     1      -5.387  -0.758  -0.656  1.00  0.00    -0.371 OA
ENDROOT
BRANCH  27  36
HETATM   36  C22 UNL     1       6.718  -1.354  -0.209  1.00  0.00     0.146 C 
HETATM   37  C23 UNL     1       7.904  -0.401  -0.311  1.00  0.00     0.042 C 
BRANCH  36  38
HETATM   38  O7  UNL     1       6.515  -1.915  -1.513  1.00  0.00    -0.393 OA
HETATM   39  H27 UNL     1       5.930  -1.283  -1.976  1.00  0.00     0.210 HD
ENDBRANCH  36  38
ENDBRANCH  27  36
TORSDOF 2
