REMARK  11 active torsions:
REMARK  status: ('A' for Active; 'I' for Inactive)
REMARK    1  A    between atoms: C2_2  and  O1_3 
REMARK    2  A    between atoms: C2_2  and  C3_4 
REMARK    3  A    between atoms: C3_4  and  N1_5 
REMARK    4  A    between atoms: N1_5  and  C4_6 
REMARK    5  A    between atoms: C4_6  and  C5_7 
REMARK    6  A    between atoms: C6_8  and  C7_9 
REMARK    7  A    between atoms: C7_9  and  O2_10 
REMARK    8  A    between atoms: C7_9  and  C8_11 
REMARK    9  A    between atoms: C8_11  and  O3_13 
REMARK   10  A    between atoms: C8_11  and  C10_14 
REMARK   11  A    between atoms: C17_22  and  C18_23 
ROOT
HETATM    1  C10 UNL     1       1.301  -0.487  -1.316  1.00  0.00     0.034 C 
HETATM    2  C11 UNL     1       0.923   0.590  -2.362  1.00  0.00     0.012 C 
HETATM    3  C12 UNL     1      -0.592   0.454  -2.615  1.00  0.00     0.044 C 
HETATM    4  C13 UNL     1      -1.119  -0.362  -1.409  1.00  0.00     0.093 C 
HETATM    5  O4  UNL     1      -1.138   0.475  -0.218  1.00  0.00    -0.363 OA
HETATM    6  C14 UNL     1      -1.877   1.698  -0.294  1.00  0.00     0.263 C 
HETATM    7  C15 UNL     1      -2.984   1.727   0.670  1.00  0.00    -0.080 C 
HETATM    8  C16 UNL     1      -3.948   1.842   1.384  1.00  0.00    -0.093 C 
HETATM    9  C17 UNL     1      -5.164   1.979   2.226  1.00  0.00     0.121 C 
HETATM   10  C24 UNL     1      -6.337   1.101   1.717  1.00  0.00     0.190 C 
HETATM   11  O5  UNL     1      -6.225  -0.288   2.057  1.00  0.00    -0.384 OA
HETATM   12  C25 UNL     1      -5.415  -1.049   1.162  1.00  0.00     0.122 C 
HETATM   13  C26 UNL     1      -4.991  -2.330   1.875  1.00  0.00     0.033 C 
HETATM   14  C27 UNL     1      -4.525  -3.440   0.925  1.00  0.00     0.013 C 
HETATM   15  C28 UNL     1      -4.028  -2.937  -0.457  1.00  0.00    -0.026 C 
HETATM   16  C29 UNL     1      -3.756  -4.180  -1.349  1.00  0.00     0.016 C 
HETATM   17  C30 UNL     1      -5.212  -2.157  -1.120  1.00  0.00     0.071 C 
HETATM   18  C31 UNL     1      -6.122  -1.378  -0.145  1.00  0.00     0.045 C 
HETATM   19  C32 UNL     1      -4.788  -1.263  -2.273  1.00  0.00     0.154 C 
HETATM   20  O6  UNL     1      -5.591  -0.878  -3.123  1.00  0.00    -0.293 OA
HETATM   21  C33 UNL     1      -3.401  -0.763  -2.346  1.00  0.00     0.057 C 
HETATM   22  C34 UNL     1      -2.464  -1.079  -1.436  1.00  0.00    -0.036 C 
HETATM   23  C35 UNL     1      -2.711  -2.067  -0.288  1.00  0.00     0.026 C 
HETATM   24  C36 UNL     1      -1.468  -2.934   0.070  1.00  0.00     0.011 C 
HETATM   25  C37 UNL     1      -0.132  -2.181   0.045  1.00  0.00     0.014 C 
HETATM   26  C38 UNL     1       0.044  -1.420  -1.281  1.00  0.00    -0.002 C 
HETATM   27  C39 UNL     1       0.036  -2.433  -2.459  1.00  0.00     0.019 C 
ENDROOT
BRANCH   1  28
HETATM   28  C8  UNL     1       2.762  -1.031  -1.447  1.00  0.00     0.087 C 
HETATM   29  C9  UNL     1       3.080  -1.695  -2.797  1.00  0.00     0.049 C 
BRANCH  28  30
HETATM   30  C7  UNL     1       3.837   0.103  -1.193  1.00  0.00     0.181 C 
BRANCH  30  31
HETATM   31  C6  UNL     1       3.761   0.773   0.200  1.00  0.00     0.159 C 
HETATM   32  C5  UNL     1       4.791   1.840   0.611  1.00  0.00     0.051 C 
HETATM   33  C41 UNL     1       4.658   1.812   2.137  1.00  0.00     0.014 C 
HETATM   34  C40 UNL     1       4.307   0.358   2.435  1.00  0.00     0.173 C 
HETATM   35  C42 UNL     1       3.559   2.755   2.638  1.00  0.00     0.012 C 
HETATM   36  O7  UNL     1       3.774  -0.226   1.240  1.00  0.00    -0.382 OA
BRANCH  32  37
HETATM   37  C4  UNL     1       6.252   1.685   0.139  1.00  0.00     0.277 C 
BRANCH  37  38
HETATM   38  N1  UNL     1       6.988   0.561   0.721  1.00  0.00     0.086 N 
HETATM   39  H8  UNL     1       7.140   0.729   1.716  1.00  0.00     0.315 HD
BRANCH  38  40
HETATM   40  C3  UNL     1       8.306   0.421   0.071  1.00  0.00     0.300 C 
BRANCH  40  41
HETATM   41  C2  UNL     1       9.077  -0.732   0.743  1.00  0.00     0.142 C 
HETATM   42  C1  UNL     1      10.398  -1.010   0.046  1.00  0.00     0.041 C 
BRANCH  41  43
HETATM   43  O1  UNL     1       8.277  -1.916   0.710  1.00  0.00    -0.394 OA
HETATM   44  H5  UNL     1       7.355  -1.586   0.702  1.00  0.00     0.210 HD
ENDBRANCH  41  43
ENDBRANCH  40  41
ENDBRANCH  38  40
ENDBRANCH  37  38
ENDBRANCH  32  37
ENDBRANCH  30  31
BRANCH  30  45
HETATM   45  O2  UNL     1       5.130  -0.487  -1.369  1.00  0.00    -0.390 OA
HETATM   46  H14 UNL     1       5.207  -1.168  -0.670  1.00  0.00     0.210 HD
ENDBRANCH  30  45
ENDBRANCH  28  30
BRANCH  28  47
HETATM   47  O3  UNL     1       2.947  -2.074  -0.476  1.00  0.00    -0.387 OA
HETATM   48  H18 UNL     1       3.091  -1.647   0.395  1.00  0.00     0.210 HD
ENDBRANCH  28  47
ENDBRANCH   1  28
BRANCH   9  49
HETATM   49  C18 UNL     1      -5.596   3.442   2.278  1.00  0.00    -0.040 A 
HETATM   50  C19 UNL     1      -6.031   4.117   1.120  1.00  0.00     0.008 A 
HETATM   51  C20 UNL     1      -6.438   5.450   1.181  1.00  0.00     0.001 A 
HETATM   52  C21 UNL     1      -6.420   6.130   2.398  1.00  0.00     0.000 A 
HETATM   53  C22 UNL     1      -5.978   5.478   3.547  1.00  0.00     0.001 A 
HETATM   54  C23 UNL     1      -5.572   4.143   3.495  1.00  0.00     0.008 A 
ENDBRANCH   9  49
TORSDOF 11
