REMARK  6 active torsions:
REMARK  status: ('A' for Active; 'I' for Inactive)
REMARK    1  A    between atoms: C2_2  and  C4_4 
REMARK    2  A    between atoms: C4_4  and  O1_5 
REMARK    3  A    between atoms: C4_4  and  C5_6 
REMARK    4  A    between atoms: C5_6  and  C6_7 
REMARK    5  A    between atoms: C6_7  and  C7_8 
REMARK    6  A    between atoms: C7_8  and  C9_10 
ROOT
HETATM    1  C9  UNL     1       1.960  -1.124  -0.123  1.00  0.00    -0.001 C 
HETATM    2  C10 UNL     1       1.591  -2.619  -0.335  1.00  0.00     0.007 C 
HETATM    3  C11 UNL     1       0.061  -2.740  -0.192  1.00  0.00     0.024 C 
HETATM    4  C12 UNL     1      -0.423  -1.315  -0.061  1.00  0.00     0.092 C 
HETATM    5  C13 UNL     1      -0.705  -0.677  -1.449  1.00  0.00     0.272 C 
HETATM    6  O2  UNL     1      -0.212  -0.973  -2.524  1.00  0.00    -0.264 OA
HETATM    7  O3  UNL     1      -1.641   0.328  -1.286  1.00  0.00    -0.305 OA
HETATM    8  C14 UNL     1      -2.019   0.393   0.110  1.00  0.00     0.113 C 
HETATM    9  C15 UNL     1      -0.996   1.350   0.802  1.00  0.00     0.043 C 
HETATM   10  C16 UNL     1       0.486   0.975   0.520  1.00  0.00     0.014 C 
HETATM   11  C17 UNL     1       0.739  -0.549   0.661  1.00  0.00    -0.020 C 
HETATM   12  C18 UNL     1       0.836  -0.879   2.167  1.00  0.00     0.017 C 
HETATM   13  C19 UNL     1      -1.735  -1.013   0.550  1.00  0.00     0.137 A 
HETATM   14  O4  UNL     1      -2.100  -1.471   1.837  1.00  0.00    -0.364 OA
HETATM   15  C20 UNL     1      -2.831  -2.039   0.730  1.00  0.00     0.162 A 
HETATM   16  C21 UNL     1      -4.265  -1.620   0.634  1.00  0.00     0.042 C 
HETATM   17  C22 UNL     1      -4.407  -0.400  -0.304  1.00  0.00     0.014 C 
HETATM   18  C23 UNL     1      -5.875  -0.076  -0.740  1.00  0.00     0.018 C 
HETATM   19  C24 UNL     1      -6.422  -1.217  -1.627  1.00  0.00     0.023 C 
HETATM   20  C25 UNL     1      -6.856   0.143   0.419  1.00  0.00     0.023 C 
HETATM   21  C26 UNL     1      -5.884   1.186  -1.616  1.00  0.00     0.135 C 
HETATM   22  O5  UNL     1      -6.932   1.674  -2.046  1.00  0.00    -0.297 OA
HETATM   23  C27 UNL     1      -4.549   1.802  -1.951  1.00  0.00     0.080 C 
HETATM   24  C28 UNL     1      -3.816   2.088  -0.649  1.00  0.00     0.020 C 
HETATM   25  C29 UNL     1      -3.536   0.817   0.219  1.00  0.00    -0.004 C 
HETATM   26  C30 UNL     1      -3.854   1.200   1.689  1.00  0.00     0.019 C 
ENDROOT
BRANCH   1  27
HETATM   27  C7  UNL     1       3.441  -0.896   0.310  1.00  0.00    -0.014 C 
HETATM   28  C8  UNL     1       3.905  -1.604   1.589  1.00  0.00     0.010 C 
BRANCH  27  29
HETATM   29  C6  UNL     1       3.786   0.608   0.356  1.00  0.00     0.007 C 
BRANCH  29  30
HETATM   30  C5  UNL     1       5.274   0.987   0.481  1.00  0.00     0.036 C 
BRANCH  30  31
HETATM   31  C4  UNL     1       6.132   0.623  -0.745  1.00  0.00     0.146 C 
BRANCH  31  32
HETATM   32  C2  UNL     1       7.501   1.277  -0.823  1.00  0.00    -0.065 C 
HETATM   33  C1  UNL     1       8.098   1.953   0.175  1.00  0.00     0.016 C 
HETATM   34  C3  UNL     1       8.194   1.125  -2.155  1.00  0.00     0.045 C 
ENDBRANCH  31  32
BRANCH  31  35
HETATM   35  O1  UNL     1       6.356  -0.783  -0.772  1.00  0.00    -0.391 OA
HETATM   36  H7  UNL     1       6.957  -0.983  -0.032  1.00  0.00     0.210 HD
ENDBRANCH  31  35
ENDBRANCH  30  31
ENDBRANCH  29  30
ENDBRANCH  27  29
ENDBRANCH   1  27
TORSDOF 6
