REMARK  11 active torsions:
REMARK  status: ('A' for Active; 'I' for Inactive)
REMARK    1  A    between atoms: O1_2  and  C2_3 
REMARK    2  A    between atoms: C16_18  and  C17_19 
REMARK    3  A    between atoms: C17_19  and  C19_21 
REMARK    4  A    between atoms: C23_25  and  C24_26 
REMARK    5  A    between atoms: C24_26  and  O3_27 
REMARK    6  A    between atoms: O3_27  and  C25_28 
REMARK    7  A    between atoms: C26_30  and  C27_31 
REMARK    8  A    between atoms: C27_31  and  O5_32 
REMARK    9  A    between atoms: C28_33  and  O6_34 
REMARK   10  A    between atoms: C29_35  and  O7_36 
REMARK   11  A    between atoms: C30_37  and  O8_38 
ROOT
HETATM    1  C19 UNL     1       0.925  -0.083  -0.156  1.00  0.00     0.140 C 
HETATM    2  C20 UNL     1       1.881   0.288  -1.289  1.00  0.00     0.067 C 
HETATM    3  C21 UNL     1       3.154   0.815  -0.674  1.00  0.00    -0.067 C 
HETATM    4  C22 UNL     1       3.822   1.933  -1.425  1.00  0.00     0.044 C 
HETATM    5  C23 UNL     1       3.593   0.288   0.492  1.00  0.00     0.043 C 
HETATM    6  C31 UNL     1       2.852  -0.860   1.094  1.00  0.00     0.292 C 
HETATM    7  O9  UNL     1       3.384  -1.625   1.887  1.00  0.00    -0.260 OA
HETATM    8  O10 UNL     1       1.564  -1.041   0.711  1.00  0.00    -0.311 OA
ENDROOT
BRANCH   1   9
HETATM    9  C17 UNL     1      -0.421  -0.660  -0.671  1.00  0.00     0.016 C 
HETATM   10  C18 UNL     1      -0.249  -2.119  -1.141  1.00  0.00     0.013 C 
BRANCH   9  11
HETATM   11  C16 UNL     1      -1.602  -0.604   0.349  1.00  0.00     0.000 C 
HETATM   12  C14 UNL     1      -2.513   0.662   0.313  1.00  0.00    -0.036 C 
HETATM   13  C13 UNL     1      -3.403   0.696  -0.939  1.00  0.00     0.010 C 
HETATM   14  C15 UNL     1      -1.683   1.971   0.368  1.00  0.00     0.016 C 
HETATM   15  C34 UNL     1      -3.348   0.546   1.624  1.00  0.00     0.001 C 
HETATM   16  C12 UNL     1      -4.626   1.578  -0.727  1.00  0.00     0.007 C 
HETATM   17  C11 UNL     1      -5.586   1.026   0.349  1.00  0.00     0.013 C 
HETATM   18  C9  UNL     1      -6.913   0.383  -0.247  1.00  0.00     0.048 C 
HETATM   19  C35 UNL     1      -4.868   0.210   1.486  1.00  0.00     0.029 C 
HETATM   20  C4  UNL     1      -7.545  -0.594   0.744  1.00  0.00    -0.044 C 
HETATM   21  C8  UNL     1      -7.916   1.529  -0.554  1.00  0.00     0.143 C 
HETATM   22  C10 UNL     1      -6.708  -0.365  -1.585  1.00  0.00     0.029 C 
HETATM   23  C3  UNL     1      -6.770  -1.391   1.497  1.00  0.00     0.013 C 
HETATM   24  C5  UNL     1      -8.987  -0.709   0.831  1.00  0.00     0.004 C 
HETATM   25  C2  UNL     1      -5.274  -1.280   1.531  1.00  0.00     0.149 C 
HETATM   26  C6  UNL     1      -9.824   0.070   0.139  1.00  0.00    -0.019 C 
HETATM   27  C7  UNL     1      -9.377   1.163  -0.768  1.00  0.00     0.106 C 
HETATM   28  O2  UNL     1      -7.553   2.695  -0.743  1.00  0.00    -0.296 OA
HETATM   29  C33 UNL     1      -2.531  -0.375   2.561  1.00  0.00     0.006 C 
HETATM   30  C32 UNL     1      -1.236  -0.718   1.830  1.00  0.00     0.006 C 
BRANCH  25  31
HETATM   31  O1  UNL     1      -4.703  -1.996   0.447  1.00  0.00    -0.386 OA
HETATM   32  C1  UNL     1      -4.581  -3.392   0.692  1.00  0.00     0.202 C 
ENDBRANCH  25  31
ENDBRANCH   9  11
ENDBRANCH   1   9
BRANCH   5  33
HETATM   33  C24 UNL     1       4.839   0.679   1.249  1.00  0.00     0.216 C 
BRANCH  33  34
HETATM   34  O3  UNL     1       5.944   0.939   0.380  1.00  0.00    -0.354 OA
BRANCH  34  35
HETATM   35  C25 UNL     1       6.711  -0.222   0.063  1.00  0.00     0.291 C 
HETATM   36  O4  UNL     1       7.421  -0.002  -1.159  1.00  0.00    -0.348 OA
HETATM   37  C26 UNL     1       8.409   1.046  -1.056  1.00  0.00     0.179 C 
HETATM   38  C28 UNL     1       9.437   0.760   0.053  1.00  0.00     0.180 C 
HETATM   39  C29 UNL     1       9.139  -0.567   0.745  1.00  0.00     0.183 C 
HETATM   40  C30 UNL     1       7.678  -0.616   1.206  1.00  0.00     0.204 C 
BRANCH  37  41
HETATM   41  C27 UNL     1       9.089   1.170  -2.426  1.00  0.00     0.198 C 
BRANCH  41  42
HETATM   42  O5  UNL     1       9.874   0.010  -2.720  1.00  0.00    -0.398 OA
HETATM   43  H38 UNL     1      10.225   0.142  -3.620  1.00  0.00     0.209 HD
ENDBRANCH  41  42
ENDBRANCH  37  41
BRANCH  38  44
HETATM   44  O6  UNL     1       9.378   1.809   1.042  1.00  0.00    -0.390 OA
HETATM   45  H40 UNL     1       9.910   1.470   1.792  1.00  0.00     0.210 HD
ENDBRANCH  38  44
BRANCH  39  46
HETATM   46  O7  UNL     1      10.000  -0.706   1.894  1.00  0.00    -0.390 OA
HETATM   47  H42 UNL     1       9.611  -1.429   2.428  1.00  0.00     0.210 HD
ENDBRANCH  39  46
BRANCH  40  48
HETATM   48  O8  UNL     1       7.419  -1.951   1.695  1.00  0.00    -0.388 OA
HETATM   49  H44 UNL     1       7.491  -2.560   0.938  1.00  0.00     0.210 HD
ENDBRANCH  40  48
ENDBRANCH  34  35
ENDBRANCH  33  34
ENDBRANCH   5  33
TORSDOF 11
