REMARK  14 active torsions:
REMARK  status: ('A' for Active; 'I' for Inactive)
REMARK    1  A    between atoms: C2_2  and  C3_3 
REMARK    2  A    between atoms: C2_2  and  C27_31 
REMARK    3  A    between atoms: C4_4  and  C5_5 
REMARK    4  A    between atoms: C6_6  and  C7_7 
REMARK    5  A    between atoms: C6_6  and  C9_9 
REMARK    6  A    between atoms: C13_13  and  O1_14 
REMARK    7  A    between atoms: C15_16  and  C16_17 
REMARK    8  A    between atoms: C16_17  and  C17_18 
REMARK    9  A    between atoms: C17_18  and  C18_19 
REMARK   10  A    between atoms: C18_19  and  O2_20 
REMARK   11  A    between atoms: C20_22  and  C22_24 
REMARK   12  A    between atoms: C25_28  and  O4_30 
REMARK   13  A    between atoms: C27_31  and  C28_32 
REMARK   14  A    between atoms: C28_32  and  C29_33 
ROOT
HETATM    1  C9  UNL     1      -0.152   1.614   0.460  1.00  0.00     0.044 C 
HETATM    2  C10 UNL     1      -1.016   2.571  -0.375  1.00  0.00     0.013 C 
HETATM    3  C11 UNL     1      -2.346   1.866  -0.535  1.00  0.00     0.017 C 
HETATM    4  C12 UNL     1      -2.041   0.348  -0.671  1.00  0.00     0.025 C 
HETATM    5  C13 UNL     1      -0.828   0.194   0.346  1.00  0.00     0.141 C 
HETATM    6  C15 UNL     1      -3.424  -0.433  -0.406  1.00  0.00     0.029 C 
HETATM    7  C19 UNL     1      -3.499  -1.780  -1.159  1.00  0.00    -0.066 C 
HETATM    8  C20 UNL     1      -4.611  -2.253  -1.782  1.00  0.00    -0.021 C 
HETATM    9  C21 UNL     1      -5.951  -1.565  -1.866  1.00  0.00     0.052 C 
HETATM   10  C23 UNL     1      -2.135  -2.413  -1.241  1.00  0.00     0.038 C 
HETATM   11  C24 UNL     1      -1.274  -1.593  -2.203  1.00  0.00     0.042 C 
HETATM   12  C25 UNL     1      -1.511  -0.055  -2.119  1.00  0.00     0.065 C 
HETATM   13  C26 UNL     1      -2.427   0.421  -3.265  1.00  0.00     0.047 C 
ENDROOT
BRANCH   5  14
HETATM   14  O1  UNL     1      -1.207  -0.322   1.617  1.00  0.00    -0.389 OA
HETATM   15  C14 UNL     1      -0.195  -1.117   2.228  1.00  0.00     0.202 C 
ENDBRANCH   5  14
BRANCH   6  16
HETATM   16  C16 UNL     1      -3.816  -0.603   1.085  1.00  0.00     0.012 C 
BRANCH  16  17
HETATM   17  C17 UNL     1      -5.299  -0.895   1.350  1.00  0.00     0.027 C 
BRANCH  17  18
HETATM   18  C18 UNL     1      -5.632  -0.887   2.842  1.00  0.00     0.164 C 
BRANCH  18  19
HETATM   19  O2  UNL     1      -4.940  -1.922   3.527  1.00  0.00    -0.401 OA
HETATM   20  H27 UNL     1      -3.998  -1.681   3.543  1.00  0.00     0.209 HD
ENDBRANCH  18  19
ENDBRANCH  17  18
ENDBRANCH  16  17
ENDBRANCH   6  16
BRANCH  12  21
HETATM   21  O4  UNL     1      -0.235   0.551  -2.385  1.00  0.00    -0.389 OA
HETATM   22  H39 UNL     1       0.049   0.285  -3.276  1.00  0.00     0.210 HD
ENDBRANCH  12  21
BRANCH   1  23
HETATM   23  C6  UNL     1       0.145   2.159   1.870  1.00  0.00    -0.074 C 
HETATM   24  C5  UNL     1       1.393   2.298   2.373  1.00  0.00     0.003 C 
BRANCH  24  25
HETATM   25  C4  UNL     1       2.651   1.924   1.754  1.00  0.00     0.001 C 
HETATM   26  C3  UNL     1       3.840   2.204   2.317  1.00  0.00     0.006 C 
BRANCH  26  27
HETATM   27  C2  UNL     1       5.161   1.863   1.785  1.00  0.00    -0.067 C 
HETATM   28  C1  UNL     1       6.245   2.266   2.473  1.00  0.00     0.019 C 
BRANCH  27  29
HETATM   29  C27 UNL     1       5.230   1.070   0.487  1.00  0.00     0.041 C 
BRANCH  29  30
HETATM   30  C28 UNL     1       6.627   0.733  -0.057  1.00  0.00     0.032 C 
BRANCH  30  31
HETATM   31  C29 UNL     1       6.542  -0.021  -1.358  1.00  0.00    -0.024 C 
HETATM   32  C30 UNL     1       6.813  -1.323  -1.574  1.00  0.00    -0.091 C 
HETATM   33  C31 UNL     1       6.721  -1.907  -2.960  1.00  0.00     0.042 C 
HETATM   34  C32 UNL     1       7.215  -2.309  -0.511  1.00  0.00     0.042 C 
ENDBRANCH  30  31
ENDBRANCH  29  30
ENDBRANCH  27  29
ENDBRANCH  26  27
ENDBRANCH  24  25
BRANCH  23  35
HETATM   35  C7  UNL     1      -1.083   2.574   2.684  1.00  0.00     0.030 C 
HETATM   36  C8  UNL     1      -0.924   2.675   4.199  1.00  0.00     0.010 C 
ENDBRANCH  23  35
ENDBRANCH   1  23
BRANCH   8  37
HETATM   37  C22 UNL     1      -4.618  -3.557  -2.525  1.00  0.00     0.265 C 
HETATM   38  O3  UNL     1      -5.587  -3.948  -3.169  1.00  0.00    -0.302 OA
ENDBRANCH   8  37
TORSDOF 14
