REMARK  9 active torsions:
REMARK  status: ('A' for Active; 'I' for Inactive)
REMARK    1  A    between atoms: O1_2  and  C2_3 
REMARK    2  A    between atoms: C2_3  and  C3_4 
REMARK    3  A    between atoms: C3_4  and  N1_5 
REMARK       I    between atoms: N1_5  and  C4_6 
REMARK    4  A    between atoms: C4_6  and  C5_8 
REMARK    5  A    between atoms: C5_8  and  C7_10 
REMARK    6  A    between atoms: C14_17  and  N2_18 
REMARK       I    between atoms: N2_18  and  C15_19 
REMARK    7  A    between atoms: C15_19  and  C16_21 
REMARK    8  A    between atoms: C16_21  and  O4_22 
REMARK    9  A    between atoms: C21_27  and  O5_28 
ROOT
HETATM    1  C7  UNL     1       1.602   0.247  -0.019  1.00  0.00     0.027 C 
HETATM    2  C8  UNL     1       1.547  -1.192  -0.548  1.00  0.00     0.009 C 
HETATM    3  C9  UNL     1       0.469  -2.015   0.147  1.00  0.00     0.010 C 
HETATM    4  C10 UNL     1      -0.936  -1.381   0.052  1.00  0.00    -0.037 C 
HETATM    5  C11 UNL     1      -1.388  -1.387  -1.430  1.00  0.00     0.015 C 
HETATM    6  C12 UNL     1      -1.903  -2.256   0.882  1.00  0.00     0.011 C 
HETATM    7  C13 UNL     1      -3.307  -1.679   0.965  1.00  0.00     0.026 C 
HETATM    8  C14 UNL     1      -3.317  -0.234   1.473  1.00  0.00     0.088 C 
HETATM    9  C18 UNL     1      -2.334   0.690   0.697  1.00  0.00     0.012 C 
HETATM   10  C19 UNL     1      -2.374   2.098   1.314  1.00  0.00     0.012 C 
HETATM   11  C20 UNL     1      -0.896   0.056   0.663  1.00  0.00     0.028 C 
HETATM   12  C21 UNL     1       0.203   0.926  -0.016  1.00  0.00     0.128 C 
ENDROOT
BRANCH   1  13
HETATM   13  C5  UNL     1       2.684   1.123  -0.723  1.00  0.00     0.080 C 
HETATM   14  C6  UNL     1       2.453   1.366  -2.216  1.00  0.00     0.020 C 
BRANCH  13  15
HETATM   15  C4  UNL     1       4.100   0.625  -0.423  1.00  0.00     0.222 C 
HETATM   16  N1  UNL     1       4.597  -0.342  -1.265  1.00  0.00    -0.359 N 
HETATM   17  H8  UNL     1       3.987  -0.771  -1.947  1.00  0.00     0.162 HD
HETATM   18  O2  UNL     1       4.736   1.053   0.538  1.00  0.00    -0.273 OA
BRANCH  16  19
HETATM   19  C3  UNL     1       5.871  -0.991  -1.011  1.00  0.00     0.148 C 
BRANCH  19  20
HETATM   20  C2  UNL     1       7.081  -0.077  -1.207  1.00  0.00     0.186 C 
BRANCH  20  21
HETATM   21  O1  UNL     1       8.268  -0.875  -1.193  1.00  0.00    -0.394 OA
HETATM   22  C1  UNL     1       9.436  -0.070  -1.287  1.00  0.00     0.201 C 
ENDBRANCH  20  21
ENDBRANCH  19  20
ENDBRANCH  16  19
ENDBRANCH  13  15
ENDBRANCH   1  13
BRANCH  12  23
HETATM   23  O5  UNL     1       0.339   2.149   0.705  1.00  0.00    -0.395 OA
HETATM   24  H38 UNL     1       0.676   2.830   0.100  1.00  0.00     0.210 HD
ENDBRANCH  12  23
BRANCH   8  25
HETATM   25  N2  UNL     1      -4.680   0.278   1.406  1.00  0.00    -0.354 N 
HETATM   26  C15 UNL     1      -5.642  -0.019   2.347  1.00  0.00     0.241 C 
HETATM   27  O3  UNL     1      -5.425  -0.647   3.379  1.00  0.00    -0.271 OA
HETATM   28  H26 UNL     1      -5.040   0.649   0.530  1.00  0.00     0.162 HD
BRANCH  26  29
HETATM   29  C16 UNL     1      -7.027   0.531   1.996  1.00  0.00     0.269 C 
BRANCH  29  30
HETATM   30  O4  UNL     1      -7.079   1.034   0.658  1.00  0.00    -0.387 OA
HETATM   31  C17 UNL     1      -8.365   1.559   0.357  1.00  0.00     0.202 C 
ENDBRANCH  29  30
ENDBRANCH  26  29
ENDBRANCH   8  25
TORSDOF 9
