REMARK  10 active torsions:
REMARK  status: ('A' for Active; 'I' for Inactive)
REMARK    1  A    between atoms: C3_3  and  O1_4 
REMARK    2  A    between atoms: N1_14  and  O2_16 
REMARK    3  A    between atoms: O2_16  and  C13_17 
REMARK    4  A    between atoms: C13_17  and  C14_18 
REMARK       I    between atoms: C14_18  and  N2_20 
REMARK    5  A    between atoms: N2_20  and  C15_21 
REMARK    6  A    between atoms: C15_21  and  C16_22 
REMARK       I    between atoms: C16_22  and  N3_24 
REMARK    7  A    between atoms: N3_24  and  C17_25 
REMARK    8  A    between atoms: C17_25  and  C18_26 
REMARK    9  A    between atoms: C17_25  and  C19_29 
REMARK   10  A    between atoms: C18_26  and  O6_28 
ROOT
HETATM    1  C1  UNL     1      -4.150   3.779  -1.027  1.00  0.00     0.015 C 
HETATM    2  C2  UNL     1      -5.039   3.248  -0.417  1.00  0.00    -0.078 C 
HETATM    3  C3  UNL     1      -6.153   2.654   0.349  1.00  0.00     0.128 C 
HETATM    4  C4  UNL     1      -5.878   2.766   1.852  1.00  0.00     0.052 C 
HETATM    5  C5  UNL     1      -4.972   1.580   2.140  1.00  0.00     0.010 C 
HETATM    6  C6  UNL     1      -5.507   0.429   1.261  1.00  0.00     0.002 C 
HETATM    7  C7  UNL     1      -4.370  -0.489   0.767  1.00  0.00    -0.004 C 
HETATM    8  C8  UNL     1      -4.859  -1.930   0.489  1.00  0.00     0.010 C 
HETATM    9  C9  UNL     1      -3.943  -2.725  -0.450  1.00  0.00     0.035 C 
HETATM   10  C10 UNL     1      -2.526  -2.214  -0.409  1.00  0.00    -0.069 C 
HETATM   11  C11 UNL     1      -1.521  -3.007  -0.001  1.00  0.00     0.030 C 
HETATM   12  C12 UNL     1      -0.127  -2.503   0.107  1.00  0.00     0.032 C 
HETATM   13  N1  UNL     1       0.824  -3.379   0.274  1.00  0.00    -0.271 N 
ATOM     14  H1  UNL     1       0.668  -4.382   0.375  1.00  0.00     0.194 HD
HETATM   15  C22 UNL     1       0.120  -1.009  -0.008  1.00  0.00     0.060 C 
HETATM   16  C23 UNL     1      -1.165  -0.192   0.095  1.00  0.00     0.020 C 
HETATM   17  C24 UNL     1      -2.330  -0.743  -0.780  1.00  0.00    -0.016 C 
HETATM   18  C25 UNL     1      -1.926  -0.633  -2.268  1.00  0.00     0.020 C 
HETATM   19  C26 UNL     1      -3.632   0.098  -0.453  1.00  0.00     0.002 C 
HETATM   20  C27 UNL     1      -4.601   0.304  -1.637  1.00  0.00     0.007 C 
HETATM   21  C28 UNL     1      -6.061   0.598  -1.277  1.00  0.00     0.014 C 
HETATM   22  C29 UNL     1      -6.365   1.112   0.146  1.00  0.00     0.003 C 
HETATM   23  C30 UNL     1      -7.858   0.756   0.417  1.00  0.00     0.020 C 
ENDROOT
BRANCH   3  24
HETATM   24  O1  UNL     1      -7.328   3.391   0.030  1.00  0.00    -0.377 OA
HETATM   25  H2  UNL     1      -7.097   4.333   0.092  1.00  0.00     0.211 HD
ENDBRANCH   3  24
BRANCH  13  26
HETATM   26  O2  UNL     1       2.089  -2.771   0.298  1.00  0.00    -0.271 OA
BRANCH  26  27
HETATM   27  C13 UNL     1       3.081  -3.787   0.403  1.00  0.00     0.303 C 
BRANCH  27  28
HETATM   28  C14 UNL     1       4.460  -3.242   0.045  1.00  0.00     0.244 C 
HETATM   29  O3  UNL     1       5.499  -3.746   0.467  1.00  0.00    -0.271 OA
HETATM   30  N2  UNL     1       4.450  -2.189  -0.845  1.00  0.00    -0.350 N 
HETATM   31  H16 UNL     1       3.592  -1.644  -0.870  1.00  0.00     0.163 HD
BRANCH  30  32
HETATM   32  C15 UNL     1       5.679  -1.507  -1.198  1.00  0.00     0.225 C 
BRANCH  32  33
HETATM   33  C16 UNL     1       5.956  -0.354  -0.227  1.00  0.00     0.236 C 
HETATM   34  O4  UNL     1       5.058   0.333   0.256  1.00  0.00    -0.272 OA
HETATM   35  N3  UNL     1       7.296  -0.120  -0.005  1.00  0.00    -0.345 N 
HETATM   36  H19 UNL     1       7.933  -0.897  -0.162  1.00  0.00     0.163 HD
BRANCH  35  37
HETATM   37  C17 UNL     1       7.761   0.847   0.996  1.00  0.00     0.185 C 
BRANCH  37  38
HETATM   38  C18 UNL     1       8.882   0.222   1.841  1.00  0.00     0.163 C 
HETATM   39  O5  UNL     1       9.460   0.740   2.784  1.00  0.00    -0.648 OA
BRANCH  38  40
HETATM   40  O6  UNL     1       9.244  -1.015   1.421  1.00  0.00    -0.775 OA
HETATM   41  H21 UNL     1       9.950  -1.282   2.052  1.00  0.00     0.167 HD
ENDBRANCH  38  40
ENDBRANCH  37  38
BRANCH  37  42
HETATM   42  C19 UNL     1       8.247   2.169   0.359  1.00  0.00     0.010 C 
HETATM   43  C20 UNL     1       9.334   1.959  -0.700  1.00  0.00     0.012 C 
HETATM   44  C21 UNL     1       7.085   2.968  -0.236  1.00  0.00     0.012 C 
ENDBRANCH  37  42
ENDBRANCH  35  37
ENDBRANCH  32  33
ENDBRANCH  30  32
ENDBRANCH  27  28
ENDBRANCH  26  27
ENDBRANCH  13  26
TORSDOF 10
