REMARK  8 active torsions:
REMARK  status: ('A' for Active; 'I' for Inactive)
REMARK    1  A    between atoms: C4_4  and  C5_5 
REMARK    2  A    between atoms: C5_5  and  C6_6 
REMARK    3  A    between atoms: C6_6  and  C7_7 
REMARK    4  A    between atoms: C7_7  and  C9_9 
REMARK    5  A    between atoms: C21_21  and  C22_22 
REMARK    6  A    between atoms: C22_22  and  C23_23 
REMARK    7  A    between atoms: C23_23  and  C24_24 
REMARK    8  A    between atoms: C24_24  and  O1_25 
ROOT
HETATM    1  C9  UNL     1       2.187   1.426  -0.248  1.00  0.00    -0.002 C 
HETATM    2  C10 UNL     1       1.932   2.722   0.587  1.00  0.00     0.006 C 
HETATM    3  C11 UNL     1       0.400   2.863   0.746  1.00  0.00     0.011 C 
HETATM    4  C12 UNL     1      -0.184   1.876  -0.283  1.00  0.00    -0.032 C 
HETATM    5  C13 UNL     1      -0.097   2.620  -1.659  1.00  0.00     0.016 C 
HETATM    6  C14 UNL     1      -1.626   1.375   0.006  1.00  0.00     0.003 C 
HETATM    7  C15 UNL     1      -2.697   2.483   0.128  1.00  0.00     0.010 C 
HETATM    8  C16 UNL     1      -4.125   1.931   0.190  1.00  0.00     0.035 C 
HETATM    9  C17 UNL     1      -4.149   0.518   0.729  1.00  0.00    -0.073 C 
HETATM   10  C18 UNL     1      -4.747   0.194   1.906  1.00  0.00    -0.085 C 
HETATM   11  C19 UNL     1      -4.777  -1.190   2.508  1.00  0.00     0.043 C 
HETATM   12  C20 UNL     1      -5.460   1.220   2.757  1.00  0.00     0.043 C 
HETATM   13  C21 UNL     1      -3.365  -0.489  -0.146  1.00  0.00     0.023 C 
HETATM   14  C25 UNL     1      -2.109   0.172  -0.904  1.00  0.00    -0.032 C 
HETATM   15  C26 UNL     1      -2.489   0.636  -2.335  1.00  0.00     0.016 C 
HETATM   16  C27 UNL     1      -0.968  -0.900  -1.064  1.00  0.00     0.011 C 
HETATM   17  C28 UNL     1       0.480  -0.375  -1.207  1.00  0.00     0.011 C 
HETATM   18  C29 UNL     1       0.829   0.667  -0.131  1.00  0.00    -0.032 C 
HETATM   19  C30 UNL     1       0.771  -0.059   1.248  1.00  0.00     0.016 C 
ENDROOT
BRANCH   1  20
HETATM   20  C7  UNL     1       3.573   0.762   0.026  1.00  0.00    -0.014 C 
HETATM   21  C8  UNL     1       3.869   0.364   1.476  1.00  0.00     0.010 C 
BRANCH  20  22
HETATM   22  C6  UNL     1       3.833  -0.410  -0.954  1.00  0.00     0.008 C 
BRANCH  22  23
HETATM   23  C5  UNL     1       5.312  -0.785  -1.154  1.00  0.00     0.028 C 
BRANCH  23  24
HETATM   24  C4  UNL     1       5.868  -1.663  -0.067  1.00  0.00    -0.025 C 
HETATM   25  C2  UNL     1       6.991  -1.477   0.655  1.00  0.00    -0.091 C 
HETATM   26  C1  UNL     1       7.373  -2.449   1.740  1.00  0.00     0.042 C 
HETATM   27  C3  UNL     1       7.947  -0.330   0.485  1.00  0.00     0.042 C 
ENDBRANCH  23  24
ENDBRANCH  22  23
ENDBRANCH  20  22
ENDBRANCH   1  20
BRANCH  13  28
HETATM   28  C22 UNL     1      -4.392  -1.278  -1.002  1.00  0.00     0.012 C 
BRANCH  28  29
HETATM   29  C23 UNL     1      -3.850  -2.570  -1.624  1.00  0.00     0.027 C 
BRANCH  29  30
HETATM   30  C24 UNL     1      -4.938  -3.392  -2.313  1.00  0.00     0.164 C 
BRANCH  30  31
HETATM   31  O1  UNL     1      -5.855  -3.922  -1.366  1.00  0.00    -0.401 OA
HETATM   32  H42 UNL     1      -6.425  -3.193  -1.068  1.00  0.00     0.209 HD
ENDBRANCH  30  31
ENDBRANCH  29  30
ENDBRANCH  28  29
ENDBRANCH  13  28
TORSDOF 8
