REMARK  12 active torsions:
REMARK  status: ('A' for Active; 'I' for Inactive)
REMARK    1  A    between atoms: C3_3  and  O1_4 
REMARK    2  A    between atoms: O1_4  and  C4_5 
REMARK    3  A    between atoms: C5_7  and  C6_8 
REMARK    4  A    between atoms: C6_8  and  O3_9 
REMARK    5  A    between atoms: C7_10  and  O4_11 
REMARK    6  A    between atoms: C8_12  and  O5_13 
REMARK    7  A    between atoms: C9_14  and  O6_15 
REMARK    8  A    between atoms: C10_16  and  O7_17 
REMARK    9  A    between atoms: C15_22  and  O8_23 
REMARK   10  A    between atoms: C15_22  and  C16_24 
REMARK   11  A    between atoms: C17_25  and  C18_26 
REMARK   12  A    between atoms: C18_26  and  O9_28 
ROOT
HETATM    1  C1  UNL     1       0.068  -1.004   2.667  1.00  0.00     0.016 C 
HETATM    2  C2  UNL     1      -0.430  -1.810   1.458  1.00  0.00     0.052 C 
HETATM    3  C3  UNL     1       0.646  -1.928   0.364  1.00  0.00     0.160 C 
HETATM    4  C10 UNL     1       0.209  -2.975  -0.706  1.00  0.00     0.148 C 
HETATM    5  C11 UNL     1      -1.301  -3.255  -0.751  1.00  0.00     0.046 C 
HETATM    6  C12 UNL     1      -2.184  -2.010  -0.499  1.00  0.00    -0.010 C 
HETATM    7  C13 UNL     1      -3.665  -2.458  -0.629  1.00  0.00     0.018 C 
HETATM    8  C14 UNL     1      -1.951  -0.984  -1.637  1.00  0.00     0.018 C 
HETATM    9  C15 UNL     1      -1.873  -1.430   0.948  1.00  0.00     0.088 C 
ENDROOT
BRANCH   3  10
HETATM   10  O1  UNL     1       0.960  -0.637  -0.169  1.00  0.00    -0.350 OA
BRANCH  10  11
HETATM   11  C4  UNL     1       2.265  -0.582  -0.765  1.00  0.00     0.292 C 
HETATM   12  O2  UNL     1       3.192  -0.110   0.227  1.00  0.00    -0.348 OA
HETATM   13  C5  UNL     1       3.498   1.291   0.179  1.00  0.00     0.179 C 
HETATM   14  C7  UNL     1       2.308   2.113  -0.331  1.00  0.00     0.180 C 
HETATM   15  C8  UNL     1       2.114   1.766  -1.809  1.00  0.00     0.183 C 
HETATM   16  C9  UNL     1       2.205   0.254  -2.069  1.00  0.00     0.204 C 
BRANCH  13  17
HETATM   17  C6  UNL     1       3.945   1.705   1.583  1.00  0.00     0.198 C 
BRANCH  17  18
HETATM   18  O3  UNL     1       2.856   1.604   2.499  1.00  0.00    -0.398 OA
HETATM   19  H10 UNL     1       2.563   0.673   2.442  1.00  0.00     0.209 HD
ENDBRANCH  17  18
ENDBRANCH  13  17
BRANCH  14  20
HETATM   20  O4  UNL     1       2.507   3.528  -0.224  1.00  0.00    -0.390 OA
HETATM   21  H12 UNL     1       2.427   3.745   0.725  1.00  0.00     0.210 HD
ENDBRANCH  14  20
BRANCH  15  22
HETATM   22  O5  UNL     1       0.865   2.299  -2.273  1.00  0.00    -0.390 OA
HETATM   23  H14 UNL     1       0.873   3.237  -2.000  1.00  0.00     0.210 HD
ENDBRANCH  15  22
BRANCH  16  24
HETATM   24  O6  UNL     1       3.397   0.007  -2.848  1.00  0.00    -0.388 OA
HETATM   25  H16 UNL     1       3.187   0.286  -3.758  1.00  0.00     0.210 HD
ENDBRANCH  16  24
ENDBRANCH  10  11
ENDBRANCH   3  10
BRANCH   4  26
HETATM   26  O7  UNL     1       0.685  -2.641  -2.012  1.00  0.00    -0.393 OA
HETATM   27  H18 UNL     1       0.383  -3.335  -2.624  1.00  0.00     0.210 HD
ENDBRANCH   4  26
BRANCH   9  28
HETATM   28  O8  UNL     1      -2.715  -2.160   1.885  1.00  0.00    -0.385 OA
HETATM   29  H27 UNL     1      -2.749  -1.640   2.707  1.00  0.00     0.211 HD
ENDBRANCH   9  28
BRANCH   9  30
HETATM   30  C16 UNL     1      -2.377  -0.004   1.077  1.00  0.00     0.010 C 
HETATM   31  C17 UNL     1      -1.681   1.144   1.013  1.00  0.00     0.003 C 
BRANCH  31  32
HETATM   32  C18 UNL     1      -2.236   2.537   1.133  1.00  0.00     0.136 C 
HETATM   33  C19 UNL     1      -1.954   3.350  -0.123  1.00  0.00     0.043 C 
BRANCH  32  34
HETATM   34  O9  UNL     1      -3.638   2.497   1.365  1.00  0.00    -0.392 OA
HETATM   35  H34 UNL     1      -3.950   3.416   1.402  1.00  0.00     0.210 HD
ENDBRANCH  32  34
ENDBRANCH  31  32
ENDBRANCH   9  30
TORSDOF 12
