REMARK  13 active torsions:
REMARK  status: ('A' for Active; 'I' for Inactive)
REMARK    1  A    between atoms: O1_2  and  C2_3 
REMARK    2  A    between atoms: C2_3  and  C3_5 
REMARK    3  A    between atoms: C19_25  and  C20_26 
REMARK    4  A    between atoms: C20_26  and  C21_27 
REMARK    5  A    between atoms: C21_27  and  C22_28 
REMARK    6  A    between atoms: C22_28  and  O7_29 
REMARK    7  A    between atoms: C24_32  and  C25_33 
REMARK    8  A    between atoms: C25_33  and  C27_35 
REMARK    9  A    between atoms: C38_46  and  O8_47 
REMARK   10  A    between atoms: C39_48  and  O9_49 
REMARK   11  A    between atoms: C40_50  and  C41_51 
REMARK   12  A    between atoms: C41_51  and  C42_52 
REMARK   13  A    between atoms: C42_52  and  O11_54 
ROOT
HETATM    1  C3  UNL     1      -6.415  -0.420   0.088  1.00  0.00     0.019 C 
HETATM    2  C4  UNL     1      -5.710  -0.672  -1.033  1.00  0.00    -0.006 C 
HETATM    3  C5  UNL     1      -4.202  -0.793  -1.105  1.00  0.00     0.043 C 
HETATM    4  C6  UNL     1      -3.867  -2.302  -1.363  1.00  0.00    -0.001 C 
HETATM    5  C7  UNL     1      -4.465  -3.267  -0.313  1.00  0.00     0.032 C 
HETATM    6  C8  UNL     1      -4.029  -3.138   1.111  1.00  0.00    -0.030 C 
HETATM    7  C9  UNL     1      -3.948  -2.013   1.840  1.00  0.00    -0.023 C 
HETATM    8  C10 UNL     1      -4.223  -0.581   1.432  1.00  0.00     0.047 C 
HETATM    9  C11 UNL     1      -3.487  -0.184   0.129  1.00  0.00     0.141 C 
HETATM   10  O3  UNL     1      -3.540   1.247   0.067  1.00  0.00    -0.351 OA
HETATM   11  C12 UNL     1      -2.303   1.979   0.148  1.00  0.00     0.297 C 
HETATM   12  O4  UNL     1      -1.703   2.192  -1.136  1.00  0.00    -0.347 OA
HETATM   13  C13 UNL     1      -0.281   2.116  -1.290  1.00  0.00     0.191 C 
HETATM   14  C14 UNL     1       0.015   0.978  -2.296  1.00  0.00     0.203 C 
HETATM   15  O5  UNL     1      -0.708  -0.184  -1.903  1.00  0.00    -0.388 OA
HETATM   16  C15 UNL     1      -0.465  -1.318  -2.725  1.00  0.00     0.167 C 
HETATM   17  C16 UNL     1      -1.793  -2.046  -2.894  1.00  0.00     0.027 C 
HETATM   18  C17 UNL     1      -2.359  -2.590  -1.565  1.00  0.00     0.007 C 
HETATM   19  C18 UNL     1       0.631   2.190  -0.008  1.00  0.00     0.148 C 
HETATM   20  O6  UNL     1       1.676   3.175  -0.305  1.00  0.00    -0.332 OA
HETATM   21  C19 UNL     1       2.909   2.730  -0.738  1.00  0.00     0.075 C 
HETATM   22  C23 UNL     1       3.293   1.457  -0.578  1.00  0.00     0.072 A 
HETATM   23  N1  UNL     1       4.420   0.750  -0.892  1.00  0.00    -0.357 N 
HETATM   24  C24 UNL     1       4.357  -0.542  -0.372  1.00  0.00     0.014 A 
HETATM   25  C33 UNL     1       3.171  -0.742   0.247  1.00  0.00     0.039 A 
HETATM   26  C34 UNL     1       2.439   0.505   0.118  1.00  0.00     0.001 A 
HETATM   27  C35 UNL     1       1.168   0.821   0.434  1.00  0.00    -0.027 C 
HETATM   28  C36 UNL     1       0.203  -0.126   1.098  1.00  0.00     0.041 C 
HETATM   29  C37 UNL     1      -0.858   0.564   1.950  1.00  0.00     0.050 C 
HETATM   30  C38 UNL     1      -1.400   1.913   1.429  1.00  0.00     0.136 C 
HETATM   31  C39 UNL     1      -0.191   2.821   1.141  1.00  0.00     0.199 C 
HETATM   32  C40 UNL     1      -5.726  -0.128   1.421  1.00  0.00     0.044 C 
HETATM   33  H30 UNL     1       5.290   1.200  -1.141  1.00  0.00     0.166 HD
ENDROOT
BRANCH  24  34
HETATM   34  C25 UNL     1       5.483  -1.521  -0.598  1.00  0.00     0.035 C 
HETATM   35  C26 UNL     1       4.966  -2.668  -1.480  1.00  0.00     0.017 C 
BRANCH  34  36
HETATM   36  C27 UNL     1       6.168  -2.011   0.711  1.00  0.00    -0.005 C 
HETATM   37  C28 UNL     1       6.601  -0.814   1.588  1.00  0.00     0.005 C 
HETATM   38  C29 UNL     1       7.763  -1.155   2.515  1.00  0.00     0.000 C 
HETATM   39  C30 UNL     1       9.017  -1.548   1.725  1.00  0.00     0.000 C 
HETATM   40  C31 UNL     1       8.698  -2.230   0.396  1.00  0.00     0.000 C 
HETATM   41  C32 UNL     1       7.359  -2.967   0.461  1.00  0.00     0.005 C 
ENDBRANCH  34  36
ENDBRANCH  24  34
BRANCH  21  42
HETATM   42  C20 UNL     1       3.771   3.787  -1.366  1.00  0.00     0.069 C 
BRANCH  42  43
HETATM   43  C21 UNL     1       3.165   4.278  -2.695  1.00  0.00     0.033 C 
BRANCH  43  44
HETATM   44  C22 UNL     1       4.032   5.356  -3.336  1.00  0.00     0.164 C 
BRANCH  44  45
HETATM   45  O7  UNL     1       5.270   4.778  -3.748  1.00  0.00    -0.401 OA
HETATM   46  H29 UNL     1       5.850   5.522  -4.023  1.00  0.00     0.209 HD
ENDBRANCH  44  45
ENDBRANCH  43  44
ENDBRANCH  42  43
ENDBRANCH  21  42
BRANCH  31  47
HETATM   47  O9  UNL     1       0.573   3.004   2.353  1.00  0.00    -0.389 OA
HETATM   48  H53 UNL     1      -0.086   3.264   3.016  1.00  0.00     0.210 HD
ENDBRANCH  31  47
BRANCH  30  49
HETATM   49  O8  UNL     1      -2.139   2.454   2.563  1.00  0.00    -0.382 OA
HETATM   50  H51 UNL     1      -2.629   3.244   2.255  1.00  0.00     0.210 HD
ENDBRANCH  30  49
BRANCH  32  51
HETATM   51  C41 UNL     1      -6.411  -0.581   2.734  1.00  0.00     0.120 C 
BRANCH  51  52
HETATM   52  C42 UNL     1      -7.436   0.396   3.255  1.00  0.00     0.140 C 
HETATM   53  O10 UNL     1      -7.724   1.503   2.824  1.00  0.00    -0.650 OA
BRANCH  52  54
HETATM   54  O11 UNL     1      -8.045  -0.071   4.374  1.00  0.00    -0.776 OA
HETATM   55  H57 UNL     1      -8.670   0.648   4.610  1.00  0.00     0.167 HD
ENDBRANCH  52  54
ENDBRANCH  51  52
ENDBRANCH  32  51
BRANCH   1  56
HETATM   56  C2  UNL     1      -7.891  -0.364  -0.133  1.00  0.00     0.289 C 
HETATM   57  O2  UNL     1      -8.415  -0.070  -1.203  1.00  0.00    -0.260 OA
BRANCH  56  58
HETATM   58  O1  UNL     1      -8.571  -0.712   0.986  1.00  0.00    -0.323 OA
HETATM   59  C1  UNL     1      -9.992  -0.649   0.845  1.00  0.00     0.213 C 
ENDBRANCH  56  58
ENDBRANCH   1  56
TORSDOF 13
