REMARK  11 active torsions:
REMARK  status: ('A' for Active; 'I' for Inactive)
REMARK    1  A    between atoms: C3_3  and  O1_4 
REMARK    2  A    between atoms: N1_14  and  O2_16 
REMARK    3  A    between atoms: O2_16  and  C13_17 
REMARK    4  A    between atoms: C13_17  and  C14_18 
REMARK       I    between atoms: C14_18  and  N2_20 
REMARK    5  A    between atoms: N2_20  and  C15_21 
REMARK    6  A    between atoms: C15_21  and  C16_22 
REMARK    7  A    between atoms: C15_21  and  C17_25 
REMARK    8  A    between atoms: C16_22  and  O5_24 
REMARK    9  A    between atoms: C17_25  and  O6_26 
REMARK   10  A    between atoms: C17_25  and  C18_27 
REMARK   11  A    between atoms: C22_31  and  N3_32 
ROOT
HETATM    1  C1  UNL     1       8.151  -3.359   2.707  1.00  0.00     0.015 C 
HETATM    2  C2  UNL     1       7.976  -2.368   2.049  1.00  0.00    -0.078 C 
HETATM    3  C3  UNL     1       7.768  -1.159   1.238  1.00  0.00     0.128 C 
HETATM    4  C4  UNL     1       7.423   0.061   2.109  1.00  0.00     0.052 C 
HETATM    5  C5  UNL     1       6.552   0.976   1.234  1.00  0.00     0.010 C 
HETATM    6  C6  UNL     1       6.330   0.236  -0.098  1.00  0.00     0.002 C 
HETATM    7  C7  UNL     1       4.980   0.514  -0.795  1.00  0.00    -0.004 C 
HETATM    8  C8  UNL     1       4.780   2.002  -1.154  1.00  0.00     0.010 C 
HETATM    9  C9  UNL     1       3.568   2.640  -0.481  1.00  0.00     0.035 C 
HETATM   10  C10 UNL     1       2.296   1.842  -0.650  1.00  0.00    -0.069 C 
HETATM   11  C11 UNL     1       1.108   2.470  -0.692  1.00  0.00     0.030 C 
HETATM   12  C12 UNL     1      -0.162   1.704  -0.745  1.00  0.00     0.032 C 
HETATM   13  N1  UNL     1      -1.240   2.332  -1.120  1.00  0.00    -0.271 N 
ATOM     14  H1  UNL     1      -1.272   3.318  -1.377  1.00  0.00     0.194 HD
HETATM   15  C24 UNL     1      -0.142   0.229  -0.380  1.00  0.00     0.060 C 
HETATM   16  C25 UNL     1       1.219  -0.260   0.113  1.00  0.00     0.020 C 
HETATM   17  C26 UNL     1       2.413   0.315  -0.691  1.00  0.00    -0.016 C 
HETATM   18  C27 UNL     1       2.326  -0.169  -2.159  1.00  0.00     0.020 C 
HETATM   19  C28 UNL     1       3.776  -0.093  -0.029  1.00  0.00     0.002 C 
HETATM   20  C29 UNL     1       4.002  -1.605   0.133  1.00  0.00     0.007 C 
HETATM   21  C30 UNL     1       5.306  -1.890   0.887  1.00  0.00     0.014 C 
HETATM   22  C31 UNL     1       6.571  -1.261   0.239  1.00  0.00     0.003 C 
HETATM   23  C32 UNL     1       6.945  -2.056  -1.026  1.00  0.00     0.020 C 
ENDROOT
BRANCH   3  24
HETATM   24  O1  UNL     1       8.991  -0.892   0.547  1.00  0.00    -0.377 OA
HETATM   25  H2  UNL     1       8.980   0.029   0.245  1.00  0.00     0.211 HD
ENDBRANCH   3  24
BRANCH  13  26
HETATM   26  O2  UNL     1      -2.351   1.476  -1.124  1.00  0.00    -0.271 OA
BRANCH  26  27
HETATM   27  C13 UNL     1      -3.253   1.901  -2.142  1.00  0.00     0.303 C 
BRANCH  27  28
HETATM   28  C14 UNL     1      -4.532   1.106  -1.966  1.00  0.00     0.244 C 
HETATM   29  O3  UNL     1      -4.742   0.034  -2.529  1.00  0.00    -0.271 OA
HETATM   30  N2  UNL     1      -5.438   1.661  -1.092  1.00  0.00    -0.342 N 
HETATM   31  H16 UNL     1      -5.281   2.587  -0.700  1.00  0.00     0.163 HD
BRANCH  30  32
HETATM   32  C15 UNL     1      -6.776   1.077  -0.888  1.00  0.00     0.216 C 
BRANCH  32  33
HETATM   33  C16 UNL     1      -7.701   2.132  -0.266  1.00  0.00     0.166 C 
HETATM   34  O4  UNL     1      -8.899   2.029  -0.046  1.00  0.00    -0.648 OA
BRANCH  33  35
HETATM   35  O5  UNL     1      -7.070   3.300   0.020  1.00  0.00    -0.775 OA
HETATM   36  H18 UNL     1      -7.772   3.835   0.454  1.00  0.00     0.167 HD
ENDBRANCH  33  35
ENDBRANCH  32  33
BRANCH  32  37
HETATM   37  C17 UNL     1      -6.700  -0.197  -0.014  1.00  0.00     0.184 C 
BRANCH  37  38
HETATM   38  O6  UNL     1      -6.205   0.123   1.295  1.00  0.00    -0.388 OA
HETATM   39  H20 UNL     1      -5.265   0.350   1.177  1.00  0.00     0.210 HD
ENDBRANCH  37  38
BRANCH  37  40
HETATM   40  C18 UNL     1      -8.004  -0.967   0.071  1.00  0.00    -0.025 A 
HETATM   41  C19 UNL     1      -8.427  -1.729  -1.033  1.00  0.00     0.010 A 
HETATM   42  C20 UNL     1      -9.631  -2.439  -1.000  1.00  0.00     0.003 A 
HETATM   43  C21 UNL     1     -10.432  -2.404   0.141  1.00  0.00     0.036 A 
HETATM   44  C22 UNL     1     -10.018  -1.653   1.248  1.00  0.00     0.103 A 
HETATM   45  C23 UNL     1      -8.812  -0.938   1.219  1.00  0.00     0.045 A 
BRANCH  44  46
HETATM   46  N3  UNL     1     -10.860  -1.615   2.451  1.00  0.00    -0.116 N 
HETATM   47  O7  UNL     1     -10.401  -1.067   3.465  1.00  0.00    -0.532 OA
HETATM   48  O8  UNL     1     -11.980  -2.143   2.388  1.00  0.00    -0.532 OA
ENDBRANCH  44  46
ENDBRANCH  37  40
ENDBRANCH  32  37
ENDBRANCH  30  32
ENDBRANCH  27  28
ENDBRANCH  26  27
ENDBRANCH  13  26
TORSDOF 11
