REMARK  12 active torsions:
REMARK  status: ('A' for Active; 'I' for Inactive)
REMARK    1  A    between atoms: C2_2  and  C3_3 
REMARK    2  A    between atoms: C2_2  and  C9_11 
REMARK    3  A    between atoms: C4_4  and  C5_5 
REMARK    4  A    between atoms: C5_5  and  C6_6 
REMARK    5  A    between atoms: C6_6  and  O1_8 
REMARK    6  A    between atoms: C6_6  and  C8_9 
REMARK    7  A    between atoms: C8_9  and  O2_10 
REMARK    8  A    between atoms: C10_12  and  O3_13 
REMARK    9  A    between atoms: C11_14  and  O4_15 
REMARK   10  A    between atoms: C22_26  and  O5_27 
REMARK   11  A    between atoms: C25_30  and  O6_31 
REMARK   12  A    between atoms: C27_33  and  O7_34 
ROOT
HETATM    1  C9  UNL     1       1.646   0.486   0.121  1.00  0.00     0.033 C 
HETATM    2  C10 UNL     1       1.679   1.140   1.543  1.00  0.00     0.152 C 
HETATM    3  C11 UNL     1       0.203   1.322   1.982  1.00  0.00     0.155 C 
HETATM    4  C12 UNL     1      -0.588   0.547   0.934  1.00  0.00     0.060 C 
HETATM    5  C13 UNL     1       0.201   0.820  -0.386  1.00  0.00    -0.028 C 
HETATM    6  C14 UNL     1       0.144   2.276  -0.911  1.00  0.00     0.016 C 
HETATM    7  C15 UNL     1      -0.371  -0.131  -1.455  1.00  0.00     0.011 C 
HETATM    8  C16 UNL     1      -1.897   0.005  -1.608  1.00  0.00     0.009 C 
HETATM    9  C17 UNL     1      -2.652  -0.201  -0.272  1.00  0.00     0.029 C 
HETATM   10  C18 UNL     1      -4.223  -0.246  -0.424  1.00  0.00    -0.031 C 
HETATM   11  C19 UNL     1      -4.759   1.020  -1.139  1.00  0.00     0.016 C 
HETATM   12  C20 UNL     1      -4.628  -1.475  -1.317  1.00  0.00     0.012 C 
HETATM   13  C21 UNL     1      -5.791  -2.324  -0.783  1.00  0.00     0.032 C 
HETATM   14  C22 UNL     1      -6.899  -1.509  -0.127  1.00  0.00     0.118 C 
HETATM   15  C23 UNL     1      -6.383  -0.547   0.951  1.00  0.00     0.039 C 
HETATM   16  C24 UNL     1      -4.845  -0.457   0.994  1.00  0.00     0.025 C 
HETATM   17  C25 UNL     1      -4.346   0.527   2.068  1.00  0.00     0.126 C 
HETATM   18  C26 UNL     1      -2.819   0.471   2.184  1.00  0.00     0.071 C 
HETATM   19  C27 UNL     1      -2.117   0.765   0.842  1.00  0.00     0.071 C 
ENDROOT
BRANCH   1  20
HETATM   20  C2  UNL     1       2.877   0.821  -0.766  1.00  0.00     0.011 C 
HETATM   21  C1  UNL     1       2.803   0.214  -2.172  1.00  0.00     0.015 C 
BRANCH  20  22
HETATM   22  C3  UNL     1       4.162   0.416  -0.054  1.00  0.00    -0.026 C 
HETATM   23  C4  UNL     1       4.830  -0.742  -0.189  1.00  0.00    -0.027 C 
BRANCH  23  24
HETATM   24  C5  UNL     1       6.103  -1.068   0.554  1.00  0.00     0.066 C 
BRANCH  24  25
HETATM   25  C6  UNL     1       7.353  -1.212  -0.350  1.00  0.00     0.078 C 
HETATM   26  C7  UNL     1       7.614   0.035  -1.199  1.00  0.00     0.048 C 
BRANCH  25  27
HETATM   27  O1  UNL     1       7.179  -2.344  -1.226  1.00  0.00    -0.388 OA
HETATM   28  H12 UNL     1       6.477  -2.111  -1.859  1.00  0.00     0.210 HD
ENDBRANCH  25  27
BRANCH  25  29
HETATM   29  C8  UNL     1       8.598  -1.517   0.510  1.00  0.00     0.201 C 
BRANCH  29  30
HETATM   30  O2  UNL     1       8.437  -2.760   1.193  1.00  0.00    -0.398 OA
HETATM   31  H15 UNL     1       8.091  -3.372   0.512  1.00  0.00     0.209 HD
ENDBRANCH  29  30
ENDBRANCH  25  29
ENDBRANCH  24  25
ENDBRANCH  23  24
ENDBRANCH  20  22
ENDBRANCH   1  20
BRANCH   2  32
HETATM   32  O3  UNL     1       2.338   2.406   1.542  1.00  0.00    -0.393 OA
HETATM   33  H18 UNL     1       2.276   2.773   2.440  1.00  0.00     0.210 HD
ENDBRANCH   2  32
BRANCH   3  34
HETATM   34  O4  UNL     1       0.006   0.766   3.281  1.00  0.00    -0.392 OA
HETATM   35  H20 UNL     1       0.469   1.341   3.914  1.00  0.00     0.210 HD
ENDBRANCH   3  34
BRANCH  19  36
HETATM   36  O7  UNL     1      -2.352   2.131   0.507  1.00  0.00    -0.389 OA
HETATM   37  H46 UNL     1      -3.218   2.385   0.893  1.00  0.00     0.210 HD
ENDBRANCH  19  36
BRANCH  17  38
HETATM   38  O6  UNL     1      -4.725   1.873   1.795  1.00  0.00    -0.395 OA
HETATM   39  H43 UNL     1      -5.698   1.923   1.829  1.00  0.00     0.210 HD
ENDBRANCH  17  38
BRANCH  14  40
HETATM   40  O5  UNL     1      -7.600  -0.760  -1.116  1.00  0.00    -0.396 OA
HETATM   41  H38 UNL     1      -7.903  -1.380  -1.801  1.00  0.00     0.210 HD
ENDBRANCH  14  40
TORSDOF 12
