REMARK  9 active torsions:
REMARK  status: ('A' for Active; 'I' for Inactive)
REMARK    1  A    between atoms: C2_2  and  C3_3 
REMARK    2  A    between atoms: C3_3  and  C5_5 
REMARK    3  A    between atoms: C3_3  and  C6_7 
REMARK    4  A    between atoms: C5_5  and  O1_6 
REMARK    5  A    between atoms: C7_8  and  O2_9 
REMARK    6  A    between atoms: C18_22  and  O5_23 
REMARK    7  A    between atoms: O5_23  and  C19_24 
REMARK    8  A    between atoms: C19_24  and  C20_26 
REMARK    9  A    between atoms: C29_36  and  O8_37 
ROOT
HETATM    1  C6  UNL     1      -5.454   0.327  -0.379  1.00  0.00     0.023 A 
HETATM    2  C7  UNL     1      -4.922   1.148  -1.401  1.00  0.00     0.076 A 
HETATM    3  C8  UNL     1      -3.548   1.340  -1.569  1.00  0.00     0.053 A 
HETATM    4  C9  UNL     1      -2.646   0.738  -0.692  1.00  0.00     0.034 A 
HETATM    5  C10 UNL     1      -1.205   0.963  -0.888  1.00  0.00     0.192 A 
HETATM    6  O3  UNL     1      -0.818   1.665  -1.816  1.00  0.00    -0.287 OA
HETATM    7  C11 UNL     1      -0.246   0.341   0.064  1.00  0.00     0.035 A 
HETATM    8  C12 UNL     1      -0.693  -0.373   1.107  1.00  0.00     0.131 A 
HETATM    9  O4  UNL     1       0.120  -0.917   2.073  1.00  0.00    -0.336 OA
HETATM   10  C13 UNL     1       1.550  -0.916   1.903  1.00  0.00     0.065 C 
HETATM   11  C14 UNL     1       2.100  -0.904   3.345  1.00  0.00     0.046 C 
HETATM   12  C15 UNL     1       1.922  -2.271   1.289  1.00  0.00     0.046 C 
HETATM   13  C16 UNL     1       2.029   0.356   1.141  1.00  0.00     0.031 C 
HETATM   14  C17 UNL     1       3.545   0.480   0.904  1.00  0.00     0.041 C 
HETATM   15  C18 UNL     1       4.064  -0.222  -0.356  1.00  0.00     0.136 C 
HETATM   16  C23 UNL     1       3.282   0.195  -1.612  1.00  0.00     0.012 C 
HETATM   17  C24 UNL     1       3.567   1.634  -2.063  1.00  0.00     0.012 C 
HETATM   18  C25 UNL     1       1.780  -0.044  -1.404  1.00  0.00     0.017 C 
HETATM   19  C26 UNL     1       1.218   0.646  -0.144  1.00  0.00     0.033 C 
HETATM   20  C27 UNL     1      -2.153  -0.618   1.307  1.00  0.00     0.219 A 
HETATM   21  O7  UNL     1      -2.568  -1.302   2.240  1.00  0.00    -0.284 OA
HETATM   22  C28 UNL     1      -3.118  -0.030   0.361  1.00  0.00     0.065 A 
HETATM   23  C29 UNL     1      -4.512  -0.223   0.522  1.00  0.00     0.091 A 
ENDROOT
BRANCH   1  24
HETATM   24  C3  UNL     1      -6.997   0.120  -0.248  1.00  0.00     0.027 C 
HETATM   25  C4  UNL     1      -7.427  -1.156   0.529  1.00  0.00     0.027 C 
BRANCH  24  26
HETATM   26  C2  UNL     1      -7.644  -0.126  -1.628  1.00  0.00    -0.021 C 
HETATM   27  C1  UNL     1      -8.711   0.484  -2.162  1.00  0.00     0.008 C 
ENDBRANCH  24  26
BRANCH  24  28
HETATM   28  C5  UNL     1      -7.584   1.337   0.542  1.00  0.00     0.182 C 
BRANCH  28  29
HETATM   29  O1  UNL     1      -7.380   2.610  -0.077  1.00  0.00    -0.399 OA
HETATM   30  H9  UNL     1      -7.145   2.439  -1.012  1.00  0.00     0.209 HD
ENDBRANCH  28  29
ENDBRANCH  24  28
ENDBRANCH   1  24
BRANCH   2  31
HETATM   31  O2  UNL     1      -5.765   1.832  -2.238  1.00  0.00    -0.360 OA
HETATM   32  H10 UNL     1      -5.252   2.249  -2.953  1.00  0.00     0.217 HD
ENDBRANCH   2  31
BRANCH  23  33
HETATM   33  O8  UNL     1      -4.975  -0.924   1.609  1.00  0.00    -0.359 OA
HETATM   34  H36 UNL     1      -4.219  -1.267   2.137  1.00  0.00     0.217 HD
ENDBRANCH  23  33
BRANCH  15  35
HETATM   35  O5  UNL     1       5.455   0.096  -0.555  1.00  0.00    -0.315 OA
BRANCH  35  36
HETATM   36  C19 UNL     1       6.353  -0.628   0.177  1.00  0.00     0.262 C 
HETATM   37  O6  UNL     1       6.054  -1.477   1.004  1.00  0.00    -0.265 OA
BRANCH  36  38
HETATM   38  C20 UNL     1       7.769  -0.203  -0.175  1.00  0.00     0.077 C 
HETATM   39  C21 UNL     1       8.082  -0.564  -1.624  1.00  0.00     0.020 C 
HETATM   40  C22 UNL     1       8.783  -0.847   0.770  1.00  0.00     0.020 C 
ENDBRANCH  36  38
ENDBRANCH  35  36
ENDBRANCH  15  35
TORSDOF 9
