REMARK  15 active torsions:
REMARK  status: ('A' for Active; 'I' for Inactive)
REMARK    1  A    between atoms: O1_2  and  C2_3 
REMARK    2  A    between atoms: C6_8  and  C7_9 
REMARK    3  A    between atoms: C7_9  and  O3_11 
REMARK    4  A    between atoms: C8_12  and  C9_13 
REMARK    5  A    between atoms: C9_13  and  C10_14 
REMARK    6  A    between atoms: C10_14  and  N2_15 
REMARK       I    between atoms: N2_15  and  C11_16 
REMARK    7  A    between atoms: C11_16  and  C12_18 
REMARK    8  A    between atoms: C12_18  and  C13_19 
REMARK    9  A    between atoms: C13_19  and  C14_20 
REMARK   10  A    between atoms: C14_20  and  O6_22 
REMARK   11  A    between atoms: O6_22  and  C15_23 
REMARK   12  A    between atoms: C15_23  and  C16_24 
REMARK   13  A    between atoms: C16_24  and  C17_26 
REMARK   14  A    between atoms: C17_26  and  O8_27 
REMARK   15  A    between atoms: C32_43  and  O10_44 
ROOT
HETATM    1  O6  UNL     1       1.286  -2.109   0.211  1.00  0.00    -0.314 OA
ENDROOT
BRANCH   1   2
HETATM    2  C14 UNL     1       0.853  -2.478   1.440  1.00  0.00     0.259 C 
HETATM    3  O5  UNL     1      -0.334  -2.604   1.731  1.00  0.00    -0.265 OA
BRANCH   2   4
HETATM    4  C13 UNL     1       1.977  -2.695   2.429  1.00  0.00     0.120 C 
BRANCH   4   5
HETATM    5  C12 UNL     1       3.328  -2.154   1.972  1.00  0.00     0.112 C 
BRANCH   5   6
HETATM    6  C11 UNL     1       3.984  -3.059   0.946  1.00  0.00     0.218 C 
HETATM    7  N2  UNL     1       5.070  -2.474   0.334  1.00  0.00    -0.361 N 
HETATM    8  H12 UNL     1       5.142  -1.464   0.378  1.00  0.00     0.162 HD
HETATM    9  O4  UNL     1       3.605  -4.201   0.718  1.00  0.00    -0.274 OA
BRANCH   7  10
HETATM   10  C10 UNL     1       5.735  -3.125  -0.784  1.00  0.00     0.127 C 
BRANCH  10  11
HETATM   11  C9  UNL     1       7.153  -2.604  -1.016  1.00  0.00     0.061 C 
BRANCH  11  12
HETATM   12  C8  UNL     1       7.197  -1.161  -1.440  1.00  0.00    -0.011 A 
HETATM   13  C6  UNL     1       6.993  -0.641  -2.717  1.00  0.00     0.114 A 
HETATM   14  N1  UNL     1       7.131   0.726  -2.617  1.00  0.00    -0.350 N 
HETATM   15  C5  UNL     1       7.426   1.107  -1.334  1.00  0.00     0.043 A 
HETATM   16  H6  UNL     1       7.034   1.359  -3.401  1.00  0.00     0.166 HD
HETATM   17  C4  UNL     1       7.653   2.380  -0.800  1.00  0.00     0.033 A 
HETATM   18  C36 UNL     1       7.478  -0.053  -0.569  1.00  0.00     0.002 A 
HETATM   19  C3  UNL     1       7.946   2.474   0.566  1.00  0.00     0.039 A 
HETATM   20  C2  UNL     1       8.010   1.334   1.366  1.00  0.00     0.069 A 
HETATM   21  C37 UNL     1       7.771   0.070   0.806  1.00  0.00     0.051 A 
BRANCH  13  22
HETATM   22  C7  UNL     1       6.695  -1.241  -3.987  1.00  0.00     0.194 C 
HETATM   23  O2  UNL     1       6.567  -0.656  -5.051  1.00  0.00    -0.645 OA
BRANCH  22  24
HETATM   24  O3  UNL     1       6.554  -2.578  -3.914  1.00  0.00    -0.772 OA
HETATM   25  H7  UNL     1       6.362  -2.831  -4.840  1.00  0.00     0.167 HD
ENDBRANCH  22  24
ENDBRANCH  13  22
BRANCH  20  26
HETATM   26  O1  UNL     1       8.289   1.311   2.707  1.00  0.00    -0.356 OA
HETATM   27  C1  UNL     1       8.650   2.547   3.312  1.00  0.00     0.210 C 
ENDBRANCH  20  26
ENDBRANCH  11  12
ENDBRANCH  10  11
ENDBRANCH   7  10
ENDBRANCH   5   6
ENDBRANCH   4   5
ENDBRANCH   2   4
ENDBRANCH   1   2
BRANCH   1  28
HETATM   28  C15 UNL     1       0.288  -1.920  -0.784  1.00  0.00     0.260 C 
BRANCH  28  29
HETATM   29  C16 UNL     1       0.036  -0.452  -1.073  1.00  0.00     0.185 C 
HETATM   30  O7  UNL     1       0.545   0.064  -2.074  1.00  0.00    -0.292 OA
BRANCH  29  31
HETATM   31  C17 UNL     1      -0.949   0.325  -0.150  1.00  0.00     0.128 C 
HETATM   32  C18 UNL     1      -0.695   1.865  -0.236  1.00  0.00     0.047 C 
HETATM   33  C19 UNL     1      -2.073   2.553  -0.190  1.00  0.00     0.009 C 
HETATM   34  C20 UNL     1      -3.052   1.432   0.143  1.00  0.00     0.002 C 
HETATM   35  C21 UNL     1      -4.544   1.658  -0.149  1.00  0.00    -0.002 C 
HETATM   36  C34 UNL     1      -2.455   0.202  -0.583  1.00  0.00     0.001 C 
HETATM   37  C22 UNL     1      -5.058   2.905   0.590  1.00  0.00     0.010 C 
HETATM   38  C31 UNL     1      -5.352   0.396   0.299  1.00  0.00     0.031 C 
HETATM   39  C23 UNL     1      -6.550   3.114   0.371  1.00  0.00     0.035 C 
HETATM   40  C24 UNL     1      -7.349   1.891   0.752  1.00  0.00    -0.068 C 
HETATM   41  C25 UNL     1      -8.388   2.005   1.596  1.00  0.00     0.053 C 
HETATM   42  C29 UNL     1      -6.913   0.566   0.106  1.00  0.00    -0.014 C 
HETATM   43  C26 UNL     1      -9.271   0.857   1.899  1.00  0.00     0.149 C 
HETATM   44  O9  UNL     1     -10.147   0.974   2.751  1.00  0.00    -0.293 OA
HETATM   45  C27 UNL     1      -9.098  -0.395   1.078  1.00  0.00     0.084 C 
HETATM   46  C28 UNL     1      -7.620  -0.634   0.810  1.00  0.00     0.022 C 
HETATM   47  C30 UNL     1      -7.363   0.608  -1.374  1.00  0.00     0.020 C 
HETATM   48  C32 UNL     1      -4.753  -0.930  -0.256  1.00  0.00     0.124 C 
HETATM   49  C33 UNL     1      -3.224  -1.038  -0.074  1.00  0.00     0.045 C 
HETATM   50  C35 UNL     1      -2.564   0.306  -2.130  1.00  0.00     0.019 C 
BRANCH  31  51
HETATM   51  O8  UNL     1      -0.775   0.008   1.230  1.00  0.00    -0.381 OA
HETATM   52  H19 UNL     1      -1.054  -0.913   1.404  1.00  0.00     0.211 HD
ENDBRANCH  31  51
BRANCH  48  53
HETATM   53  O10 UNL     1      -5.069  -1.107  -1.628  1.00  0.00    -0.395 OA
HETATM   54  H40 UNL     1      -4.806  -2.007  -1.886  1.00  0.00     0.210 HD
ENDBRANCH  48  53
ENDBRANCH  29  31
ENDBRANCH  28  29
ENDBRANCH   1  28
TORSDOF 15
