REMARK  13 active torsions:
REMARK  status: ('A' for Active; 'I' for Inactive)
REMARK    1  A    between atoms: C3_3  and  O1_4 
REMARK    2  A    between atoms: N1_14  and  O2_16 
REMARK    3  A    between atoms: O2_16  and  C13_17 
REMARK    4  A    between atoms: C13_17  and  C14_18 
REMARK       I    between atoms: C14_18  and  N2_20 
REMARK    5  A    between atoms: N2_20  and  C15_21 
REMARK    6  A    between atoms: C15_21  and  C16_22 
REMARK    7  A    between atoms: C15_21  and  C21_33 
REMARK       I    between atoms: C16_22  and  N3_24 
REMARK    8  A    between atoms: N3_24  and  C17_25 
REMARK    9  A    between atoms: C17_25  and  C18_26 
REMARK   10  A    between atoms: C17_25  and  C20_30 
REMARK   11  A    between atoms: C18_26  and  C19_27 
REMARK   12  A    between atoms: C19_27  and  O6_29 
REMARK   13  A    between atoms: C20_30  and  O8_32 
ROOT
HETATM    1  C1  UNL     1      -9.921   1.925   0.289  1.00  0.00     0.015 C 
HETATM    2  C2  UNL     1      -8.760   2.169   0.489  1.00  0.00    -0.078 C 
HETATM    3  C3  UNL     1      -7.333   2.474   0.743  1.00  0.00     0.128 C 
HETATM    4  C4  UNL     1      -6.997   2.173   2.211  1.00  0.00     0.052 C 
HETATM    5  C5  UNL     1      -6.363   0.776   2.224  1.00  0.00     0.010 C 
HETATM    6  C6  UNL     1      -6.378   0.261   0.765  1.00  0.00     0.002 C 
HETATM    7  C7  UNL     1      -5.314  -0.810   0.384  1.00  0.00    -0.004 C 
HETATM    8  C8  UNL     1      -4.914  -1.655   1.606  1.00  0.00     0.010 C 
HETATM    9  C9  UNL     1      -3.955  -2.771   1.248  1.00  0.00     0.035 C 
HETATM   10  C10 UNL     1      -2.702  -2.212   0.630  1.00  0.00    -0.069 C 
HETATM   11  C11 UNL     1      -1.502  -2.601   1.096  1.00  0.00     0.030 C 
HETATM   12  C12 UNL     1      -0.234  -2.240   0.408  1.00  0.00     0.032 C 
HETATM   13  N1  UNL     1       0.881  -2.675   0.921  1.00  0.00    -0.271 N 
ATOM     14  H1  UNL     1       0.944  -3.214   1.785  1.00  0.00     0.194 HD
HETATM   15  C24 UNL     1      -0.333  -1.455  -0.885  1.00  0.00     0.060 C 
HETATM   16  C25 UNL     1      -1.552  -0.543  -0.853  1.00  0.00     0.020 C 
HETATM   17  C26 UNL     1      -2.889  -1.281  -0.565  1.00  0.00    -0.016 C 
HETATM   18  C27 UNL     1      -3.224  -2.184  -1.786  1.00  0.00     0.020 C 
HETATM   19  C28 UNL     1      -4.085  -0.247  -0.393  1.00  0.00     0.002 C 
HETATM   20  C29 UNL     1      -3.747   1.149   0.149  1.00  0.00     0.007 C 
HETATM   21  C30 UNL     1      -4.894   2.161  -0.047  1.00  0.00     0.014 C 
HETATM   22  C31 UNL     1      -6.337   1.567  -0.056  1.00  0.00     0.003 C 
HETATM   23  C32 UNL     1      -6.805   1.380  -1.515  1.00  0.00     0.020 C 
ENDROOT
BRANCH   3  24
HETATM   24  O1  UNL     1      -7.118   3.849   0.456  1.00  0.00    -0.377 OA
HETATM   25  H2  UNL     1      -7.797   4.348   0.942  1.00  0.00     0.211 HD
ENDBRANCH   3  24
BRANCH  13  26
HETATM   26  O2  UNL     1       1.983  -2.310   0.137  1.00  0.00    -0.271 OA
BRANCH  26  27
HETATM   27  C13 UNL     1       3.137  -2.993   0.614  1.00  0.00     0.303 C 
BRANCH  27  28
HETATM   28  C14 UNL     1       4.375  -2.553  -0.162  1.00  0.00     0.244 C 
HETATM   29  O3  UNL     1       5.375  -3.260  -0.264  1.00  0.00    -0.271 OA
HETATM   30  N2  UNL     1       4.296  -1.281  -0.697  1.00  0.00    -0.346 N 
HETATM   31  H16 UNL     1       3.598  -0.684  -0.262  1.00  0.00     0.163 HD
BRANCH  30  32
HETATM   32  C15 UNL     1       5.480  -0.622  -1.232  1.00  0.00     0.180 C 
BRANCH  32  33
HETATM   33  C16 UNL     1       6.197   0.119  -0.078  1.00  0.00     0.241 C 
HETATM   34  O4  UNL     1       5.627   0.429   0.967  1.00  0.00    -0.271 OA
HETATM   35  N3  UNL     1       7.510   0.456  -0.349  1.00  0.00    -0.344 N 
HETATM   36  H18 UNL     1       7.978  -0.165  -1.001  1.00  0.00     0.163 HD
BRANCH  35  37
HETATM   37  C17 UNL     1       8.376   0.965   0.730  1.00  0.00     0.192 C 
BRANCH  37  38
HETATM   38  C18 UNL     1       9.370   1.964   0.156  1.00  0.00     0.146 C 
BRANCH  38  39
HETATM   39  C19 UNL     1      10.183   2.639   1.221  1.00  0.00     0.141 C 
HETATM   40  O5  UNL     1      11.391   2.803   1.189  1.00  0.00    -0.650 OA
BRANCH  39  41
HETATM   41  O6  UNL     1       9.445   3.144   2.224  1.00  0.00    -0.776 OA
HETATM   42  H22 UNL     1      10.103   3.541   2.835  1.00  0.00     0.167 HD
ENDBRANCH  39  41
ENDBRANCH  38  39
ENDBRANCH  37  38
BRANCH  37  43
HETATM   43  C20 UNL     1       9.142  -0.201   1.369  1.00  0.00     0.164 C 
HETATM   44  O7  UNL     1       9.823  -0.150   2.381  1.00  0.00    -0.648 OA
BRANCH  43  45
HETATM   45  O8  UNL     1       9.089  -1.343   0.644  1.00  0.00    -0.775 OA
HETATM   46  H23 UNL     1       9.590  -1.995   1.181  1.00  0.00     0.167 HD
ENDBRANCH  43  45
ENDBRANCH  37  43
ENDBRANCH  35  37
ENDBRANCH  32  33
BRANCH  32  47
HETATM   47  C21 UNL     1       5.152   0.341  -2.395  1.00  0.00     0.009 C 
HETATM   48  C22 UNL     1       4.640  -0.432  -3.614  1.00  0.00     0.012 C 
HETATM   49  C23 UNL     1       4.148   1.436  -2.016  1.00  0.00     0.012 C 
ENDBRANCH  32  47
ENDBRANCH  30  32
ENDBRANCH  27  28
ENDBRANCH  26  27
ENDBRANCH  13  26
TORSDOF 13
