REMARK  6 active torsions:
REMARK  status: ('A' for Active; 'I' for Inactive)
REMARK    1  A    between atoms: C2_2  and  C30_33 
REMARK    2  A    between atoms: C3_3  and  C4_4 
REMARK    3  A    between atoms: C4_4  and  C5_5 
REMARK    4  A    between atoms: C5_5  and  C6_6 
REMARK    5  A    between atoms: C6_6  and  C8_8 
REMARK    6  A    between atoms: C30_33  and  O5_35 
ROOT
HETATM    1  C8  UNL     1       2.252  -0.636   0.165  1.00  0.00    -0.001 C 
HETATM    2  C9  UNL     1       2.080  -2.039   0.808  1.00  0.00     0.007 C 
HETATM    3  C10 UNL     1       0.569  -2.338   0.832  1.00  0.00     0.015 C 
HETATM    4  C11 UNL     1      -0.061  -1.306  -0.126  1.00  0.00    -0.004 C 
HETATM    5  C12 UNL     1       0.102  -1.870  -1.572  1.00  0.00     0.021 C 
HETATM    6  C13 UNL     1      -1.532  -0.936  -0.016  1.00  0.00     0.007 C 
HETATM    7  C14 UNL     1      -2.016   0.265  -0.422  1.00  0.00     0.007 C 
HETATM    8  C15 UNL     1      -1.009   1.297  -0.916  1.00  0.00     0.157 C 
HETATM    9  O1  UNL     1      -1.390   2.359  -1.406  1.00  0.00    -0.293 OA
HETATM   10  C16 UNL     1       0.490   1.036  -0.815  1.00  0.00     0.094 C 
HETATM   11  C17 UNL     1       0.812  -0.042   0.217  1.00  0.00    -0.022 C 
HETATM   12  C18 UNL     1       0.517   0.538   1.632  1.00  0.00     0.017 C 
HETATM   13  C19 UNL     1      -3.514   0.667  -0.400  1.00  0.00    -0.007 C 
HETATM   14  C20 UNL     1      -3.678   1.683   0.757  1.00  0.00     0.021 C 
HETATM   15  C21 UNL     1      -3.960   1.344  -1.737  1.00  0.00     0.022 C 
HETATM   16  C22 UNL     1      -5.420   1.145  -2.140  1.00  0.00     0.080 C 
HETATM   17  C23 UNL     1      -6.306   0.884  -0.948  1.00  0.00     0.135 C 
HETATM   18  O2  UNL     1      -7.295   1.581  -0.728  1.00  0.00    -0.297 OA
HETATM   19  C24 UNL     1      -5.950  -0.336  -0.092  1.00  0.00     0.018 C 
HETATM   20  C25 UNL     1      -6.442  -0.120   1.353  1.00  0.00     0.023 C 
HETATM   21  C26 UNL     1      -6.741  -1.528  -0.674  1.00  0.00     0.023 C 
HETATM   22  C27 UNL     1      -4.412  -0.610  -0.213  1.00  0.00     0.021 C 
HETATM   23  C28 UNL     1      -3.868  -1.508   0.896  1.00  0.00     0.090 C 
HETATM   24  C29 UNL     1      -2.478  -1.956   0.532  1.00  0.00     0.157 C 
HETATM   25  O3  UNL     1      -2.131  -3.120   0.710  1.00  0.00    -0.293 OA
ENDROOT
BRANCH   1  26
HETATM   26  C6  UNL     1       3.516   0.131   0.656  1.00  0.00    -0.014 C 
HETATM   27  C7  UNL     1       3.634   0.381   2.165  1.00  0.00     0.010 C 
BRANCH  26  28
HETATM   28  C5  UNL     1       3.721   1.448  -0.130  1.00  0.00     0.008 C 
BRANCH  28  29
HETATM   29  C4  UNL     1       5.138   2.039  -0.056  1.00  0.00     0.028 C 
BRANCH  29  30
HETATM   30  C3  UNL     1       6.163   1.164  -0.725  1.00  0.00    -0.013 C 
HETATM   31  C2  UNL     1       7.256   0.594  -0.177  1.00  0.00     0.008 C 
HETATM   32  C1  UNL     1       7.695   0.717   1.253  1.00  0.00     0.055 C 
BRANCH  31  33
HETATM   33  C30 UNL     1       8.161  -0.255  -1.001  1.00  0.00     0.171 C 
HETATM   34  O4  UNL     1       9.205  -0.750  -0.614  1.00  0.00    -0.646 OA
BRANCH  33  35
HETATM   35  O5  UNL     1       7.724  -0.467  -2.253  1.00  0.00    -0.773 OA
HETATM   36  H42 UNL     1       8.419  -1.037  -2.643  1.00  0.00     0.167 HD
ENDBRANCH  33  35
ENDBRANCH  31  33
ENDBRANCH  29  30
ENDBRANCH  28  29
ENDBRANCH  26  28
ENDBRANCH   1  26
TORSDOF 6
