REMARK  13 active torsions:
REMARK  status: ('A' for Active; 'I' for Inactive)
REMARK    1  A    between atoms: C19_21  and  O3_22 
REMARK    2  A    between atoms: C19_21  and  C20_23 
REMARK    3  A    between atoms: C20_23  and  C21_25 
REMARK    4  A    between atoms: C21_25  and  O5_26 
REMARK    5  A    between atoms: O5_26  and  C22_27 
REMARK    6  A    between atoms: C22_27  and  C23_29 
REMARK    7  A    between atoms: C23_29  and  C24_30 
REMARK    8  A    between atoms: C24_30  and  C25_31 
REMARK       I    between atoms: C25_31  and  N1_33 
REMARK    9  A    between atoms: N1_33  and  C26_34 
REMARK   10  A    between atoms: C26_34  and  C27_35 
REMARK   11  A    between atoms: C26_34  and  C34_42 
REMARK   12  A    between atoms: C27_35  and  C28_36 
REMARK   13  A    between atoms: C34_42  and  O9_44 
ROOT
HETATM    1  C20 UNL     1       0.293   0.464   0.698  1.00  0.00     0.185 C 
HETATM    2  O4  UNL     1       0.494   0.066   1.850  1.00  0.00    -0.292 OA
ENDROOT
BRANCH   1   3
HETATM    3  C19 UNL     1      -0.967   0.023  -0.119  1.00  0.00     0.128 C 
HETATM    4  C14 UNL     1      -2.304   0.742   0.289  1.00  0.00     0.005 C 
HETATM    5  C13 UNL     1      -3.282   0.839  -0.905  1.00  0.00     0.091 C 
HETATM    6  C15 UNL     1      -2.051   2.174   0.813  1.00  0.00     0.019 C 
HETATM    7  C16 UNL     1      -2.924  -0.146   1.422  1.00  0.00     0.002 C 
HETATM    8  C12 UNL     1      -4.621   1.369  -0.452  1.00  0.00     0.133 C 
HETATM    9  C11 UNL     1      -5.287   0.676   0.730  1.00  0.00     0.072 C 
HETATM   10  O2  UNL     1      -5.139   2.333  -1.015  1.00  0.00    -0.297 OA
HETATM   11  C2  UNL     1      -6.767   0.230   0.413  1.00  0.00    -0.009 C 
HETATM   12  C10 UNL     1      -4.425  -0.505   1.230  1.00  0.00     0.003 C 
HETATM   13  C1  UNL     1      -7.711   1.436   0.631  1.00  0.00     0.021 C 
HETATM   14  C3  UNL     1      -6.920  -0.306  -1.038  1.00  0.00     0.022 C 
HETATM   15  C7  UNL     1      -7.190  -0.886   1.376  1.00  0.00    -0.067 C 
HETATM   16  C4  UNL     1      -8.294  -0.912  -1.320  1.00  0.00     0.084 C 
HETATM   17  C5  UNL     1      -8.671  -1.946  -0.290  1.00  0.00     0.149 C 
HETATM   18  O1  UNL     1      -9.495  -2.828  -0.519  1.00  0.00    -0.293 OA
HETATM   19  C6  UNL     1      -8.047  -1.870   1.052  1.00  0.00     0.053 C 
HETATM   20  C8  UNL     1      -6.512  -0.870   2.716  1.00  0.00     0.035 C 
HETATM   21  C9  UNL     1      -5.008  -1.093   2.543  1.00  0.00     0.010 C 
HETATM   22  C17 UNL     1      -2.073  -1.428   1.484  1.00  0.00     0.009 C 
HETATM   23  C18 UNL     1      -1.267  -1.449   0.196  1.00  0.00     0.047 C 
BRANCH   3  24
HETATM   24  O3  UNL     1      -0.749   0.079  -1.522  1.00  0.00    -0.381 OA
HETATM   25  H25 UNL     1      -0.692   1.014  -1.811  1.00  0.00     0.211 HD
ENDBRANCH   3  24
ENDBRANCH   1   3
BRANCH   1  26
HETATM   26  C21 UNL     1       1.247   1.483   0.084  1.00  0.00     0.260 C 
BRANCH  26  27
HETATM   27  O5  UNL     1       2.030   0.961  -0.986  1.00  0.00    -0.314 OA
BRANCH  27  28
HETATM   28  C22 UNL     1       1.724   1.422  -2.224  1.00  0.00     0.259 C 
HETATM   29  O6  UNL     1       0.758   2.142  -2.462  1.00  0.00    -0.265 OA
BRANCH  28  30
HETATM   30  C23 UNL     1       2.667   0.932  -3.298  1.00  0.00     0.120 C 
BRANCH  30  31
HETATM   31  C24 UNL     1       3.659  -0.133  -2.848  1.00  0.00     0.112 C 
BRANCH  31  32
HETATM   32  C25 UNL     1       4.794   0.453  -2.031  1.00  0.00     0.218 C 
HETATM   33  O7  UNL     1       4.921   1.652  -1.810  1.00  0.00    -0.274 OA
HETATM   34  N1  UNL     1       5.667  -0.504  -1.561  1.00  0.00    -0.346 N 
HETATM   35  H32 UNL     1       5.688  -1.384  -2.067  1.00  0.00     0.163 HD
BRANCH  34  36
HETATM   36  C26 UNL     1       6.925  -0.114  -0.908  1.00  0.00     0.186 C 
BRANCH  36  37
HETATM   37  C27 UNL     1       7.356  -1.198   0.087  1.00  0.00     0.074 C 
BRANCH  37  38
HETATM   38  C28 UNL     1       8.556  -0.824   0.921  1.00  0.00    -0.056 A 
HETATM   39  C29 UNL     1       9.804  -1.415   0.679  1.00  0.00     0.007 A 
HETATM   40  C30 UNL     1      10.914  -1.064   1.448  1.00  0.00     0.001 A 
HETATM   41  C31 UNL     1      10.788  -0.120   2.466  1.00  0.00     0.000 A 
HETATM   42  C32 UNL     1       9.552   0.474   2.715  1.00  0.00     0.001 A 
HETATM   43  C33 UNL     1       8.441   0.125   1.947  1.00  0.00     0.007 A 
ENDBRANCH  37  38
ENDBRANCH  36  37
BRANCH  36  44
HETATM   44  C34 UNL     1       7.972   0.031  -2.009  1.00  0.00     0.163 C 
HETATM   45  O8  UNL     1       8.092  -0.706  -2.979  1.00  0.00    -0.648 OA
BRANCH  44  46
HETATM   46  O9  UNL     1       8.806   1.072  -1.831  1.00  0.00    -0.775 OA
HETATM   47  H41 UNL     1       9.411   1.050  -2.600  1.00  0.00     0.167 HD
ENDBRANCH  44  46
ENDBRANCH  36  44
ENDBRANCH  34  36
ENDBRANCH  31  32
ENDBRANCH  30  31
ENDBRANCH  28  30
ENDBRANCH  27  28
ENDBRANCH  26  27
ENDBRANCH   1  26
TORSDOF 13
