REMARK  9 active torsions:
REMARK  status: ('A' for Active; 'I' for Inactive)
REMARK    1  A    between atoms: C2_2  and  C3_3 
REMARK    2  A    between atoms: C2_2  and  C27_31 
REMARK    3  A    between atoms: C3_3  and  C4_4 
REMARK    4  A    between atoms: C4_4  and  C5_5 
REMARK    5  A    between atoms: C5_5  and  C7_7 
REMARK    6  A    between atoms: C22_24  and  O3_26 
REMARK    7  A    between atoms: C26_29  and  O4_30 
REMARK    8  A    between atoms: C27_31  and  C29_33 
REMARK    9  A    between atoms: C29_33  and  O6_35 
ROOT
HETATM    1  C7  UNL     1       1.624  -0.646   0.515  1.00  0.00    -0.002 C 
HETATM    2  C8  UNL     1       1.401  -0.629   2.055  1.00  0.00     0.006 C 
HETATM    3  C9  UNL     1      -0.086  -0.343   2.294  1.00  0.00     0.010 C 
HETATM    4  C10 UNL     1      -0.725  -0.538   0.921  1.00  0.00     0.027 C 
HETATM    5  C11 UNL     1      -2.144  -0.095   0.615  1.00  0.00    -0.036 C 
HETATM    6  C12 UNL     1      -2.543   0.132  -0.665  1.00  0.00     0.002 C 
HETATM    7  C13 UNL     1      -1.484   0.136  -1.752  1.00  0.00     0.157 C 
HETATM    8  O1  UNL     1      -1.738   0.535  -2.887  1.00  0.00    -0.293 OA
HETATM    9  C14 UNL     1      -0.082  -0.357  -1.439  1.00  0.00     0.093 C 
HETATM   10  C15 UNL     1       0.340   0.055  -0.031  1.00  0.00    -0.026 C 
HETATM   11  C16 UNL     1       0.450   1.598   0.066  1.00  0.00     0.016 C 
HETATM   12  C17 UNL     1      -4.020   0.413  -1.052  1.00  0.00    -0.006 C 
HETATM   13  C18 UNL     1      -4.141   1.947  -1.202  1.00  0.00     0.021 C 
HETATM   14  C19 UNL     1      -4.444  -0.280  -2.382  1.00  0.00     0.022 C 
HETATM   15  C20 UNL     1      -5.918  -0.118  -2.731  1.00  0.00     0.083 C 
HETATM   16  C21 UNL     1      -6.800  -0.597  -1.611  1.00  0.00     0.161 C 
HETATM   17  O2  UNL     1      -7.780  -1.308  -1.846  1.00  0.00    -0.295 OA
HETATM   18  C22 UNL     1      -6.484  -0.062  -0.202  1.00  0.00     0.119 C 
HETATM   19  C23 UNL     1      -7.320  -0.838   0.830  1.00  0.00     0.055 C 
HETATM   20  C24 UNL     1      -4.959  -0.203   0.064  1.00  0.00     0.043 C 
HETATM   21  C25 UNL     1      -4.546   0.333   1.438  1.00  0.00     0.045 C 
HETATM   22  C26 UNL     1      -3.108  -0.058   1.778  1.00  0.00     0.148 C 
ENDROOT
BRANCH   1  23
HETATM   23  C5  UNL     1       3.024  -0.088   0.119  1.00  0.00    -0.014 C 
HETATM   24  C6  UNL     1       3.212  -0.060  -1.402  1.00  0.00     0.010 C 
BRANCH  23  25
HETATM   25  C4  UNL     1       4.162  -0.932   0.760  1.00  0.00     0.009 C 
BRANCH  25  26
HETATM   26  C3  UNL     1       5.371  -0.115   1.255  1.00  0.00     0.034 C 
BRANCH  26  27
HETATM   27  C2  UNL     1       6.223   0.569   0.204  1.00  0.00    -0.075 C 
HETATM   28  C1  UNL     1       5.986   1.851  -0.135  1.00  0.00     0.015 C 
BRANCH  27  29
HETATM   29  C27 UNL     1       7.415  -0.182  -0.388  1.00  0.00     0.107 C 
HETATM   30  C28 UNL     1       7.030  -1.525  -1.008  1.00  0.00     0.026 C 
BRANCH  29  31
HETATM   31  C29 UNL     1       8.532  -0.357   0.644  1.00  0.00     0.147 C 
HETATM   32  O5  UNL     1       8.573   0.068   1.787  1.00  0.00    -0.650 OA
BRANCH  31  33
HETATM   33  O6  UNL     1       9.593  -1.035   0.153  1.00  0.00    -0.776 OA
HETATM   34  H42 UNL     1      10.228  -1.040   0.900  1.00  0.00     0.167 HD
ENDBRANCH  31  33
ENDBRANCH  29  31
ENDBRANCH  27  29
ENDBRANCH  26  27
ENDBRANCH  25  26
ENDBRANCH  23  25
ENDBRANCH   1  23
BRANCH  22  35
HETATM   35  O4  UNL     1      -2.649   0.869   2.755  1.00  0.00    -0.391 OA
HETATM   36  H37 UNL     1      -2.567   1.734   2.317  1.00  0.00     0.210 HD
ENDBRANCH  22  35
BRANCH  18  37
HETATM   37  O3  UNL     1      -6.876   1.305  -0.120  1.00  0.00    -0.382 OA
HETATM   38  H32 UNL     1      -7.846   1.339  -0.224  1.00  0.00     0.211 HD
ENDBRANCH  18  37
TORSDOF 9
