REMARK  11 active torsions:
REMARK  status: ('A' for Active; 'I' for Inactive)
REMARK       I    between atoms: N1_1  and  C1_2 
REMARK       I    between atoms: C1_2  and  N2_3 
REMARK    1  A    between atoms: N3_4  and  C2_6 
REMARK    2  A    between atoms: C2_6  and  C3_7 
REMARK    3  A    between atoms: C3_7  and  C4_8 
REMARK    4  A    between atoms: C4_8  and  C5_9 
REMARK    5  A    between atoms: C4_8  and  C6_11 
REMARK    6  A    between atoms: C5_9  and  O1_10 
REMARK    7  A    between atoms: C6_11  and  C7_12 
REMARK    8  A    between atoms: C21_27  and  S1_28 
REMARK    9  A    between atoms: C30_40  and  C31_41 
REMARK   10  A    between atoms: C31_41  and  O6_42 
REMARK   11  A    between atoms: C37_48  and  O7_49 
ROOT
HETATM    1  C2  UNL     1       4.071  -0.922  -0.105  1.00  0.00     0.171 C 
HETATM    2  O2  UNL     1       4.459   0.408  -0.603  1.00  0.00    -0.316 OA
HETATM    3  C13 UNL     1       3.506   1.387  -0.588  1.00  0.00     0.072 C 
HETATM    4  C14 UNL     1       3.160   2.036   0.591  1.00  0.00     0.037 C 
HETATM    5  C15 UNL     1       2.039   2.863   0.605  1.00  0.00     0.010 C 
HETATM    6  C16 UNL     1       1.273   3.047  -0.555  1.00  0.00    -0.058 C 
HETATM    7  C17 UNL     1       1.720   2.498  -1.763  1.00  0.00     0.010 C 
HETATM    8  C18 UNL     1       2.853   1.688  -1.784  1.00  0.00     0.037 C 
HETATM    9  C19 UNL     1      -0.066   3.741  -0.478  1.00  0.00     0.040 C 
HETATM   10  C20 UNL     1      -1.259   2.765  -0.415  1.00  0.00     0.028 C 
HETATM   11  C21 UNL     1      -1.320   1.795   0.792  1.00  0.00     0.140 C 
HETATM   12  C22 UNL     1      -2.362   0.629   0.618  1.00  0.00     0.053 C 
HETATM   13  C23 UNL     1      -3.607   1.036  -0.157  1.00  0.00    -0.013 C 
HETATM   14  C24 UNL     1      -3.964   0.431  -1.304  1.00  0.00    -0.050 C 
HETATM   15  C25 UNL     1      -3.000  -0.478  -1.986  1.00  0.00     0.043 C 
HETATM   16  C26 UNL     1      -2.632  -1.519  -0.953  1.00  0.00     0.016 C 
HETATM   17  C27 UNL     1      -3.884  -2.358  -0.549  1.00  0.00     0.039 C 
HETATM   18  C28 UNL     1      -5.241  -1.681  -0.163  1.00  0.00     0.123 C 
HETATM   19  C29 UNL     1      -6.156  -2.844   0.325  1.00  0.00     0.039 C 
HETATM   20  C30 UNL     1      -7.629  -2.526   0.677  1.00  0.00     0.023 C 
HETATM   21  C32 UNL     1      -7.764  -1.466   1.789  1.00  0.00     0.101 C 
HETATM   22  C33 UNL     1      -7.632  -0.139   1.190  1.00  0.00    -0.101 C 
HETATM   23  C34 UNL     1      -7.437   0.803   0.475  1.00  0.00    -0.066 C 
HETATM   24  C35 UNL     1      -7.167   1.767  -0.537  1.00  0.00     0.029 A 
HETATM   25  C36 UNL     1      -7.853   2.989  -0.464  1.00  0.00     0.057 A 
HETATM   26  C37 UNL     1      -7.648   3.961  -1.435  1.00  0.00     0.067 A 
HETATM   27  C38 UNL     1      -6.774   3.736  -2.484  1.00  0.00     0.037 A 
HETATM   28  C39 UNL     1      -6.086   2.524  -2.555  1.00  0.00     0.014 A 
HETATM   29  C40 UNL     1      -6.266   1.508  -1.585  1.00  0.00    -0.006 A 
HETATM   30  C41 UNL     1      -5.395   0.253  -1.734  1.00  0.00     0.185 C 
HETATM   31  O8  UNL     1      -5.913  -1.021  -1.263  1.00  0.00    -0.371 OA
HETATM   32  C42 UNL     1      -1.851  -0.841   0.238  1.00  0.00     0.104 A 
HETATM   33  C43 UNL     1      -0.330  -1.005   0.128  1.00  0.00     0.082 A 
HETATM   34  C44 UNL     1       0.437  -0.998   1.304  1.00  0.00     0.010 A 
HETATM   35  C45 UNL     1       1.838  -1.025   1.260  1.00  0.00     0.011 A 
HETATM   36  C46 UNL     1       2.525  -1.099   0.038  1.00  0.00    -0.003 A 
HETATM   37  C47 UNL     1       1.747  -1.224  -1.127  1.00  0.00     0.011 A 
HETATM   38  C48 UNL     1       0.350  -1.142  -1.086  1.00  0.00     0.010 A 
HETATM   39 NA1  UNL     1       0.000   0.000   0.000  1.00  0.00    -0.398 Na
ATOM     40  HA1 UNL     1       0.675   0.753  -0.131  1.00  0.00     0.155 HD
ENDROOT
BRANCH   1  41
HETATM   41  N3  UNL     1       4.534  -2.068  -0.932  1.00  0.00    -0.336 N 
HETATM   42  C1  UNL     1       5.292  -1.917  -1.944  1.00  0.00     0.124 C 
HETATM   43  N1  UNL     1       5.871  -0.813  -2.461  1.00  0.00    -0.279 NA
HETATM   44  N2  UNL     1       5.655  -2.995  -2.675  1.00  0.00    -0.279 NA
HETATM   45  H1  UNL     1       5.510   0.041  -2.034  1.00  0.00     0.126 HD
HETATM   46  H2  UNL     1       5.772  -0.767  -3.469  1.00  0.00     0.126 HD
HETATM   47  H3  UNL     1       5.393  -3.845  -2.185  1.00  0.00     0.126 HD
HETATM   48  H4  UNL     1       6.642  -2.989  -2.892  1.00  0.00     0.126 HD
ATOM     49  H3  UNL     1       4.233  -3.009  -0.679  1.00  0.00     0.165 HD
ENDBRANCH   1  41
BRANCH   1  50
HETATM   50  C3  UNL     1       4.794  -1.116   1.275  1.00  0.00     0.074 C 
BRANCH  50  51
HETATM   51  C4  UNL     1       6.348  -1.191   1.270  1.00  0.00     0.018 C 
BRANCH  51  52
HETATM   52  C5  UNL     1       6.822  -1.882   2.567  1.00  0.00     0.169 C 
BRANCH  52  53
HETATM   53  O1  UNL     1       6.522  -1.116   3.728  1.00  0.00    -0.400 OA
HETATM   54  H10 UNL     1       5.556  -1.119   3.845  1.00  0.00     0.209 HD
ENDBRANCH  52  53
ENDBRANCH  51  52
BRANCH  51  55
HETATM   55  C6  UNL     1       7.002   0.199   1.111  1.00  0.00     0.045 C 
BRANCH  55  56
HETATM   56  C7  UNL     1       8.504   0.142   0.938  1.00  0.00    -0.058 A 
HETATM   57  C8  UNL     1       9.064  -0.251  -0.285  1.00  0.00     0.007 A 
HETATM   58  C9  UNL     1      10.449  -0.316  -0.440  1.00  0.00     0.001 A 
HETATM   59  C10 UNL     1      11.287   0.011   0.624  1.00  0.00     0.000 A 
HETATM   60  C11 UNL     1      10.740   0.405   1.844  1.00  0.00     0.001 A 
HETATM   61  C12 UNL     1       9.355   0.470   2.002  1.00  0.00     0.007 A 
ENDBRANCH  55  56
ENDBRANCH  51  55
ENDBRANCH  50  51
ENDBRANCH   1  50
BRANCH  11  62
HETATM   62  S1  UNL     1      -1.662   2.657   2.362  1.00  0.00     0.106 S 
HETATM   63  O3  UNL     1      -1.606   1.585   3.357  1.00  0.00    -0.595 OA
HETATM   64  O4  UNL     1      -2.985   3.245   2.169  1.00  0.00    -0.595 OA
HETATM   65  O5  UNL     1      -0.584   3.631   2.508  1.00  0.00    -0.595 OA
ENDBRANCH  11  62
BRANCH  20  66
HETATM   66  C31 UNL     1      -8.356  -3.816   1.091  1.00  0.00     0.169 C 
BRANCH  66  67
HETATM   67  O6  UNL     1      -7.826  -4.335   2.302  1.00  0.00    -0.400 OA
HETATM   68  H40 UNL     1      -8.278  -5.178   2.475  1.00  0.00     0.209 HD
ENDBRANCH  66  67
ENDBRANCH  20  66
BRANCH  26  69
HETATM   69  O7  UNL     1      -8.295   5.160  -1.387  1.00  0.00    -0.361 OA
HETATM   70  H44 UNL     1      -8.712   5.237  -0.510  1.00  0.00     0.217 HD
ENDBRANCH  26  69
TORSDOF 11
