REMARK  9 active torsions:
REMARK  status: ('A' for Active; 'I' for Inactive)
REMARK    1  A    between atoms: C3_3  and  O1_4 
REMARK    2  A    between atoms: N1_14  and  O2_16 
REMARK    3  A    between atoms: O2_16  and  C13_17 
REMARK    4  A    between atoms: C13_17  and  C14_18 
REMARK       I    between atoms: C14_18  and  N2_20 
REMARK    5  A    between atoms: N2_20  and  C15_21 
REMARK    6  A    between atoms: C15_21  and  C16_22 
REMARK    7  A    between atoms: C15_21  and  C17_25 
REMARK    8  A    between atoms: C16_22  and  O5_24 
REMARK    9  A    between atoms: C17_25  and  C19_27 
ROOT
HETATM    1  C1  UNL     1      -7.658  -2.681   2.509  1.00  0.00     0.015 C 
HETATM    2  C2  UNL     1      -7.010  -2.350   1.554  1.00  0.00    -0.078 C 
HETATM    3  C3  UNL     1      -6.213  -1.963   0.380  1.00  0.00     0.128 C 
HETATM    4  C4  UNL     1      -7.061  -1.257  -0.706  1.00  0.00     0.052 C 
HETATM    5  C5  UNL     1      -6.131  -0.224  -1.379  1.00  0.00     0.010 C 
HETATM    6  C6  UNL     1      -4.755  -0.493  -0.776  1.00  0.00     0.002 C 
HETATM    7  C7  UNL     1      -3.691   0.609  -0.846  1.00  0.00    -0.004 C 
HETATM    8  C8  UNL     1      -3.419   1.032  -2.296  1.00  0.00     0.010 C 
HETATM    9  C9  UNL     1      -2.342   2.107  -2.363  1.00  0.00     0.035 C 
HETATM   10  C10 UNL     1      -1.067   1.681  -1.674  1.00  0.00    -0.069 C 
HETATM   11  C11 UNL     1       0.108   1.811  -2.316  1.00  0.00     0.030 C 
HETATM   12  C12 UNL     1       1.405   1.529  -1.651  1.00  0.00     0.032 C 
HETATM   13  N1  UNL     1       2.491   1.641  -2.362  1.00  0.00    -0.271 N 
ATOM     14  H1  UNL     1       2.505   1.874  -3.355  1.00  0.00     0.194 HD
HETATM   15  C21 UNL     1       1.377   1.196  -0.173  1.00  0.00     0.060 C 
HETATM   16  C22 UNL     1       0.113   0.425   0.178  1.00  0.00     0.020 C 
HETATM   17  C23 UNL     1      -1.203   1.139  -0.245  1.00  0.00    -0.016 C 
HETATM   18  C24 UNL     1      -1.451   2.335   0.702  1.00  0.00     0.020 C 
HETATM   19  C25 UNL     1      -2.375   0.086  -0.189  1.00  0.00     0.002 C 
HETATM   20  C26 UNL     1      -2.628  -0.500   1.226  1.00  0.00     0.007 C 
HETATM   21  C27 UNL     1      -3.782  -1.517   1.270  1.00  0.00     0.014 C 
HETATM   22  C28 UNL     1      -5.076  -0.941   0.670  1.00  0.00     0.003 C 
HETATM   23  C29 UNL     1      -5.591   0.220   1.569  1.00  0.00     0.020 C 
ENDROOT
BRANCH   3  24
HETATM   24  O1  UNL     1      -5.668  -3.153  -0.196  1.00  0.00    -0.377 OA
HETATM   25  H2  UNL     1      -6.406  -3.777  -0.308  1.00  0.00     0.211 HD
ENDBRANCH   3  24
BRANCH  13  26
HETATM   26  O2  UNL     1       3.636   1.401  -1.593  1.00  0.00    -0.271 OA
BRANCH  26  27
HETATM   27  C13 UNL     1       4.785   1.478  -2.433  1.00  0.00     0.303 C 
BRANCH  27  28
HETATM   28  C14 UNL     1       6.053   1.145  -1.650  1.00  0.00     0.244 C 
HETATM   29  O3  UNL     1       7.173   1.239  -2.146  1.00  0.00    -0.271 OA
HETATM   30  N2  UNL     1       5.837   0.713  -0.362  1.00  0.00    -0.344 N 
HETATM   31  H16 UNL     1       4.901   0.853   0.013  1.00  0.00     0.163 HD
BRANCH  30  32
HETATM   32  C15 UNL     1       6.912   0.444   0.588  1.00  0.00     0.186 C 
BRANCH  32  33
HETATM   33  C16 UNL     1       6.551   1.120   1.912  1.00  0.00     0.163 C 
HETATM   34  O4  UNL     1       5.443   1.523   2.238  1.00  0.00    -0.648 OA
BRANCH  33  35
HETATM   35  O5  UNL     1       7.595   1.235   2.757  1.00  0.00    -0.775 OA
HETATM   36  H18 UNL     1       7.220   1.685   3.543  1.00  0.00     0.167 HD
ENDBRANCH  33  35
ENDBRANCH  32  33
BRANCH  32  37
HETATM   37  C17 UNL     1       7.214  -1.061   0.780  1.00  0.00     0.014 C 
HETATM   38  C18 UNL     1       7.669  -1.717  -0.528  1.00  0.00     0.012 C 
BRANCH  37  39
HETATM   39  C19 UNL     1       6.109  -1.887   1.479  1.00  0.00     0.002 C 
HETATM   40  C20 UNL     1       4.801  -2.068   0.723  1.00  0.00     0.005 C 
ENDBRANCH  37  39
ENDBRANCH  32  37
ENDBRANCH  30  32
ENDBRANCH  27  28
ENDBRANCH  26  27
ENDBRANCH  13  26
TORSDOF 9
