REMARK  5 active torsions:
REMARK  status: ('A' for Active; 'I' for Inactive)
REMARK    1  A    between atoms: C4_4  and  O1_5 
REMARK    2  A    between atoms: C5_6  and  O2_7 
REMARK    3  A    between atoms: C8_11  and  C9_12 
REMARK    4  A    between atoms: C19_23  and  C20_24 
REMARK    5  A    between atoms: C26_32  and  O7_33 
ROOT
HETATM    1  C1  UNL     1       9.030  -0.415  -0.464  1.00  0.00     0.040 C 
HETATM    2  C2  UNL     1       7.708  -0.070   0.207  1.00  0.00     0.123 C 
HETATM    3  C3  UNL     1       7.287  -1.161   1.202  1.00  0.00     0.069 C 
HETATM    4  C4  UNL     1       5.761  -1.269   1.310  1.00  0.00     0.188 C 
HETATM    5  C5  UNL     1       5.089   0.115   1.115  1.00  0.00     0.240 C 
HETATM    6  O3  UNL     1       3.696   0.006   1.400  1.00  0.00    -0.341 OA
HETATM    7  C6  UNL     1       2.852   0.580   0.403  1.00  0.00     0.156 C 
HETATM    8  C7  UNL     1       1.414   0.191   0.766  1.00  0.00     0.056 C 
HETATM    9  C8  UNL     1       0.356   0.656  -0.262  1.00  0.00     0.043 C 
HETATM   10  C10 UNL     1       0.808   0.248  -1.663  1.00  0.00    -0.065 C 
HETATM   11  C11 UNL     1      -0.027  -0.309  -2.558  1.00  0.00    -0.022 C 
HETATM   12  C12 UNL     1      -1.484  -0.550  -2.317  1.00  0.00     0.035 C 
HETATM   13  C13 UNL     1      -2.050   0.164  -1.067  1.00  0.00     0.030 C 
HETATM   14  C14 UNL     1      -1.046   0.029   0.106  1.00  0.00     0.012 C 
HETATM   15  C15 UNL     1      -1.631   0.572   1.423  1.00  0.00     0.007 C 
HETATM   16  C16 UNL     1      -2.994  -0.028   1.741  1.00  0.00     0.013 C 
HETATM   17  C17 UNL     1      -4.045   0.204   0.620  1.00  0.00    -0.005 C 
HETATM   18  C18 UNL     1      -4.406   1.704   0.582  1.00  0.00     0.019 C 
HETATM   19  C19 UNL     1      -5.278  -0.737   0.910  1.00  0.00     0.028 C 
HETATM   20  C24 UNL     1      -5.045  -1.996   0.039  1.00  0.00     0.013 C 
HETATM   21  C25 UNL     1      -3.682  -1.830  -0.628  1.00  0.00     0.040 C 
HETATM   22  C26 UNL     1      -3.495  -0.311  -0.742  1.00  0.00     0.070 C 
HETATM   23  C27 UNL     1       2.247   0.526  -2.035  1.00  0.00     0.069 C 
HETATM   24  C28 UNL     1       3.248   0.060  -0.976  1.00  0.00     0.158 C 
HETATM   25  O8  UNL     1       4.529   0.561  -1.357  1.00  0.00    -0.347 OA
HETATM   26  C29 UNL     1       5.496   0.668  -0.311  1.00  0.00     0.325 C 
HETATM   27  O9  UNL     1       6.711   0.065  -0.805  1.00  0.00    -0.351 OA
ENDROOT
BRANCH  19  28
HETATM   28  C20 UNL     1      -6.654  -0.149   0.744  1.00  0.00    -0.045 A 
HETATM   29  C21 UNL     1      -7.363   0.040  -0.370  1.00  0.00     0.087 A 
HETATM   30  C22 UNL     1      -8.630   0.649   0.025  1.00  0.00     0.283 A 
HETATM   31  O5  UNL     1      -9.523   0.961  -0.741  1.00  0.00    -0.260 OA
HETATM   32  O6  UNL     1      -8.652   0.798   1.377  1.00  0.00    -0.314 OA
HETATM   33  C23 UNL     1      -7.423   0.322   1.920  1.00  0.00     0.213 A 
ENDBRANCH  19  28
BRANCH  22  34
HETATM   34  O7  UNL     1      -4.365   0.148  -1.786  1.00  0.00    -0.389 OA
HETATM   35  H34 UNL     1      -4.123  -0.296  -2.616  1.00  0.00     0.210 HD
ENDBRANCH  22  34
BRANCH   9  36
HETATM   36  C9  UNL     1       0.273   2.196  -0.187  1.00  0.00     0.245 C 
HETATM   37  O4  UNL     1       0.218   2.957  -1.149  1.00  0.00    -0.306 OA
ENDBRANCH   9  36
BRANCH   5  38
HETATM   38  O2  UNL     1       5.618   0.979   2.137  1.00  0.00    -0.360 OA
HETATM   39  H9  UNL     1       5.140   1.818   2.045  1.00  0.00     0.213 HD
ENDBRANCH   5  38
BRANCH   4  40
HETATM   40  O1  UNL     1       5.295  -2.229   0.343  1.00  0.00    -0.390 OA
HETATM   41  H8  UNL     1       5.679  -1.977  -0.519  1.00  0.00     0.210 HD
ENDBRANCH   4  40
TORSDOF 5
