REMARK  9 active torsions:
REMARK  status: ('A' for Active; 'I' for Inactive)
REMARK    1  A    between atoms: C4_4  and  C5_5 
REMARK    2  A    between atoms: C7_7  and  O1_9 
REMARK    3  A    between atoms: C20_21  and  O2_22 
REMARK    4  A    between atoms: O2_22  and  C21_23 
REMARK    5  A    between atoms: C22_25  and  C23_26 
REMARK    6  A    between atoms: C23_26  and  O4_27 
REMARK    7  A    between atoms: C24_28  and  O5_29 
REMARK    8  A    between atoms: C25_30  and  O6_31 
REMARK    9  A    between atoms: C26_32  and  O7_33 
ROOT
HETATM    1  C5  UNL     1       6.356   0.118   0.111  1.00  0.00     0.147 C 
HETATM    2  C6  UNL     1       5.827   1.058   1.220  1.00  0.00     0.074 C 
HETATM    3  C7  UNL     1       4.589   0.496   1.956  1.00  0.00     0.064 C 
HETATM    4  C8  UNL     1       4.018   1.558   2.899  1.00  0.00     0.046 C 
HETATM    5  C9  UNL     1       3.592   0.056   0.872  1.00  0.00     0.058 C 
HETATM    6  C10 UNL     1       4.301  -1.001  -0.008  1.00  0.00     0.131 C 
HETATM    7  C11 UNL     1       3.198  -1.698  -0.831  1.00  0.00     0.042 C 
HETATM    8  C12 UNL     1       1.870  -1.030  -0.374  1.00  0.00    -0.029 C 
HETATM    9  C13 UNL     1       1.684   0.165  -1.368  1.00  0.00     0.016 C 
HETATM   10  C14 UNL     1       0.614  -1.950  -0.335  1.00  0.00     0.014 C 
HETATM   11  C15 UNL     1       0.261  -2.612  -1.678  1.00  0.00     0.034 C 
HETATM   12  C16 UNL     1      -0.846  -1.960  -2.454  1.00  0.00    -0.022 C 
HETATM   13  C17 UNL     1      -1.614  -0.936  -2.040  1.00  0.00    -0.059 C 
HETATM   14  C18 UNL     1      -1.457  -0.353  -0.630  1.00  0.00     0.057 C 
HETATM   15  C19 UNL     1      -2.794   0.095  -0.059  1.00  0.00     0.024 C 
HETATM   16  C20 UNL     1      -3.984   0.096  -0.687  1.00  0.00     0.116 C 
HETATM   17  C27 UNL     1      -4.019  -0.363  -2.115  1.00  0.00     0.194 C 
HETATM   18  O8  UNL     1      -5.099  -0.706  -2.610  1.00  0.00    -0.289 OA
HETATM   19  C28 UNL     1      -2.711  -0.303  -2.919  1.00  0.00     0.044 C 
HETATM   20  C29 UNL     1      -2.941  -1.034  -4.259  1.00  0.00     0.028 C 
HETATM   21  C30 UNL     1      -2.386   1.165  -3.247  1.00  0.00     0.028 C 
HETATM   22  C31 UNL     1      -0.642  -1.280   0.354  1.00  0.00     0.032 C 
HETATM   23  C32 UNL     1      -1.546  -2.439   0.874  1.00  0.00     0.025 C 
HETATM   24  C33 UNL     1      -0.237  -0.430   1.597  1.00  0.00     0.137 C 
HETATM   25  O9  UNL     1      -1.015  -0.271   2.544  1.00  0.00    -0.297 OA
HETATM   26  C34 UNL     1       1.102   0.304   1.626  1.00  0.00     0.089 C 
HETATM   27  C35 UNL     1       2.218  -0.600   1.112  1.00  0.00    -0.021 C 
HETATM   28  C36 UNL     1       2.354  -1.781   2.125  1.00  0.00     0.017 C 
HETATM   29  O10 UNL     1       5.299  -0.330  -0.765  1.00  0.00    -0.376 OA
ENDROOT
BRANCH  16  30
HETATM   30  O2  UNL     1      -5.192   0.473  -0.163  1.00  0.00    -0.314 OA
BRANCH  30  31
HETATM   31  C21 UNL     1      -5.279   1.388   0.928  1.00  0.00     0.298 C 
HETATM   32  O3  UNL     1      -5.954   0.777   2.036  1.00  0.00    -0.348 OA
HETATM   33  C22 UNL     1      -7.283   0.306   1.753  1.00  0.00     0.179 C 
HETATM   34  C24 UNL     1      -8.017   1.148   0.693  1.00  0.00     0.180 C 
HETATM   35  C25 UNL     1      -7.509   2.585   0.782  1.00  0.00     0.183 C 
HETATM   36  C26 UNL     1      -6.025   2.653   0.431  1.00  0.00     0.205 C 
BRANCH  33  37
HETATM   37  C23 UNL     1      -7.270  -1.187   1.386  1.00  0.00     0.198 C 
BRANCH  37  38
HETATM   38  O4  UNL     1      -6.650  -1.982   2.392  1.00  0.00    -0.398 OA
HETATM   39  H32 UNL     1      -6.841  -1.592   3.260  1.00  0.00     0.209 HD
ENDBRANCH  37  38
ENDBRANCH  33  37
BRANCH  34  40
HETATM   40  O5  UNL     1      -9.430   1.152   0.923  1.00  0.00    -0.390 OA
HETATM   41  H34 UNL     1      -9.795   0.332   0.544  1.00  0.00     0.210 HD
ENDBRANCH  34  40
BRANCH  35  42
HETATM   42  O6  UNL     1      -8.239   3.437  -0.112  1.00  0.00    -0.390 OA
HETATM   43  H36 UNL     1      -9.178   3.314   0.139  1.00  0.00     0.210 HD
ENDBRANCH  35  42
BRANCH  36  44
HETATM   44  O7  UNL     1      -5.478   3.849   1.010  1.00  0.00    -0.388 OA
HETATM   45  H38 UNL     1      -6.045   4.573   0.680  1.00  0.00     0.210 HD
ENDBRANCH  36  44
ENDBRANCH  30  31
ENDBRANCH  16  30
BRANCH   3  46
HETATM   46  O1  UNL     1       5.011  -0.612   2.751  1.00  0.00    -0.390 OA
HETATM   47  H14 UNL     1       5.586  -0.277   3.463  1.00  0.00     0.210 HD
ENDBRANCH   3  46
BRANCH   1  48
HETATM   48  C4  UNL     1       7.352   0.844  -0.753  1.00  0.00     0.007 C 
HETATM   49  C2  UNL     1       8.691   0.680  -0.812  1.00  0.00    -0.089 C 
HETATM   50  C1  UNL     1       9.515   1.517  -1.757  1.00  0.00     0.042 C 
HETATM   51  C3  UNL     1       9.489  -0.295   0.005  1.00  0.00     0.042 C 
ENDBRANCH   1  48
TORSDOF 9
