REMARK  6 active torsions:
REMARK  status: ('A' for Active; 'I' for Inactive)
REMARK    1  A    between atoms: C3_3  and  C4_4 
REMARK    2  A    between atoms: C4_4  and  O2_6 
REMARK    3  A    between atoms: O2_6  and  C5_7 
REMARK    4  A    between atoms: C5_7  and  C6_8 
REMARK    5  A    between atoms: C6_8  and  C7_9 
REMARK    6  A    between atoms: C13_15  and  C14_16 
ROOT
HETATM    1  C1  UNL     1       1.458  -2.595  -1.775  1.00  0.00     0.069 C 
HETATM    2  C2  UNL     1       0.143  -2.376  -1.073  1.00  0.00     0.018 A 
HETATM    3  C3  UNL     1      -0.035  -1.565  -0.004  1.00  0.00     0.052 A 
HETATM    4  C13 UNL     1      -1.389  -1.433   0.689  1.00  0.00     0.104 A 
HETATM    5  C23 UNL     1      -2.452  -2.339   0.079  1.00  0.00     0.024 A 
HETATM    6  C24 UNL     1      -2.196  -3.097  -1.007  1.00  0.00     0.020 A 
HETATM    7  C25 UNL     1      -3.245  -3.945  -1.682  1.00  0.00     0.058 C 
HETATM    8  C26 UNL     1      -4.655  -3.465  -1.361  1.00  0.00     0.014 C 
HETATM    9  C27 UNL     1      -4.845  -3.310   0.138  1.00  0.00     0.084 C 
HETATM   10  C28 UNL     1      -3.783  -2.420   0.744  1.00  0.00     0.158 C 
HETATM   11  O5  UNL     1      -3.986  -1.831   1.805  1.00  0.00    -0.293 OA
HETATM   12  N1  UNL     1      -0.930  -3.106  -1.562  1.00  0.00    -0.362 N 
HETATM   13  H24 UNL     1      -0.788  -3.639  -2.416  1.00  0.00     0.165 HD
ENDROOT
BRANCH   4  14
HETATM   14  C14 UNL     1      -1.834   0.020   0.758  1.00  0.00     0.029 A 
HETATM   15  C15 UNL     1      -1.885   0.711   1.908  1.00  0.00     0.154 A 
HETATM   16  O3  UNL     1      -2.261   2.020   2.070  1.00  0.00    -0.321 OA
HETATM   17  C16 UNL     1      -2.629   2.718   0.950  1.00  0.00     0.089 A 
HETATM   18  C17 UNL     1      -3.005   4.050   1.123  1.00  0.00     0.040 A 
HETATM   19  C21 UNL     1      -2.636   2.149  -0.321  1.00  0.00     0.050 A 
HETATM   20  C18 UNL     1      -3.388   4.811   0.016  1.00  0.00     0.026 A 
HETATM   21  C19 UNL     1      -3.393   4.236  -1.256  1.00  0.00     0.035 A 
HETATM   22 CL1  UNL     1      -3.865   5.179  -2.614  1.00  0.00    -0.084 Cl
HETATM   23  C20 UNL     1      -3.019   2.906  -1.434  1.00  0.00     0.042 A 
HETATM   24  C22 UNL     1      -2.236   0.740  -0.476  1.00  0.00     0.194 A 
HETATM   25  O4  UNL     1      -2.244   0.212  -1.581  1.00  0.00    -0.287 OA
ENDBRANCH   4  14
BRANCH   3  26
HETATM   26  C4  UNL     1       1.052  -0.769   0.603  1.00  0.00     0.292 C 
HETATM   27  O1  UNL     1       1.266  -0.737   1.806  1.00  0.00    -0.259 OA
BRANCH  26  28
HETATM   28  O2  UNL     1       1.684  -0.034  -0.343  1.00  0.00    -0.317 OA
BRANCH  28  29
HETATM   29  C5  UNL     1       2.691   0.869   0.143  1.00  0.00     0.183 C 
BRANCH  29  30
HETATM   30  C6  UNL     1       4.020   0.139   0.329  1.00  0.00     0.065 C 
BRANCH  30  31
HETATM   31  C7  UNL     1       5.122   1.079   0.740  1.00  0.00    -0.056 A 
HETATM   32  C8  UNL     1       5.982   1.632  -0.217  1.00  0.00     0.007 A 
HETATM   33  C9  UNL     1       6.987   2.521   0.165  1.00  0.00     0.001 A 
HETATM   34  C10 UNL     1       7.139   2.868   1.506  1.00  0.00     0.000 A 
HETATM   35  C11 UNL     1       6.287   2.326   2.467  1.00  0.00     0.001 A 
HETATM   36  C12 UNL     1       5.282   1.436   2.086  1.00  0.00     0.007 A 
ENDBRANCH  30  31
ENDBRANCH  29  30
ENDBRANCH  28  29
ENDBRANCH  26  28
ENDBRANCH   3  26
TORSDOF 6
