REMARK  7 active torsions:
REMARK  status: ('A' for Active; 'I' for Inactive)
REMARK    1  A    between atoms: C2_2  and  C4_4 
REMARK    2  A    between atoms: C7_7  and  C8_8 
REMARK    3  A    between atoms: C8_8  and  O2_10 
REMARK    4  A    between atoms: C15_17  and  O3_18 
REMARK    5  A    between atoms: C21_24  and  O4_25 
REMARK    6  A    between atoms: C22_26  and  C24_28 
REMARK    7  A    between atoms: C24_28  and  O5_29 
ROOT
HETATM    1  C4  UNL     1      -4.410  -0.861   0.326  1.00  0.00     0.019 C 
HETATM    2  C5  UNL     1      -5.776  -0.134   0.189  1.00  0.00     0.011 C 
HETATM    3  C6  UNL     1      -5.480   1.256  -0.400  1.00  0.00     0.021 C 
HETATM    4  C7  UNL     1      -4.012   1.504  -0.041  1.00  0.00     0.050 C 
HETATM    5  C9  UNL     1      -3.289   2.542  -0.903  1.00  0.00     0.022 C 
HETATM    6  C10 UNL     1      -1.785   2.540  -0.571  1.00  0.00     0.011 C 
HETATM    7  C11 UNL     1      -1.060   1.148  -0.723  1.00  0.00    -0.032 C 
HETATM    8  C12 UNL     1      -1.040   0.886  -2.265  1.00  0.00     0.016 C 
HETATM    9  C13 UNL     1      -1.901   0.034  -0.001  1.00  0.00     0.003 C 
HETATM   10  C14 UNL     1      -1.326  -1.356  -0.298  1.00  0.00     0.038 C 
HETATM   11  C15 UNL     1       0.199  -1.458  -0.172  1.00  0.00     0.124 C 
HETATM   12  C16 UNL     1       0.869  -0.267   0.557  1.00  0.00     0.032 C 
HETATM   13  C17 UNL     1       2.455  -0.482   0.846  1.00  0.00    -0.033 C 
HETATM   14  C18 UNL     1       2.803   0.246   2.181  1.00  0.00     0.016 C 
HETATM   15  C19 UNL     1       2.789  -1.989   1.089  1.00  0.00     0.012 C 
HETATM   16  C20 UNL     1       4.283  -2.306   1.203  1.00  0.00     0.033 C 
HETATM   17  C21 UNL     1       5.075  -1.802  -0.001  1.00  0.00     0.128 C 
HETATM   18  C22 UNL     1       4.870  -0.287  -0.312  1.00  0.00     0.007 C 
HETATM   19  C23 UNL     1       5.622   0.555   0.741  1.00  0.00     0.020 C 
HETATM   20  C25 UNL     1       3.316   0.028  -0.371  1.00  0.00     0.007 C 
HETATM   21  C26 UNL     1       2.964   1.485  -0.717  1.00  0.00     0.007 C 
HETATM   22  C27 UNL     1       1.501   1.597  -1.138  1.00  0.00     0.011 C 
HETATM   23  C28 UNL     1       0.462   1.151  -0.078  1.00  0.00    -0.030 C 
HETATM   24  C29 UNL     1       0.514   2.204   1.071  1.00  0.00     0.016 C 
HETATM   25  C30 UNL     1      -3.411   0.115  -0.346  1.00  0.00     0.017 C 
ENDROOT
BRANCH   4  26
HETATM   26  C8  UNL     1      -3.964   1.934   1.434  1.00  0.00     0.149 C 
HETATM   27  O1  UNL     1      -3.517   1.309   2.380  1.00  0.00    -0.649 OA
BRANCH  26  28
HETATM   28  O2  UNL     1      -4.513   3.149   1.644  1.00  0.00    -0.776 OA
HETATM   29  H11 UNL     1      -4.418   3.288   2.609  1.00  0.00     0.167 HD
ENDBRANCH  26  28
ENDBRANCH   4  26
BRANCH   1  30
HETATM   30  C2  UNL     1      -4.516  -2.288  -0.188  1.00  0.00    -0.088 C 
HETATM   31  C1  UNL     1      -4.368  -2.652  -1.474  1.00  0.00     0.014 C 
HETATM   32  C3  UNL     1      -4.841  -3.319   0.862  1.00  0.00     0.043 C 
ENDBRANCH   1  30
BRANCH  11  33
HETATM   33  O3  UNL     1       0.799  -1.675  -1.445  1.00  0.00    -0.395 OA
HETATM   34  H23 UNL     1       0.340  -2.424  -1.863  1.00  0.00     0.210 HD
ENDBRANCH  11  33
BRANCH  18  35
HETATM   35  C24 UNL     1       5.539  -0.023  -1.703  1.00  0.00     0.176 C 
BRANCH  35  36
HETATM   36  O5  UNL     1       5.804   1.353  -1.957  1.00  0.00    -0.400 OA
HETATM   37  H39 UNL     1       6.604   1.595  -1.461  1.00  0.00     0.209 HD
ENDBRANCH  35  36
ENDBRANCH  18  35
BRANCH  17  38
HETATM   38  O4  UNL     1       4.743  -2.615  -1.132  1.00  0.00    -0.395 OA
HETATM   39  H33 UNL     1       3.804  -2.477  -1.353  1.00  0.00     0.210 HD
ENDBRANCH  17  38
TORSDOF 7
