REMARK  9 active torsions:
REMARK  status: ('A' for Active; 'I' for Inactive)
REMARK    1  A    between atoms: C2_2  and  C3_3 
REMARK    2  A    between atoms: C2_2  and  C9_12 
REMARK    3  A    between atoms: C3_3  and  C4_4 
REMARK    4  A    between atoms: C4_4  and  O1_5 
REMARK    5  A    between atoms: C4_4  and  C5_6 
REMARK    6  A    between atoms: C5_6  and  O2_7 
REMARK    7  A    between atoms: C5_6  and  C6_8 
REMARK    8  A    between atoms: C6_8  and  O3_11 
REMARK    9  A    between atoms: C16_19  and  O4_20 
ROOT
HETATM    1  C9  UNL     1       1.897  -2.288   1.145  1.00  0.00     0.097 A 
HETATM    2  C10 UNL     1       1.510  -3.362   0.154  1.00  0.00     0.042 C 
HETATM    3  C11 UNL     1       0.311  -2.764  -0.607  1.00  0.00     0.016 C 
HETATM    4  C12 UNL     1      -0.464  -1.885   0.430  1.00  0.00    -0.002 C 
HETATM    5  C13 UNL     1      -1.371  -2.863   1.239  1.00  0.00     0.019 C 
HETATM    6  C14 UNL     1       0.678  -1.371   1.332  1.00  0.00     0.104 A 
HETATM    7  C15 UNL     1       0.801   0.073   1.712  1.00  0.00     0.074 C 
HETATM    8  C16 UNL     1      -0.487   0.922   1.664  1.00  0.00     0.126 C 
HETATM    9  C17 UNL     1      -1.720   0.259   0.994  1.00  0.00     0.032 C 
HETATM   10  C18 UNL     1      -2.996   1.192   0.713  1.00  0.00    -0.032 C 
HETATM   11  C19 UNL     1      -3.368   1.940   2.025  1.00  0.00     0.016 C 
HETATM   12  C20 UNL     1      -2.718   2.238  -0.382  1.00  0.00     0.017 C 
HETATM   13  C21 UNL     1      -3.888   3.157  -0.650  1.00  0.00     0.080 C 
HETATM   14  C22 UNL     1      -5.025   2.355  -1.206  1.00  0.00     0.135 C 
HETATM   15  O5  UNL     1      -5.719   2.845  -2.105  1.00  0.00    -0.297 OA
HETATM   16  C23 UNL     1      -5.398   1.013  -0.548  1.00  0.00     0.017 C 
HETATM   17  C24 UNL     1      -5.961   0.122  -1.680  1.00  0.00     0.023 C 
HETATM   18  C25 UNL     1      -6.593   1.339   0.383  1.00  0.00     0.023 C 
HETATM   19  C26 UNL     1      -4.248   0.303   0.303  1.00  0.00     0.009 C 
HETATM   20  C27 UNL     1      -3.814  -1.107  -0.178  1.00  0.00     0.007 C 
HETATM   21  C28 UNL     1      -2.532  -1.119  -1.000  1.00  0.00     0.011 C 
HETATM   22  C29 UNL     1      -1.277  -0.660  -0.206  1.00  0.00    -0.027 C 
HETATM   23  C30 UNL     1      -0.364   0.081  -1.229  1.00  0.00     0.016 C 
HETATM   24  O6  UNL     1       1.081  -2.303   2.335  1.00  0.00    -0.362 OA
ENDROOT
BRANCH   1  25
HETATM   25  C2  UNL     1       3.365  -2.132   1.509  1.00  0.00     0.022 C 
HETATM   26  C1  UNL     1       3.664  -1.204   2.693  1.00  0.00     0.013 C 
BRANCH  25  27
HETATM   27  C3  UNL     1       4.312  -1.818   0.325  1.00  0.00     0.041 C 
BRANCH  27  28
HETATM   28  C4  UNL     1       4.073  -0.473  -0.375  1.00  0.00     0.150 C 
BRANCH  28  29
HETATM   29  O1  UNL     1       2.956  -0.627  -1.263  1.00  0.00    -0.393 OA
HETATM   30  H8  UNL     1       3.291  -1.213  -1.974  1.00  0.00     0.210 HD
ENDBRANCH  28  29
BRANCH  28  31
HETATM   31  C5  UNL     1       5.284  -0.039  -1.240  1.00  0.00     0.180 C 
BRANCH  31  32
HETATM   32  O2  UNL     1       5.290  -0.931  -2.376  1.00  0.00    -0.390 OA
HETATM   33  H10 UNL     1       6.126  -0.794  -2.857  1.00  0.00     0.210 HD
ENDBRANCH  31  32
BRANCH  31  34
HETATM   34  C6  UNL     1       5.203   1.457  -1.701  1.00  0.00     0.079 C 
HETATM   35  C7  UNL     1       5.467   2.404  -0.523  1.00  0.00     0.048 C 
HETATM   36  C8  UNL     1       6.209   1.759  -2.817  1.00  0.00     0.048 C 
BRANCH  34  37
HETATM   37  O3  UNL     1       3.913   1.793  -2.218  1.00  0.00    -0.388 OA
HETATM   38  H17 UNL     1       3.410   0.960  -2.342  1.00  0.00     0.210 HD
ENDBRANCH  34  37
ENDBRANCH  31  34
ENDBRANCH  28  31
ENDBRANCH  27  28
ENDBRANCH  25  27
ENDBRANCH   1  25
BRANCH   8  39
HETATM   39  O4  UNL     1      -0.825   1.261   3.016  1.00  0.00    -0.395 OA
HETATM   40  H28 UNL     1      -0.075   1.752   3.396  1.00  0.00     0.210 HD
ENDBRANCH   8  39
TORSDOF 9
