REMARK  12 active torsions:
REMARK  status: ('A' for Active; 'I' for Inactive)
REMARK    1  A    between atoms: N1_6  and  O1_8 
REMARK    2  A    between atoms: O1_8  and  C6_9 
REMARK    3  A    between atoms: C6_9  and  C7_10 
REMARK       I    between atoms: C7_10  and  N2_12 
REMARK    4  A    between atoms: N2_12  and  C8_13 
REMARK    5  A    between atoms: C8_13  and  C9_14 
REMARK    6  A    between atoms: C12_17  and  C13_18 
REMARK    7  A    between atoms: C13_18  and  O4_20 
REMARK    8  A    between atoms: C22_29  and  O5_30 
REMARK    9  A    between atoms: C29_37  and  O6_38 
REMARK   10  A    between atoms: C29_37  and  C30_39 
REMARK   11  A    between atoms: C30_39  and  C31_41 
REMARK   12  A    between atoms: C31_41  and  O8_42 
ROOT
HETATM    1  C1  UNL     1      -0.440   1.899  -1.157  1.00  0.00     0.020 C 
HETATM    2  C2  UNL     1      -0.674   0.384  -0.971  1.00  0.00    -0.014 C 
HETATM    3  C3  UNL     1       0.386  -0.171   0.027  1.00  0.00     0.020 C 
HETATM    4  C4  UNL     1       1.787  -0.291  -0.561  1.00  0.00     0.060 C 
HETATM    5  C5  UNL     1       1.749  -1.155  -1.803  1.00  0.00     0.032 C 
HETATM    6  N1  UNL     1       2.686  -1.979  -2.171  1.00  0.00    -0.271 N 
ATOM      7  H1  UNL     1       2.635  -2.558  -3.009  1.00  0.00     0.194 HD
HETATM    8  C16 UNL     1       0.573  -1.009  -2.697  1.00  0.00     0.030 C 
HETATM    9  C17 UNL     1      -0.499  -0.278  -2.345  1.00  0.00    -0.069 C 
HETATM   10  C18 UNL     1      -1.609  -0.050  -3.342  1.00  0.00     0.035 C 
HETATM   11  C19 UNL     1      -2.966  -0.429  -2.768  1.00  0.00     0.010 C 
HETATM   12  C20 UNL     1      -3.253   0.298  -1.444  1.00  0.00    -0.002 C 
HETATM   13  C21 UNL     1      -2.111   0.026  -0.414  1.00  0.00     0.031 C 
HETATM   14  C22 UNL     1      -2.445   0.593   0.996  1.00  0.00     0.124 C 
HETATM   15  C23 UNL     1      -3.856   0.206   1.492  1.00  0.00     0.045 C 
HETATM   16  C24 UNL     1      -4.977   0.517   0.474  1.00  0.00     0.001 C 
HETATM   17  C25 UNL     1      -5.167   2.049   0.314  1.00  0.00     0.019 C 
HETATM   18  C26 UNL     1      -4.583  -0.187  -0.847  1.00  0.00     0.002 C 
HETATM   19  C27 UNL     1      -5.840  -0.079  -1.700  1.00  0.00     0.009 C 
HETATM   20  C28 UNL     1      -6.992  -0.246  -0.693  1.00  0.00     0.047 C 
HETATM   21  C29 UNL     1      -6.367  -0.155   0.732  1.00  0.00     0.128 C 
ENDROOT
BRANCH   6  22
HETATM   22  O1  UNL     1       3.772  -1.981  -1.287  1.00  0.00    -0.271 OA
BRANCH  22  23
HETATM   23  C6  UNL     1       4.548  -3.155  -1.516  1.00  0.00     0.303 C 
BRANCH  23  24
HETATM   24  C7  UNL     1       6.022  -2.892  -1.237  1.00  0.00     0.244 C 
HETATM   25  O2  UNL     1       6.773  -3.760  -0.800  1.00  0.00    -0.271 OA
HETATM   26  N2  UNL     1       6.445  -1.626  -1.588  1.00  0.00    -0.355 N 
HETATM   27  H10 UNL     1       5.721  -0.936  -1.751  1.00  0.00     0.162 HD
BRANCH  26  28
HETATM   28  C8  UNL     1       7.795  -1.176  -1.354  1.00  0.00     0.161 C 
BRANCH  28  29
HETATM   29  C9  UNL     1       7.899  -0.411  -0.060  1.00  0.00    -0.040 A 
HETATM   30  C10 UNL     1       8.027  -1.099   1.156  1.00  0.00     0.010 A 
HETATM   31  C11 UNL     1       8.111  -0.400   2.362  1.00  0.00     0.019 A 
HETATM   32  C12 UNL     1       8.064   0.999   2.367  1.00  0.00     0.037 A 
HETATM   33  C14 UNL     1       7.927   1.691   1.159  1.00  0.00     0.019 A 
HETATM   34  C15 UNL     1       7.840   0.989  -0.047  1.00  0.00     0.010 A 
BRANCH  32  35
HETATM   35  C13 UNL     1       8.161   1.700   3.670  1.00  0.00     0.176 C 
HETATM   36  O3  UNL     1       8.248   1.171   4.763  1.00  0.00    -0.646 OA
BRANCH  35  37
HETATM   37  O4  UNL     1       8.150   3.039   3.544  1.00  0.00    -0.773 OA
HETATM   38  H15 UNL     1       8.228   3.359   4.467  1.00  0.00     0.167 HD
ENDBRANCH  35  37
ENDBRANCH  32  35
ENDBRANCH  28  29
ENDBRANCH  26  28
ENDBRANCH  23  24
ENDBRANCH  22  23
ENDBRANCH   6  22
BRANCH  14  39
HETATM   39  O5  UNL     1      -2.311   2.006   1.030  1.00  0.00    -0.395 OA
HETATM   40  H26 UNL     1      -2.358   2.286   1.961  1.00  0.00     0.210 HD
ENDBRANCH  14  39
BRANCH  21  41
HETATM   41  O6  UNL     1      -6.202  -1.511   1.172  1.00  0.00    -0.381 OA
HETATM   42  H37 UNL     1      -5.894  -1.489   2.100  1.00  0.00     0.211 HD
ENDBRANCH  21  41
BRANCH  21  43
HETATM   43  C30 UNL     1      -7.303   0.600   1.714  1.00  0.00     0.184 C 
HETATM   44  O7  UNL     1      -8.320   1.196   1.353  1.00  0.00    -0.292 OA
BRANCH  43  45
HETATM   45  C31 UNL     1      -6.901   0.621   3.187  1.00  0.00     0.245 C 
BRANCH  45  46
HETATM   46  O8  UNL     1      -6.528  -0.655   3.683  1.00  0.00    -0.393 OA
HETATM   47  H40 UNL     1      -7.356  -1.165   3.777  1.00  0.00     0.209 HD
ENDBRANCH  45  46
ENDBRANCH  43  45
ENDBRANCH  21  43
TORSDOF 12
