REMARK  7 active torsions:
REMARK  status: ('A' for Active; 'I' for Inactive)
REMARK    1  A    between atoms: N1_2  and  C2_3 
REMARK    2  A    between atoms: C2_3  and  C3_4 
REMARK    3  A    between atoms: C3_4  and  O1_5 
REMARK    4  A    between atoms: O1_5  and  C4_6 
REMARK    5  A    between atoms: C4_6  and  C5_8 
REMARK    6  A    between atoms: C19_23  and  C21_25 
REMARK    7  A    between atoms: C21_25  and  O5_27 
ROOT
HETATM    1  C5  UNL     1       3.596  -1.764  -0.957  1.00  0.00     0.085 C 
HETATM    2  C6  UNL     1       2.347  -2.085  -0.563  1.00  0.00    -0.070 C 
HETATM    3  C7  UNL     1       1.378  -2.693  -1.551  1.00  0.00     0.035 C 
HETATM    4  C8  UNL     1       0.145  -1.798  -1.676  1.00  0.00     0.010 C 
HETATM    5  C9  UNL     1      -0.535  -1.498  -0.317  1.00  0.00     0.006 C 
HETATM    6  C10 UNL     1       0.497  -0.976   0.712  1.00  0.00     0.068 C 
HETATM    7  C11 UNL     1      -0.164  -0.805   2.075  1.00  0.00     0.132 C 
HETATM    8  O3  UNL     1       0.488  -0.733   3.118  1.00  0.00    -0.298 OA
HETATM    9  C12 UNL     1      -1.673  -0.699   2.104  1.00  0.00     0.085 C 
HETATM   10  C13 UNL     1      -2.125   0.185   0.929  1.00  0.00     0.019 C 
HETATM   11  C14 UNL     1      -1.829  -0.568  -0.436  1.00  0.00    -0.034 C 
HETATM   12  C15 UNL     1      -1.643   0.489  -1.553  1.00  0.00     0.016 C 
HETATM   13  C16 UNL     1      -3.009  -1.503  -0.824  1.00  0.00     0.010 C 
HETATM   14  C17 UNL     1      -4.379  -0.851  -0.749  1.00  0.00     0.002 C 
HETATM   15  C18 UNL     1      -4.640  -0.296   0.643  1.00  0.00     0.020 C 
HETATM   16  C19 UNL     1      -3.593   0.746   1.091  1.00  0.00     0.049 C 
HETATM   17  C20 UNL     1      -3.934   1.142   2.548  1.00  0.00     0.026 C 
HETATM   18  C23 UNL     1       1.756  -1.876   0.825  1.00  0.00     0.022 C 
HETATM   19  C24 UNL     1       1.503  -3.241   1.492  1.00  0.00     0.015 C 
ENDROOT
BRANCH   1  20
HETATM   20  C4  UNL     1       4.664  -1.097  -0.182  1.00  0.00     0.283 C 
HETATM   21  O2  UNL     1       5.843  -1.385  -0.311  1.00  0.00    -0.260 OA
BRANCH  20  22
HETATM   22  O1  UNL     1       4.160  -0.085   0.559  1.00  0.00    -0.316 OA
BRANCH  22  23
HETATM   23  C3  UNL     1       5.122   0.685   1.299  1.00  0.00     0.209 C 
BRANCH  23  24
HETATM   24  C2  UNL     1       5.800   1.747   0.419  1.00  0.00     0.295 C 
BRANCH  24  25
HETATM   25  N1  UNL     1       5.007   2.968   0.191  1.00  0.00     0.081 N 
HETATM   26  C1  UNL     1       3.788   2.717  -0.566  1.00  0.00     0.306 C 
HETATM   27  H4  UNL     1       5.583   3.629  -0.330  1.00  0.00     0.315 HD
ENDBRANCH  24  25
ENDBRANCH  23  24
ENDBRANCH  22  23
ENDBRANCH  20  22
ENDBRANCH   1  20
BRANCH  16  28
HETATM   28  C21 UNL     1      -3.794   2.059   0.305  1.00  0.00     0.267 C 
HETATM   29  O4  UNL     1      -4.736   2.291  -0.443  1.00  0.00    -0.264 OA
BRANCH  28  30
HETATM   30  O5  UNL     1      -2.804   2.955   0.584  1.00  0.00    -0.326 OA
HETATM   31  C22 UNL     1      -2.939   4.208  -0.088  1.00  0.00     0.213 C 
ENDBRANCH  28  30
ENDBRANCH  16  28
TORSDOF 7
