REMARK  11 active torsions:
REMARK  status: ('A' for Active; 'I' for Inactive)
REMARK    1  A    between atoms: C2_2  and  C4_4 
REMARK    2  A    between atoms: C4_4  and  C6_6 
REMARK    3  A    between atoms: C7_7  and  C8_8 
REMARK    4  A    between atoms: C8_8  and  C10_10 
REMARK    5  A    between atoms: C24_24  and  O1_25 
REMARK    6  A    between atoms: O1_25  and  C25_26 
REMARK    7  A    between atoms: C26_28  and  C27_29 
REMARK    8  A    between atoms: C27_29  and  O3_30 
REMARK    9  A    between atoms: C28_31  and  O4_32 
REMARK   10  A    between atoms: C29_33  and  O5_34 
REMARK   11  A    between atoms: C30_35  and  O6_36 
ROOT
HETATM    1  C10 UNL     1       3.842  -0.702   1.587  1.00  0.00     0.001 C 
HETATM    2  C11 UNL     1       4.074   0.793   1.931  1.00  0.00     0.006 C 
HETATM    3  C12 UNL     1       2.706   1.489   1.780  1.00  0.00     0.009 C 
HETATM    4  C13 UNL     1       1.739   0.350   1.473  1.00  0.00     0.036 C 
HETATM    5  C14 UNL     1       2.584  -0.665   0.663  1.00  0.00    -0.033 C 
HETATM    6  C15 UNL     1       2.917  -0.213  -0.773  1.00  0.00     0.016 C 
HETATM    7  C16 UNL     1       1.796  -1.986   0.612  1.00  0.00     0.010 C 
HETATM    8  C17 UNL     1       0.394  -1.793   0.002  1.00  0.00     0.010 C 
HETATM    9  C18 UNL     1      -0.431  -0.698   0.719  1.00  0.00     0.039 C 
HETATM   10  C19 UNL     1       0.342   0.654   0.920  1.00  0.00     0.123 C 
HETATM   11  C20 UNL     1       0.251   1.571  -0.272  1.00  0.00     0.014 C 
HETATM   12  C21 UNL     1      -1.008   1.868  -0.625  1.00  0.00     0.014 C 
HETATM   13  C22 UNL     1      -2.057   1.157   0.208  1.00  0.00     0.124 C 
HETATM   14  C23 UNL     1      -3.479   1.613  -0.144  1.00  0.00     0.078 C 
HETATM   15  C24 UNL     1      -4.576   0.778   0.532  1.00  0.00     0.128 C 
HETATM   16  C31 UNL     1      -4.058  -0.276   1.510  1.00  0.00     0.033 C 
HETATM   17  C32 UNL     1      -2.963  -1.163   0.908  1.00  0.00     0.015 C 
HETATM   18  C33 UNL     1      -1.864  -0.396   0.105  1.00  0.00     0.001 C 
HETATM   19  C34 UNL     1      -1.983  -0.858  -1.374  1.00  0.00     0.019 C 
HETATM   20  O7  UNL     1      -1.816   1.535   1.591  1.00  0.00    -0.223 OA
HETATM   21  O8  UNL     1      -0.378   1.371   1.962  1.00  0.00    -0.224 OA
ENDROOT
BRANCH  15  22
HETATM   22  O1  UNL     1      -5.310   0.081  -0.488  1.00  0.00    -0.353 OA
BRANCH  22  23
HETATM   23  C25 UNL     1      -6.631   0.598  -0.690  1.00  0.00     0.292 C 
HETATM   24  O2  UNL     1      -7.411   0.335   0.480  1.00  0.00    -0.348 OA
HETATM   25  C26 UNL     1      -8.752   0.819   0.382  1.00  0.00     0.179 C 
HETATM   26  C28 UNL     1      -9.488   0.071  -0.737  1.00  0.00     0.180 C 
HETATM   27  C29 UNL     1      -8.734   0.236  -2.054  1.00  0.00     0.183 C 
HETATM   28  C30 UNL     1      -7.249  -0.111  -1.918  1.00  0.00     0.204 C 
BRANCH  25  29
HETATM   29  C27 UNL     1      -9.456   0.603   1.732  1.00  0.00     0.198 C 
BRANCH  29  30
HETATM   30  O3  UNL     1     -10.725   1.250   1.780  1.00  0.00    -0.398 OA
HETATM   31  H41 UNL     1     -11.146   1.130   0.899  1.00  0.00     0.209 HD
ENDBRANCH  29  30
ENDBRANCH  25  29
BRANCH  26  32
HETATM   32  O4  UNL     1     -10.828   0.556  -0.883  1.00  0.00    -0.390 OA
HETATM   33  H43 UNL     1     -11.154   0.200  -1.737  1.00  0.00     0.210 HD
ENDBRANCH  26  32
BRANCH  27  34
HETATM   34  O5  UNL     1      -9.346  -0.596  -3.061  1.00  0.00    -0.390 OA
HETATM   35  H45 UNL     1      -9.178  -1.529  -2.833  1.00  0.00     0.210 HD
ENDBRANCH  27  34
BRANCH  28  36
HETATM   36  O6  UNL     1      -6.586   0.261  -3.136  1.00  0.00    -0.388 OA
HETATM   37  H47 UNL     1      -7.138  -0.068  -3.870  1.00  0.00     0.210 HD
ENDBRANCH  28  36
ENDBRANCH  22  23
ENDBRANCH  15  22
BRANCH   1  38
HETATM   38  C8  UNL     1       5.099  -1.499   1.152  1.00  0.00     0.008 C 
HETATM   39  C9  UNL     1       5.988  -1.783   2.374  1.00  0.00     0.014 C 
BRANCH  38  40
HETATM   40  C7  UNL     1       5.901  -0.927  -0.002  1.00  0.00    -0.026 C 
HETATM   41  C6  UNL     1       6.967  -0.113   0.082  1.00  0.00    -0.026 C 
BRANCH  41  42
HETATM   42  C4  UNL     1       7.758   0.377  -1.117  1.00  0.00     0.007 C 
HETATM   43  C5  UNL     1       7.546   1.890  -1.247  1.00  0.00     0.014 C 
BRANCH  42  44
HETATM   44  C2  UNL     1       9.260  -0.002  -0.993  1.00  0.00    -0.015 C 
HETATM   45  C1  UNL     1       9.456  -1.522  -0.909  1.00  0.00     0.010 C 
HETATM   46  C3  UNL     1      10.092   0.532  -2.165  1.00  0.00     0.010 C 
ENDBRANCH  42  44
ENDBRANCH  41  42
ENDBRANCH  38  40
ENDBRANCH   1  38
TORSDOF 11
