REMARK  14 active torsions:
REMARK  status: ('A' for Active; 'I' for Inactive)
REMARK    1  A    between atoms: C2_2  and  C3_3 
REMARK    2  A    between atoms: C3_3  and  C4_4 
REMARK    3  A    between atoms: C7_7  and  C9_9 
REMARK    4  A    between atoms: C10_11  and  C11_12 
REMARK    5  A    between atoms: C12_14  and  O3_15 
REMARK    6  A    between atoms: C12_14  and  C13_16 
REMARK    7  A    between atoms: C13_16  and  O4_17 
REMARK    8  A    between atoms: C26_31  and  O6_32 
REMARK    9  A    between atoms: C29_35  and  C30_36 
REMARK   10  A    between atoms: C30_36  and  C32_38 
REMARK   11  A    between atoms: C32_38  and  O7_39 
REMARK   12  A    between atoms: C32_38  and  C34_41 
REMARK   13  A    between atoms: C34_41  and  C36_43 
REMARK   14  A    between atoms: C36_43  and  O9_45 
ROOT
HETATM    1  C3  UNL     1      -1.124  -0.281   1.448  1.00  0.00     0.090 C 
HETATM    2  C22 UNL     1      -1.071  -1.696   2.038  1.00  0.00     0.046 C 
HETATM    3  C23 UNL     1      -2.524  -2.097   2.112  1.00  0.00     0.072 C 
HETATM    4  C24 UNL     1      -3.164  -1.344   0.942  1.00  0.00     0.168 C 
HETATM    5  C25 UNL     1      -3.488  -2.257  -0.245  1.00  0.00     0.100 C 
HETATM    6  C26 UNL     1      -4.879  -2.842  -0.075  1.00  0.00     0.129 C 
HETATM    7  C27 UNL     1      -5.954  -1.731   0.038  1.00  0.00     0.040 C 
HETATM    8  C28 UNL     1      -7.029  -2.222   1.022  1.00  0.00     0.015 C 
HETATM    9  C29 UNL     1      -5.305  -0.386   0.452  1.00  0.00     0.137 C 
HETATM   10  O10 UNL     1      -4.333  -0.702   1.460  1.00  0.00    -0.349 OA
HETATM   11  O11 UNL     1      -2.212  -0.359   0.504  1.00  0.00    -0.341 OA
ENDROOT
BRANCH   1  12
HETATM   12  C2  UNL     1      -1.495   0.747   2.553  1.00  0.00     0.036 C 
HETATM   13  C1  UNL     1      -1.681   2.181   2.079  1.00  0.00     0.008 C 
ENDBRANCH   1  12
BRANCH   1  14
HETATM   14  C4  UNL     1       0.201   0.114   0.741  1.00  0.00     0.157 C 
HETATM   15  C5  UNL     1       0.095   1.053  -0.450  1.00  0.00     0.038 C 
HETATM   16  C6  UNL     1       1.468   0.921  -1.076  1.00  0.00     0.043 C 
HETATM   17  C7  UNL     1       1.864  -0.539  -0.775  1.00  0.00     0.084 C 
HETATM   18  C8  UNL     1       1.742  -1.362  -2.061  1.00  0.00     0.049 C 
HETATM   19  O5  UNL     1       0.882  -1.024   0.171  1.00  0.00    -0.370 OA
BRANCH  17  20
HETATM   20  C9  UNL     1       3.262  -0.576  -0.108  1.00  0.00     0.160 C 
HETATM   21  O1  UNL     1       4.312  -0.204  -1.015  1.00  0.00    -0.375 OA
HETATM   22  C10 UNL     1       5.535  -0.401  -0.281  1.00  0.00     0.152 C 
HETATM   23  C19 UNL     1       5.292  -1.658   0.561  1.00  0.00     0.041 C 
HETATM   24  C20 UNL     1       3.771  -1.839   0.601  1.00  0.00     0.016 C 
HETATM   25  C21 UNL     1       3.392  -3.182  -0.006  1.00  0.00     0.012 C 
BRANCH  22  26
HETATM   26  C11 UNL     1       6.760  -0.498  -1.216  1.00  0.00     0.158 C 
HETATM   27  O2  UNL     1       7.913  -1.028  -0.549  1.00  0.00    -0.345 OA
HETATM   28  C12 UNL     1       8.613  -0.154   0.352  1.00  0.00     0.187 C 
HETATM   29  C14 UNL     1       9.058   1.133  -0.390  1.00  0.00     0.046 C 
HETATM   30  C15 UNL     1       9.764   2.152   0.506  1.00  0.00     0.015 C 
HETATM   31  C16 UNL     1       7.859   1.796  -1.085  1.00  0.00     0.016 C 
HETATM   32  C17 UNL     1       7.143   0.786  -1.990  1.00  0.00     0.014 C 
HETATM   33  C18 UNL     1       5.985   1.450  -2.731  1.00  0.00     0.012 C 
BRANCH  28  34
HETATM   34  O3  UNL     1       7.821   0.129   1.503  1.00  0.00    -0.363 OA
HETATM   35  H17 UNL     1       7.499   1.040   1.443  1.00  0.00     0.213 HD
ENDBRANCH  28  34
BRANCH  28  36
HETATM   36  C13 UNL     1       9.825  -0.991   0.840  1.00  0.00     0.232 C 
BRANCH  36  37
HETATM   37  O4  UNL     1      10.681  -1.374  -0.237  1.00  0.00    -0.396 OA
HETATM   38  H20 UNL     1      10.085  -1.781  -0.898  1.00  0.00     0.209 HD
ENDBRANCH  36  37
ENDBRANCH  28  36
ENDBRANCH  22  26
ENDBRANCH  17  20
ENDBRANCH   1  14
BRANCH   6  39
HETATM   39  O6  UNL     1      -5.196  -3.683  -1.185  1.00  0.00    -0.395 OA
HETATM   40  H44 UNL     1      -4.540  -4.402  -1.212  1.00  0.00     0.210 HD
ENDBRANCH   6  39
BRANCH   9  41
HETATM   41  C30 UNL     1      -6.239   0.753   0.983  1.00  0.00     0.041 C 
HETATM   42  C31 UNL     1      -5.373   1.842   1.651  1.00  0.00     0.015 C 
BRANCH  41  43
HETATM   43  C32 UNL     1      -7.140   1.355  -0.156  1.00  0.00     0.141 C 
BRANCH  43  44
HETATM   44  O7  UNL     1      -7.969   0.291  -0.640  1.00  0.00    -0.389 OA
HETATM   45  C33 UNL     1      -8.424   0.445  -1.976  1.00  0.00     0.202 C 
ENDBRANCH  43  44
BRANCH  43  46
HETATM   46  C34 UNL     1      -8.011   2.556   0.320  1.00  0.00     0.109 C 
HETATM   47  C35 UNL     1      -9.280   2.111   1.050  1.00  0.00     0.024 C 
BRANCH  46  48
HETATM   48  C36 UNL     1      -8.368   3.561  -0.759  1.00  0.00     0.145 C 
HETATM   49  O8  UNL     1      -9.146   4.494  -0.629  1.00  0.00    -0.650 OA
BRANCH  48  50
HETATM   50  O9  UNL     1      -7.681   3.446  -1.910  1.00  0.00    -0.776 OA
HETATM   51  H62 UNL     1      -7.992   4.211  -2.443  1.00  0.00     0.167 HD
ENDBRANCH  48  50
ENDBRANCH  46  48
ENDBRANCH  43  46
ENDBRANCH  41  43
ENDBRANCH   9  41
TORSDOF 14
