REMARK  5 active torsions:
REMARK  status: ('A' for Active; 'I' for Inactive)
REMARK    1  A    between atoms: C3_3  and  C4_4 
REMARK    2  A    between atoms: C4_4  and  C5_5 
REMARK    3  A    between atoms: C5_5  and  C6_6 
REMARK       I    between atoms: C6_6  and  N1_8 
REMARK    4  A    between atoms: N1_8  and  C7_9 
REMARK    5  A    between atoms: C7_9  and  C8_10 
ROOT
HETATM    1  C1  UNL     1       0.585  -2.883   0.421  1.00  0.00     0.050 C 
HETATM    2  C2  UNL     1       0.373  -1.542  -0.238  1.00  0.00    -0.037 A 
HETATM    3  C3  UNL     1       1.364  -0.818  -0.803  1.00  0.00     0.025 A 
HETATM    4  C13 UNL     1       1.109   0.530  -1.391  1.00  0.00     0.295 A 
HETATM    5  O2  UNL     1       2.019   1.213  -1.850  1.00  0.00    -0.259 OA
HETATM    6  O3  UNL     1      -0.191   0.997  -1.378  1.00  0.00    -0.274 OA
HETATM    7  C14 UNL     1      -1.232   0.247  -0.815  1.00  0.00     0.093 A 
HETATM    8  C15 UNL     1      -2.500   0.828  -0.858  1.00  0.00     0.075 A 
HETATM    9  C16 UNL     1      -3.584   0.148  -0.316  1.00  0.00     0.079 A 
HETATM   10  C17 UNL     1      -3.404  -1.119   0.241  1.00  0.00    -0.024 A 
HETATM   11  C18 UNL     1      -2.113  -1.680   0.281  1.00  0.00     0.024 A 
HETATM   12  C19 UNL     1      -1.002  -1.001  -0.246  1.00  0.00     0.005 A 
HETATM   13  C20 UNL     1      -4.564  -1.873   0.820  1.00  0.00     0.044 C 
HETATM   14  C21 UNL     1      -5.880  -1.288   0.328  1.00  0.00     0.043 C 
HETATM   15  C22 UNL     1      -5.875   0.250   0.391  1.00  0.00     0.068 C 
HETATM   16  C23 UNL     1      -7.182   0.770  -0.267  1.00  0.00     0.038 C 
HETATM   17  C24 UNL     1      -7.657   2.134   0.249  1.00  0.00     0.003 C 
HETATM   18  C25 UNL     1      -6.515   3.004   0.749  1.00  0.00     0.000 C 
HETATM   19  C26 UNL     1      -5.746   2.329   1.884  1.00  0.00     0.003 C 
HETATM   20  C27 UNL     1      -5.779   0.796   1.830  1.00  0.00     0.038 C 
HETATM   21  O4  UNL     1      -4.789   0.785  -0.395  1.00  0.00    -0.340 OA
ENDROOT
BRANCH   3  22
HETATM   22  C4  UNL     1       2.806  -1.272  -0.930  1.00  0.00     0.055 C 
BRANCH  22  23
HETATM   23  C5  UNL     1       3.689  -0.687   0.172  1.00  0.00     0.107 C 
BRANCH  23  24
HETATM   24  C6  UNL     1       5.102  -1.230   0.104  1.00  0.00     0.218 C 
HETATM   25  O1  UNL     1       5.421  -2.209  -0.562  1.00  0.00    -0.274 OA
HETATM   26  N1  UNL     1       5.982  -0.541   0.909  1.00  0.00    -0.357 N 
HETATM   27  H8  UNL     1       5.698   0.359   1.274  1.00  0.00     0.162 HD
BRANCH  26  28
HETATM   28  C7  UNL     1       7.395  -0.848   0.915  1.00  0.00     0.162 C 
BRANCH  28  29
HETATM   29  C8  UNL     1       8.150   0.048  -0.021  1.00  0.00    -0.025 A 
HETATM   30  C9  UNL     1       8.710   1.256   0.407  1.00  0.00     0.011 A 
HETATM   31  C10 UNL     1       9.388   2.063  -0.504  1.00  0.00     0.018 A 
HETATM   32  C11 UNL     1       9.479   1.636  -1.819  1.00  0.00     0.087 A 
HETATM   33  N2  UNL     1       8.946   0.482  -2.271  1.00  0.00    -0.375 N 
HETATM   34  C12 UNL     1       8.287  -0.281  -1.368  1.00  0.00     0.096 A 
ATOM     35  H2  UNL     1       9.035   0.198  -3.247  1.00  0.00     0.164 HD
ENDBRANCH  28  29
ENDBRANCH  26  28
ENDBRANCH  23  24
ENDBRANCH  22  23
ENDBRANCH   3  22
TORSDOF 5
