REMARK  8 active torsions:
REMARK  status: ('A' for Active; 'I' for Inactive)
REMARK    1  A    between atoms: C2_2  and  C3_3 
REMARK    2  A    between atoms: C2_2  and  C9_11 
REMARK    3  A    between atoms: C3_3  and  C4_4 
REMARK    4  A    between atoms: C4_4  and  C5_5 
REMARK    5  A    between atoms: C5_5  and  O1_6 
REMARK    6  A    between atoms: C5_5  and  C6_7 
REMARK    7  A    between atoms: C6_7  and  O2_10 
REMARK    8  A    between atoms: C30_34  and  O5_35 
ROOT
HETATM    1  C9  UNL     1       1.786   0.763  -0.389  1.00  0.00    -0.001 C 
HETATM    2  C10 UNL     1       2.022  -0.750  -0.131  1.00  0.00     0.007 C 
HETATM    3  C11 UNL     1       0.647  -1.436  -0.047  1.00  0.00     0.015 C 
HETATM    4  C12 UNL     1      -0.352  -0.393  -0.574  1.00  0.00    -0.009 C 
HETATM    5  C13 UNL     1      -0.348  -0.493  -2.132  1.00  0.00     0.021 C 
HETATM    6  C14 UNL     1      -1.814  -0.476  -0.128  1.00  0.00    -0.032 C 
HETATM    7  C15 UNL     1      -2.593   0.642  -0.139  1.00  0.00     0.002 C 
HETATM    8  C16 UNL     1      -1.976   1.903  -0.691  1.00  0.00     0.157 C 
HETATM    9  O3  UNL     1      -2.670   2.755  -1.243  1.00  0.00    -0.293 OA
HETATM   10  C17 UNL     1      -0.464   2.111  -0.629  1.00  0.00     0.094 C 
HETATM   11  C18 UNL     1       0.279   0.930   0.004  1.00  0.00    -0.022 C 
HETATM   12  C19 UNL     1       0.163   1.045   1.557  1.00  0.00     0.017 C 
HETATM   13  C20 UNL     1      -4.044   0.614   0.393  1.00  0.00    -0.008 C 
HETATM   14  C21 UNL     1      -3.891   0.777   1.933  1.00  0.00     0.021 C 
HETATM   15  C22 UNL     1      -5.036   1.731  -0.043  1.00  0.00     0.022 C 
HETATM   16  C23 UNL     1      -5.822   1.376  -1.293  1.00  0.00     0.080 C 
HETATM   17  C24 UNL     1      -6.741   0.214  -0.965  1.00  0.00     0.135 C 
HETATM   18  O4  UNL     1      -7.892   0.187  -1.400  1.00  0.00    -0.297 OA
HETATM   19  C25 UNL     1      -6.173  -0.920  -0.084  1.00  0.00     0.018 C 
HETATM   20  C26 UNL     1      -6.838  -0.849   1.295  1.00  0.00     0.023 C 
HETATM   21  C27 UNL     1      -6.585  -2.255  -0.746  1.00  0.00     0.023 C 
HETATM   22  C28 UNL     1      -4.617  -0.785  -0.063  1.00  0.00     0.016 C 
HETATM   23  C29 UNL     1      -3.846  -1.914   0.642  1.00  0.00     0.043 C 
HETATM   24  C30 UNL     1      -2.341  -1.831   0.319  1.00  0.00     0.149 C 
ENDROOT
BRANCH   1  25
HETATM   25  C2  UNL     1       2.866   1.678   0.269  1.00  0.00    -0.014 C 
HETATM   26  C1  UNL     1       2.537   3.167   0.074  1.00  0.00     0.010 C 
BRANCH  25  27
HETATM   27  C3  UNL     1       4.296   1.451  -0.303  1.00  0.00     0.007 C 
BRANCH  27  28
HETATM   28  C4  UNL     1       5.054   0.244   0.275  1.00  0.00     0.035 C 
BRANCH  28  29
HETATM   29  C5  UNL     1       6.553   0.275  -0.083  1.00  0.00     0.151 C 
BRANCH  29  30
HETATM   30  O1  UNL     1       7.122   1.428   0.554  1.00  0.00    -0.393 OA
HETATM   31  H10 UNL     1       7.361   1.141   1.458  1.00  0.00     0.210 HD
ENDBRANCH  29  30
BRANCH  29  32
HETATM   32  C6  UNL     1       7.348  -0.986   0.370  1.00  0.00     0.076 C 
HETATM   33  C7  UNL     1       6.797  -2.287  -0.222  1.00  0.00     0.048 C 
HETATM   34  C8  UNL     1       8.830  -0.849  -0.003  1.00  0.00     0.048 C 
BRANCH  32  35
HETATM   35  O2  UNL     1       7.299  -1.064   1.806  1.00  0.00    -0.388 OA
HETATM   36  H17 UNL     1       6.432  -1.424   2.062  1.00  0.00     0.210 HD
ENDBRANCH  32  35
ENDBRANCH  29  32
ENDBRANCH  28  29
ENDBRANCH  27  28
ENDBRANCH  25  27
ENDBRANCH   1  25
BRANCH  24  37
HETATM   37  O5  UNL     1      -2.080  -2.771  -0.722  1.00  0.00    -0.391 OA
HETATM   38  H48 UNL     1      -2.588  -2.494  -1.504  1.00  0.00     0.210 HD
ENDBRANCH  24  37
TORSDOF 8
