REMARK  7 active torsions:
REMARK  status: ('A' for Active; 'I' for Inactive)
REMARK    1  A    between atoms: C19_20  and  O2_21 
REMARK    2  A    between atoms: O2_21  and  C20_22 
REMARK    3  A    between atoms: C20_22  and  C21_24 
REMARK    4  A    between atoms: C21_24  and  C22_25 
REMARK    5  A    between atoms: C22_25  and  C23_26 
REMARK       I    between atoms: C23_26  and  N1_28 
REMARK    6  A    between atoms: N1_28  and  C24_29 
REMARK    7  A    between atoms: C24_29  and  C25_30 
ROOT
HETATM    1  C1  UNL     1      -1.673   3.292  -0.742  1.00  0.00     0.018 C 
HETATM    2  C2  UNL     1      -0.990   1.902  -0.676  1.00  0.00    -0.013 C 
HETATM    3  C3  UNL     1      -1.429   1.058  -1.884  1.00  0.00     0.012 C 
HETATM    4  C4  UNL     1      -2.917   0.667  -1.809  1.00  0.00     0.007 C 
HETATM    5  C5  UNL     1      -3.291  -0.030  -0.477  1.00  0.00     0.002 C 
HETATM    6  C6  UNL     1      -2.811   0.810   0.760  1.00  0.00    -0.004 C 
HETATM    7  C7  UNL     1      -3.112   0.092   2.090  1.00  0.00     0.010 C 
HETATM    8  C8  UNL     1      -4.576  -0.343   2.204  1.00  0.00     0.035 C 
HETATM    9  C9  UNL     1      -4.932  -1.161   0.989  1.00  0.00    -0.068 C 
HETATM   10  C10 UNL     1      -5.182  -2.476   1.116  1.00  0.00     0.053 C 
HETATM   11  C11 UNL     1      -5.215  -3.371  -0.066  1.00  0.00     0.149 C 
HETATM   12  O1  UNL     1      -5.471  -4.562   0.085  1.00  0.00    -0.293 OA
HETATM   13  C12 UNL     1      -4.800  -2.792  -1.395  1.00  0.00     0.084 C 
HETATM   14  C13 UNL     1      -5.292  -1.360  -1.507  1.00  0.00     0.022 C 
HETATM   15  C14 UNL     1      -4.804  -0.434  -0.356  1.00  0.00    -0.016 C 
HETATM   16  C15 UNL     1      -5.735   0.804  -0.401  1.00  0.00     0.020 C 
HETATM   17  C16 UNL     1      -1.312   1.096   0.600  1.00  0.00     0.001 C 
HETATM   18  C17 UNL     1      -0.594   1.864   1.702  1.00  0.00     0.008 C 
HETATM   19  C18 UNL     1       0.686   2.391   1.026  1.00  0.00     0.034 C 
HETATM   20  C19 UNL     1       0.531   2.127  -0.491  1.00  0.00     0.140 C 
ENDROOT
BRANCH  20  21
HETATM   21  O2  UNL     1       1.288   0.938  -0.785  1.00  0.00    -0.315 OA
BRANCH  21  22
HETATM   22  C20 UNL     1       1.851   0.876  -2.022  1.00  0.00     0.259 C 
HETATM   23  O3  UNL     1       1.684   1.702  -2.911  1.00  0.00    -0.265 OA
BRANCH  22  24
HETATM   24  C21 UNL     1       2.623  -0.407  -2.225  1.00  0.00     0.120 C 
BRANCH  24  25
HETATM   25  C22 UNL     1       3.160  -1.040  -0.946  1.00  0.00     0.112 C 
BRANCH  25  26
HETATM   26  C23 UNL     1       4.206  -0.175  -0.275  1.00  0.00     0.218 C 
HETATM   27  O4  UNL     1       4.585   0.899  -0.727  1.00  0.00    -0.274 OA
HETATM   28  N1  UNL     1       4.694  -0.724   0.891  1.00  0.00    -0.357 N 
HETATM   29  H32 UNL     1       4.467  -1.685   1.107  1.00  0.00     0.162 HD
BRANCH  28  30
HETATM   30  C24 UNL     1       5.805  -0.122   1.596  1.00  0.00     0.162 C 
BRANCH  30  31
HETATM   31  C25 UNL     1       7.099  -0.780   1.217  1.00  0.00    -0.025 A 
HETATM   32  C26 UNL     1       7.661  -1.802   1.989  1.00  0.00     0.011 A 
HETATM   33  C27 UNL     1       8.853  -2.397   1.584  1.00  0.00     0.018 A 
HETATM   34  C28 UNL     1       9.443  -1.953   0.412  1.00  0.00     0.087 A 
HETATM   35  N2  UNL     1       8.927  -0.978  -0.365  1.00  0.00    -0.375 N 
HETATM   36  C29 UNL     1       7.769  -0.415   0.052  1.00  0.00     0.096 A 
ATOM     37  H2  UNL     1       9.387  -0.680  -1.225  1.00  0.00     0.164 HD
ENDBRANCH  30  31
ENDBRANCH  28  30
ENDBRANCH  25  26
ENDBRANCH  24  25
ENDBRANCH  22  24
ENDBRANCH  21  22
ENDBRANCH  20  21
TORSDOF 7
