REMARK  9 active torsions:
REMARK  status: ('A' for Active; 'I' for Inactive)
REMARK    1  A    between atoms: C2_2  and  C3_3 
REMARK    2  A    between atoms: C2_2  and  C9_12 
REMARK    3  A    between atoms: C3_3  and  C4_4 
REMARK    4  A    between atoms: C4_4  and  C5_5 
REMARK    5  A    between atoms: C5_5  and  O1_6 
REMARK    6  A    between atoms: C5_5  and  C6_7 
REMARK    7  A    between atoms: C6_7  and  O2_9 
REMARK    8  A    between atoms: C6_7  and  C8_10 
REMARK    9  A    between atoms: C8_10  and  O3_11 
ROOT
HETATM    1  C9  UNL     1       1.668   0.161  -0.470  1.00  0.00    -0.001 C 
HETATM    2  C10 UNL     1       1.458   0.977  -1.781  1.00  0.00     0.007 C 
HETATM    3  C11 UNL     1      -0.051   1.240  -1.925  1.00  0.00     0.015 C 
HETATM    4  C12 UNL     1      -0.648   0.891  -0.550  1.00  0.00    -0.004 C 
HETATM    5  C13 UNL     1      -0.446   2.141   0.365  1.00  0.00     0.021 C 
HETATM    6  C14 UNL     1      -2.125   0.553  -0.407  1.00  0.00     0.007 C 
HETATM    7  C15 UNL     1      -2.607  -0.259   0.569  1.00  0.00     0.007 C 
HETATM    8  C16 UNL     1      -1.590  -0.976   1.446  1.00  0.00     0.157 C 
HETATM    9  O4  UNL     1      -1.951  -1.796   2.284  1.00  0.00    -0.293 OA
HETATM   10  C17 UNL     1      -0.097  -0.719   1.271  1.00  0.00     0.094 C 
HETATM   11  C18 UNL     1       0.228  -0.362  -0.179  1.00  0.00    -0.022 C 
HETATM   12  C19 UNL     1      -0.056  -1.607  -1.078  1.00  0.00     0.017 C 
HETATM   13  C20 UNL     1      -4.115  -0.523   0.835  1.00  0.00    -0.007 C 
HETATM   14  C21 UNL     1      -4.426  -1.962   0.369  1.00  0.00     0.021 C 
HETATM   15  C22 UNL     1      -4.461  -0.345   2.338  1.00  0.00     0.022 C 
HETATM   16  C23 UNL     1      -5.946  -0.331   2.696  1.00  0.00     0.080 C 
HETATM   17  C24 UNL     1      -6.908  -0.327   1.534  1.00  0.00     0.135 C 
HETATM   18  O5  UNL     1      -8.022  -0.841   1.678  1.00  0.00    -0.297 OA
HETATM   19  C25 UNL     1      -6.530   0.410   0.246  1.00  0.00     0.018 C 
HETATM   20  C26 UNL     1      -7.171   1.811   0.345  1.00  0.00     0.023 C 
HETATM   21  C27 UNL     1      -7.189  -0.324  -0.942  1.00  0.00     0.023 C 
HETATM   22  C28 UNL     1      -4.980   0.560   0.100  1.00  0.00     0.021 C 
HETATM   23  C29 UNL     1      -4.517   0.733  -1.345  1.00  0.00     0.090 C 
HETATM   24  C30 UNL     1      -3.085   1.194  -1.360  1.00  0.00     0.157 C 
HETATM   25  O6  UNL     1      -2.716   2.044  -2.168  1.00  0.00    -0.293 OA
ENDROOT
BRANCH   1  26
HETATM   26  C2  UNL     1       2.879  -0.818  -0.591  1.00  0.00    -0.014 C 
HETATM   27  C1  UNL     1       3.053  -1.689   0.655  1.00  0.00     0.010 C 
BRANCH  26  28
HETATM   28  C3  UNL     1       4.176  -0.000  -0.865  1.00  0.00     0.007 C 
BRANCH  28  29
HETATM   29  C4  UNL     1       5.439  -0.826  -1.132  1.00  0.00     0.035 C 
BRANCH  29  30
HETATM   30  C5  UNL     1       6.425  -0.988   0.036  1.00  0.00     0.154 C 
BRANCH  30  31
HETATM   31  O1  UNL     1       7.355  -2.030  -0.346  1.00  0.00    -0.392 OA
HETATM   32  H10 UNL     1       6.844  -2.853  -0.454  1.00  0.00     0.210 HD
ENDBRANCH  30  31
BRANCH  30  33
HETATM   33  C6  UNL     1       7.298   0.234   0.448  1.00  0.00     0.101 C 
HETATM   34  C7  UNL     1       8.047   0.874  -0.728  1.00  0.00     0.051 C 
BRANCH  33  35
HETATM   35  O2  UNL     1       8.321  -0.276   1.349  1.00  0.00    -0.385 OA
HETATM   36  H14 UNL     1       8.667  -1.068   0.885  1.00  0.00     0.210 HD
ENDBRANCH  33  35
BRANCH  33  37
HETATM   37  C8  UNL     1       6.531   1.302   1.250  1.00  0.00     0.204 C 
BRANCH  37  38
HETATM   38  O3  UNL     1       7.449   2.161   1.928  1.00  0.00    -0.398 OA
HETATM   39  H17 UNL     1       8.171   1.561   2.216  1.00  0.00     0.209 HD
ENDBRANCH  37  38
ENDBRANCH  33  37
ENDBRANCH  30  33
ENDBRANCH  29  30
ENDBRANCH  28  29
ENDBRANCH  26  28
ENDBRANCH   1  26
TORSDOF 9
