REMARK  10 active torsions:
REMARK  status: ('A' for Active; 'I' for Inactive)
REMARK    1  A    between atoms: C2_2  and  O1_3 
REMARK    2  A    between atoms: O1_3  and  C3_4 
REMARK    3  A    between atoms: C3_4  and  C4_6 
REMARK    4  A    between atoms: C4_6  and  C5_7 
REMARK    5  A    between atoms: C5_7  and  C6_8 
REMARK    6  A    between atoms: C6_8  and  C8_10 
REMARK    7  A    between atoms: C13_15  and  O3_16 
REMARK    8  A    between atoms: C17_21  and  O4_22 
REMARK    9  A    between atoms: C24_29  and  O5_30 
REMARK   10  A    between atoms: O5_30  and  C25_31 
ROOT
HETATM    1  C8  UNL     1       1.101   0.721   0.190  1.00  0.00     0.000 C 
HETATM    2  C9  UNL     1       0.975   2.271   0.188  1.00  0.00     0.006 C 
HETATM    3  C10 UNL     1       0.278   2.691  -1.093  1.00  0.00     0.006 C 
HETATM    4  C11 UNL     1      -0.479   1.450  -1.568  1.00  0.00     0.003 C 
HETATM    5  C12 UNL     1      -1.890   1.359  -0.900  1.00  0.00     0.025 C 
HETATM    6  C13 UNL     1      -2.931   2.295  -1.554  1.00  0.00     0.137 C 
HETATM    7  C14 UNL     1      -4.185   2.434  -0.676  1.00  0.00     0.092 C 
HETATM    8 BR1  UNL     1      -4.134   4.124   0.341  1.00  0.00    -0.088 Br
HETATM    9  C15 UNL     1      -4.537   1.201   0.202  1.00  0.00     0.013 C 
HETATM   10  C16 UNL     1      -4.207   1.265   1.710  1.00  0.00     0.038 C 
HETATM   11  C17 UNL     1      -4.972   0.190   2.499  1.00  0.00     0.118 C 
HETATM   12  C18 UNL     1      -5.245  -1.073   1.682  1.00  0.00     0.032 C 
HETATM   13  C19 UNL     1      -4.110  -1.303   0.692  1.00  0.00     0.012 C 
HETATM   14  C20 UNL     1      -3.987  -0.165  -0.381  1.00  0.00    -0.035 C 
HETATM   15  C21 UNL     1      -4.927  -0.569  -1.556  1.00  0.00     0.016 C 
HETATM   16  C22 UNL     1      -2.509  -0.060  -0.981  1.00  0.00     0.003 C 
HETATM   17  C23 UNL     1      -1.505  -1.100  -0.481  1.00  0.00     0.039 C 
HETATM   18  C24 UNL     1      -0.213  -1.066  -1.300  1.00  0.00     0.141 C 
HETATM   19  C27 UNL     1       0.535   0.297  -1.222  1.00  0.00    -0.009 C 
HETATM   20  C28 UNL     1       1.664   0.289  -2.287  1.00  0.00     0.018 C 
ENDROOT
BRANCH   1  21
HETATM   21  C6  UNL     1       2.552   0.336   0.663  1.00  0.00    -0.013 C 
HETATM   22  C7  UNL     1       2.795   0.879   2.090  1.00  0.00     0.010 C 
BRANCH  21  23
HETATM   23  C5  UNL     1       2.870  -1.174   0.639  1.00  0.00     0.014 C 
BRANCH  23  24
HETATM   24  C4  UNL     1       4.273  -1.576   1.112  1.00  0.00     0.111 C 
BRANCH  24  25
HETATM   25  C3  UNL     1       5.362  -0.991   0.243  1.00  0.00     0.258 C 
HETATM   26  O2  UNL     1       5.269  -0.804  -0.963  1.00  0.00    -0.265 OA
BRANCH  25  27
HETATM   27  O1  UNL     1       6.470  -0.736   0.994  1.00  0.00    -0.322 OA
BRANCH  27  28
HETATM   28  C2  UNL     1       7.562  -0.182   0.249  1.00  0.00     0.174 C 
HETATM   29  C1  UNL     1       8.729   0.031   1.194  1.00  0.00     0.034 C 
ENDBRANCH  27  28
ENDBRANCH  25  27
ENDBRANCH  24  25
ENDBRANCH  23  24
ENDBRANCH  21  23
ENDBRANCH   1  21
BRANCH  18  30
HETATM   30  O5  UNL     1       0.620  -2.145  -0.848  1.00  0.00    -0.316 OA
BRANCH  30  31
HETATM   31  C25 UNL     1       0.399  -3.371  -1.398  1.00  0.00     0.255 C 
HETATM   32  C26 UNL     1       1.364  -4.364  -0.822  1.00  0.00     0.126 C 
HETATM   33  O6  UNL     1      -0.452  -3.641  -2.233  1.00  0.00    -0.266 OA
ENDBRANCH  30  31
ENDBRANCH  18  30
BRANCH   6  34
HETATM   34  O3  UNL     1      -2.418   3.549  -1.982  1.00  0.00    -0.394 OA
HETATM   35  H22 UNL     1      -2.383   4.130  -1.200  1.00  0.00     0.210 HD
ENDBRANCH   6  34
BRANCH  11  36
HETATM   36  O4  UNL     1      -4.201  -0.132   3.654  1.00  0.00    -0.396 OA
HETATM   37  H28 UNL     1      -4.728  -0.739   4.201  1.00  0.00     0.210 HD
ENDBRANCH  11  36
TORSDOF 10
