REMARK  8 active torsions:
REMARK  status: ('A' for Active; 'I' for Inactive)
REMARK    1  A    between atoms: C5_5  and  C6_6 
REMARK    2  A    between atoms: C6_6  and  O1_9 
REMARK    3  A    between atoms: C14_16  and  C15_17 
REMARK    4  A    between atoms: C16_19  and  O4_20 
REMARK    5  A    between atoms: C17_21  and  C18_22 
REMARK    6  A    between atoms: C19_24  and  O6_25 
REMARK    7  A    between atoms: C21_27  and  C22_28 
REMARK    8  A    between atoms: C22_28  and  C23_29 
ROOT
HETATM    1  C1  UNL     1       1.973  -0.119  -4.328  1.00  0.00     0.019 C 
HETATM    2  C2  UNL     1       2.277   0.284  -3.079  1.00  0.00    -0.068 C 
HETATM    3  C3  UNL     1       3.509  -0.222  -2.486  1.00  0.00     0.003 C 
HETATM    4  C4  UNL     1       3.924  -0.379  -1.215  1.00  0.00    -0.019 C 
HETATM    5  C5  UNL     1       3.239  -0.066   0.103  1.00  0.00     0.042 C 
HETATM    6  C9  UNL     1       2.355  -1.251   0.594  1.00  0.00     0.014 C 
HETATM    7  C10 UNL     1       1.419  -1.912  -0.437  1.00  0.00     0.039 C 
HETATM    8  C11 UNL     1      -0.013  -1.329  -0.648  1.00  0.00     0.068 C 
HETATM    9  C12 UNL     1      -0.532  -1.989  -1.957  1.00  0.00     0.047 C 
HETATM   10  O2  UNL     1      -0.804  -1.888   0.457  1.00  0.00    -0.338 OA
HETATM   11  C13 UNL     1      -2.137  -1.550   0.342  1.00  0.00     0.095 A 
HETATM   12  C14 UNL     1      -3.117  -2.541   0.418  1.00  0.00     0.070 A 
HETATM   13  C16 UNL     1      -4.451  -2.203   0.159  1.00  0.00     0.097 A 
HETATM   14  C17 UNL     1      -4.777  -0.885  -0.184  1.00  0.00     0.069 A 
HETATM   15  C19 UNL     1      -3.778   0.112  -0.218  1.00  0.00     0.091 A 
HETATM   16  C20 UNL     1      -2.456  -0.200   0.102  1.00  0.00     0.015 A 
HETATM   17  C21 UNL     1      -1.279   0.733   0.284  1.00  0.00     0.031 C 
HETATM   18  C26 UNL     1      -0.097   0.246  -0.627  1.00  0.00     0.029 C 
HETATM   19  C27 UNL     1      -0.009   0.945  -2.007  1.00  0.00     0.013 C 
HETATM   20  C28 UNL     1       1.418   1.353  -2.443  1.00  0.00     0.038 C 
ENDROOT
BRANCH   5  21
HETATM   21  C6  UNL     1       4.239   0.447   1.211  1.00  0.00     0.057 C 
HETATM   22  C7  UNL     1       3.482   0.930   2.459  1.00  0.00     0.046 C 
HETATM   23  C8  UNL     1       5.306  -0.573   1.633  1.00  0.00     0.046 C 
BRANCH  21  24
HETATM   24  O1  UNL     1       4.923   1.596   0.681  1.00  0.00    -0.390 OA
HETATM   25  H12 UNL     1       5.538   1.926   1.358  1.00  0.00     0.210 HD
ENDBRANCH  21  24
ENDBRANCH   5  21
BRANCH  17  26
HETATM   26  C22 UNL     1      -1.443   2.275   0.340  1.00  0.00     0.014 C 
BRANCH  26  27
HETATM   27  C23 UNL     1      -1.801   2.893   1.717  1.00  0.00    -0.022 C 
HETATM   28  C24 UNL     1      -0.655   2.750   2.726  1.00  0.00     0.009 C 
HETATM   29  C25 UNL     1      -3.102   2.383   2.328  1.00  0.00     0.009 C 
ENDBRANCH  26  27
ENDBRANCH  17  26
BRANCH  12  30
HETATM   30  C15 UNL     1      -2.729  -3.927   0.735  1.00  0.00     0.275 C 
HETATM   31  O3  UNL     1      -3.585  -4.806   0.805  1.00  0.00    -0.301 OA
ENDBRANCH  12  30
BRANCH  13  32
HETATM   32  O4  UNL     1      -5.453  -3.141   0.205  1.00  0.00    -0.359 OA
HETATM   33  H21 UNL     1      -5.060  -4.013   0.448  1.00  0.00     0.217 HD
ENDBRANCH  13  32
BRANCH  15  34
HETATM   34  O6  UNL     1      -4.076   1.394  -0.585  1.00  0.00    -0.359 OA
HETATM   35  H23 UNL     1      -5.038   1.458  -0.788  1.00  0.00     0.217 HD
ENDBRANCH  15  34
BRANCH  14  36
HETATM   36  C18 UNL     1      -6.182  -0.554  -0.506  1.00  0.00     0.275 C 
HETATM   37  O5  UNL     1      -6.494   0.588  -0.836  1.00  0.00    -0.301 OA
ENDBRANCH  14  36
TORSDOF 8
