REMARK  14 active torsions:
REMARK  status: ('A' for Active; 'I' for Inactive)
REMARK    1  A    between atoms: C19_20  and  O2_21 
REMARK    2  A    between atoms: C19_20  and  C20_22 
REMARK    3  A    between atoms: C20_22  and  C21_24 
REMARK    4  A    between atoms: C21_24  and  O4_25 
REMARK    5  A    between atoms: O4_25  and  C22_26 
REMARK    6  A    between atoms: C22_26  and  C23_28 
REMARK    7  A    between atoms: C23_28  and  C24_29 
REMARK    8  A    between atoms: C24_29  and  C25_30 
REMARK       I    between atoms: C25_30  and  N1_32 
REMARK    9  A    between atoms: N1_32  and  C26_33 
REMARK   10  A    between atoms: C26_33  and  C27_34 
REMARK   11  A    between atoms: C27_34  and  C28_35 
REMARK   12  A    between atoms: C27_34  and  C30_39 
REMARK   13  A    between atoms: C28_35  and  C29_36 
REMARK   14  A    between atoms: C29_36  and  O8_38 
ROOT
HETATM    1  C20 UNL     1      -0.712   0.478   0.504  1.00  0.00     0.185 C 
HETATM    2  O3  UNL     1      -0.677   1.071   1.593  1.00  0.00    -0.292 OA
ENDROOT
BRANCH   1   3
HETATM    3  C19 UNL     1      -1.884   0.759  -0.456  1.00  0.00     0.128 C 
HETATM    4  C14 UNL     1      -3.195  -0.021  -0.127  1.00  0.00    -0.002 C 
HETATM    5  C13 UNL     1      -4.007   0.474   1.082  1.00  0.00     0.013 C 
HETATM    6  C15 UNL     1      -2.899  -1.535   0.040  1.00  0.00     0.019 C 
HETATM    7  C16 UNL     1      -4.018   0.306  -1.397  1.00  0.00     0.002 C 
HETATM    8  C12 UNL     1      -5.419  -0.143   1.129  1.00  0.00     0.007 C 
HETATM    9  C11 UNL     1      -6.215   0.043  -0.188  1.00  0.00     0.002 C 
HETATM   10  C2  UNL     1      -7.646  -0.610  -0.186  1.00  0.00    -0.016 C 
HETATM   11  C10 UNL     1      -5.374  -0.408  -1.436  1.00  0.00    -0.004 C 
HETATM   12  C1  UNL     1      -7.576  -2.151  -0.029  1.00  0.00     0.020 C 
HETATM   13  C3  UNL     1      -8.550  -0.117   0.981  1.00  0.00     0.022 C 
HETATM   14  C7  UNL     1      -8.279  -0.236  -1.536  1.00  0.00    -0.068 C 
HETATM   15  C4  UNL     1      -9.114   1.277   0.771  1.00  0.00     0.084 C 
HETATM   16  C5  UNL     1      -9.906   1.302  -0.512  1.00  0.00     0.149 C 
HETATM   17  O1  UNL     1     -10.939   1.952  -0.642  1.00  0.00    -0.293 OA
HETATM   18  C6  UNL     1      -9.339   0.580  -1.676  1.00  0.00     0.053 C 
HETATM   19  C8  UNL     1      -7.537  -0.722  -2.756  1.00  0.00     0.035 C 
HETATM   20  C9  UNL     1      -6.126  -0.131  -2.753  1.00  0.00     0.010 C 
HETATM   21  C17 UNL     1      -3.031   0.067  -2.535  1.00  0.00     0.009 C 
HETATM   22  C18 UNL     1      -1.658   0.470  -1.957  1.00  0.00     0.047 C 
BRANCH   3  23
HETATM   23  O2  UNL     1      -2.129   2.176  -0.349  1.00  0.00    -0.381 OA
HETATM   24  H27 UNL     1      -2.004   2.404   0.595  1.00  0.00     0.211 HD
ENDBRANCH   3  23
ENDBRANCH   1   3
BRANCH   1  25
HETATM   25  C21 UNL     1       0.359  -0.532   0.102  1.00  0.00     0.260 C 
BRANCH  25  26
HETATM   26  O4  UNL     1       1.373  -0.663   1.102  1.00  0.00    -0.314 OA
BRANCH  26  27
HETATM   27  C22 UNL     1       2.350   0.283   1.037  1.00  0.00     0.259 C 
HETATM   28  O5  UNL     1       2.406   1.177   0.200  1.00  0.00    -0.265 OA
BRANCH  27  29
HETATM   29  C23 UNL     1       3.339   0.086   2.159  1.00  0.00     0.120 C 
BRANCH  29  30
HETATM   30  C24 UNL     1       4.714   0.622   1.777  1.00  0.00     0.112 C 
BRANCH  30  31
HETATM   31  C25 UNL     1       5.331  -0.175   0.644  1.00  0.00     0.218 C 
HETATM   32  O6  UNL     1       4.872  -1.241   0.246  1.00  0.00    -0.274 OA
HETATM   33  N1  UNL     1       6.472   0.402   0.133  1.00  0.00    -0.360 N 
HETATM   34  H34 UNL     1       6.896   1.167   0.648  1.00  0.00     0.162 HD
BRANCH  33  35
HETATM   35  C26 UNL     1       7.233  -0.196  -0.946  1.00  0.00     0.132 C 
BRANCH  35  36
HETATM   36  C27 UNL     1       8.605  -0.784  -0.533  1.00  0.00     0.046 C 
BRANCH  36  37
HETATM   37  C28 UNL     1       8.499  -1.762   0.656  1.00  0.00     0.120 C 
BRANCH  37  38
HETATM   38  C29 UNL     1       8.404  -1.208   2.055  1.00  0.00     0.140 C 
HETATM   39  O7  UNL     1       8.356  -1.904   3.062  1.00  0.00    -0.650 OA
BRANCH  38  40
HETATM   40  O8  UNL     1       8.383   0.129   2.183  1.00  0.00    -0.776 OA
HETATM   41  H40 UNL     1       8.422   0.260   3.155  1.00  0.00     0.167 HD
ENDBRANCH  38  40
ENDBRANCH  37  38
ENDBRANCH  36  37
BRANCH  36  42
HETATM   42  C30 UNL     1       9.789   0.179  -0.445  1.00  0.00    -0.052 A 
HETATM   43  C31 UNL     1      11.093  -0.350  -0.397  1.00  0.00     0.007 A 
HETATM   44  C32 UNL     1      12.212   0.484  -0.330  1.00  0.00     0.001 A 
HETATM   45  C33 UNL     1      12.049   1.866  -0.319  1.00  0.00     0.000 A 
HETATM   46  C34 UNL     1      10.769   2.410  -0.374  1.00  0.00     0.001 A 
HETATM   47  C35 UNL     1       9.649   1.574  -0.440  1.00  0.00     0.007 A 
ENDBRANCH  36  42
ENDBRANCH  35  36
ENDBRANCH  33  35
ENDBRANCH  30  31
ENDBRANCH  29  30
ENDBRANCH  27  29
ENDBRANCH  26  27
ENDBRANCH  25  26
ENDBRANCH   1  25
TORSDOF 14
