REMARK  8 active torsions:
REMARK  status: ('A' for Active; 'I' for Inactive)
REMARK    1  A    between atoms: C2_2  and  C30_35 
REMARK    2  A    between atoms: C3_3  and  C4_4 
REMARK    3  A    between atoms: C4_4  and  O1_5 
REMARK    4  A    between atoms: C4_4  and  C5_6 
REMARK    5  A    between atoms: C5_6  and  C6_7 
REMARK    6  A    between atoms: C6_7  and  C8_9 
REMARK    7  A    between atoms: C29_33  and  O5_34 
REMARK    8  A    between atoms: C30_35  and  O7_37 
ROOT
HETATM    1  C8  UNL     1       1.911  -1.990  -0.681  1.00  0.00     0.006 C 
HETATM    2  C9  UNL     1       1.389  -3.263   0.034  1.00  0.00     0.085 C 
HETATM    3  C10 UNL     1      -0.114  -3.069   0.040  1.00  0.00     0.140 C 
HETATM    4  O2  UNL     1      -0.899  -3.907   0.470  1.00  0.00    -0.297 OA
HETATM    5  C11 UNL     1      -0.518  -1.747  -0.627  1.00  0.00     0.051 C 
HETATM    6  C12 UNL     1      -0.808  -2.167  -2.098  1.00  0.00     0.029 C 
HETATM    7  C13 UNL     1      -1.703  -0.906  -0.178  1.00  0.00    -0.024 C 
HETATM    8  C14 UNL     1      -1.792   0.391  -0.578  1.00  0.00     0.003 C 
HETATM    9  C15 UNL     1      -0.586   1.016  -1.271  1.00  0.00     0.157 C 
HETATM   10  O3  UNL     1      -0.670   2.117  -1.816  1.00  0.00    -0.293 OA
HETATM   11  C16 UNL     1       0.757   0.285  -1.309  1.00  0.00     0.094 C 
HETATM   12  C17 UNL     1       0.802  -0.930  -0.381  1.00  0.00    -0.015 C 
HETATM   13  C18 UNL     1       0.921  -0.414   1.085  1.00  0.00     0.018 C 
HETATM   14  C19 UNL     1      -3.046   1.270  -0.350  1.00  0.00    -0.008 C 
HETATM   15  C20 UNL     1      -2.675   2.293   0.749  1.00  0.00     0.021 C 
HETATM   16  C21 UNL     1      -3.451   2.045  -1.647  1.00  0.00     0.022 C 
HETATM   17  C22 UNL     1      -4.940   2.330  -1.825  1.00  0.00     0.080 C 
HETATM   18  C23 UNL     1      -5.666   2.397  -0.506  1.00  0.00     0.135 C 
HETATM   19  O4  UNL     1      -6.336   3.383  -0.203  1.00  0.00    -0.297 OA
HETATM   20  C24 UNL     1      -5.596   1.145   0.373  1.00  0.00     0.018 C 
HETATM   21  C25 UNL     1      -5.751   1.541   1.854  1.00  0.00     0.023 C 
HETATM   22  C26 UNL     1      -6.817   0.277  -0.001  1.00  0.00     0.023 C 
HETATM   23  C27 UNL     1      -4.274   0.365   0.045  1.00  0.00     0.016 C 
HETATM   24  C28 UNL     1      -3.882  -0.644   1.126  1.00  0.00     0.043 C 
HETATM   25  C29 UNL     1      -2.772  -1.578   0.647  1.00  0.00     0.149 C 
ENDROOT
BRANCH   1  26
HETATM   26  C6  UNL     1       3.432  -1.726  -0.436  1.00  0.00    -0.011 C 
HETATM   27  C7  UNL     1       3.866  -1.560   1.024  1.00  0.00     0.010 C 
BRANCH  26  28
HETATM   28  C5  UNL     1       3.948  -0.564  -1.323  1.00  0.00     0.040 C 
BRANCH  28  29
HETATM   29  C4  UNL     1       5.464  -0.479  -1.588  1.00  0.00     0.142 C 
BRANCH  29  30
HETATM   30  C3  UNL     1       6.292  -0.021  -0.423  1.00  0.00     0.018 C 
HETATM   31  C2  UNL     1       6.555   1.257  -0.077  1.00  0.00     0.010 C 
HETATM   32  C1  UNL     1       6.042   2.480  -0.775  1.00  0.00     0.055 C 
BRANCH  31  33
HETATM   33  C30 UNL     1       7.417   1.452   1.117  1.00  0.00     0.171 C 
HETATM   34  O6  UNL     1       7.882   0.578   1.828  1.00  0.00    -0.646 OA
BRANCH  33  35
HETATM   35  O7  UNL     1       7.654   2.750   1.370  1.00  0.00    -0.773 OA
HETATM   36  H42 UNL     1       8.226   2.730   2.165  1.00  0.00     0.167 HD
ENDBRANCH  33  35
ENDBRANCH  31  33
ENDBRANCH  29  30
BRANCH  29  37
HETATM   37  O1  UNL     1       5.952  -1.733  -2.052  1.00  0.00    -0.392 OA
HETATM   38  H6  UNL     1       6.097  -2.313  -1.287  1.00  0.00     0.210 HD
ENDBRANCH  29  37
ENDBRANCH  28  29
ENDBRANCH  26  28
ENDBRANCH   1  26
BRANCH  25  39
HETATM   39  O5  UNL     1      -2.177  -2.101   1.829  1.00  0.00    -0.391 OA
HETATM   40  H41 UNL     1      -1.966  -3.041   1.640  1.00  0.00     0.210 HD
ENDBRANCH  25  39
TORSDOF 8
