REMARK  8 active torsions:
REMARK  status: ('A' for Active; 'I' for Inactive)
REMARK    1  A    between atoms: C2_2  and  O2_4 
REMARK    2  A    between atoms: O2_4  and  C3_5 
REMARK    3  A    between atoms: C12_15  and  C13_16 
REMARK    4  A    between atoms: C13_16  and  O5_18 
REMARK    5  A    between atoms: O5_18  and  C14_19 
REMARK    6  A    between atoms: C14_19  and  C15_20 
REMARK    7  A    between atoms: C15_20  and  N1_21 
REMARK    8  A    between atoms: C25_31  and  O6_32 
ROOT
HETATM    1  C3  UNL     1      -4.034   1.209  -0.654  1.00  0.00     0.097 C 
HETATM    2  C4  UNL     1      -4.265   2.507  -1.466  1.00  0.00     0.050 C 
HETATM    3  C5  UNL     1      -2.578   0.694  -0.955  1.00  0.00     0.038 C 
HETATM    4  C6  UNL     1      -2.413   0.152  -2.392  1.00  0.00     0.087 C 
HETATM    5  C7  UNL     1      -0.970  -0.252  -2.630  1.00  0.00     0.132 C 
HETATM    6  O3  UNL     1      -0.300   0.265  -3.518  1.00  0.00    -0.298 OA
HETATM    7  C8  UNL     1      -0.458  -1.317  -1.676  1.00  0.00     0.068 C 
HETATM    8  C9  UNL     1       0.911  -1.993  -1.962  1.00  0.00     0.022 C 
HETATM    9  C10 UNL     1       1.178  -2.254  -3.450  1.00  0.00     0.015 C 
HETATM   10  C11 UNL     1       2.041  -1.380  -1.132  1.00  0.00    -0.070 C 
HETATM   11  C12 UNL     1       3.157  -0.865  -1.693  1.00  0.00     0.085 C 
HETATM   12  C18 UNL     1       1.766  -1.418   0.366  1.00  0.00     0.035 C 
HETATM   13  C19 UNL     1       0.268  -1.521   0.715  1.00  0.00     0.010 C 
HETATM   14  C20 UNL     1      -0.538  -0.663  -0.270  1.00  0.00     0.006 C 
HETATM   15  C21 UNL     1      -2.017  -0.299   0.135  1.00  0.00    -0.033 C 
HETATM   16  C22 UNL     1      -2.865  -1.588   0.253  1.00  0.00     0.016 C 
HETATM   17  C23 UNL     1      -2.014   0.427   1.519  1.00  0.00     0.012 C 
HETATM   18  C24 UNL     1      -2.883   1.688   1.589  1.00  0.00     0.035 C 
HETATM   19  C25 UNL     1      -4.220   1.527   0.873  1.00  0.00     0.153 C 
ENDROOT
BRANCH  11  20
HETATM   20  C13 UNL     1       4.373  -0.269  -1.089  1.00  0.00     0.283 C 
HETATM   21  O4  UNL     1       5.272   0.188  -1.782  1.00  0.00    -0.260 OA
BRANCH  20  22
HETATM   22  O5  UNL     1       4.366  -0.305   0.261  1.00  0.00    -0.316 OA
BRANCH  22  23
HETATM   23  C14 UNL     1       5.512   0.303   0.879  1.00  0.00     0.209 C 
BRANCH  23  24
HETATM   24  C15 UNL     1       5.251   0.387   2.392  1.00  0.00     0.298 C 
BRANCH  24  25
HETATM   25  N1  UNL     1       6.294   0.988   3.237  1.00  0.00     0.082 N 
HETATM   26  C16 UNL     1       7.536   0.219   3.224  1.00  0.00     0.309 C 
HETATM   27  C17 UNL     1       6.547   2.388   2.903  1.00  0.00     0.309 C 
ENDBRANCH  24  25
ENDBRANCH  23  24
ENDBRANCH  22  23
ENDBRANCH  20  22
ENDBRANCH  11  20
BRANCH   1  28
HETATM   28  O2  UNL     1      -4.947   0.196  -1.166  1.00  0.00    -0.308 OA
BRANCH  28  29
HETATM   29  C2  UNL     1      -6.287   0.306  -0.979  1.00  0.00     0.255 C 
HETATM   30  C1  UNL     1      -6.995  -0.809  -1.683  1.00  0.00     0.126 C 
HETATM   31  O1  UNL     1      -6.843   1.169  -0.314  1.00  0.00    -0.266 OA
ENDBRANCH  28  29
ENDBRANCH   1  28
BRANCH  19  32
HETATM   32  O6  UNL     1      -4.960   0.530   1.578  1.00  0.00    -0.393 OA
HETATM   33  H39 UNL     1      -5.902   0.721   1.391  1.00  0.00     0.210 HD
ENDBRANCH  19  32
TORSDOF 8
