REMARK  5 active torsions:
REMARK  status: ('A' for Active; 'I' for Inactive)
REMARK    1  A    between atoms: C2_2  and  C3_3 
REMARK    2  A    between atoms: C6_6  and  C7_7 
REMARK    3  A    between atoms: C7_7  and  O1_8 
REMARK    4  A    between atoms: C7_7  and  C8_9 
REMARK    5  A    between atoms: C26_32  and  O6_33 
ROOT
HETATM    1  C3  UNL     1      -0.563   2.609   0.590  1.00  0.00     0.008 C 
HETATM    2  C4  UNL     1      -0.887   2.178  -0.830  1.00  0.00    -0.023 C 
HETATM    3  C5  UNL     1      -1.410   0.997  -1.208  1.00  0.00     0.005 C 
HETATM    4  C6  UNL     1      -1.907  -0.097  -0.291  1.00  0.00     0.187 C 
HETATM    5  O2  UNL     1      -0.874  -1.100  -0.237  1.00  0.00    -0.308 OA
HETATM    6  C12 UNL     1      -0.808  -1.754   0.964  1.00  0.00     0.276 C 
HETATM    7  O3  UNL     1      -1.627  -1.601   1.871  1.00  0.00    -0.264 OA
HETATM    8  C13 UNL     1       0.334  -2.808   0.997  1.00  0.00     0.095 C 
HETATM    9  C14 UNL     1       0.728  -3.079   2.468  1.00  0.00     0.036 C 
HETATM   10  C15 UNL     1      -0.387  -4.051   0.513  1.00  0.00     0.003 C 
HETATM   11  C16 UNL     1      -0.001  -5.072  -0.253  1.00  0.00     0.072 C 
HETATM   12  C17 UNL     1       1.298  -5.329  -0.870  1.00  0.00     0.245 C 
HETATM   13  O4  UNL     1       1.510  -6.443  -1.348  1.00  0.00    -0.268 OA
HETATM   14  N1  UNL     1       2.240  -4.374  -0.967  1.00  0.00    -0.320 N 
HETATM   15  C18 UNL     1       2.376  -3.065  -0.573  1.00  0.00     0.098 A 
HETATM   16  C19 UNL     1       1.586  -2.347   0.240  1.00  0.00     0.045 A 
HETATM   17  C20 UNL     1       1.982  -0.916   0.546  1.00  0.00     0.194 A 
HETATM   18  O5  UNL     1       1.325  -0.269   1.347  1.00  0.00    -0.287 OA
HETATM   19  C21 UNL     1       3.157  -0.291  -0.097  1.00  0.00     0.046 A 
HETATM   20  C22 UNL     1       3.973  -1.083  -0.892  1.00  0.00     0.032 A 
HETATM   21  C23 UNL     1       5.132  -0.561  -1.499  1.00  0.00     0.026 A 
HETATM   22  C24 UNL     1       5.494   0.779  -1.334  1.00  0.00    -0.027 A 
HETATM   23  C25 UNL     1       6.733   1.297  -2.005  1.00  0.00     0.051 C 
HETATM   24  C26 UNL     1       4.668   1.586  -0.546  1.00  0.00     0.086 A 
HETATM   25  C27 UNL     1       3.501   1.067   0.058  1.00  0.00     0.059 A 
HETATM   26  C28 UNL     1       2.675   2.028   0.828  1.00  0.00     0.163 C 
HETATM   27  O7  UNL     1       2.722   2.018   2.053  1.00  0.00    -0.292 OA
HETATM   28  C29 UNL     1       1.929   3.067   0.007  1.00  0.00     0.084 C 
HETATM   29  C30 UNL     1       0.635   3.584   0.641  1.00  0.00     0.016 C 
HETATM   30  C31 UNL     1       3.638  -2.485  -1.140  1.00  0.00     0.210 A 
HETATM   31  O8  UNL     1       4.380  -3.188  -1.823  1.00  0.00    -0.285 OA
HETATM   32  H24 UNL     1       3.034  -4.719  -1.514  1.00  0.00     0.169 HD
ENDROOT
BRANCH   4  33
HETATM   33  C7  UNL     1      -3.247  -0.739  -0.784  1.00  0.00     0.174 C 
BRANCH  33  34
HETATM   34  O1  UNL     1      -3.622  -1.858   0.030  1.00  0.00    -0.389 OA
HETATM   35  H11 UNL     1      -3.438  -1.614   0.960  1.00  0.00     0.210 HD
ENDBRANCH  33  34
BRANCH  33  36
HETATM   36  C8  UNL     1      -4.412   0.220  -0.780  1.00  0.00     0.009 C 
HETATM   37  C9  UNL     1      -5.623   0.023  -1.346  1.00  0.00    -0.089 C 
HETATM   38  C10 UNL     1      -6.705   1.066  -1.247  1.00  0.00     0.042 C 
HETATM   39  C11 UNL     1      -6.023  -1.226  -2.085  1.00  0.00     0.042 C 
ENDBRANCH  33  36
ENDBRANCH   4  33
BRANCH   1  40
HETATM   40  C2  UNL     1      -1.794   3.214   1.303  1.00  0.00     0.004 C 
HETATM   41  C1  UNL     1      -2.400   4.446   0.644  1.00  0.00     0.006 C 
ENDBRANCH   1  40
BRANCH  24  42
HETATM   42  O6  UNL     1       4.974   2.906  -0.355  1.00  0.00    -0.359 OA
HETATM   43  H29 UNL     1       5.921   3.062  -0.511  1.00  0.00     0.217 HD
ENDBRANCH  24  42
TORSDOF 5
