REMARK  7 active torsions:
REMARK  status: ('A' for Active; 'I' for Inactive)
REMARK    1  A    between atoms: C3_3  and  C5_5 
REMARK    2  A    between atoms: C6_6  and  C7_7 
REMARK    3  A    between atoms: C8_8  and  C9_9 
REMARK    4  A    between atoms: C10_10  and  C12_12 
REMARK    5  A    between atoms: C12_12  and  C13_14 
REMARK    6  A    between atoms: C13_14  and  C15_16 
REMARK    7  A    between atoms: C15_16  and  O2_17 
ROOT
HETATM    1  C5  UNL     1      -1.932   0.990  -0.457  1.00  0.00     0.058 C 
HETATM    2  C6  UNL     1      -1.398  -0.451  -0.813  1.00  0.00     0.024 C 
HETATM    3  C16 UNL     1      -2.254  -1.594  -0.130  1.00  0.00     0.003 C 
HETATM    4  C17 UNL     1      -2.743  -2.593  -1.199  1.00  0.00     0.041 C 
HETATM    5  C18 UNL     1      -3.662  -3.638  -0.649  1.00  0.00     0.157 A 
HETATM    6  O3  UNL     1      -5.033  -3.198  -0.573  1.00  0.00    -0.370 OA
HETATM    7  C19 UNL     1      -4.377  -3.458   0.670  1.00  0.00     0.084 A 
HETATM    8  C20 UNL     1      -4.904  -4.660   1.387  1.00  0.00     0.049 C 
HETATM    9  C21 UNL     1      -4.097  -2.241   1.502  1.00  0.00     0.048 C 
HETATM   10  C22 UNL     1      -3.451  -1.087   0.715  1.00  0.00     0.025 C 
HETATM   11  C23 UNL     1      -2.975  -0.013   1.655  1.00  0.00     0.162 A 
HETATM   12  O4  UNL     1      -3.517   1.291   1.442  1.00  0.00    -0.368 OA
HETATM   13  C24 UNL     1      -2.143   1.093   1.053  1.00  0.00     0.092 A 
HETATM   14  C25 UNL     1      -1.148   1.758   1.949  1.00  0.00     0.049 C 
ENDROOT
BRANCH   2  15
HETATM   15  C7  UNL     1       0.073  -0.803  -0.606  1.00  0.00    -0.021 C 
HETATM   16  C8  UNL     1       1.037  -0.071  -0.030  1.00  0.00    -0.003 C 
BRANCH  16  17
HETATM   17  C9  UNL     1       2.410  -0.520   0.068  1.00  0.00     0.010 C 
HETATM   18  C10 UNL     1       3.401   0.131   0.703  1.00  0.00    -0.016 C 
HETATM   19  C11 UNL     1       3.303   1.378   1.521  1.00  0.00     0.052 C 
BRANCH  18  20
HETATM   20  C12 UNL     1       4.737  -0.535   0.632  1.00  0.00     0.161 C 
HETATM   21  O1  UNL     1       4.886  -1.640   1.159  1.00  0.00    -0.292 OA
BRANCH  20  22
HETATM   22  C13 UNL     1       5.909   0.165  -0.052  1.00  0.00     0.080 C 
HETATM   23  C14 UNL     1       6.660   1.038   0.948  1.00  0.00     0.020 C 
BRANCH  22  24
HETATM   24  C15 UNL     1       5.515   0.955  -1.298  1.00  0.00     0.176 C 
BRANCH  24  25
HETATM   25  O2  UNL     1       5.048   0.082  -2.322  1.00  0.00    -0.400 OA
HETATM   26  H22 UNL     1       5.799  -0.465  -2.611  1.00  0.00     0.209 HD
ENDBRANCH  24  25
ENDBRANCH  22  24
ENDBRANCH  20  22
ENDBRANCH  18  20
ENDBRANCH  16  17
ENDBRANCH   2  15
BRANCH   1  27
HETATM   27  C3  UNL     1      -1.358   2.231  -1.168  1.00  0.00    -0.080 C 
HETATM   28  C2  UNL     1      -0.372   2.193  -2.089  1.00  0.00    -0.028 C 
HETATM   29  C1  UNL     1       0.243   3.347  -2.820  1.00  0.00     0.036 C 
HETATM   30  C4  UNL     1      -2.087   3.519  -0.842  1.00  0.00     0.043 C 
ENDBRANCH   1  27
TORSDOF 7
