REMARK  6 active torsions:
REMARK  status: ('A' for Active; 'I' for Inactive)
REMARK    1  A    between atoms: N1_2  and  C2_3 
REMARK    2  A    between atoms: C2_3  and  C3_4 
REMARK    3  A    between atoms: C5_6  and  O1_7 
REMARK    4  A    between atoms: C25_28  and  N2_29 
REMARK    5  A    between atoms: C26_30  and  C27_31 
REMARK    6  A    between atoms: C27_31  and  O3_32 
ROOT
HETATM    1  C3  UNL     1       1.075   4.333   0.292  1.00  0.00    -0.021 A 
HETATM    2  C4  UNL     1       1.413   4.833  -0.982  1.00  0.00     0.045 A 
HETATM    3  C5  UNL     1       2.359   4.203  -1.770  1.00  0.00     0.066 A 
HETATM    4  C6  UNL     1       2.985   3.051  -1.325  1.00  0.00     0.045 A 
HETATM    5  C7  UNL     1       2.689   2.519  -0.051  1.00  0.00    -0.037 A 
HETATM    6  C8  UNL     1       1.742   3.179   0.793  1.00  0.00    -0.042 A 
HETATM    7  C9  UNL     1       1.485   2.704   2.218  1.00  0.00     0.044 C 
HETATM    8  C10 UNL     1       0.816   1.335   2.419  1.00  0.00    -0.010 C 
HETATM    9  C11 UNL     1       0.564   1.062   3.909  1.00  0.00     0.005 C 
HETATM   10  C12 UNL     1      -0.150  -0.269   4.139  1.00  0.00     0.001 C 
HETATM   11  C13 UNL     1      -0.226  -1.135   2.879  1.00  0.00     0.007 C 
HETATM   12  C14 UNL     1      -0.948  -0.396   1.724  1.00  0.00     0.022 C 
HETATM   13  C15 UNL     1      -0.483   1.090   1.623  1.00  0.00     0.012 C 
HETATM   14  C16 UNL     1      -1.021  -1.203   0.359  1.00  0.00     0.083 C 
HETATM   15  C17 UNL     1      -1.071  -2.748   0.612  1.00  0.00     0.050 C 
HETATM   16  C18 UNL     1      -1.535  -3.552  -0.645  1.00  0.00    -0.029 C 
HETATM   17  C19 UNL     1      -2.937  -4.177  -0.407  1.00  0.00     0.010 C 
HETATM   18  C20 UNL     1      -4.044  -3.162  -0.191  1.00  0.00     0.004 C 
HETATM   19  C21 UNL     1      -4.028  -2.112  -1.289  1.00  0.00     0.038 C 
HETATM   20  C22 UNL     1      -2.640  -1.455  -1.459  1.00  0.00     0.065 C 
HETATM   21  C23 UNL     1      -2.817  -0.351  -2.514  1.00  0.00     0.046 C 
HETATM   22  O2  UNL     1      -2.328  -0.831  -0.193  1.00  0.00    -0.367 OA
HETATM   23  C24 UNL     1      -1.556  -2.529  -1.809  1.00  0.00     0.069 C 
HETATM   24  C25 UNL     1      -0.101  -1.913  -1.928  1.00  0.00     0.184 C 
HETATM   25  C26 UNL     1       1.033  -3.019  -1.786  1.00  0.00     0.049 C 
HETATM   26  C28 UNL     1       0.469  -4.419  -2.012  1.00  0.00     0.010 C 
HETATM   27  C29 UNL     1      -0.583  -4.739  -0.956  1.00  0.00     0.011 C 
HETATM   28  C30 UNL     1      -0.001  -0.844  -0.778  1.00  0.00     0.139 C 
HETATM   29  C31 UNL     1       1.375  -0.501  -0.375  1.00  0.00    -0.096 C 
HETATM   30  C32 UNL     1       2.376   0.104  -0.097  1.00  0.00    -0.101 C 
HETATM   31  C33 UNL     1       3.324   1.171   0.276  1.00  0.00     0.133 C 
ENDROOT
BRANCH   1  32
HETATM   32  C2  UNL     1      -0.019   5.084   1.031  1.00  0.00     0.308 C 
BRANCH  32  33
HETATM   33  N1  UNL     1       0.390   6.411   1.498  1.00  0.00     0.083 N 
HETATM   34  C1  UNL     1       1.314   6.351   2.622  1.00  0.00     0.307 C 
HETATM   35  H4  UNL     1      -0.442   6.924   1.783  1.00  0.00     0.315 HD
ENDBRANCH  32  33
ENDBRANCH   1  32
BRANCH   3  36
HETATM   36  O1  UNL     1       2.631   4.734  -2.995  1.00  0.00    -0.361 OA
HETATM   37  H8  UNL     1       3.356   4.230  -3.396  1.00  0.00     0.217 HD
ENDBRANCH   3  36
BRANCH  24  38
HETATM   38  N2  UNL     1      -0.025  -1.268  -3.256  1.00  0.00     0.090 N 
HETATM   39  H34 UNL     1       0.714  -0.562  -3.251  1.00  0.00     0.313 HD
HETATM   40  H35 UNL     1       0.304  -1.952  -3.947  1.00  0.00     0.313 HD
ENDBRANCH  24  38
BRANCH  25  41
HETATM   41  C27 UNL     1       2.294  -2.799  -2.647  1.00  0.00     0.171 C 
BRANCH  41  42
HETATM   42  O3  UNL     1       2.037  -3.019  -4.032  1.00  0.00    -0.400 OA
HETATM   43  H39 UNL     1       2.033  -3.981  -4.179  1.00  0.00     0.209 HD
ENDBRANCH  41  42
ENDBRANCH  25  41
TORSDOF 6
