REMARK  13 active torsions:
REMARK  status: ('A' for Active; 'I' for Inactive)
REMARK    1  A    between atoms: C19_20  and  O2_21 
REMARK    2  A    between atoms: C19_20  and  C20_22 
REMARK    3  A    between atoms: C20_22  and  C21_24 
REMARK    4  A    between atoms: C21_24  and  O4_25 
REMARK    5  A    between atoms: O4_25  and  C22_26 
REMARK    6  A    between atoms: C22_26  and  C23_28 
REMARK    7  A    between atoms: C23_28  and  C24_29 
REMARK    8  A    between atoms: C24_29  and  C25_30 
REMARK       I    between atoms: C25_30  and  N1_32 
REMARK    9  A    between atoms: N1_32  and  C26_33 
REMARK   10  A    between atoms: C26_33  and  C27_34 
REMARK   11  A    between atoms: C26_33  and  C36_44 
REMARK   12  A    between atoms: C27_34  and  C28_35 
REMARK   13  A    between atoms: C36_44  and  O8_46 
ROOT
HETATM    1  C21 UNL     1      -0.762  -1.429   3.728  1.00  0.00     0.260 C 
ENDROOT
BRANCH   1   2
HETATM    2  C20 UNL     1      -1.788  -2.089   2.789  1.00  0.00     0.185 C 
HETATM    3  O3  UNL     1      -2.579  -2.914   3.268  1.00  0.00    -0.292 OA
BRANCH   2   4
HETATM    4  C19 UNL     1      -1.903  -1.632   1.299  1.00  0.00     0.128 C 
HETATM    5  C14 UNL     1      -2.846  -0.399   1.074  1.00  0.00    -0.002 C 
HETATM    6  C13 UNL     1      -2.646   0.222  -0.337  1.00  0.00     0.013 C 
HETATM    7  C15 UNL     1      -2.592   0.710   2.110  1.00  0.00     0.019 C 
HETATM    8  C16 UNL     1      -4.254  -1.041   1.201  1.00  0.00     0.002 C 
HETATM    9  C12 UNL     1      -3.812   1.102  -0.803  1.00  0.00     0.007 C 
HETATM   10  C11 UNL     1      -5.134   0.312  -0.824  1.00  0.00     0.002 C 
HETATM   11  C2  UNL     1      -6.392   1.055  -1.443  1.00  0.00    -0.016 C 
HETATM   12  C10 UNL     1      -5.437  -0.253   0.591  1.00  0.00    -0.004 C 
HETATM   13  C1  UNL     1      -5.985   2.219  -2.372  1.00  0.00     0.020 C 
HETATM   14  C3  UNL     1      -7.205   0.012  -2.266  1.00  0.00     0.022 C 
HETATM   15  C7  UNL     1      -7.310   1.605  -0.354  1.00  0.00    -0.068 C 
HETATM   16  C4  UNL     1      -8.543   0.540  -2.777  1.00  0.00     0.084 C 
HETATM   17  C5  UNL     1      -9.351   1.179  -1.675  1.00  0.00     0.149 C 
HETATM   18  O1  UNL     1     -10.566   1.341  -1.768  1.00  0.00    -0.293 OA
HETATM   19  C6  UNL     1      -8.649   1.658  -0.461  1.00  0.00     0.053 C 
HETATM   20  C8  UNL     1      -6.625   2.025   0.912  1.00  0.00     0.035 C 
HETATM   21  C9  UNL     1      -5.968   0.817   1.576  1.00  0.00     0.010 C 
HETATM   22  C17 UNL     1      -4.103  -2.437   0.558  1.00  0.00     0.009 C 
HETATM   23  C18 UNL     1      -2.608  -2.745   0.496  1.00  0.00     0.047 C 
BRANCH   4  24
HETATM   24  O2  UNL     1      -0.629  -1.418   0.707  1.00  0.00    -0.381 OA
HETATM   25  H27 UNL     1      -0.165  -2.280   0.738  1.00  0.00     0.211 HD
ENDBRANCH   4  24
ENDBRANCH   2   4
ENDBRANCH   1   2
BRANCH   1  26
HETATM   26  O4  UNL     1       0.465  -0.869   3.294  1.00  0.00    -0.314 OA
BRANCH  26  27
HETATM   27  C22 UNL     1       1.334  -1.747   2.731  1.00  0.00     0.259 C 
HETATM   28  O5  UNL     1       1.047  -2.889   2.394  1.00  0.00    -0.265 OA
BRANCH  27  29
HETATM   29  C23 UNL     1       2.684  -1.119   2.535  1.00  0.00     0.120 C 
BRANCH  29  30
HETATM   30  C24 UNL     1       2.980  -0.934   1.055  1.00  0.00     0.112 C 
BRANCH  30  31
HETATM   31  C25 UNL     1       4.435  -0.584   0.830  1.00  0.00     0.218 C 
HETATM   32  O6  UNL     1       5.232  -0.401   1.742  1.00  0.00    -0.274 OA
HETATM   33  N1  UNL     1       4.770  -0.486  -0.505  1.00  0.00    -0.346 N 
HETATM   34  H34 UNL     1       4.166  -0.983  -1.149  1.00  0.00     0.163 HD
BRANCH  33  35
HETATM   35  C26 UNL     1       6.179  -0.376  -0.936  1.00  0.00     0.186 C 
BRANCH  35  36
HETATM   36  C27 UNL     1       6.952   0.768  -0.257  1.00  0.00     0.077 C 
BRANCH  36  37
HETATM   37  C28 UNL     1       8.004   1.381  -1.139  1.00  0.00    -0.028 A 
HETATM   38  C29 UNL     1       7.784   2.255  -2.188  1.00  0.00     0.096 A 
HETATM   39  N2  UNL     1       8.996   2.600  -2.724  1.00  0.00    -0.365 N 
HETATM   40  C30 UNL     1      10.013   1.972  -2.047  1.00  0.00     0.042 A 
HETATM   41  H39 UNL     1       9.135   3.228  -3.502  1.00  0.00     0.165 HD
HETATM   42  C31 UNL     1      11.400   2.032  -2.242  1.00  0.00     0.030 A 
HETATM   43  C35 UNL     1       9.422   1.199  -1.045  1.00  0.00    -0.002 A 
HETATM   44  C32 UNL     1      12.209   1.277  -1.387  1.00  0.00     0.002 A 
HETATM   45  C33 UNL     1      11.651   0.496  -0.378  1.00  0.00     0.001 A 
HETATM   46  C34 UNL     1      10.264   0.449  -0.198  1.00  0.00     0.014 A 
ENDBRANCH  36  37
ENDBRANCH  35  36
BRANCH  35  47
HETATM   47  C36 UNL     1       6.894  -1.729  -0.794  1.00  0.00     0.163 C 
HETATM   48  O7  UNL     1       8.093  -1.948  -0.849  1.00  0.00    -0.648 OA
BRANCH  47  49
HETATM   49  O8  UNL     1       6.043  -2.781  -0.705  1.00  0.00    -0.775 OA
HETATM   50  H44 UNL     1       6.653  -3.548  -0.637  1.00  0.00     0.167 HD
ENDBRANCH  47  49
ENDBRANCH  35  47
ENDBRANCH  33  35
ENDBRANCH  30  31
ENDBRANCH  29  30
ENDBRANCH  27  29
ENDBRANCH  26  27
ENDBRANCH   1  26
TORSDOF 13
