REMARK  11 active torsions:
REMARK  status: ('A' for Active; 'I' for Inactive)
REMARK    1  A    between atoms: C6_6  and  C8_8 
REMARK    2  A    between atoms: C8_8  and  O1_9 
REMARK    3  A    between atoms: O1_9  and  C9_10 
REMARK    4  A    between atoms: C10_12  and  C11_13 
REMARK    5  A    between atoms: C11_13  and  O3_14 
REMARK    6  A    between atoms: C12_15  and  O4_16 
REMARK    7  A    between atoms: C13_17  and  O5_18 
REMARK    8  A    between atoms: C14_19  and  O6_20 
REMARK    9  A    between atoms: C20_26  and  C21_27 
REMARK   10  A    between atoms: C21_27  and  C22_28 
REMARK   11  A    between atoms: C26_34  and  O9_35 
ROOT
HETATM    1  C1  UNL     1       2.909   3.003   1.551  1.00  0.00     0.015 C 
HETATM    2  C2  UNL     1       2.626   1.697   1.403  1.00  0.00    -0.084 C 
HETATM    3  C3  UNL     1       1.933   0.969   2.527  1.00  0.00     0.034 C 
HETATM    4  C4  UNL     1       1.265  -0.324   2.063  1.00  0.00     0.010 C 
HETATM    5  C5  UNL     1       0.524  -0.148   0.718  1.00  0.00     0.005 C 
HETATM    6  C6  UNL     1      -0.372  -1.410   0.380  1.00  0.00    -0.018 C 
HETATM    7  C7  UNL     1       0.318  -2.756   0.716  1.00  0.00     0.018 C 
HETATM    8  C15 UNL     1      -0.739  -1.390  -1.114  1.00  0.00     0.012 C 
HETATM    9  C16 UNL     1       0.463  -1.419  -2.045  1.00  0.00     0.002 C 
HETATM   10  C17 UNL     1       1.724  -0.761  -1.488  1.00  0.00     0.010 C 
HETATM   11  C18 UNL     1       1.500   0.361  -0.448  1.00  0.00    -0.032 C 
HETATM   12  C19 UNL     1       0.816   1.555  -1.171  1.00  0.00     0.016 C 
HETATM   13  C20 UNL     1       2.899   0.848   0.154  1.00  0.00     0.025 C 
ENDROOT
BRANCH   6  14
HETATM   14  C8  UNL     1      -1.696  -1.389   1.213  1.00  0.00     0.180 C 
BRANCH  14  15
HETATM   15  O1  UNL     1      -2.439  -0.193   0.996  1.00  0.00    -0.358 OA
BRANCH  15  16
HETATM   16  C9  UNL     1      -3.698  -0.401   0.356  1.00  0.00     0.291 C 
HETATM   17  O2  UNL     1      -4.569  -1.184   1.178  1.00  0.00    -0.348 OA
HETATM   18  C10 UNL     1      -5.927  -1.297   0.725  1.00  0.00     0.179 C 
HETATM   19  C12 UNL     1      -6.218  -0.620  -0.631  1.00  0.00     0.180 C 
HETATM   20  C13 UNL     1      -5.597   0.780  -0.791  1.00  0.00     0.183 C 
HETATM   21  C14 UNL     1      -4.327   0.971   0.044  1.00  0.00     0.204 C 
BRANCH  18  22
HETATM   22  C11 UNL     1      -6.872  -0.906   1.875  1.00  0.00     0.198 C 
BRANCH  22  23
HETATM   23  O3  UNL     1      -6.820   0.475   2.192  1.00  0.00    -0.398 OA
HETATM   24  H17 UNL     1      -5.870   0.709   2.301  1.00  0.00     0.209 HD
ENDBRANCH  22  23
ENDBRANCH  18  22
BRANCH  19  25
HETATM   25  O4  UNL     1      -7.606  -0.559  -0.964  1.00  0.00    -0.390 OA
HETATM   26  H19 UNL     1      -7.955  -1.470  -1.028  1.00  0.00     0.210 HD
ENDBRANCH  19  25
BRANCH  20  27
HETATM   27  O5  UNL     1      -6.533   1.826  -0.490  1.00  0.00    -0.390 OA
HETATM   28  H21 UNL     1      -7.419   1.411  -0.579  1.00  0.00     0.210 HD
ENDBRANCH  20  27
BRANCH  21  29
HETATM   29  O6  UNL     1      -4.666   1.677   1.257  1.00  0.00    -0.388 OA
HETATM   30  H23 UNL     1      -5.395   2.282   0.985  1.00  0.00     0.210 HD
ENDBRANCH  21  29
ENDBRANCH  15  16
ENDBRANCH  14  15
ENDBRANCH   6  14
BRANCH  13  31
HETATM   31  C21 UNL     1       3.906   1.534  -0.820  1.00  0.00     0.037 C 
BRANCH  31  32
HETATM   32  C22 UNL     1       4.610   0.636  -1.801  1.00  0.00    -0.010 C 
HETATM   33  C23 UNL     1       5.825   0.088  -1.621  1.00  0.00     0.044 C 
HETATM   34  C24 UNL     1       6.454  -0.777  -2.643  1.00  0.00     0.291 C 
HETATM   35  C26 UNL     1       6.726   0.135  -0.452  1.00  0.00     0.181 C 
HETATM   36  O7  UNL     1       6.053  -0.962  -3.779  1.00  0.00    -0.260 OA
HETATM   37  O8  UNL     1       7.539  -1.377  -2.084  1.00  0.00    -0.315 OA
HETATM   38  C25 UNL     1       7.570  -1.104  -0.677  1.00  0.00     0.215 C 
BRANCH  35  39
HETATM   39  O9  UNL     1       7.510   1.319  -0.528  1.00  0.00    -0.389 OA
HETATM   40  H40 UNL     1       8.052   1.368   0.277  1.00  0.00     0.210 HD
ENDBRANCH  35  39
ENDBRANCH  31  32
ENDBRANCH  13  31
TORSDOF 11
