REMARK  13 active torsions:
REMARK  status: ('A' for Active; 'I' for Inactive)
REMARK    1  A    between atoms: C3_3  and  O1_4 
REMARK    2  A    between atoms: N1_14  and  O2_16 
REMARK    3  A    between atoms: O2_16  and  C13_17 
REMARK    4  A    between atoms: C13_17  and  C14_18 
REMARK       I    between atoms: C14_18  and  N2_20 
REMARK    5  A    between atoms: N2_20  and  C15_21 
REMARK    6  A    between atoms: C15_21  and  C16_22 
REMARK    7  A    between atoms: C15_21  and  C21_33 
REMARK       I    between atoms: C16_22  and  N3_24 
REMARK    8  A    between atoms: N3_24  and  C17_25 
REMARK    9  A    between atoms: C17_25  and  C18_26 
REMARK   10  A    between atoms: C17_25  and  C20_30 
REMARK   11  A    between atoms: C18_26  and  C19_27 
REMARK   12  A    between atoms: C19_27  and  O6_29 
REMARK   13  A    between atoms: C20_30  and  O8_32 
ROOT
HETATM    1  C1  UNL     1     -10.344  -0.048  -2.126  1.00  0.00     0.015 C 
HETATM    2  C2  UNL     1      -9.193  -0.086  -1.778  1.00  0.00    -0.078 C 
HETATM    3  C3  UNL     1      -7.792  -0.149  -1.331  1.00  0.00     0.128 C 
HETATM    4  C4  UNL     1      -6.821  -0.030  -2.517  1.00  0.00     0.052 C 
HETATM    5  C5  UNL     1      -5.501   0.318  -1.843  1.00  0.00     0.010 C 
HETATM    6  C6  UNL     1      -5.908   1.406  -0.847  1.00  0.00     0.002 C 
HETATM    7  C7  UNL     1      -4.894   1.726   0.272  1.00  0.00    -0.004 C 
HETATM    8  C8  UNL     1      -3.534   2.190  -0.270  1.00  0.00     0.010 C 
HETATM    9  C9  UNL     1      -2.457   2.137   0.802  1.00  0.00     0.035 C 
HETATM   10  C10 UNL     1      -2.251   0.690   1.139  1.00  0.00    -0.069 C 
HETATM   11  C11 UNL     1      -1.085   0.081   0.849  1.00  0.00     0.030 C 
HETATM   12  C12 UNL     1      -0.897  -1.385   1.061  1.00  0.00     0.032 C 
HETATM   13  N1  UNL     1       0.237  -2.017   1.012  1.00  0.00    -0.271 N 
ATOM     14  H1  UNL     1       0.336  -3.023   1.150  1.00  0.00     0.194 HD
HETATM   15  C24 UNL     1      -2.123  -2.222   1.374  1.00  0.00     0.060 C 
HETATM   16  C25 UNL     1      -3.440  -1.486   1.142  1.00  0.00     0.020 C 
HETATM   17  C26 UNL     1      -3.455  -0.047   1.723  1.00  0.00    -0.016 C 
HETATM   18  C27 UNL     1      -3.260  -0.128   3.267  1.00  0.00     0.020 C 
HETATM   19  C28 UNL     1      -4.822   0.715   1.455  1.00  0.00     0.002 C 
HETATM   20  C29 UNL     1      -6.081  -0.171   1.550  1.00  0.00     0.007 C 
HETATM   21  C30 UNL     1      -7.340   0.590   1.144  1.00  0.00     0.014 C 
HETATM   22  C31 UNL     1      -7.344   1.010  -0.349  1.00  0.00     0.003 C 
HETATM   23  C32 UNL     1      -8.242   2.265  -0.475  1.00  0.00     0.020 C 
ENDROOT
BRANCH   3  24
HETATM   24  O1  UNL     1      -7.613  -1.432  -0.724  1.00  0.00    -0.377 OA
HETATM   25  H2  UNL     1      -7.415  -2.072  -1.428  1.00  0.00     0.211 HD
ENDBRANCH   3  24
BRANCH  13  26
HETATM   26  O2  UNL     1       1.309  -1.152   0.746  1.00  0.00    -0.271 OA
BRANCH  26  27
HETATM   27  C13 UNL     1       2.532  -1.858   0.943  1.00  0.00     0.303 C 
BRANCH  27  28
HETATM   28  C14 UNL     1       3.674  -0.864   0.807  1.00  0.00     0.244 C 
HETATM   29  O3  UNL     1       3.989  -0.082   1.703  1.00  0.00    -0.271 OA
HETATM   30  N2  UNL     1       4.323  -0.890  -0.416  1.00  0.00    -0.346 N 
HETATM   31  H16 UNL     1       4.341  -1.801  -0.872  1.00  0.00     0.163 HD
BRANCH  30  32
HETATM   32  C15 UNL     1       5.537  -0.093  -0.600  1.00  0.00     0.180 C 
BRANCH  32  33
HETATM   33  C16 UNL     1       6.722  -0.956  -0.111  1.00  0.00     0.241 C 
HETATM   34  O4  UNL     1       6.727  -2.185  -0.205  1.00  0.00    -0.271 OA
HETATM   35  N3  UNL     1       7.778  -0.258   0.419  1.00  0.00    -0.344 N 
HETATM   36  H18 UNL     1       7.688   0.740   0.593  1.00  0.00     0.163 HD
BRANCH  35  37
HETATM   37  C17 UNL     1       8.895  -0.935   1.088  1.00  0.00     0.192 C 
BRANCH  37  38
HETATM   38  C18 UNL     1       9.892  -1.550   0.110  1.00  0.00     0.146 C 
BRANCH  38  39
HETATM   39  C19 UNL     1      10.913  -0.579  -0.405  1.00  0.00     0.141 C 
HETATM   40  O5  UNL     1      12.123  -0.747  -0.410  1.00  0.00    -0.650 OA
BRANCH  39  41
HETATM   41  O6  UNL     1      10.383   0.533  -0.948  1.00  0.00    -0.776 OA
HETATM   42  H22 UNL     1      11.163   1.037  -1.266  1.00  0.00     0.167 HD
ENDBRANCH  39  41
ENDBRANCH  38  39
ENDBRANCH  37  38
BRANCH  37  43
HETATM   43  C20 UNL     1       9.559   0.050   2.050  1.00  0.00     0.164 C 
HETATM   44  O7  UNL     1       9.283   1.234   2.180  1.00  0.00    -0.648 OA
BRANCH  43  45
HETATM   45  O8  UNL     1      10.514  -0.518   2.811  1.00  0.00    -0.775 OA
HETATM   46  H23 UNL     1      10.819   0.202   3.406  1.00  0.00     0.167 HD
ENDBRANCH  43  45
ENDBRANCH  37  43
ENDBRANCH  35  37
ENDBRANCH  32  33
BRANCH  32  47
HETATM   47  C21 UNL     1       5.667   0.384  -2.059  1.00  0.00     0.009 C 
HETATM   48  C22 UNL     1       6.745   1.458  -2.214  1.00  0.00     0.012 C 
HETATM   49  C23 UNL     1       5.913  -0.746  -3.060  1.00  0.00     0.012 C 
ENDBRANCH  32  47
ENDBRANCH  30  32
ENDBRANCH  27  28
ENDBRANCH  26  27
ENDBRANCH  13  26
TORSDOF 13
