REMARK  8 active torsions:
REMARK  status: ('A' for Active; 'I' for Inactive)
REMARK    1  A    between atoms: C2_2  and  C30_34 
REMARK    2  A    between atoms: C3_3  and  C4_4 
REMARK    3  A    between atoms: C4_4  and  O1_5 
REMARK    4  A    between atoms: C4_4  and  C5_6 
REMARK    5  A    between atoms: C5_6  and  C6_7 
REMARK    6  A    between atoms: C6_7  and  C8_9 
REMARK    7  A    between atoms: C10_11  and  O2_12 
REMARK    8  A    between atoms: C30_34  and  O6_36 
ROOT
HETATM    1  C8  UNL     1       2.101   0.717  -0.482  1.00  0.00     0.001 C 
HETATM    2  C9  UNL     1       1.782   1.515  -1.779  1.00  0.00     0.038 C 
HETATM    3  C10 UNL     1       0.248   1.516  -1.935  1.00  0.00     0.131 C 
HETATM    4  C11 UNL     1      -0.284   1.151  -0.523  1.00  0.00     0.014 C 
HETATM    5  C12 UNL     1      -0.246   2.435   0.368  1.00  0.00     0.023 C 
HETATM    6  C13 UNL     1      -1.704   0.610  -0.361  1.00  0.00    -0.058 C 
HETATM    7  C14 UNL     1      -2.039  -0.182   0.692  1.00  0.00    -0.000 C 
HETATM    8  C15 UNL     1      -0.936  -0.632   1.644  1.00  0.00     0.157 C 
HETATM    9  O3  UNL     1      -1.203  -1.260   2.669  1.00  0.00    -0.293 OA
HETATM   10  C16 UNL     1       0.524  -0.312   1.343  1.00  0.00     0.094 C 
HETATM   11  C17 UNL     1       0.746   0.027  -0.131  1.00  0.00    -0.019 C 
HETATM   12  C18 UNL     1       0.570  -1.282  -0.955  1.00  0.00     0.017 C 
HETATM   13  C19 UNL     1      -3.487  -0.660   0.969  1.00  0.00    -0.008 C 
HETATM   14  C20 UNL     1      -3.522  -2.167   0.616  1.00  0.00     0.021 C 
HETATM   15  C21 UNL     1      -3.882  -0.483   2.471  1.00  0.00     0.022 C 
HETATM   16  C22 UNL     1      -5.362  -0.233   2.751  1.00  0.00     0.080 C 
HETATM   17  C23 UNL     1      -6.249  -0.794   1.668  1.00  0.00     0.135 C 
HETATM   18  O4  UNL     1      -7.158  -1.578   1.938  1.00  0.00    -0.297 OA
HETATM   19  C24 UNL     1      -6.010  -0.266   0.250  1.00  0.00     0.018 C 
HETATM   20  C25 UNL     1      -6.445  -1.324  -0.782  1.00  0.00     0.023 C 
HETATM   21  C26 UNL     1      -6.939   0.955   0.075  1.00  0.00     0.023 C 
HETATM   22  C27 UNL     1      -4.514   0.185   0.122  1.00  0.00     0.014 C 
HETATM   23  C28 UNL     1      -4.046   0.336  -1.329  1.00  0.00     0.011 C 
HETATM   24  C29 UNL     1      -2.710   1.069  -1.389  1.00  0.00     0.036 C 
ENDROOT
BRANCH   1  25
HETATM   25  C6  UNL     1       3.462  -0.040  -0.535  1.00  0.00    -0.011 C 
HETATM   26  C7  UNL     1       3.630  -1.086  -1.643  1.00  0.00     0.010 C 
BRANCH  25  27
HETATM   27  C5  UNL     1       3.829  -0.641   0.842  1.00  0.00     0.040 C 
BRANCH  27  28
HETATM   28  C4  UNL     1       5.296  -1.080   1.003  1.00  0.00     0.142 C 
BRANCH  28  29
HETATM   29  C3  UNL     1       6.258   0.062   0.882  1.00  0.00     0.018 C 
HETATM   30  C2  UNL     1       7.293   0.195   0.028  1.00  0.00     0.010 C 
HETATM   31  C1  UNL     1       7.729  -0.799  -1.004  1.00  0.00     0.055 C 
BRANCH  30  32
HETATM   32  C30 UNL     1       8.067   1.459   0.132  1.00  0.00     0.171 C 
HETATM   33  O5  UNL     1       7.778   2.442   0.791  1.00  0.00    -0.646 OA
BRANCH  32  34
HETATM   34  O6  UNL     1       9.179   1.440  -0.622  1.00  0.00    -0.773 OA
HETATM   35  H44 UNL     1       9.584   2.315  -0.449  1.00  0.00     0.167 HD
ENDBRANCH  32  34
ENDBRANCH  30  32
ENDBRANCH  28  29
BRANCH  28  36
HETATM   36  O1  UNL     1       5.470  -1.596   2.321  1.00  0.00    -0.392 OA
HETATM   37  H6  UNL     1       4.867  -2.352   2.423  1.00  0.00     0.210 HD
ENDBRANCH  28  36
ENDBRANCH  27  28
ENDBRANCH  25  27
ENDBRANCH   1  25
BRANCH   3  38
HETATM   38  O2  UNL     1      -0.210   2.776  -2.401  1.00  0.00    -0.394 OA
HETATM   39  H17 UNL     1       0.253   2.968  -3.235  1.00  0.00     0.210 HD
ENDBRANCH   3  38
TORSDOF 8
