REMARK  10 active torsions:
REMARK  status: ('A' for Active; 'I' for Inactive)
REMARK    1  A    between atoms: C2_2  and  O2_4 
REMARK    2  A    between atoms: O2_4  and  C3_5 
REMARK    3  A    between atoms: C10_12  and  O3_13 
REMARK    4  A    between atoms: O3_13  and  C11_14 
REMARK    5  A    between atoms: C13_17  and  O5_18 
REMARK    6  A    between atoms: C14_19  and  O6_20 
REMARK    7  A    between atoms: C15_21  and  O7_22 
REMARK    8  A    between atoms: C27_35  and  O9_36 
REMARK    9  A    between atoms: C27_35  and  C28_37 
REMARK   10  A    between atoms: C28_37  and  C29_39 
ROOT
HETATM    1  C3  UNL     1      -1.616  -2.044  -0.227  1.00  0.00     0.142 C 
HETATM    2  C4  UNL     1      -0.129  -1.826   0.079  1.00  0.00     0.044 C 
HETATM    3  C5  UNL     1       0.337  -0.469  -0.425  1.00  0.00    -0.025 A 
HETATM    4  C6  UNL     1       1.165  -0.568  -1.698  1.00  0.00     0.021 A 
HETATM    5  C7  UNL     1       1.829  -0.086  -0.429  1.00  0.00    -0.027 A 
HETATM    6  C8  UNL     1       2.797  -1.012   0.284  1.00  0.00     0.013 C 
HETATM    7  C9  UNL     1       4.228  -0.783  -0.175  1.00  0.00     0.034 C 
HETATM    8  C10 UNL     1       4.635   0.683  -0.014  1.00  0.00     0.133 C 
HETATM    9  C16 UNL     1       3.690   1.650  -0.799  1.00  0.00    -0.017 C 
HETATM   10  C17 UNL     1       3.849   1.476  -2.326  1.00  0.00     0.018 C 
HETATM   11  C18 UNL     1       4.116   3.101  -0.469  1.00  0.00     0.018 C 
HETATM   12  C19 UNL     1       2.218   1.394  -0.313  1.00  0.00     0.005 C 
HETATM   13  C20 UNL     1       1.165   2.305  -0.962  1.00  0.00     0.007 C 
HETATM   14  C21 UNL     1      -0.193   2.082  -0.313  1.00  0.00     0.007 C 
HETATM   15  C22 UNL     1      -0.738   0.631  -0.344  1.00  0.00     0.004 C 
HETATM   16  C23 UNL     1      -1.778   0.355   0.826  1.00  0.00    -0.027 C 
HETATM   17  C24 UNL     1      -1.112   0.545   2.215  1.00  0.00     0.016 C 
HETATM   18  C25 UNL     1      -2.957   1.382   0.704  1.00  0.00     0.042 C 
HETATM   19  C26 UNL     1      -4.214   0.544   0.804  1.00  0.00     0.131 C 
HETATM   20  O8  UNL     1      -5.369   1.167   0.280  1.00  0.00    -0.343 OA
HETATM   21  C27 UNL     1      -6.543   0.389   0.542  1.00  0.00     0.225 C 
HETATM   22  C32 UNL     1      -6.255  -1.135   0.656  1.00  0.00     0.081 C 
HETATM   23  C33 UNL     1      -5.097  -1.568  -0.262  1.00  0.00    -0.006 C 
HETATM   24  C34 UNL     1      -4.947  -3.079  -0.309  1.00  0.00     0.010 C 
HETATM   25  C35 UNL     1      -3.839  -0.700  -0.015  1.00  0.00     0.030 C 
HETATM   26  C36 UNL     1      -2.489  -1.109   0.670  1.00  0.00    -0.003 C 
HETATM   27  C37 UNL     1      -2.740  -1.796   2.041  1.00  0.00     0.019 C 
ENDROOT
BRANCH   8  28
HETATM   28  O3  UNL     1       5.986   0.820  -0.478  1.00  0.00    -0.353 OA
BRANCH  28  29
HETATM   29  C11 UNL     1       6.924   1.042   0.588  1.00  0.00     0.291 C 
HETATM   30  O4  UNL     1       6.931  -0.040   1.529  1.00  0.00    -0.356 OA
HETATM   31  C12 UNL     1       7.856  -1.066   1.193  1.00  0.00     0.205 C 
HETATM   32  C13 UNL     1       9.307  -0.563   1.263  1.00  0.00     0.173 C 
HETATM   33  C14 UNL     1       9.411   0.946   0.934  1.00  0.00     0.182 C 
HETATM   34  C15 UNL     1       8.310   1.307  -0.062  1.00  0.00     0.204 C 
BRANCH  32  35
HETATM   35  O5  UNL     1      10.097  -1.327   0.345  1.00  0.00    -0.391 OA
HETATM   36  H18 UNL     1       9.848  -1.023  -0.553  1.00  0.00     0.210 HD
ENDBRANCH  32  35
BRANCH  33  37
HETATM   37  O6  UNL     1       9.302   1.789   2.085  1.00  0.00    -0.390 OA
HETATM   38  H20 UNL     1       9.295   1.235   2.887  1.00  0.00     0.210 HD
ENDBRANCH  33  37
BRANCH  34  39
HETATM   39  O7  UNL     1       8.475   0.508  -1.255  1.00  0.00    -0.388 OA
HETATM   40  H22 UNL     1       7.575   0.464  -1.642  1.00  0.00     0.210 HD
ENDBRANCH  34  39
ENDBRANCH  28  29
ENDBRANCH   8  28
BRANCH   1  41
HETATM   41  O2  UNL     1      -1.934  -3.429   0.024  1.00  0.00    -0.315 OA
BRANCH  41  42
HETATM   42  C2  UNL     1      -1.592  -4.317  -0.950  1.00  0.00     0.255 C 
HETATM   43  C1  UNL     1      -1.979  -5.704  -0.529  1.00  0.00     0.126 C 
HETATM   44  O1  UNL     1      -1.059  -4.040  -2.016  1.00  0.00    -0.266 OA
ENDBRANCH  41  42
ENDBRANCH   1  41
BRANCH  21  45
HETATM   45  O9  UNL     1      -7.039   0.799   1.809  1.00  0.00    -0.359 OA
HETATM   46  H41 UNL     1      -6.937   1.766   1.813  1.00  0.00     0.213 HD
ENDBRANCH  21  45
BRANCH  21  47
HETATM   47  C28 UNL     1      -7.581   0.662  -0.601  1.00  0.00     0.192 C 
HETATM   48  O10 UNL     1      -7.711  -0.105  -1.562  1.00  0.00    -0.292 OA
BRANCH  47  49
HETATM   49  C29 UNL     1      -8.424   1.940  -0.499  1.00  0.00     0.053 C 
HETATM   50  C30 UNL     1      -7.576   3.182  -0.749  1.00  0.00     0.017 C 
HETATM   51  C31 UNL     1      -9.595   1.902  -1.483  1.00  0.00     0.017 C 
ENDBRANCH  47  49
ENDBRANCH  21  47
TORSDOF 10
