REMARK  12 active torsions:
REMARK  status: ('A' for Active; 'I' for Inactive)
REMARK    1  A    between atoms: O1_2  and  C2_3 
REMARK    2  A    between atoms: C2_3  and  C5_6 
REMARK    3  A    between atoms: C6_7  and  C7_8 
REMARK    4  A    between atoms: C7_8  and  C8_9 
REMARK    5  A    between atoms: C8_9  and  C10_11 
REMARK    6  A    between atoms: C28_30  and  O3_31 
REMARK    7  A    between atoms: O3_31  and  C29_32 
REMARK    8  A    between atoms: C30_34  and  C31_35 
REMARK    9  A    between atoms: C31_35  and  O5_36 
REMARK   10  A    between atoms: C32_37  and  O6_38 
REMARK   11  A    between atoms: C33_39  and  O7_40 
REMARK   12  A    between atoms: C34_41  and  O8_42 
ROOT
HETATM    1  C10 UNL     1      -3.749  -0.038  -1.174  1.00  0.00    -0.002 C 
HETATM    2  C11 UNL     1      -3.486   1.336  -1.881  1.00  0.00     0.006 C 
HETATM    3  C12 UNL     1      -1.992   1.691  -1.669  1.00  0.00     0.011 C 
HETATM    4  C13 UNL     1      -1.363   0.373  -1.189  1.00  0.00    -0.029 C 
HETATM    5  C14 UNL     1      -1.178  -0.481  -2.509  1.00  0.00     0.016 C 
HETATM    6  C15 UNL     1       0.046   0.395  -0.486  1.00  0.00     0.028 C 
HETATM    7  C16 UNL     1       0.755   1.678  -0.158  1.00  0.00    -0.021 C 
HETATM    8  C17 UNL     1       1.775   1.665   0.723  1.00  0.00     0.008 C 
HETATM    9  C18 UNL     1       2.181   0.407   1.509  1.00  0.00     0.092 C 
HETATM   10  O2  UNL     1       1.261   0.420   2.613  1.00  0.00    -0.374 OA
HETATM   11  C19 UNL     1       0.056  -0.228   2.143  1.00  0.00     0.179 C 
HETATM   12  C20 UNL     1       0.261  -0.678   0.654  1.00  0.00    -0.004 C 
HETATM   13  C21 UNL     1      -0.599  -1.914   0.365  1.00  0.00     0.014 C 
HETATM   14  C22 UNL     1      -2.116  -1.616   0.200  1.00  0.00     0.011 C 
HETATM   15  C23 UNL     1      -2.489  -0.176  -0.249  1.00  0.00    -0.032 C 
HETATM   16  C24 UNL     1      -2.724   0.756   0.979  1.00  0.00     0.016 C 
HETATM   17  C25 UNL     1       1.787  -0.909   0.787  1.00  0.00     0.036 C 
HETATM   18  C26 UNL     1       2.681  -1.191  -0.421  1.00  0.00     0.011 C 
HETATM   19  C27 UNL     1       4.154  -1.218  -0.005  1.00  0.00     0.033 C 
HETATM   20  C28 UNL     1       4.583   0.053   0.757  1.00  0.00     0.136 C 
HETATM   21  C35 UNL     1       3.668   0.355   1.989  1.00  0.00     0.014 C 
HETATM   22  C36 UNL     1       3.858  -0.725   3.092  1.00  0.00     0.021 C 
HETATM   23  C37 UNL     1       4.113   1.686   2.647  1.00  0.00     0.021 C 
ENDROOT
BRANCH  20  24
HETATM   24  O3  UNL     1       5.933  -0.067   1.222  1.00  0.00    -0.352 OA
BRANCH  24  25
HETATM   25  C29 UNL     1       6.937   0.134   0.224  1.00  0.00     0.292 C 
HETATM   26  O4  UNL     1       7.218  -1.105  -0.424  1.00  0.00    -0.348 OA
HETATM   27  C30 UNL     1       8.066  -0.942  -1.571  1.00  0.00     0.179 C 
HETATM   28  C32 UNL     1       9.258   0.004  -1.300  1.00  0.00     0.180 C 
HETATM   29  C33 UNL     1       9.481   0.182   0.207  1.00  0.00     0.183 C 
HETATM   30  C34 UNL     1       8.208   0.641   0.940  1.00  0.00     0.204 C 
BRANCH  27  31
HETATM   31  C31 UNL     1       8.546  -2.341  -1.973  1.00  0.00     0.198 C 
BRANCH  31  32
HETATM   32  O5  UNL     1       9.278  -2.287  -3.191  1.00  0.00    -0.398 OA
HETATM   33  H48 UNL     1       9.499  -3.205  -3.429  1.00  0.00     0.209 HD
ENDBRANCH  31  32
ENDBRANCH  27  31
BRANCH  28  34
HETATM   34  O6  UNL     1       8.998   1.307  -1.858  1.00  0.00    -0.390 OA
HETATM   35  H50 UNL     1       8.987   1.204  -2.827  1.00  0.00     0.210 HD
ENDBRANCH  28  34
BRANCH  29  36
HETATM   36  O7  UNL     1      10.533   1.137   0.432  1.00  0.00    -0.390 OA
HETATM   37  H52 UNL     1      10.349   1.849  -0.219  1.00  0.00     0.210 HD
ENDBRANCH  29  36
BRANCH  30  38
HETATM   38  O8  UNL     1       8.179   2.076   1.062  1.00  0.00    -0.388 OA
HETATM   39  H54 UNL     1       9.035   2.311   1.472  1.00  0.00     0.210 HD
ENDBRANCH  30  38
ENDBRANCH  24  25
ENDBRANCH  20  24
BRANCH   1  40
HETATM   40  C8  UNL     1      -5.185  -0.125  -0.567  1.00  0.00    -0.010 C 
HETATM   41  C9  UNL     1      -5.380  -1.400   0.264  1.00  0.00     0.010 C 
BRANCH  40  42
HETATM   42  C7  UNL     1      -6.253  -0.061  -1.695  1.00  0.00     0.031 C 
BRANCH  42  43
HETATM   43  C6  UNL     1      -7.694   0.195  -1.312  1.00  0.00    -0.027 C 
HETATM   44  C5  UNL     1      -8.156   0.662  -0.138  1.00  0.00     0.006 C 
BRANCH  44  45
HETATM   45  C2  UNL     1      -9.598   0.946   0.246  1.00  0.00     0.070 C 
HETATM   46  C3  UNL     1     -10.658   0.545  -0.793  1.00  0.00     0.050 C 
HETATM   47  C4  UNL     1      -9.722   2.459   0.495  1.00  0.00     0.050 C 
BRANCH  45  48
HETATM   48  O1  UNL     1      -9.858   0.335   1.523  1.00  0.00    -0.382 OA
HETATM   49  C1  UNL     1      -9.941  -1.083   1.535  1.00  0.00     0.202 C 
ENDBRANCH  45  48
ENDBRANCH  44  45
ENDBRANCH  42  43
ENDBRANCH  40  42
ENDBRANCH   1  40
TORSDOF 12
