REMARK  6 active torsions:
REMARK  status: ('A' for Active; 'I' for Inactive)
REMARK    1  A    between atoms: C2_2  and  C30_32 
REMARK    2  A    between atoms: C3_3  and  C4_4 
REMARK    3  A    between atoms: C4_4  and  C5_5 
REMARK    4  A    between atoms: C5_5  and  C6_6 
REMARK    5  A    between atoms: C6_6  and  C8_8 
REMARK    6  A    between atoms: C30_32  and  O4_34 
ROOT
HETATM    1  C8  UNL     1       1.906   0.034  -0.034  1.00  0.00    -0.002 C 
HETATM    2  C9  UNL     1       1.944   1.480   0.544  1.00  0.00     0.007 C 
HETATM    3  C10 UNL     1       0.490   1.941   0.748  1.00  0.00     0.015 C 
HETATM    4  C11 UNL     1      -0.354   0.660   0.630  1.00  0.00    -0.005 C 
HETATM    5  C12 UNL     1      -0.318  -0.043   2.023  1.00  0.00     0.021 C 
HETATM    6  C13 UNL     1      -1.832   0.751   0.277  1.00  0.00    -0.000 C 
HETATM    7  C14 UNL     1      -2.466  -0.251  -0.383  1.00  0.00    -0.060 C 
HETATM    8  C15 UNL     1      -1.676  -1.477  -0.873  1.00  0.00     0.036 C 
HETATM    9  C16 UNL     1      -0.154  -1.501  -0.619  1.00  0.00     0.015 C 
HETATM   10  C17 UNL     1       0.429  -0.086  -0.522  1.00  0.00    -0.028 C 
HETATM   11  C18 UNL     1       0.289   0.611  -1.913  1.00  0.00     0.016 C 
HETATM   12  C19 UNL     1      -3.977  -0.234  -0.720  1.00  0.00    -0.014 C 
HETATM   13  C20 UNL     1      -4.106   0.060  -2.241  1.00  0.00     0.020 C 
HETATM   14  C21 UNL     1      -4.619  -1.625  -0.441  1.00  0.00     0.021 C 
HETATM   15  C22 UNL     1      -6.108  -1.546  -0.155  1.00  0.00     0.080 C 
HETATM   16  C23 UNL     1      -6.324  -0.792   1.136  1.00  0.00     0.135 C 
HETATM   17  O1  UNL     1      -7.206  -1.148   1.918  1.00  0.00    -0.297 OA
HETATM   18  C24 UNL     1      -5.419   0.426   1.412  1.00  0.00     0.018 C 
HETATM   19  C25 UNL     1      -6.332   1.536   1.981  1.00  0.00     0.023 C 
HETATM   20  C26 UNL     1      -4.419   0.026   2.505  1.00  0.00     0.023 C 
HETATM   21  C27 UNL     1      -4.774   0.885   0.052  1.00  0.00     0.020 C 
HETATM   22  C28 UNL     1      -3.957   2.178   0.120  1.00  0.00     0.090 C 
HETATM   23  C29 UNL     1      -2.595   1.959   0.712  1.00  0.00     0.157 C 
HETATM   24  O2  UNL     1      -2.121   2.769   1.504  1.00  0.00    -0.293 OA
ENDROOT
BRANCH   1  25
HETATM   25  C6  UNL     1       3.086  -0.226  -1.022  1.00  0.00    -0.014 C 
HETATM   26  C7  UNL     1       3.021  -1.626  -1.642  1.00  0.00     0.010 C 
BRANCH  25  27
HETATM   27  C5  UNL     1       4.445  -0.028  -0.295  1.00  0.00     0.008 C 
BRANCH  27  28
HETATM   28  C4  UNL     1       5.660  -0.031  -1.232  1.00  0.00     0.028 C 
BRANCH  28  29
HETATM   29  C3  UNL     1       6.913   0.362  -0.497  1.00  0.00    -0.013 C 
HETATM   30  C2  UNL     1       7.900  -0.455  -0.074  1.00  0.00     0.008 C 
HETATM   31  C1  UNL     1       7.906  -1.949  -0.209  1.00  0.00     0.055 C 
BRANCH  30  32
HETATM   32  C30 UNL     1       9.103   0.093   0.609  1.00  0.00     0.171 C 
HETATM   33  O3  UNL     1      10.053  -0.565   0.995  1.00  0.00    -0.646 OA
BRANCH  32  34
HETATM   34  O4  UNL     1       9.076   1.425   0.782  1.00  0.00    -0.773 OA
HETATM   35  H44 UNL     1       9.922   1.613   1.237  1.00  0.00     0.167 HD
ENDBRANCH  32  34
ENDBRANCH  30  32
ENDBRANCH  28  29
ENDBRANCH  27  28
ENDBRANCH  25  27
ENDBRANCH   1  25
TORSDOF 6
