REMARK  2 active torsions:
REMARK  status: ('A' for Active; 'I' for Inactive)
REMARK    1  A    between atoms: C21_27  and  C22_28 
REMARK    2  A    between atoms: C22_28  and  O7_30 
ROOT
HETATM    1  C1  UNL     1       2.516   2.745   2.780  1.00  0.00     0.043 C 
HETATM    2  C2  UNL     1       2.014   2.582   1.366  1.00  0.00    -0.076 C 
HETATM    3  C3  UNL     1       0.715   2.271   1.154  1.00  0.00     0.084 C 
HETATM    4  C4  UNL     1       0.072   2.083  -0.163  1.00  0.00     0.283 C 
HETATM    5  O1  UNL     1       0.584   2.268  -1.251  1.00  0.00    -0.260 OA
HETATM    6  O2  UNL     1      -1.198   1.666   0.071  1.00  0.00    -0.317 OA
HETATM    7  C5  UNL     1      -2.028   1.511  -1.082  1.00  0.00     0.195 C 
HETATM    8  C6  UNL     1      -2.937   0.236  -1.042  1.00  0.00     0.053 C 
HETATM    9  C7  UNL     1      -3.789   0.227   0.286  1.00  0.00     0.159 C 
HETATM   10  C8  UNL     1      -4.891   1.250   0.330  1.00  0.00     0.011 C 
HETATM   11  C9  UNL     1      -5.501   1.698  -0.786  1.00  0.00    -0.054 C 
HETATM   12  C10 UNL     1      -6.633   2.683  -0.723  1.00  0.00     0.046 C 
HETATM   13  C11 UNL     1      -5.153   1.174  -2.118  1.00  0.00     0.180 A 
HETATM   14  O3  UNL     1      -5.114  -0.246  -2.331  1.00  0.00    -0.370 OA
HETATM   15  C12 UNL     1      -3.846   0.416  -2.280  1.00  0.00     0.170 A 
HETATM   16  O4  UNL     1      -4.423  -1.032   0.576  1.00  0.00    -0.372 OA
HETATM   17  C13 UNL     1      -3.655  -2.217   0.335  1.00  0.00     0.162 C 
HETATM   18  C14 UNL     1      -2.363  -2.225   1.151  1.00  0.00     0.068 C 
HETATM   19  C15 UNL     1      -1.365  -1.409   0.286  1.00  0.00     0.147 C 
HETATM   20  O5  UNL     1      -0.024  -1.954   0.350  1.00  0.00    -0.312 OA
HETATM   21  C16 UNL     1       0.261  -3.202  -0.072  1.00  0.00     0.283 C 
HETATM   22  O6  UNL     1      -0.404  -3.891  -0.822  1.00  0.00    -0.260 OA
HETATM   23  C17 UNL     1       1.461  -3.776   0.565  1.00  0.00     0.082 C 
HETATM   24  C18 UNL     1       2.640  -3.241   0.903  1.00  0.00     0.006 C 
HETATM   25  C19 UNL     1       3.113  -1.890   0.744  1.00  0.00    -0.001 C 
HETATM   26  C20 UNL     1       4.425  -1.609   0.828  1.00  0.00     0.007 C 
HETATM   27  C21 UNL     1       5.113  -0.276   0.654  1.00  0.00     0.172 C 
HETATM   28  O8  UNL     1       4.223   0.792   0.962  1.00  0.00    -0.379 OA
HETATM   29  C24 UNL     1       3.748   1.510  -0.176  1.00  0.00     0.173 C 
HETATM   30  C25 UNL     1       3.057   2.791   0.290  1.00  0.00     0.060 C 
HETATM   31  C26 UNL     1      -2.090  -1.135  -1.108  1.00  0.00     0.034 C 
HETATM   32  C27 UNL     1      -1.136  -1.186  -2.299  1.00  0.00     0.022 C 
HETATM   33  C28 UNL     1      -3.165  -2.206  -1.072  1.00  0.00     0.119 A 
HETATM   34  C29 UNL     1      -3.934  -2.775  -2.250  1.00  0.00     0.210 A 
HETATM   35  O9  UNL     1      -2.875  -3.496  -1.620  1.00  0.00    -0.371 OA
ENDROOT
BRANCH  27  36
HETATM   36  C22 UNL     1       6.331  -0.151   1.613  1.00  0.00     0.146 C 
HETATM   37  C23 UNL     1       7.073   1.166   1.416  1.00  0.00     0.042 C 
BRANCH  36  38
HETATM   38  O7  UNL     1       7.262  -1.221   1.434  1.00  0.00    -0.393 OA
HETATM   39  H27 UNL     1       7.704  -1.107   0.580  1.00  0.00     0.210 HD
ENDBRANCH  36  38
ENDBRANCH  27  36
TORSDOF 2
