REMARK  4 active torsions:
REMARK  status: ('A' for Active; 'I' for Inactive)
REMARK    1  A    between atoms: C2_2  and  C4_4 
REMARK    2  A    between atoms: C4_4  and  C5_5 
REMARK    3  A    between atoms: C5_5  and  O1_6 
REMARK    4  A    between atoms: C8_9  and  C9_10 
ROOT
HETATM    1  C9  UNL     1      -1.676   1.601  -0.343  1.00  0.00     0.001 C 
HETATM    2  C10 UNL     1      -1.387   2.760   0.650  1.00  0.00     0.007 C 
HETATM    3  C11 UNL     1       0.101   2.674   1.032  1.00  0.00     0.011 C 
HETATM    4  C12 UNL     1       0.729   1.740  -0.019  1.00  0.00    -0.032 C 
HETATM    5  C13 UNL     1       1.024   2.622  -1.273  1.00  0.00     0.016 C 
HETATM    6  C14 UNL     1       2.022   1.024   0.453  1.00  0.00     0.004 C 
HETATM    7  C15 UNL     1       3.238   1.948   0.597  1.00  0.00     0.007 C 
HETATM    8  C16 UNL     1       4.439   1.167   1.126  1.00  0.00     0.007 C 
HETATM    9  C17 UNL     1       4.933   0.180   0.060  1.00  0.00     0.010 C 
HETATM   10  C18 UNL     1       6.180  -0.665   0.474  1.00  0.00     0.018 C 
HETATM   11  C19 UNL     1       5.968  -1.489   1.754  1.00  0.00     0.023 C 
HETATM   12  C20 UNL     1       7.404   0.248   0.668  1.00  0.00     0.023 C 
HETATM   13  C21 UNL     1       6.525  -1.643  -0.660  1.00  0.00     0.135 C 
HETATM   14  O2  UNL     1       7.425  -2.479  -0.551  1.00  0.00    -0.297 OA
HETATM   15  C22 UNL     1       5.780  -1.487  -1.962  1.00  0.00     0.080 C 
HETATM   16  C23 UNL     1       4.277  -1.523  -1.728  1.00  0.00     0.018 C 
HETATM   17  C24 UNL     1       3.822  -0.711  -0.512  1.00  0.00    -0.026 A 
HETATM   18  C25 UNL     1       2.848  -1.415   0.403  1.00  0.00     0.021 A 
HETATM   19  C26 UNL     1       2.345  -0.231  -0.399  1.00  0.00    -0.027 A 
HETATM   20  C27 UNL     1       1.418  -0.530  -1.582  1.00  0.00     0.011 C 
HETATM   21  C28 UNL     1      -0.075  -0.178  -1.436  1.00  0.00     0.011 C 
HETATM   22  C29 UNL     1      -0.420   0.679  -0.210  1.00  0.00    -0.032 C 
HETATM   23  C30 UNL     1      -0.601  -0.282   0.997  1.00  0.00     0.016 C 
ENDROOT
BRANCH   1  24
HETATM   24  C8  UNL     1      -3.139   1.078  -0.285  1.00  0.00     0.014 C 
HETATM   25  C7  UNL     1      -3.410  -0.043  -1.294  1.00  0.00     0.010 C 
HETATM   26  C6  UNL     1      -4.895  -0.405  -1.318  1.00  0.00     0.041 C 
HETATM   27  C4  UNL     1      -5.487  -0.682   0.085  1.00  0.00     0.085 C 
HETATM   28  O3  UNL     1      -5.110   0.388   0.985  1.00  0.00    -0.377 OA
HETATM   29  C31 UNL     1      -3.711   0.679   1.079  1.00  0.00     0.174 C 
BRANCH  27  30
HETATM   30  C2  UNL     1      -7.058  -0.620   0.004  1.00  0.00     0.014 C 
HETATM   31  C1  UNL     1      -7.771  -0.707   1.362  1.00  0.00     0.012 C 
HETATM   32  C3  UNL     1      -7.682  -1.647  -0.949  1.00  0.00     0.012 C 
ENDBRANCH  27  30
BRANCH  27  33
HETATM   33  C5  UNL     1      -4.963  -2.035   0.643  1.00  0.00     0.202 C 
BRANCH  33  34
HETATM   34  O1  UNL     1      -5.289  -2.200   2.022  1.00  0.00    -0.398 OA
HETATM   35  H10 UNL     1      -5.267  -1.303   2.409  1.00  0.00     0.209 HD
ENDBRANCH  33  34
ENDBRANCH  27  33
ENDBRANCH   1  24
TORSDOF 4
