REMARK  11 active torsions:
REMARK  status: ('A' for Active; 'I' for Inactive)
REMARK    1  A    between atoms: C3_3  and  O1_4 
REMARK    2  A    between atoms: N1_14  and  O2_16 
REMARK    3  A    between atoms: O2_16  and  C13_17 
REMARK    4  A    between atoms: C13_17  and  C14_18 
REMARK       I    between atoms: C14_18  and  N2_20 
REMARK    5  A    between atoms: N2_20  and  C15_21 
REMARK    6  A    between atoms: C15_21  and  C16_22 
REMARK    7  A    between atoms: C15_21  and  C19_27 
REMARK    8  A    between atoms: C16_22  and  O5_24 
REMARK    9  A    between atoms: O5_24  and  C17_25 
REMARK   10  A    between atoms: C19_27  and  O6_28 
REMARK   11  A    between atoms: C19_27  and  C20_29 
ROOT
HETATM    1  C1  UNL     1      -8.315   3.597   1.183  1.00  0.00     0.015 C 
HETATM    2  C2  UNL     1      -7.976   2.575   0.648  1.00  0.00    -0.078 C 
HETATM    3  C3  UNL     1      -7.569   1.324  -0.032  1.00  0.00     0.128 C 
HETATM    4  C4  UNL     1      -6.306   1.598  -0.855  1.00  0.00     0.052 C 
HETATM    5  C5  UNL     1      -5.144   1.428   0.124  1.00  0.00     0.010 C 
HETATM    6  C6  UNL     1      -5.682   0.632   1.334  1.00  0.00     0.002 C 
HETATM    7  C7  UNL     1      -4.777  -0.527   1.797  1.00  0.00    -0.004 C 
HETATM    8  C8  UNL     1      -3.438  -0.023   2.352  1.00  0.00     0.010 C 
HETATM    9  C9  UNL     1      -2.416  -1.143   2.453  1.00  0.00     0.035 C 
HETATM   10  C10 UNL     1      -2.105  -1.572   1.049  1.00  0.00    -0.069 C 
HETATM   11  C11 UNL     1      -0.883  -1.342   0.533  1.00  0.00     0.030 C 
HETATM   12  C12 UNL     1      -0.563  -1.644  -0.893  1.00  0.00     0.032 C 
HETATM   13  N1  UNL     1       0.601  -1.525  -1.457  1.00  0.00    -0.271 N 
ATOM     14  H1  UNL     1       0.779  -1.724  -2.442  1.00  0.00     0.194 HD
HETATM   15  C26 UNL     1      -1.684  -2.146  -1.778  1.00  0.00     0.060 C 
HETATM   16  C27 UNL     1      -3.064  -1.797  -1.236  1.00  0.00     0.020 C 
HETATM   17  C28 UNL     1      -3.262  -2.169   0.257  1.00  0.00    -0.016 C 
HETATM   18  C29 UNL     1      -3.165  -3.714   0.398  1.00  0.00     0.020 C 
HETATM   19  C30 UNL     1      -4.690  -1.738   0.815  1.00  0.00     0.002 C 
HETATM   20  C31 UNL     1      -5.805  -1.705  -0.253  1.00  0.00     0.007 C 
HETATM   21  C32 UNL     1      -7.141  -1.241   0.322  1.00  0.00     0.014 C 
HETATM   22  C33 UNL     1      -7.124   0.188   0.953  1.00  0.00     0.003 C 
HETATM   23  C34 UNL     1      -8.037   0.119   2.199  1.00  0.00     0.020 C 
ENDROOT
BRANCH   3  24
HETATM   24  O1  UNL     1      -8.658   0.929  -0.852  1.00  0.00    -0.377 OA
HETATM   25  H2  UNL     1      -8.309   0.538  -1.668  1.00  0.00     0.211 HD
ENDBRANCH   3  24
BRANCH  13  26
HETATM   26  O2  UNL     1       1.587  -1.091  -0.554  1.00  0.00    -0.271 OA
BRANCH  26  27
HETATM   27  C13 UNL     1       2.804  -0.946  -1.266  1.00  0.00     0.303 C 
BRANCH  27  28
HETATM   28  C14 UNL     1       3.983  -0.634  -0.347  1.00  0.00     0.244 C 
HETATM   29  O3  UNL     1       3.941  -0.672   0.878  1.00  0.00    -0.271 OA
HETATM   30  N2  UNL     1       5.136  -0.315  -1.039  1.00  0.00    -0.343 N 
HETATM   31  H16 UNL     1       5.026   0.071  -1.972  1.00  0.00     0.163 HD
BRANCH  30  32
HETATM   32  C15 UNL     1       6.347   0.151  -0.329  1.00  0.00     0.217 C 
BRANCH  32  33
HETATM   33  C16 UNL     1       6.250   1.651  -0.001  1.00  0.00     0.284 C 
HETATM   34  O4  UNL     1       7.016   2.249   0.745  1.00  0.00    -0.263 OA
BRANCH  33  35
HETATM   35  O5  UNL     1       5.229   2.252  -0.689  1.00  0.00    -0.320 OA
BRANCH  35  36
HETATM   36  C17 UNL     1       5.071   3.661  -0.473  1.00  0.00     0.174 C 
HETATM   37  C18 UNL     1       5.989   4.439  -1.397  1.00  0.00     0.034 C 
ENDBRANCH  35  36
ENDBRANCH  33  35
ENDBRANCH  32  33
BRANCH  32  38
HETATM   38  C19 UNL     1       7.571  -0.143  -1.224  1.00  0.00     0.183 C 
BRANCH  38  39
HETATM   39  O6  UNL     1       7.528   0.655  -2.418  1.00  0.00    -0.388 OA
HETATM   40  H24 UNL     1       8.376   0.513  -2.878  1.00  0.00     0.210 HD
ENDBRANCH  38  39
BRANCH  38  41
HETATM   41  C20 UNL     1       8.933  -0.067  -0.568  1.00  0.00    -0.027 A 
HETATM   42  C21 UNL     1       9.634   1.142  -0.455  1.00  0.00     0.010 A 
HETATM   43  C22 UNL     1      10.897   1.181   0.139  1.00  0.00     0.001 A 
HETATM   44  C23 UNL     1      11.482   0.010   0.612  1.00  0.00     0.000 A 
HETATM   45  C24 UNL     1      10.798  -1.198   0.509  1.00  0.00     0.001 A 
HETATM   46  C25 UNL     1       9.530  -1.236  -0.072  1.00  0.00     0.010 A 
ENDBRANCH  38  41
ENDBRANCH  32  38
ENDBRANCH  30  32
ENDBRANCH  27  28
ENDBRANCH  26  27
ENDBRANCH  13  26
TORSDOF 11
