REMARK  9 active torsions:
REMARK  status: ('A' for Active; 'I' for Inactive)
REMARK    1  A    between atoms: O1_2  and  C2_3 
REMARK    2  A    between atoms: C2_3  and  C3_4 
REMARK    3  A    between atoms: C3_4  and  N1_5 
REMARK       I    between atoms: N1_5  and  C4_6 
REMARK    4  A    between atoms: C4_6  and  C5_8 
REMARK    5  A    between atoms: C5_8  and  C7_10 
REMARK    6  A    between atoms: C15_20  and  N3_21 
REMARK       I    between atoms: N3_21  and  C16_22 
REMARK    7  A    between atoms: C16_22  and  C17_24 
REMARK    8  A    between atoms: C17_24  and  N4_25 
REMARK    9  A    between atoms: C23_32  and  O4_33 
ROOT
HETATM    1  C7  UNL     1      -2.680  -0.622   0.346  1.00  0.00     0.027 C 
HETATM    2  C8  UNL     1      -2.778   0.044  -1.034  1.00  0.00     0.009 C 
HETATM    3  C9  UNL     1      -1.618   0.999  -1.292  1.00  0.00     0.010 C 
HETATM    4  C10 UNL     1      -0.235   0.325  -1.162  1.00  0.00    -0.033 C 
HETATM    5  C11 UNL     1      -0.072  -0.729  -2.288  1.00  0.00     0.016 C 
HETATM    6  C12 UNL     1       0.847   1.435  -1.349  1.00  0.00     0.058 C 
HETATM    7  C13 UNL     1       2.182   0.917  -0.956  1.00  0.00     0.010 A 
HETATM    8  C14 UNL     1       2.408  -0.156  -0.123  1.00  0.00     0.029 A 
HETATM    9  N2  UNL     1       3.743  -0.478   0.047  1.00  0.00    -0.339 N 
ATOM     10  H2  UNL     1       4.093  -1.261   0.599  1.00  0.00     0.168 HD
HETATM   11  C15 UNL     1       4.492   0.379  -0.611  1.00  0.00     0.151 A 
HETATM   12  S1  UNL     1       3.654   1.574  -1.493  1.00  0.00    -0.056 SA
HETATM   13  C20 UNL     1       1.312  -0.975   0.520  1.00  0.00     0.040 C 
HETATM   14  C21 UNL     1       1.637  -1.173   2.010  1.00  0.00     0.017 C 
HETATM   15  C22 UNL     1      -0.105  -0.313   0.273  1.00  0.00     0.033 C 
HETATM   16  C23 UNL     1      -1.289  -1.279   0.566  1.00  0.00     0.128 C 
ENDROOT
BRANCH   1  17
HETATM   17  C5  UNL     1      -3.848  -1.616   0.637  1.00  0.00     0.080 C 
HETATM   18  C6  UNL     1      -4.097  -2.664  -0.450  1.00  0.00     0.020 C 
BRANCH  17  19
HETATM   19  C4  UNL     1      -5.131  -0.886   1.043  1.00  0.00     0.222 C 
HETATM   20  N1  UNL     1      -5.848  -0.300   0.026  1.00  0.00    -0.359 N 
HETATM   21  H8  UNL     1      -5.654  -0.583  -0.923  1.00  0.00     0.162 HD
HETATM   22  O2  UNL     1      -5.466  -0.806   2.223  1.00  0.00    -0.273 OA
BRANCH  20  23
HETATM   23  C3  UNL     1      -7.131   0.336   0.276  1.00  0.00     0.148 C 
BRANCH  23  24
HETATM   24  C2  UNL     1      -7.342   1.571  -0.603  1.00  0.00     0.186 C 
BRANCH  24  25
HETATM   25  O1  UNL     1      -8.679   2.066  -0.540  1.00  0.00    -0.394 OA
HETATM   26  C1  UNL     1      -8.964   2.758   0.670  1.00  0.00     0.201 C 
ENDBRANCH  24  25
ENDBRANCH  23  24
ENDBRANCH  20  23
ENDBRANCH  17  19
ENDBRANCH   1  17
BRANCH  16  27
HETATM   27  O4  UNL     1      -1.215  -1.684   1.930  1.00  0.00    -0.395 OA
HETATM   28  H38 UNL     1      -1.594  -2.575   2.012  1.00  0.00     0.210 HD
ENDBRANCH  16  27
BRANCH  11  29
HETATM   29  N3  UNL     1       5.854   0.291  -0.588  1.00  0.00    -0.306 N 
HETATM   30  C16 UNL     1       6.773   1.155  -1.138  1.00  0.00     0.252 C 
HETATM   31  O3  UNL     1       6.548   2.159  -1.806  1.00  0.00    -0.271 OA
HETATM   32  H23 UNL     1       6.229  -0.445   0.003  1.00  0.00     0.171 HD
BRANCH  30  33
HETATM   33  C17 UNL     1       8.216   0.691  -0.887  1.00  0.00     0.373 C 
BRANCH  33  34
HETATM   34  N4  UNL     1       8.332  -0.064   0.390  1.00  0.00     0.088 N 
HETATM   35  C18 UNL     1       8.307   0.857   1.535  1.00  0.00     0.310 C 
HETATM   36  C19 UNL     1       9.589  -0.819   0.403  1.00  0.00     0.310 C 
ENDBRANCH  33  34
ENDBRANCH  30  33
ENDBRANCH  11  29
TORSDOF 9
