REMARK  12 active torsions:
REMARK  status: ('A' for Active; 'I' for Inactive)
REMARK    1  A    between atoms: C3_3  and  O1_4 
REMARK    2  A    between atoms: N1_14  and  O2_16 
REMARK    3  A    between atoms: O2_16  and  C13_17 
REMARK    4  A    between atoms: C13_17  and  C14_18 
REMARK       I    between atoms: C14_18  and  N2_20 
REMARK    5  A    between atoms: N2_20  and  C15_21 
REMARK    6  A    between atoms: C15_21  and  C16_22 
REMARK    7  A    between atoms: C15_21  and  C23_33 
REMARK       I    between atoms: C16_22  and  N3_24 
REMARK    8  A    between atoms: N3_24  and  C17_25 
REMARK    9  A    between atoms: C17_25  and  C18_26 
REMARK   10  A    between atoms: C17_25  and  C19_29 
REMARK   11  A    between atoms: C18_26  and  O6_28 
REMARK   12  A    between atoms: C19_29  and  C21_31 
ROOT
HETATM    1  C1  UNL     1      -9.591   2.326  -0.800  1.00  0.00     0.015 C 
HETATM    2  C2  UNL     1      -8.818   1.482  -0.446  1.00  0.00    -0.078 C 
HETATM    3  C3  UNL     1      -7.903   0.412   0.007  1.00  0.00     0.128 C 
HETATM    4  C4  UNL     1      -8.668  -0.643   0.836  1.00  0.00     0.052 C 
HETATM    5  C5  UNL     1      -8.403  -2.005   0.188  1.00  0.00     0.010 C 
HETATM    6  C6  UNL     1      -7.102  -1.839  -0.607  1.00  0.00     0.002 C 
HETATM    7  C7  UNL     1      -5.806  -2.254   0.154  1.00  0.00    -0.004 C 
HETATM    8  C8  UNL     1      -5.768  -1.927   1.660  1.00  0.00     0.010 C 
HETATM    9  C9  UNL     1      -4.514  -2.472   2.335  1.00  0.00     0.035 C 
HETATM   10  C10 UNL     1      -3.261  -2.000   1.645  1.00  0.00    -0.069 C 
HETATM   11  C11 UNL     1      -2.282  -1.417   2.361  1.00  0.00     0.030 C 
HETATM   12  C12 UNL     1      -0.977  -1.068   1.742  1.00  0.00     0.032 C 
HETATM   13  N1  UNL     1      -0.192  -0.267   2.401  1.00  0.00    -0.271 N 
ATOM     14  H1  UNL     1      -0.442   0.165   3.290  1.00  0.00     0.194 HD
HETATM   15  C26 UNL     1      -0.670  -1.693   0.398  1.00  0.00     0.060 C 
HETATM   16  C27 UNL     1      -1.920  -1.548  -0.470  1.00  0.00     0.020 C 
HETATM   17  C28 UNL     1      -3.184  -2.244   0.136  1.00  0.00    -0.016 C 
HETATM   18  C29 UNL     1      -3.018  -3.770  -0.112  1.00  0.00     0.020 C 
HETATM   19  C30 UNL     1      -4.521  -1.752  -0.573  1.00  0.00     0.002 C 
HETATM   20  C31 UNL     1      -4.633  -0.222  -0.756  1.00  0.00     0.007 C 
HETATM   21  C32 UNL     1      -5.845   0.175  -1.602  1.00  0.00     0.014 C 
HETATM   22  C33 UNL     1      -7.208  -0.385  -1.155  1.00  0.00     0.003 C 
HETATM   23  C34 UNL     1      -8.114  -0.420  -2.427  1.00  0.00     0.020 C 
ENDROOT
BRANCH   3  24
HETATM   24  O1  UNL     1      -6.930   1.019   0.850  1.00  0.00    -0.377 OA
HETATM   25  H2  UNL     1      -7.385   1.688   1.387  1.00  0.00     0.211 HD
ENDBRANCH   3  24
BRANCH  13  26
HETATM   26  O2  UNL     1       1.035  -0.062   1.756  1.00  0.00    -0.271 OA
BRANCH  26  27
HETATM   27  C13 UNL     1       1.516   1.232   2.102  1.00  0.00     0.303 C 
BRANCH  27  28
HETATM   28  C14 UNL     1       3.043   1.282   2.069  1.00  0.00     0.244 C 
HETATM   29  O3  UNL     1       3.758   0.543   2.742  1.00  0.00    -0.271 OA
HETATM   30  N2  UNL     1       3.569   2.270   1.252  1.00  0.00    -0.346 N 
HETATM   31  H16 UNL     1       3.027   2.488   0.423  1.00  0.00     0.163 HD
BRANCH  30  32
HETATM   32  C15 UNL     1       5.022   2.398   1.104  1.00  0.00     0.180 C 
BRANCH  32  33
HETATM   33  C16 UNL     1       5.468   1.442  -0.032  1.00  0.00     0.241 C 
HETATM   34  O4  UNL     1       4.800   1.294  -1.056  1.00  0.00    -0.271 OA
HETATM   35  N3  UNL     1       6.672   0.811   0.178  1.00  0.00    -0.344 N 
HETATM   36  H18 UNL     1       7.043   0.796   1.127  1.00  0.00     0.163 HD
BRANCH  35  37
HETATM   37  C17 UNL     1       7.119  -0.287  -0.691  1.00  0.00     0.186 C 
BRANCH  37  38
HETATM   38  C18 UNL     1       7.929  -1.254   0.180  1.00  0.00     0.163 C 
HETATM   39  O5  UNL     1       8.375  -1.007   1.294  1.00  0.00    -0.648 OA
BRANCH  38  40
HETATM   40  O6  UNL     1       8.121  -2.464  -0.375  1.00  0.00    -0.775 OA
HETATM   41  H20 UNL     1       8.625  -2.961   0.305  1.00  0.00     0.167 HD
ENDBRANCH  38  40
ENDBRANCH  37  38
BRANCH  37  42
HETATM   42  C19 UNL     1       7.874   0.230  -1.939  1.00  0.00     0.014 C 
HETATM   43  C20 UNL     1       7.766  -0.787  -3.089  1.00  0.00     0.012 C 
BRANCH  42  44
HETATM   44  C21 UNL     1       9.364   0.581  -1.719  1.00  0.00     0.002 C 
HETATM   45  C22 UNL     1       9.611   1.724  -0.750  1.00  0.00     0.005 C 
ENDBRANCH  42  44
ENDBRANCH  37  42
ENDBRANCH  35  37
ENDBRANCH  32  33
BRANCH  32  46
HETATM   46  C23 UNL     1       5.414   3.877   0.867  1.00  0.00     0.009 C 
HETATM   47  C24 UNL     1       6.905   4.116   1.116  1.00  0.00     0.012 C 
HETATM   48  C25 UNL     1       5.020   4.412  -0.512  1.00  0.00     0.012 C 
ENDBRANCH  32  46
ENDBRANCH  30  32
ENDBRANCH  27  28
ENDBRANCH  26  27
ENDBRANCH  13  26
TORSDOF 12
