REMARK  11 active torsions:
REMARK  status: ('A' for Active; 'I' for Inactive)
REMARK    1  A    between atoms: C3_3  and  O1_4 
REMARK    2  A    between atoms: N1_14  and  O2_16 
REMARK    3  A    between atoms: O2_16  and  C13_17 
REMARK    4  A    between atoms: C13_17  and  C14_18 
REMARK       I    between atoms: C14_18  and  N2_20 
REMARK    5  A    between atoms: N2_20  and  C15_21 
REMARK    6  A    between atoms: C15_21  and  C16_22 
REMARK    7  A    between atoms: C15_21  and  C19_27 
REMARK    8  A    between atoms: C16_22  and  O5_24 
REMARK    9  A    between atoms: O5_24  and  C17_25 
REMARK   10  A    between atoms: C19_27  and  O6_28 
REMARK   11  A    between atoms: C19_27  and  C20_29 
ROOT
HETATM    1  C1  UNL     1      -9.163  -2.897  -1.414  1.00  0.00     0.015 C 
HETATM    2  C2  UNL     1      -8.610  -2.065  -0.747  1.00  0.00    -0.078 C 
HETATM    3  C3  UNL     1      -7.938  -1.045   0.088  1.00  0.00     0.128 C 
HETATM    4  C4  UNL     1      -7.159  -1.732   1.220  1.00  0.00     0.052 C 
HETATM    5  C5  UNL     1      -5.725  -1.910   0.706  1.00  0.00     0.010 C 
HETATM    6  C6  UNL     1      -5.657  -1.227  -0.675  1.00  0.00     0.002 C 
HETATM    7  C7  UNL     1      -4.294  -0.600  -1.044  1.00  0.00    -0.004 C 
HETATM    8  C8  UNL     1      -3.160  -1.630  -0.926  1.00  0.00     0.010 C 
HETATM    9  C9  UNL     1      -1.824  -1.045  -1.366  1.00  0.00     0.035 C 
HETATM   10  C10 UNL     1      -1.495   0.210  -0.593  1.00  0.00    -0.069 C 
HETATM   11  C11 UNL     1      -0.317   0.307   0.050  1.00  0.00     0.030 C 
HETATM   12  C12 UNL     1       0.077   1.554   0.762  1.00  0.00     0.032 C 
HETATM   13  N1  UNL     1       1.082   1.692   1.571  1.00  0.00    -0.271 N 
ATOM     14  H1  UNL     1       1.323   2.567   2.036  1.00  0.00     0.194 HD
HETATM   15  C26 UNL     1      -0.759   2.783   0.485  1.00  0.00     0.060 C 
HETATM   16  C27 UNL     1      -2.230   2.402   0.459  1.00  0.00     0.020 C 
HETATM   17  C28 UNL     1      -2.567   1.309  -0.598  1.00  0.00    -0.016 C 
HETATM   18  C29 UNL     1      -2.575   1.965  -1.999  1.00  0.00     0.020 C 
HETATM   19  C30 UNL     1      -3.967   0.677  -0.228  1.00  0.00     0.002 C 
HETATM   20  C31 UNL     1      -5.135   1.678  -0.325  1.00  0.00     0.007 C 
HETATM   21  C32 UNL     1      -6.462   1.059   0.115  1.00  0.00     0.014 C 
HETATM   22  C33 UNL     1      -6.839  -0.230  -0.666  1.00  0.00     0.003 C 
HETATM   23  C34 UNL     1      -7.263   0.168  -2.095  1.00  0.00     0.020 C 
ENDROOT
BRANCH   3  24
HETATM   24  O1  UNL     1      -8.934  -0.196   0.640  1.00  0.00    -0.377 OA
HETATM   25  H2  UNL     1      -9.474   0.122  -0.103  1.00  0.00     0.211 HD
ENDBRANCH   3  24
BRANCH  13  26
HETATM   26  O2  UNL     1       1.798   0.497   1.732  1.00  0.00    -0.271 OA
BRANCH  26  27
HETATM   27  C13 UNL     1       2.560   0.571   2.933  1.00  0.00     0.303 C 
BRANCH  27  28
HETATM   28  C14 UNL     1       3.868  -0.198   2.806  1.00  0.00     0.244 C 
HETATM   29  O3  UNL     1       4.412  -0.737   3.767  1.00  0.00    -0.271 OA
HETATM   30  N2  UNL     1       4.425  -0.186   1.545  1.00  0.00    -0.343 N 
HETATM   31  H16 UNL     1       4.061   0.508   0.897  1.00  0.00     0.163 HD
BRANCH  30  32
HETATM   32  C15 UNL     1       5.824  -0.602   1.328  1.00  0.00     0.217 C 
BRANCH  32  33
HETATM   33  C16 UNL     1       6.788   0.565   1.599  1.00  0.00     0.284 C 
HETATM   34  O4  UNL     1       8.004   0.448   1.709  1.00  0.00    -0.263 OA
BRANCH  33  35
HETATM   35  O5  UNL     1       6.130   1.764   1.660  1.00  0.00    -0.320 OA
BRANCH  35  36
HETATM   36  C17 UNL     1       6.952   2.921   1.872  1.00  0.00     0.174 C 
HETATM   37  C18 UNL     1       7.484   3.434   0.547  1.00  0.00     0.034 C 
ENDBRANCH  35  36
ENDBRANCH  33  35
ENDBRANCH  32  33
BRANCH  32  38
HETATM   38  C19 UNL     1       5.979  -1.128  -0.116  1.00  0.00     0.183 C 
BRANCH  38  39
HETATM   39  O6  UNL     1       5.736  -0.084  -1.072  1.00  0.00    -0.388 OA
HETATM   40  H24 UNL     1       6.078  -0.404  -1.926  1.00  0.00     0.210 HD
ENDBRANCH  38  39
BRANCH  38  41
HETATM   41  C20 UNL     1       7.272  -1.861  -0.412  1.00  0.00    -0.027 A 
HETATM   42  C21 UNL     1       8.414  -1.185  -0.871  1.00  0.00     0.010 A 
HETATM   43  C22 UNL     1       9.598  -1.879  -1.125  1.00  0.00     0.001 A 
HETATM   44  C23 UNL     1       9.658  -3.256  -0.927  1.00  0.00     0.000 A 
HETATM   45  C24 UNL     1       8.534  -3.942  -0.474  1.00  0.00     0.001 A 
HETATM   46  C25 UNL     1       7.348  -3.249  -0.216  1.00  0.00     0.010 A 
ENDBRANCH  38  41
ENDBRANCH  32  38
ENDBRANCH  30  32
ENDBRANCH  27  28
ENDBRANCH  26  27
ENDBRANCH  13  26
TORSDOF 11
