REMARK  6 active torsions:
REMARK  status: ('A' for Active; 'I' for Inactive)
REMARK    1  A    between atoms: C2_2  and  C3_3 
REMARK    2  A    between atoms: C2_2  and  C27_30 
REMARK    3  A    between atoms: C3_3  and  C4_4 
REMARK    4  A    between atoms: C4_4  and  C5_5 
REMARK    5  A    between atoms: C5_5  and  C7_7 
REMARK    6  A    between atoms: C26_28  and  O3_29 
ROOT
HETATM    1  C7  UNL     1      -1.730   0.176  -0.036  1.00  0.00    -0.002 C 
HETATM    2  C8  UNL     1      -1.738   0.874   1.346  1.00  0.00     0.006 C 
HETATM    3  C9  UNL     1      -0.261   1.147   1.698  1.00  0.00     0.010 C 
HETATM    4  C10 UNL     1       0.517   0.756   0.437  1.00  0.00     0.027 C 
HETATM    5  C11 UNL     1       2.000   0.479   0.472  1.00  0.00    -0.036 C 
HETATM    6  C12 UNL     1       2.588  -0.297  -0.474  1.00  0.00     0.002 C 
HETATM    7  C13 UNL     1       1.708  -0.951  -1.530  1.00  0.00     0.157 C 
HETATM    8  O1  UNL     1       2.196  -1.667  -2.403  1.00  0.00    -0.293 OA
HETATM    9  C14 UNL     1       0.206  -0.708  -1.522  1.00  0.00     0.093 C 
HETATM   10  C15 UNL     1      -0.299  -0.434  -0.107  1.00  0.00    -0.026 C 
HETATM   11  C16 UNL     1      -0.172  -1.721   0.747  1.00  0.00     0.016 C 
HETATM   12  C17 UNL     1       4.110  -0.556  -0.525  1.00  0.00    -0.008 C 
HETATM   13  C18 UNL     1       4.320  -2.001   0.004  1.00  0.00     0.021 C 
HETATM   14  C19 UNL     1       4.691  -0.454  -1.973  1.00  0.00     0.022 C 
HETATM   15  C20 UNL     1       6.134   0.039  -2.083  1.00  0.00     0.080 C 
HETATM   16  C21 UNL     1       6.945  -0.296  -0.859  1.00  0.00     0.131 C 
HETATM   17  O2  UNL     1       8.039  -0.854  -0.942  1.00  0.00    -0.298 OA
HETATM   18  C22 UNL     1       6.388   0.161   0.481  1.00  0.00     0.056 C 
HETATM   19  C23 UNL     1       7.221   1.347   0.968  1.00  0.00     0.018 C 
HETATM   20  C24 UNL     1       4.882   0.499   0.348  1.00  0.00     0.012 C 
HETATM   21  C25 UNL     1       4.216   0.684   1.718  1.00  0.00     0.042 C 
HETATM   22  C26 UNL     1       2.778   1.174   1.556  1.00  0.00     0.148 C 
ENDROOT
BRANCH   1  23
HETATM   23  C5  UNL     1      -2.908  -0.779  -0.375  1.00  0.00    -0.014 C 
HETATM   24  C6  UNL     1      -3.571  -1.464   0.819  1.00  0.00     0.010 C 
BRANCH  23  25
HETATM   25  C4  UNL     1      -3.946  -0.110  -1.314  1.00  0.00     0.009 C 
BRANCH  25  26
HETATM   26  C3  UNL     1      -4.712   1.117  -0.796  1.00  0.00     0.034 C 
BRANCH  26  27
HETATM   27  C2  UNL     1      -5.907   0.868   0.105  1.00  0.00    -0.086 C 
HETATM   28  C1  UNL     1      -5.904   1.334   1.368  1.00  0.00     0.014 C 
BRANCH  27  29
HETATM   29  C27 UNL     1      -7.164   0.185  -0.434  1.00  0.00     0.005 C 
HETATM   30  C28 UNL     1      -7.489   0.535  -1.888  1.00  0.00     0.014 C 
HETATM   31  C29 UNL     1      -7.139  -1.332  -0.233  1.00  0.00     0.014 C 
ENDBRANCH  27  29
ENDBRANCH  26  27
ENDBRANCH  25  26
ENDBRANCH  23  25
ENDBRANCH   1  23
BRANCH  22  32
HETATM   32  O3  UNL     1       2.785   2.559   1.225  1.00  0.00    -0.391 OA
HETATM   33  H37 UNL     1       3.104   3.044   2.005  1.00  0.00     0.210 HD
ENDBRANCH  22  32
TORSDOF 6
