REMARK  17 active torsions:
REMARK  status: ('A' for Active; 'I' for Inactive)
REMARK    1  A    between atoms: C2_2  and  C3_3 
REMARK    2  A    between atoms: C2_2  and  C26_32 
REMARK    3  A    between atoms: C4_4  and  C5_5 
REMARK    4  A    between atoms: C6_6  and  C7_7 
REMARK    5  A    between atoms: C6_6  and  C9_11 
REMARK    6  A    between atoms: C7_7  and  O1_8 
REMARK    7  A    between atoms: O1_8  and  C8_9 
REMARK    8  A    between atoms: C8_9  and  O2_10 
REMARK    9  A    between atoms: C13_15  and  O3_16 
REMARK   10  A    between atoms: C14_17  and  C15_18 
REMARK   11  A    between atoms: C15_18  and  C16_19 
REMARK   12  A    between atoms: C16_19  and  C17_20 
REMARK   13  A    between atoms: C17_20  and  O4_21 
REMARK   14  A    between atoms: C19_23  and  C21_25 
REMARK   15  A    between atoms: C24_29  and  O6_31 
REMARK   16  A    between atoms: C26_32  and  C27_33 
REMARK   17  A    between atoms: C27_33  and  C28_34 
ROOT
HETATM    1  C9  UNL     1      -0.901   1.127  -1.496  1.00  0.00     0.046 C 
HETATM    2  C10 UNL     1      -0.415   1.299  -0.049  1.00  0.00     0.013 C 
HETATM    3  C11 UNL     1      -0.649  -0.049   0.628  1.00  0.00     0.017 C 
HETATM    4  C12 UNL     1      -1.896  -0.676  -0.067  1.00  0.00     0.024 C 
HETATM    5  C13 UNL     1      -1.569  -0.281  -1.554  1.00  0.00     0.138 C 
HETATM    6  C14 UNL     1      -3.227   0.076   0.458  1.00  0.00     0.029 C 
HETATM    7  C18 UNL     1      -3.875  -0.701   1.609  1.00  0.00    -0.066 C 
HETATM    8  C19 UNL     1      -4.019  -0.265   2.888  1.00  0.00    -0.021 C 
HETATM    9  C20 UNL     1      -4.746  -1.009   3.983  1.00  0.00     0.052 C 
HETATM   10  C22 UNL     1      -4.329  -2.096   1.184  1.00  0.00     0.038 C 
HETATM   11  C23 UNL     1      -3.413  -2.730   0.130  1.00  0.00     0.042 C 
HETATM   12  C24 UNL     1      -1.964  -2.240   0.244  1.00  0.00     0.065 C 
HETATM   13  C25 UNL     1      -1.389  -2.644   1.622  1.00  0.00     0.047 C 
ENDROOT
BRANCH   1  14
HETATM   14  C6  UNL     1       0.054   1.414  -2.655  1.00  0.00    -0.050 C 
HETATM   15  C5  UNL     1       1.402   1.319  -2.703  1.00  0.00     0.005 C 
BRANCH  15  16
HETATM   16  C4  UNL     1       2.323   0.776  -1.727  1.00  0.00     0.001 C 
HETATM   17  C3  UNL     1       3.657   0.832  -1.880  1.00  0.00     0.006 C 
BRANCH  17  18
HETATM   18  C2  UNL     1       4.665   0.275  -0.974  1.00  0.00    -0.067 C 
HETATM   19  C1  UNL     1       5.958   0.380  -1.328  1.00  0.00     0.019 C 
BRANCH  18  20
HETATM   20  C26 UNL     1       4.191  -0.399   0.307  1.00  0.00     0.041 C 
BRANCH  20  21
HETATM   21  C27 UNL     1       5.236  -0.921   1.316  1.00  0.00     0.032 C 
BRANCH  21  22
HETATM   22  C28 UNL     1       5.978   0.177   2.035  1.00  0.00    -0.024 C 
HETATM   23  C29 UNL     1       7.293   0.239   2.318  1.00  0.00    -0.091 C 
HETATM   24  C30 UNL     1       8.305  -0.823   1.988  1.00  0.00     0.042 C 
HETATM   25  C31 UNL     1       7.869   1.438   3.028  1.00  0.00     0.042 C 
ENDBRANCH  21  22
ENDBRANCH  20  21
ENDBRANCH  18  20
ENDBRANCH  17  18
ENDBRANCH  15  16
BRANCH  14  26
HETATM   26  C7  UNL     1      -0.700   1.840  -3.915  1.00  0.00     0.205 C 
BRANCH  26  27
HETATM   27  O1  UNL     1      -0.107   1.394  -5.132  1.00  0.00    -0.363 OA
BRANCH  27  28
HETATM   28  C8  UNL     1      -0.086  -0.018  -5.304  1.00  0.00     0.334 C 
BRANCH  28  29
HETATM   29  O2  UNL     1      -1.326  -0.641  -5.025  1.00  0.00    -0.377 OA
HETATM   30  H10 UNL     1      -1.226  -1.000  -4.119  1.00  0.00     0.212 HD
ENDBRANCH  28  29
ENDBRANCH  27  28
ENDBRANCH  26  27
ENDBRANCH  14  26
ENDBRANCH   1  14
BRANCH   5  31
HETATM   31  O3  UNL     1      -0.719  -1.216  -2.228  1.00  0.00    -0.394 OA
HETATM   32  H17 UNL     1       0.160  -1.179  -1.800  1.00  0.00     0.210 HD
ENDBRANCH   5  31
BRANCH   6  33
HETATM   33  C15 UNL     1      -4.302   0.389  -0.630  1.00  0.00     0.012 C 
BRANCH  33  34
HETATM   34  C16 UNL     1      -5.572   1.116  -0.147  1.00  0.00     0.027 C 
BRANCH  34  35
HETATM   35  C17 UNL     1      -5.323   2.511   0.415  1.00  0.00     0.164 C 
BRANCH  35  36
HETATM   36  O4  UNL     1      -4.554   3.286  -0.495  1.00  0.00    -0.401 OA
HETATM   37  H25 UNL     1      -5.130   3.493  -1.252  1.00  0.00     0.209 HD
ENDBRANCH  35  36
ENDBRANCH  34  35
ENDBRANCH  33  34
ENDBRANCH   6  33
BRANCH  12  38
HETATM   38  O6  UNL     1      -1.181  -3.028  -0.659  1.00  0.00    -0.389 OA
HETATM   39  H37 UNL     1      -1.317  -2.689  -1.568  1.00  0.00     0.210 HD
ENDBRANCH  12  38
BRANCH   8  40
HETATM   40  C21 UNL     1      -3.455   1.037   3.375  1.00  0.00     0.265 C 
HETATM   41  O5  UNL     1      -3.658   1.466   4.504  1.00  0.00    -0.302 OA
ENDBRANCH   8  40
TORSDOF 17
