REMARK  9 active torsions:
REMARK  status: ('A' for Active; 'I' for Inactive)
REMARK    1  A    between atoms: C13_13  and  S1_14 
REMARK    2  A    between atoms: C22_26  and  C23_27 
REMARK    3  A    between atoms: C23_27  and  O4_28 
REMARK    4  A    between atoms: C29_34  and  O5_35 
REMARK    5  A    between atoms: C41_48  and  C42_49 
REMARK    6  A    between atoms: C41_48  and  N1_53 
REMARK    7  A    between atoms: C42_49  and  C43_50 
REMARK    8  A    between atoms: C43_50  and  C44_51 
REMARK    9  A    between atoms: C44_51  and  O7_52 
REMARK       I    between atoms: C45_55  and  N2_56 
REMARK       I    between atoms: C45_55  and  N3_57 
ROOT
HETATM    1  C1  UNL     1      -3.732   5.225  -1.488  1.00  0.00     0.010 C 
HETATM    2  C2  UNL     1      -2.297   4.685  -1.582  1.00  0.00    -0.010 C 
HETATM    3  C3  UNL     1      -2.068   3.936  -2.911  1.00  0.00     0.009 C 
HETATM    4  C4  UNL     1      -2.420   2.438  -2.910  1.00  0.00     0.039 C 
HETATM    5  C5  UNL     1      -3.018   1.911  -1.634  1.00  0.00    -0.049 C 
HETATM    6  C6  UNL     1      -3.806   0.745  -1.655  1.00  0.00     0.044 C 
HETATM    7  C7  UNL     1      -4.400   0.262  -0.485  1.00  0.00     0.072 C 
HETATM    8  C8  UNL     1      -4.331   1.028   0.671  1.00  0.00     0.037 C 
HETATM    9  C9  UNL     1      -3.502   2.150   0.714  1.00  0.00     0.011 C 
HETATM   10  C10 UNL     1      -2.792   2.568  -0.415  1.00  0.00    -0.047 C 
HETATM   11  C11 UNL     1      -1.916   3.803  -0.350  1.00  0.00     0.024 C 
HETATM   12  C12 UNL     1      -0.382   3.542  -0.375  1.00  0.00     0.033 C 
HETATM   13  C13 UNL     1       0.403   2.980   0.851  1.00  0.00     0.139 C 
HETATM   14  C14 UNL     1       0.887   1.497   0.682  1.00  0.00     0.038 C 
HETATM   15  C15 UNL     1       2.373   1.496   0.273  1.00  0.00    -0.014 C 
HETATM   16  C16 UNL     1       3.346   1.040   1.092  1.00  0.00    -0.050 C 
HETATM   17  C17 UNL     1       2.961   0.570   2.463  1.00  0.00     0.042 C 
HETATM   18  C18 UNL     1       1.851  -0.446   2.213  1.00  0.00     0.001 C 
HETATM   19  C19 UNL     1       2.293  -1.578   1.210  1.00  0.00     0.037 C 
HETATM   20  C20 UNL     1       3.826  -1.778   0.994  1.00  0.00     0.123 C 
HETATM   21  C21 UNL     1       4.096  -3.160   0.350  1.00  0.00     0.039 C 
HETATM   22  C22 UNL     1       5.603  -3.575   0.325  1.00  0.00     0.023 C 
HETATM   23  C24 UNL     1       6.314  -3.292  -1.020  1.00  0.00     0.101 C 
HETATM   24  C25 UNL     1       6.582  -1.864  -1.226  1.00  0.00    -0.101 C 
HETATM   25  C26 UNL     1       6.630  -0.666  -1.293  1.00  0.00    -0.066 C 
HETATM   26  C27 UNL     1       6.448   0.756  -1.228  1.00  0.00     0.029 A 
HETATM   27  C28 UNL     1       7.246   1.566  -2.046  1.00  0.00     0.057 A 
HETATM   28  C29 UNL     1       7.128   2.948  -1.978  1.00  0.00     0.067 A 
HETATM   29  C30 UNL     1       6.227   3.543  -1.104  1.00  0.00     0.037 A 
HETATM   30  C31 UNL     1       5.428   2.738  -0.288  1.00  0.00     0.014 A 
HETATM   31  C32 UNL     1       5.497   1.330  -0.348  1.00  0.00    -0.006 A 
HETATM   32  C33 UNL     1       4.668   0.485   0.627  1.00  0.00     0.185 C 
HETATM   33  O6  UNL     1       4.326  -0.798   0.071  1.00  0.00    -0.371 OA
HETATM   34  C34 UNL     1       0.591   0.398   1.791  1.00  0.00     0.030 C 
HETATM   35  C35 UNL     1      -0.609  -0.495   1.490  1.00  0.00    -0.050 C 
HETATM   36  C36 UNL     1      -0.834  -1.065   0.233  1.00  0.00     0.133 A 
HETATM   37  C37 UNL     1      -2.045  -1.694  -0.060  1.00  0.00     0.138 A 
HETATM   38  C38 UNL     1      -3.081  -1.747   0.892  1.00  0.00    -0.000 C 
HETATM   39  C39 UNL     1      -2.778  -1.347   2.203  1.00  0.00     0.010 C 
HETATM   40  C40 UNL     1      -1.565  -0.712   2.490  1.00  0.00     0.006 C 
HETATM   41  C41 UNL     1      -4.531  -2.023   0.395  1.00  0.00     0.169 C 
HETATM   42  O8  UNL     1      -4.996  -0.976  -0.543  1.00  0.00    -0.316 OA
HETATM   43 NA1  UNL     1       0.000   0.000   0.000  1.00  0.00    -0.401 Na
ATOM     44  HA1 UNL     1       0.710   0.729  -0.076  1.00  0.00     0.154 HD
ENDROOT
BRANCH  41  45
HETATM   45  C42 UNL     1      -5.585  -2.077   1.552  1.00  0.00     0.069 C 
BRANCH  45  46
HETATM   46  C43 UNL     1      -7.069  -2.093   1.143  1.00  0.00     0.031 C 
BRANCH  46  47
HETATM   47  C44 UNL     1      -7.523  -3.239   0.249  1.00  0.00     0.164 C 
BRANCH  47  48
HETATM   48  O7  UNL     1      -7.055  -4.490   0.735  1.00  0.00    -0.401 OA
HETATM   49  H48 UNL     1      -6.094  -4.490   0.539  1.00  0.00     0.209 HD
ENDBRANCH  47  48
ENDBRANCH  46  47
ENDBRANCH  45  46
ENDBRANCH  41  45
BRANCH  41  50
HETATM   50  N1  UNL     1      -4.514  -3.417  -0.139  1.00  0.00    -0.336 N 
HETATM   51  C45 UNL     1      -4.550  -3.671  -1.391  1.00  0.00     0.124 C 
HETATM   52  N2  UNL     1      -4.724  -2.841  -2.441  1.00  0.00    -0.279 NA
HETATM   53  N3  UNL     1      -4.470  -4.959  -1.794  1.00  0.00    -0.279 NA
HETATM   54  H49 UNL     1      -4.768  -1.864  -2.162  1.00  0.00     0.126 HD
HETATM   55  H50 UNL     1      -4.105  -2.978  -3.226  1.00  0.00     0.126 HD
HETATM   56  H51 UNL     1      -4.013  -5.128  -2.676  1.00  0.00     0.126 HD
HETATM   57  H52 UNL     1      -4.144  -5.571  -1.055  1.00  0.00     0.126 HD
ATOM     58  H1  UNL     1      -4.472  -4.195   0.519  1.00  0.00     0.165 HD
ENDBRANCH  41  50
BRANCH  13  59
HETATM   59  S1  UNL     1      -0.111   3.568   2.450  1.00  0.00     0.106 S 
HETATM   60  O1  UNL     1       1.046   3.312   3.305  1.00  0.00    -0.595 OA
HETATM   61  O2  UNL     1      -1.296   2.791   2.790  1.00  0.00    -0.595 OA
HETATM   62  O3  UNL     1      -0.364   4.990   2.219  1.00  0.00    -0.595 OA
ENDBRANCH  13  59
BRANCH  22  63
HETATM   63  C23 UNL     1       5.727  -5.082   0.619  1.00  0.00     0.169 C 
BRANCH  63  64
HETATM   64  O4  UNL     1       5.279  -5.363   1.941  1.00  0.00    -0.400 OA
HETATM   65  H29 UNL     1       5.312  -6.327   2.054  1.00  0.00     0.209 HD
ENDBRANCH  63  64
ENDBRANCH  22  63
BRANCH  28  66
HETATM   66  O5  UNL     1       7.935   3.700  -2.782  1.00  0.00    -0.361 OA
HETATM   67  H33 UNL     1       7.754   4.636  -2.601  1.00  0.00     0.217 HD
ENDBRANCH  28  66
TORSDOF 9
