REMARK  10 active torsions:
REMARK  status: ('A' for Active; 'I' for Inactive)
REMARK    1  A    between atoms: C2_2  and  C3_3 
REMARK    2  A    between atoms: C3_3  and  N1_4 
REMARK    3  A    between atoms: N1_4  and  C4_5 
REMARK    4  A    between atoms: C9_12  and  C11_14 
REMARK    5  A    between atoms: C11_14  and  O1_15 
REMARK    6  A    between atoms: C12_16  and  O2_17 
REMARK    7  A    between atoms: C17_22  and  C18_23 
REMARK    8  A    between atoms: C18_23  and  C19_24 
REMARK       I    between atoms: C19_24  and  N3_26 
REMARK    9  A    between atoms: N3_26  and  C20_27 
REMARK   10  A    between atoms: C20_27  and  C22_29 
ROOT
HETATM    1  C4  UNL     1      -2.030   3.349  -0.014  1.00  0.00     0.145 A 
HETATM    2  N2  UNL     1      -1.035   2.492  -0.067  1.00  0.00    -0.339 N 
ATOM      3  H2  UNL     1      -0.048   2.747  -0.097  1.00  0.00     0.168 HD
HETATM    4  C5  UNL     1      -1.516   1.197  -0.077  1.00  0.00     0.030 A 
HETATM    5  C6  UNL     1      -2.893   1.093  -0.069  1.00  0.00     0.009 A 
HETATM    6  C7  UNL     1      -3.678  -0.181  -0.101  1.00  0.00     0.054 C 
HETATM    7  C8  UNL     1      -2.742  -1.334  -0.554  1.00  0.00     0.012 C 
HETATM    8  C9  UNL     1      -3.407  -2.750  -0.825  1.00  0.00     0.008 C 
HETATM    9  C10 UNL     1      -3.054  -3.169  -2.286  1.00  0.00     0.020 C 
HETATM   10  C12 UNL     1      -2.861  -3.859   0.116  1.00  0.00     0.128 C 
HETATM   11  C13 UNL     1      -1.334  -3.918   0.214  1.00  0.00     0.033 C 
HETATM   12  C14 UNL     1      -0.600  -2.598  -0.042  1.00  0.00     0.013 C 
HETATM   13  C15 UNL     1      -1.395  -1.323   0.297  1.00  0.00    -0.030 C 
HETATM   14  C16 UNL     1      -1.646  -1.268   1.830  1.00  0.00     0.016 C 
HETATM   15  C17 UNL     1      -0.581  -0.004  -0.139  1.00  0.00     0.054 C 
HETATM   16  S1  UNL     1      -3.603   2.636   0.002  1.00  0.00    -0.057 SA
ENDROOT
BRANCH  15  17
HETATM   17  C18 UNL     1       0.720   0.260   0.650  1.00  0.00     0.114 C 
BRANCH  17  18
HETATM   18  C19 UNL     1       1.913  -0.527   0.144  1.00  0.00     0.218 C 
HETATM   19  O3  UNL     1       1.959  -1.064  -0.957  1.00  0.00    -0.274 OA
HETATM   20  N3  UNL     1       2.951  -0.556   1.052  1.00  0.00    -0.353 N 
HETATM   21  H28 UNL     1       2.932   0.123   1.801  1.00  0.00     0.163 HD
BRANCH  20  22
HETATM   22  C20 UNL     1       4.248  -1.122   0.713  1.00  0.00     0.113 C 
HETATM   23  C21 UNL     1       4.779  -1.944   1.889  1.00  0.00     0.037 C 
BRANCH  22  24
HETATM   24  C22 UNL     1       5.183  -0.012   0.264  1.00  0.00    -0.036 A 
HETATM   25  C23 UNL     1       5.277   0.288  -1.106  1.00  0.00     0.009 A 
HETATM   26  C24 UNL     1       6.111   1.310  -1.562  1.00  0.00     0.001 A 
HETATM   27  C25 UNL     1       6.855   2.058  -0.655  1.00  0.00     0.000 A 
HETATM   28  C26 UNL     1       6.759   1.789   0.709  1.00  0.00     0.001 A 
HETATM   29  C27 UNL     1       5.926   0.765   1.166  1.00  0.00     0.009 A 
ENDBRANCH  22  24
ENDBRANCH  20  22
ENDBRANCH  17  18
ENDBRANCH  15  17
BRANCH   1  30
HETATM   30  N1  UNL     1      -1.899   4.694   0.017  1.00  0.00    -0.367 N 
HETATM   31  H6  UNL     1      -2.724   5.221  -0.242  1.00  0.00     0.161 HD
BRANCH  30  32
HETATM   32  C3  UNL     1      -0.655   5.262  -0.450  1.00  0.00     0.148 C 
BRANCH  32  33
HETATM   33  C2  UNL     1      -0.732   6.739  -0.203  1.00  0.00    -0.018 C 
HETATM   34  C1  UNL     1      -0.810   7.673  -1.161  1.00  0.00     0.008 C 
ENDBRANCH  32  33
ENDBRANCH  30  32
ENDBRANCH   1  30
BRANCH   8  35
HETATM   35  C11 UNL     1      -4.960  -2.738  -0.784  1.00  0.00     0.176 C 
BRANCH  35  36
HETATM   36  O1  UNL     1      -5.446  -2.454   0.522  1.00  0.00    -0.400 OA
HETATM   37  H15 UNL     1      -6.421  -2.451   0.468  1.00  0.00     0.209 HD
ENDBRANCH  35  36
ENDBRANCH   8  35
BRANCH  10  38
HETATM   38  O2  UNL     1      -3.378  -3.775   1.444  1.00  0.00    -0.395 OA
HETATM   39  H17 UNL     1      -4.237  -3.304   1.404  1.00  0.00     0.210 HD
ENDBRANCH  10  38
TORSDOF 10
