REMARK  6 active torsions:
REMARK  status: ('A' for Active; 'I' for Inactive)
REMARK    1  A    between atoms: C3_3  and  O1_4 
REMARK    2  A    between atoms: N1_14  and  O2_16 
REMARK    3  A    between atoms: O2_16  and  C13_17 
REMARK    4  A    between atoms: C13_17  and  C14_18 
REMARK       I    between atoms: C14_18  and  N2_20 
REMARK    5  A    between atoms: N2_20  and  C15_21 
REMARK    6  A    between atoms: C15_21  and  C17_23 
ROOT
HETATM    1  C1  UNL     1      -5.061  -1.360  -4.262  1.00  0.00     0.015 C 
HETATM    2  C2  UNL     1      -5.603  -1.124  -3.217  1.00  0.00    -0.078 C 
HETATM    3  C3  UNL     1      -6.263  -0.842  -1.923  1.00  0.00     0.128 C 
HETATM    4  C4  UNL     1      -6.811   0.611  -1.906  1.00  0.00     0.052 C 
HETATM    5  C5  UNL     1      -5.792   1.459  -1.116  1.00  0.00     0.010 C 
HETATM    6  C6  UNL     1      -4.619   0.515  -0.856  1.00  0.00     0.002 C 
HETATM    7  C7  UNL     1      -3.646   0.842   0.284  1.00  0.00    -0.004 C 
HETATM    8  C8  UNL     1      -3.024   2.232   0.104  1.00  0.00     0.010 C 
HETATM    9  C9  UNL     1      -2.060   2.543   1.242  1.00  0.00     0.035 C 
HETATM   10  C10 UNL     1      -0.979   1.498   1.377  1.00  0.00    -0.069 C 
HETATM   11  C11 UNL     1       0.302   1.890   1.500  1.00  0.00     0.030 C 
HETATM   12  C12 UNL     1       1.397   0.933   1.796  1.00  0.00     0.032 C 
HETATM   13  N1  UNL     1       2.588   1.427   1.997  1.00  0.00    -0.271 N 
ATOM     14  H1  UNL     1       2.812   2.420   1.934  1.00  0.00     0.194 HD
HETATM   15  C23 UNL     1       1.047  -0.533   1.928  1.00  0.00     0.060 C 
HETATM   16  C24 UNL     1      -0.203  -0.884   1.130  1.00  0.00     0.020 C 
HETATM   17  C25 UNL     1      -1.426   0.033   1.423  1.00  0.00    -0.016 C 
HETATM   18  C26 UNL     1      -1.959  -0.259   2.844  1.00  0.00     0.020 C 
HETATM   19  C27 UNL     1      -2.524  -0.243   0.320  1.00  0.00     0.002 C 
HETATM   20  C28 UNL     1      -3.125  -1.674   0.379  1.00  0.00     0.007 C 
HETATM   21  C29 UNL     1      -4.190  -1.941  -0.700  1.00  0.00     0.014 C 
HETATM   22  C30 UNL     1      -5.294  -0.866  -0.701  1.00  0.00     0.003 C 
HETATM   23  C31 UNL     1      -6.122  -1.009   0.611  1.00  0.00     0.020 C 
ENDROOT
BRANCH   3  24
HETATM   24  O1  UNL     1      -7.332  -1.766  -1.764  1.00  0.00    -0.377 OA
HETATM   25  H2  UNL     1      -7.826  -1.768  -2.601  1.00  0.00     0.211 HD
ENDBRANCH   3  24
BRANCH  13  26
HETATM   26  O2  UNL     1       3.524   0.429   2.311  1.00  0.00    -0.271 OA
BRANCH  26  27
HETATM   27  C13 UNL     1       4.627   1.024   2.990  1.00  0.00     0.303 C 
BRANCH  27  28
HETATM   28  C14 UNL     1       5.927   0.356   2.573  1.00  0.00     0.244 C 
HETATM   29  O3  UNL     1       6.740  -0.077   3.383  1.00  0.00    -0.271 OA
HETATM   30  N2  UNL     1       6.137   0.350   1.209  1.00  0.00    -0.351 N 
HETATM   31  H16 UNL     1       5.331   0.537   0.619  1.00  0.00     0.163 HD
BRANCH  30  32
HETATM   32  C15 UNL     1       7.300  -0.281   0.608  1.00  0.00     0.113 C 
HETATM   33  C16 UNL     1       8.576   0.533   0.846  1.00  0.00     0.037 C 
BRANCH  32  34
HETATM   34  C17 UNL     1       7.071  -0.501  -0.880  1.00  0.00    -0.036 A 
HETATM   35  C18 UNL     1       6.837   0.574  -1.754  1.00  0.00     0.009 A 
HETATM   36  C19 UNL     1       6.650   0.355  -3.121  1.00  0.00     0.001 A 
HETATM   37  C20 UNL     1       6.699  -0.940  -3.634  1.00  0.00     0.000 A 
HETATM   38  C21 UNL     1       6.922  -2.017  -2.779  1.00  0.00     0.001 A 
HETATM   39  C22 UNL     1       7.101  -1.800  -1.411  1.00  0.00     0.009 A 
ENDBRANCH  32  34
ENDBRANCH  30  32
ENDBRANCH  27  28
ENDBRANCH  26  27
ENDBRANCH  13  26
TORSDOF 6
