REMARK  5 active torsions:
REMARK  status: ('A' for Active; 'I' for Inactive)
REMARK    1  A    between atoms: C2_2  and  C3_3 
REMARK    2  A    between atoms: C6_6  and  O1_7 
REMARK    3  A    between atoms: C7_8  and  C8_9 
REMARK    4  A    between atoms: C8_9  and  C9_10 
REMARK    5  A    between atoms: C26_32  and  O6_33 
ROOT
HETATM    1  C3  UNL     1      -0.739  -3.626   0.740  1.00  0.00     0.008 C 
HETATM    2  C4  UNL     1      -1.652  -2.717   1.534  1.00  0.00    -0.023 C 
HETATM    3  C5  UNL     1      -2.300  -1.608   1.133  1.00  0.00     0.003 C 
HETATM    4  C6  UNL     1      -2.363  -0.908  -0.204  1.00  0.00     0.170 C 
HETATM    5  C7  UNL     1      -2.464   0.638  -0.084  1.00  0.00     0.164 C 
HETATM    6  O2  UNL     1      -1.193   1.218   0.322  1.00  0.00    -0.312 OA
HETATM    7  C12 UNL     1      -1.095   1.662   1.611  1.00  0.00     0.276 C 
HETATM    8  O3  UNL     1      -1.888   1.372   2.500  1.00  0.00    -0.264 OA
HETATM    9  C13 UNL     1      -0.002   2.765   1.731  1.00  0.00     0.095 A 
HETATM   10  C14 UNL     1       0.418   2.956   3.211  1.00  0.00     0.036 C 
HETATM   11  C15 UNL     1      -0.806   4.012   1.399  1.00  0.00     0.003 A 
HETATM   12  C16 UNL     1      -0.668   4.981   0.495  1.00  0.00     0.072 A 
HETATM   13  C17 UNL     1       0.363   5.184  -0.520  1.00  0.00     0.245 A 
HETATM   14  O4  UNL     1       0.294   6.188  -1.228  1.00  0.00    -0.268 OA
HETATM   15  N1  UNL     1       1.363   4.306  -0.706  1.00  0.00    -0.320 N 
HETATM   16  C18 UNL     1       1.751   3.104  -0.169  1.00  0.00     0.098 A 
HETATM   17  C19 UNL     1       1.206   2.416   0.849  1.00  0.00     0.045 A 
HETATM   18  C20 UNL     1       1.860   1.107   1.226  1.00  0.00     0.194 C 
HETATM   19  O5  UNL     1       1.607   0.579   2.300  1.00  0.00    -0.287 OA
HETATM   20  C21 UNL     1       2.854   0.460   0.349  1.00  0.00     0.046 A 
HETATM   21  C22 UNL     1       3.448   1.236  -0.635  1.00  0.00     0.032 A 
HETATM   22  C23 UNL     1       4.512   0.742  -1.407  1.00  0.00     0.026 A 
HETATM   23  C24 UNL     1       5.016  -0.542  -1.186  1.00  0.00    -0.027 A 
HETATM   24  C25 UNL     1       6.160  -1.057  -2.012  1.00  0.00     0.051 C 
HETATM   25  C26 UNL     1       4.404  -1.337  -0.215  1.00  0.00     0.086 A 
HETATM   26  C27 UNL     1       3.305  -0.863   0.533  1.00  0.00     0.059 A 
HETATM   27  C28 UNL     1       2.650  -1.857   1.427  1.00  0.00     0.163 C 
HETATM   28  O7  UNL     1       3.375  -2.602   2.088  1.00  0.00    -0.292 OA
HETATM   29  C29 UNL     1       1.148  -2.013   1.367  1.00  0.00     0.084 C 
HETATM   30  C30 UNL     1       0.728  -3.475   1.200  1.00  0.00     0.016 C 
HETATM   31  C31 UNL     1       2.970   2.595  -0.889  1.00  0.00     0.210 C 
HETATM   32  O8  UNL     1       3.536   3.312  -1.712  1.00  0.00    -0.285 OA
HETATM   33  H26 UNL     1       1.976   4.630  -1.460  1.00  0.00     0.169 HD
ENDROOT
BRANCH   5  34
HETATM   34  C8  UNL     1      -2.778   1.332  -1.428  1.00  0.00     0.039 C 
BRANCH  34  35
HETATM   35  C9  UNL     1      -4.088   0.926  -2.127  1.00  0.00    -0.020 C 
HETATM   36  C10 UNL     1      -4.260   1.743  -3.411  1.00  0.00     0.009 C 
HETATM   37  C11 UNL     1      -5.314   1.112  -1.231  1.00  0.00     0.009 C 
ENDBRANCH  34  35
ENDBRANCH   5  34
BRANCH   4  38
HETATM   38  O1  UNL     1      -1.259  -1.251  -1.036  1.00  0.00    -0.389 OA
HETATM   39  H10 UNL     1      -1.559  -1.169  -1.956  1.00  0.00     0.210 HD
ENDBRANCH   4  38
BRANCH   1  40
HETATM   40  C2  UNL     1      -1.238  -5.080   0.868  1.00  0.00     0.004 C 
HETATM   41  C1  UNL     1      -0.472  -6.064  -0.005  1.00  0.00     0.006 C 
ENDBRANCH   1  40
BRANCH  25  42
HETATM   42  O6  UNL     1       4.916  -2.598  -0.032  1.00  0.00    -0.359 OA
HETATM   43  H31 UNL     1       4.604  -2.940   0.837  1.00  0.00     0.217 HD
ENDBRANCH  25  42
TORSDOF 5
