REMARK  7 active torsions:
REMARK  status: ('A' for Active; 'I' for Inactive)
REMARK    1  A    between atoms: C4_4  and  C5_5 
REMARK    2  A    between atoms: C5_5  and  O1_6 
REMARK    3  A    between atoms: C5_5  and  C6_7 
REMARK    4  A    between atoms: C6_7  and  C7_8 
REMARK    5  A    between atoms: C7_8  and  C8_9 
REMARK    6  A    between atoms: C7_8  and  C9_11 
REMARK    7  A    between atoms: C8_9  and  O2_10 
ROOT
HETATM    1  C9  UNL     1       2.027  -1.245  -0.692  1.00  0.00     0.001 C 
HETATM    2  C10 UNL     1       1.986  -0.667  -2.136  1.00  0.00     0.007 C 
HETATM    3  C11 UNL     1       0.547  -0.184  -2.380  1.00  0.00     0.015 C 
HETATM    4  C12 UNL     1      -0.294  -0.890  -1.297  1.00  0.00    -0.013 C 
HETATM    5  C13 UNL     1      -0.568  -2.331  -1.825  1.00  0.00     0.021 C 
HETATM    6  C14 UNL     1      -1.641  -0.299  -0.928  1.00  0.00    -0.070 C 
HETATM    7  C15 UNL     1      -2.324   0.571  -1.689  1.00  0.00    -0.022 C 
HETATM    8  C16 UNL     1      -3.609   1.171  -1.216  1.00  0.00     0.034 C 
HETATM    9  C17 UNL     1      -4.534   0.196  -0.437  1.00  0.00     0.013 C 
HETATM   10  C18 UNL     1      -5.615   0.948   0.410  1.00  0.00     0.018 C 
HETATM   11  C19 UNL     1      -6.507   1.810  -0.516  1.00  0.00     0.023 C 
HETATM   12  C20 UNL     1      -5.050   1.891   1.487  1.00  0.00     0.023 C 
HETATM   13  C21 UNL     1      -6.512  -0.101   1.080  1.00  0.00     0.135 C 
HETATM   14  O3  UNL     1      -7.744  -0.021   1.075  1.00  0.00    -0.297 OA
HETATM   15  C22 UNL     1      -5.864  -1.269   1.781  1.00  0.00     0.080 C 
HETATM   16  C23 UNL     1      -4.347  -1.263   1.719  1.00  0.00     0.017 C 
HETATM   17  C24 UNL     1      -3.764  -0.979   0.312  1.00  0.00    -0.031 C 
HETATM   18  C25 UNL     1      -3.982  -2.267  -0.543  1.00  0.00     0.016 C 
HETATM   19  C26 UNL     1      -2.221  -0.662   0.435  1.00  0.00     0.024 C 
HETATM   20  C27 UNL     1      -1.401  -1.723   1.222  1.00  0.00     0.010 C 
HETATM   21  C28 UNL     1       0.138  -1.704   1.068  1.00  0.00     0.011 C 
HETATM   22  C29 UNL     1       0.670  -0.796  -0.058  1.00  0.00    -0.029 C 
HETATM   23  C30 UNL     1       0.793   0.646   0.514  1.00  0.00     0.016 C 
ENDROOT
BRANCH   1  24
HETATM   24  C7  UNL     1       3.403  -1.051   0.009  1.00  0.00     0.017 C 
BRANCH  24  25
HETATM   25  C6  UNL     1       3.908   0.411   0.156  1.00  0.00     0.043 C 
BRANCH  25  26
HETATM   26  C5  UNL     1       5.433   0.567  -0.004  1.00  0.00     0.141 C 
BRANCH  26  27
HETATM   27  C4  UNL     1       5.824   2.019   0.028  1.00  0.00     0.006 C 
HETATM   28  C2  UNL     1       6.690   2.638   0.855  1.00  0.00    -0.089 C 
HETATM   29  C1  UNL     1       7.476   1.979   1.955  1.00  0.00     0.042 C 
HETATM   30  C3  UNL     1       6.941   4.119   0.724  1.00  0.00     0.042 C 
ENDBRANCH  26  27
BRANCH  26  31
HETATM   31  O1  UNL     1       5.817   0.061  -1.281  1.00  0.00    -0.392 OA
HETATM   32  H9  UNL     1       6.719   0.387  -1.449  1.00  0.00     0.210 HD
ENDBRANCH  26  31
ENDBRANCH  25  26
ENDBRANCH  24  25
BRANCH  24  33
HETATM   33  C8  UNL     1       3.449  -1.784   1.359  1.00  0.00     0.169 C 
BRANCH  33  34
HETATM   34  O2  UNL     1       4.788  -1.911   1.826  1.00  0.00    -0.400 OA
HETATM   35  H15 UNL     1       5.292  -2.357   1.117  1.00  0.00     0.209 HD
ENDBRANCH  33  34
ENDBRANCH  24  33
ENDBRANCH   1  24
TORSDOF 7
