REMARK  4 active torsions:
REMARK  status: ('A' for Active; 'I' for Inactive)
REMARK    1  A    between atoms: C4_4  and  O1_5 
REMARK    2  A    between atoms: C5_6  and  O2_7 
REMARK    3  A    between atoms: C8_11  and  C9_12 
REMARK    4  A    between atoms: C19_23  and  C20_24 
ROOT
HETATM    1  C1  UNL     1      -5.085   2.933   0.938  1.00  0.00     0.040 C 
HETATM    2  C2  UNL     1      -6.143   2.234   0.089  1.00  0.00     0.123 C 
HETATM    3  C3  UNL     1      -7.021   1.272   0.887  1.00  0.00     0.069 C 
HETATM    4  C4  UNL     1      -6.287   0.006   1.320  1.00  0.00     0.188 C 
HETATM    5  C5  UNL     1      -5.278  -0.505   0.257  1.00  0.00     0.240 C 
HETATM    6  O3  UNL     1      -3.938  -0.257   0.747  1.00  0.00    -0.341 OA
HETATM    7  C6  UNL     1      -2.952  -0.626  -0.230  1.00  0.00     0.156 C 
HETATM    8  C7  UNL     1      -1.574  -0.249   0.309  1.00  0.00     0.056 C 
HETATM    9  C8  UNL     1      -0.399  -0.584  -0.657  1.00  0.00     0.043 C 
HETATM   10  C10 UNL     1      -0.750  -0.247  -2.106  1.00  0.00    -0.065 C 
HETATM   11  C11 UNL     1       0.210   0.070  -2.993  1.00  0.00    -0.022 C 
HETATM   12  C12 UNL     1       1.664  -0.008  -2.661  1.00  0.00     0.035 C 
HETATM   13  C13 UNL     1       2.025   0.380  -1.221  1.00  0.00     0.030 C 
HETATM   14  C14 UNL     1       0.883   0.197  -0.163  1.00  0.00     0.012 C 
HETATM   15  C15 UNL     1       1.288  -0.209   1.285  1.00  0.00     0.007 C 
HETATM   16  C16 UNL     1       2.751   0.005   1.648  1.00  0.00     0.016 C 
HETATM   17  C17 UNL     1       3.631  -0.751   0.646  1.00  0.00     0.023 C 
HETATM   18  C18 UNL     1       3.581  -2.263   0.876  1.00  0.00     0.022 C 
HETATM   19  C19 UNL     1       5.042  -0.137   0.272  1.00  0.00     0.098 C 
HETATM   20  C24 UNL     1       5.599  -0.867  -0.954  1.00  0.00     0.047 C 
HETATM   21  C25 UNL     1       4.310  -0.893  -1.787  1.00  0.00     0.042 C 
HETATM   22  C26 UNL     1       3.387  -0.167  -0.798  1.00  0.00     0.077 C 
HETATM   23  O7  UNL     1       4.264   0.988  -0.326  1.00  0.00    -0.362 OA
HETATM   24  C27 UNL     1      -2.178  -0.401  -2.582  1.00  0.00     0.069 C 
HETATM   25  C28 UNL     1      -3.207   0.079  -1.567  1.00  0.00     0.158 C 
HETATM   26  O8  UNL     1      -4.527  -0.238  -2.048  1.00  0.00    -0.347 OA
HETATM   27  C29 UNL     1      -5.520   0.217  -1.104  1.00  0.00     0.325 C 
HETATM   28  O9  UNL     1      -5.500   1.640  -1.040  1.00  0.00    -0.351 OA
ENDROOT
BRANCH  19  29
HETATM   29  C20 UNL     1       5.982   0.225   1.324  1.00  0.00    -0.015 A 
HETATM   30  C21 UNL     1       6.360  -0.562   2.325  1.00  0.00     0.090 A 
HETATM   31  C22 UNL     1       7.300   0.222   3.123  1.00  0.00     0.283 A 
HETATM   32  O5  UNL     1       7.846  -0.177   4.135  1.00  0.00    -0.260 OA
HETATM   33  O6  UNL     1       7.463   1.448   2.556  1.00  0.00    -0.314 OA
HETATM   34  C23 UNL     1       6.647   1.539   1.386  1.00  0.00     0.216 A 
ENDBRANCH  19  29
BRANCH   9  35
HETATM   35  C9  UNL     1      -0.127  -2.099  -0.603  1.00  0.00     0.245 C 
HETATM   36  O4  UNL     1       0.759  -2.676  -1.230  1.00  0.00    -0.306 OA
ENDBRANCH   9  35
BRANCH   5  37
HETATM   37  O2  UNL     1      -5.446  -1.923   0.132  1.00  0.00    -0.360 OA
HETATM   38  H9  UNL     1      -5.246  -2.150  -0.793  1.00  0.00     0.213 HD
ENDBRANCH   5  37
BRANCH   4  39
HETATM   39  O1  UNL     1      -5.657   0.236   2.592  1.00  0.00    -0.390 OA
HETATM   40  H8  UNL     1      -4.709   0.032   2.459  1.00  0.00     0.210 HD
ENDBRANCH   4  39
TORSDOF 4
