REMARK  7 active torsions:
REMARK  status: ('A' for Active; 'I' for Inactive)
REMARK    1  A    between atoms: C2_2  and  C30_33 
REMARK    2  A    between atoms: C3_3  and  C4_4 
REMARK    3  A    between atoms: C4_4  and  C5_5 
REMARK    4  A    between atoms: C5_5  and  C6_6 
REMARK    5  A    between atoms: C6_6  and  C8_8 
REMARK    6  A    between atoms: C15_15  and  O1_16 
REMARK    7  A    between atoms: C30_33  and  O5_35 
ROOT
HETATM    1  C8  UNL     1       2.303  -0.629   0.989  1.00  0.00    -0.002 C 
HETATM    2  C9  UNL     1       2.376   0.797   1.593  1.00  0.00     0.007 C 
HETATM    3  C10 UNL     1       0.952   1.379   1.605  1.00  0.00     0.015 C 
HETATM    4  C11 UNL     1       0.022   0.180   1.352  1.00  0.00    -0.005 C 
HETATM    5  C12 UNL     1      -0.198  -0.524   2.726  1.00  0.00     0.021 C 
HETATM    6  C13 UNL     1      -1.380   0.402   0.792  1.00  0.00     0.002 C 
HETATM    7  C14 UNL     1      -2.001  -0.544   0.035  1.00  0.00    -0.032 C 
HETATM    8  C15 UNL     1      -1.273  -1.869  -0.273  1.00  0.00     0.149 C 
HETATM    9  C16 UNL     1       0.218  -1.996   0.130  1.00  0.00     0.047 C 
HETATM   10  C17 UNL     1       0.892  -0.626   0.311  1.00  0.00    -0.026 C 
HETATM   11  C18 UNL     1       0.999   0.090  -1.073  1.00  0.00     0.016 C 
HETATM   12  C19 UNL     1      -3.466  -0.382  -0.487  1.00  0.00    -0.012 C 
HETATM   13  C20 UNL     1      -3.412   0.045  -1.975  1.00  0.00     0.021 C 
HETATM   14  C21 UNL     1      -4.242  -1.723  -0.351  1.00  0.00     0.021 C 
HETATM   15  C22 UNL     1      -5.765  -1.639  -0.337  1.00  0.00     0.080 C 
HETATM   16  C23 UNL     1      -6.313  -0.294  -0.732  1.00  0.00     0.135 C 
HETATM   17  O2  UNL     1      -7.272  -0.220  -1.504  1.00  0.00    -0.297 OA
HETATM   18  C24 UNL     1      -5.721   0.944  -0.047  1.00  0.00     0.018 C 
HETATM   19  C25 UNL     1      -6.577   1.202   1.212  1.00  0.00     0.023 C 
HETATM   20  C26 UNL     1      -5.894   2.161  -0.983  1.00  0.00     0.023 C 
HETATM   21  C27 UNL     1      -4.236   0.672   0.383  1.00  0.00     0.020 C 
HETATM   22  C28 UNL     1      -3.421   1.956   0.532  1.00  0.00     0.090 C 
HETATM   23  C29 UNL     1      -2.086   1.671   1.157  1.00  0.00     0.157 C 
HETATM   24  O3  UNL     1      -1.584   2.487   1.927  1.00  0.00    -0.293 OA
ENDROOT
BRANCH   1  25
HETATM   25  C6  UNL     1       3.566  -0.994   0.144  1.00  0.00    -0.014 C 
HETATM   26  C7  UNL     1       3.440  -2.384  -0.497  1.00  0.00     0.010 C 
BRANCH  25  27
HETATM   27  C5  UNL     1       4.881  -0.993   0.980  1.00  0.00     0.008 C 
BRANCH  27  28
HETATM   28  C4  UNL     1       5.581   0.354   1.220  1.00  0.00     0.028 C 
BRANCH  28  29
HETATM   29  C3  UNL     1       5.728   1.229   0.004  1.00  0.00    -0.013 C 
HETATM   30  C2  UNL     1       6.523   1.051  -1.072  1.00  0.00     0.008 C 
HETATM   31  C1  UNL     1       6.517   2.013  -2.223  1.00  0.00     0.055 C 
BRANCH  30  32
HETATM   32  C30 UNL     1       7.463  -0.091  -1.161  1.00  0.00     0.171 C 
HETATM   33  O4  UNL     1       8.029  -0.655  -0.243  1.00  0.00    -0.646 OA
BRANCH  32  34
HETATM   34  O5  UNL     1       7.659  -0.464  -2.437  1.00  0.00    -0.773 OA
HETATM   35  H44 UNL     1       8.285  -1.214  -2.360  1.00  0.00     0.167 HD
ENDBRANCH  32  34
ENDBRANCH  30  32
ENDBRANCH  28  29
ENDBRANCH  27  28
ENDBRANCH  25  27
ENDBRANCH   1  25
BRANCH   8  36
HETATM   36  O1  UNL     1      -1.368  -2.159  -1.664  1.00  0.00    -0.391 OA
HETATM   37  H22 UNL     1      -0.783  -1.547  -2.139  1.00  0.00     0.210 HD
ENDBRANCH   8  36
TORSDOF 7
