REMARK  12 active torsions:
REMARK  status: ('A' for Active; 'I' for Inactive)
REMARK    1  A    between atoms: C2_2  and  N1_3 
REMARK    2  A    between atoms: N1_3  and  C3_4 
REMARK    3  A    between atoms: C3_4  and  C4_5 
REMARK    4  A    between atoms: C4_5  and  C5_6 
REMARK    5  A    between atoms: C4_5  and  C32_37 
REMARK    6  A    between atoms: C5_6  and  C7_8 
REMARK    7  A    between atoms: C9_10  and  O1_11 
REMARK    8  A    between atoms: C31_35  and  O4_36 
REMARK    9  A    between atoms: C32_37  and  O5_38 
REMARK   10  A    between atoms: C32_37  and  C33_39 
REMARK   11  A    between atoms: C34_40  and  C36_42 
REMARK   12  A    between atoms: C36_42  and  O7_44 
ROOT
HETATM    1  C7  UNL     1      -1.567  -0.746  -1.048  1.00  0.00     0.002 C 
HETATM    2  C8  UNL     1      -1.219  -1.000  -2.543  1.00  0.00     0.038 C 
HETATM    3  C9  UNL     1       0.324  -1.093  -2.636  1.00  0.00     0.132 C 
HETATM    4  C10 UNL     1       0.814  -1.201  -1.158  1.00  0.00     0.017 C 
HETATM    5  C11 UNL     1       0.666  -2.692  -0.687  1.00  0.00     0.023 C 
HETATM    6  C12 UNL     1       2.249  -0.823  -0.763  1.00  0.00    -0.029 C 
HETATM    7  C13 UNL     1       2.521  -0.267   0.451  1.00  0.00     0.003 C 
HETATM    8  C14 UNL     1       1.397  -0.132   1.457  1.00  0.00     0.157 C 
HETATM    9  O2  UNL     1       1.609   0.129   2.640  1.00  0.00    -0.293 OA
HETATM   10  C15 UNL     1      -0.040  -0.311   1.021  1.00  0.00     0.094 C 
HETATM   11  C16 UNL     1      -0.209  -0.175  -0.491  1.00  0.00    -0.016 C 
HETATM   12  C17 UNL     1      -0.088   1.370  -0.876  1.00  0.00     0.011 C 
HETATM   13  C18 UNL     1       1.121   1.988  -1.607  1.00  0.00     0.001 C 
HETATM   14  C19 UNL     1       1.839   3.127  -0.869  1.00  0.00     0.000 C 
HETATM   15  C20 UNL     1       2.700   2.722   0.329  1.00  0.00     0.001 C 
HETATM   16  C21 UNL     1       3.873   1.776  -0.019  1.00  0.00     0.015 C 
HETATM   17  C22 UNL     1       3.899   0.377   0.737  1.00  0.00    -0.004 C 
HETATM   18  C23 UNL     1       4.213   0.680   2.240  1.00  0.00     0.022 C 
HETATM   19  C24 UNL     1       5.686   0.927   2.511  1.00  0.00     0.080 C 
HETATM   20  C25 UNL     1       6.448  -0.347   2.286  1.00  0.00     0.135 C 
HETATM   21  O3  UNL     1       7.418  -0.623   2.992  1.00  0.00    -0.297 OA
HETATM   22  C26 UNL     1       5.963  -1.281   1.165  1.00  0.00     0.018 C 
HETATM   23  C27 UNL     1       5.231  -2.460   1.834  1.00  0.00     0.023 C 
HETATM   24  C28 UNL     1       7.236  -1.838   0.478  1.00  0.00     0.023 C 
HETATM   25  C29 UNL     1       5.087  -0.484   0.121  1.00  0.00     0.017 C 
HETATM   26  C30 UNL     1       4.664  -1.396  -1.053  1.00  0.00     0.043 C 
HETATM   27  C31 UNL     1       3.368  -1.031  -1.760  1.00  0.00     0.149 C 
ENDROOT
BRANCH   1  28
HETATM   28  C5  UNL     1      -3.003  -0.155  -0.794  1.00  0.00    -0.005 C 
HETATM   29  C6  UNL     1      -3.406   1.086  -1.599  1.00  0.00     0.011 C 
BRANCH  28  30
HETATM   30  C4  UNL     1      -3.365  -0.079   0.737  1.00  0.00     0.050 C 
BRANCH  30  31
HETATM   31  C3  UNL     1      -3.332   1.328   1.393  1.00  0.00     0.277 C 
BRANCH  31  32
HETATM   32  N1  UNL     1      -4.528   2.144   1.228  1.00  0.00     0.083 N 
HETATM   33  H6  UNL     1      -4.704   2.340   0.244  1.00  0.00     0.315 HD
BRANCH  32  34
HETATM   34  C2  UNL     1      -4.431   3.404   1.962  1.00  0.00     0.265 C 
HETATM   35  C1  UNL     1      -5.696   4.224   1.755  1.00  0.00     0.037 C 
ENDBRANCH  32  34
ENDBRANCH  31  32
ENDBRANCH  30  31
BRANCH  30  36
HETATM   36  C32 UNL     1      -4.627  -0.906   1.133  1.00  0.00     0.147 C 
BRANCH  36  37
HETATM   37  O5  UNL     1      -4.250  -2.281   1.095  1.00  0.00    -0.391 OA
HETATM   38  H50 UNL     1      -3.962  -2.516   1.991  1.00  0.00     0.210 HD
ENDBRANCH  36  37
BRANCH  36  39
HETATM   39  C33 UNL     1      -5.862  -0.678   0.302  1.00  0.00     0.018 C 
HETATM   40  C34 UNL     1      -6.635  -1.552  -0.380  1.00  0.00     0.010 C 
HETATM   41  C35 UNL     1      -6.424  -3.041  -0.428  1.00  0.00     0.055 C 
BRANCH  40  42
HETATM   42  C36 UNL     1      -7.808  -1.060  -1.140  1.00  0.00     0.171 C 
HETATM   43  O6  UNL     1      -8.720  -1.742  -1.575  1.00  0.00    -0.646 OA
BRANCH  42  44
HETATM   44  O7  UNL     1      -7.791   0.263  -1.368  1.00  0.00    -0.773 OA
HETATM   45  H55 UNL     1      -8.613   0.403  -1.881  1.00  0.00     0.167 HD
ENDBRANCH  42  44
ENDBRANCH  40  42
ENDBRANCH  36  39
ENDBRANCH  30  36
ENDBRANCH  28  30
ENDBRANCH   1  28
BRANCH   3  46
HETATM   46  O1  UNL     1       0.661  -2.158  -3.509  1.00  0.00    -0.394 OA
HETATM   47  H18 UNL     1       1.340  -2.717  -3.069  1.00  0.00     0.210 HD
ENDBRANCH   3  46
BRANCH  27  48
HETATM   48  O4  UNL     1       3.080  -2.129  -2.621  1.00  0.00    -0.391 OA
HETATM   49  H48 UNL     1       3.224  -1.814  -3.531  1.00  0.00     0.210 HD
ENDBRANCH  27  48
TORSDOF 12
