REMARK  7 active torsions:
REMARK  status: ('A' for Active; 'I' for Inactive)
REMARK    1  A    between atoms: C2_2  and  C3_3 
REMARK    2  A    between atoms: C4_4  and  C5_5 
REMARK    3  A    between atoms: C5_5  and  O2_7 
REMARK    4  A    between atoms: O2_7  and  C6_8 
REMARK    5  A    between atoms: C6_8  and  C8_10 
REMARK    6  A    between atoms: C18_22  and  O4_23 
REMARK    7  A    between atoms: C20_26  and  O6_27 
ROOT
HETATM    1  C8  UNL     1       1.355  -0.751  -0.825  1.00  0.00     0.028 C 
HETATM    2  C9  UNL     1       1.743   0.010  -2.084  1.00  0.00     0.011 C 
HETATM    3  C10 UNL     1       0.596   1.008  -2.225  1.00  0.00     0.044 C 
HETATM    4  C11 UNL     1      -0.692   0.329  -1.623  1.00  0.00     0.097 C 
HETATM    5  O3  UNL     1      -1.701   0.287  -2.638  1.00  0.00    -0.373 OA
HETATM    6  C12 UNL     1      -1.464  -0.446  -3.825  1.00  0.00     0.199 C 
HETATM    7  C13 UNL     1      -2.034  -1.859  -3.709  1.00  0.00     0.298 C 
HETATM    8  N1  UNL     1      -1.706  -2.544  -2.447  1.00  0.00     0.087 N 
HETATM    9  C14 UNL     1      -1.999  -3.975  -2.559  1.00  0.00     0.310 C 
HETATM   10  C15 UNL     1      -0.333  -2.292  -2.009  1.00  0.00     0.285 C 
HETATM   11  C16 UNL     1      -0.170  -1.065  -1.053  1.00  0.00     0.030 C 
HETATM   12  C17 UNL     1      -0.775  -1.424   0.338  1.00  0.00     0.050 C 
HETATM   13  C18 UNL     1      -2.244  -1.059   0.532  1.00  0.00     0.159 C 
HETATM   14  C19 UNL     1      -2.531   0.459   0.272  1.00  0.00     0.124 C 
HETATM   15  O5  UNL     1      -3.692   0.547  -0.602  1.00  0.00    -0.336 OA
HETATM   16  C20 UNL     1      -4.774   1.280  -0.050  1.00  0.00     0.163 C 
HETATM   17  C21 UNL     1      -5.262   0.581   1.212  1.00  0.00     0.069 C 
HETATM   18  C22 UNL     1      -4.163   0.636   2.265  1.00  0.00     0.018 C 
HETATM   19  C23 UNL     1      -2.854   1.201   1.644  1.00  0.00    -0.002 C 
HETATM   20  C24 UNL     1      -1.732   1.104   2.696  1.00  0.00     0.019 C 
HETATM   21  C25 UNL     1      -3.147   2.681   1.260  1.00  0.00     0.005 C 
HETATM   22  C26 UNL     1      -1.898   3.350   0.680  1.00  0.00     0.033 C 
HETATM   23  C27 UNL     1      -1.159   2.482  -0.299  1.00  0.00    -0.017 C 
HETATM   24  C28 UNL     1      -1.399   1.168  -0.521  1.00  0.00    -0.011 C 
HETATM   25  C29 UNL     1      -4.322   2.708   0.256  1.00  0.00     0.074 C 
ENDROOT
BRANCH   1  26
HETATM   26  C6  UNL     1       2.324  -1.881  -0.399  1.00  0.00     0.133 C 
HETATM   27  C7  UNL     1       2.894  -2.744  -1.521  1.00  0.00     0.040 C 
BRANCH  26  28
HETATM   28  O2  UNL     1       3.505  -1.280   0.198  1.00  0.00    -0.312 OA
BRANCH  28  29
HETATM   29  C5  UNL     1       3.389  -0.777   1.461  1.00  0.00     0.296 C 
HETATM   30  O1  UNL     1       2.373  -0.860   2.140  1.00  0.00    -0.259 OA
BRANCH  29  31
HETATM   31  C4  UNL     1       4.593  -0.050   1.874  1.00  0.00     0.069 A 
HETATM   32  C3  UNL     1       4.620   1.008   2.780  1.00  0.00     0.025 A 
HETATM   33  N2  UNL     1       5.917   1.442   2.885  1.00  0.00    -0.368 N 
HETATM   34  C32 UNL     1       6.725   0.699   2.072  1.00  0.00     0.096 A 
HETATM   35  H46 UNL     1       6.228   2.210   3.470  1.00  0.00     0.165 HD
HETATM   36  C30 UNL     1       5.949  -0.246   1.429  1.00  0.00    -0.028 A 
HETATM   37  C31 UNL     1       6.446  -1.270   0.468  1.00  0.00     0.050 C 
BRANCH  32  38
HETATM   38  C2  UNL     1       3.522   1.673   3.551  1.00  0.00     0.054 C 
HETATM   39  C1  UNL     1       2.637   2.535   2.660  1.00  0.00     0.011 C 
ENDBRANCH  32  38
ENDBRANCH  29  31
ENDBRANCH  28  29
ENDBRANCH  26  28
ENDBRANCH   1  26
BRANCH  13  40
HETATM   40  O4  UNL     1      -3.082  -1.937  -0.216  1.00  0.00    -0.392 OA
HETATM   41  H27 UNL     1      -2.865  -1.782  -1.163  1.00  0.00     0.210 HD
ENDBRANCH  13  40
BRANCH  16  42
HETATM   42  O6  UNL     1      -5.805   1.297  -1.013  1.00  0.00    -0.365 OA
HETATM   43  H28 UNL     1      -5.544   0.552  -1.589  1.00  0.00     0.213 HD
ENDBRANCH  16  42
TORSDOF 7
