REMARK  5 active torsions:
REMARK  status: ('A' for Active; 'I' for Inactive)
REMARK    1  A    between atoms: C2_2  and  C25_28 
REMARK    2  A    between atoms: C3_3  and  C4_4 
REMARK    3  A    between atoms: C4_4  and  C6_6 
REMARK    4  A    between atoms: C20_20  and  O1_21 
REMARK    5  A    between atoms: C25_28  and  C27_30 
ROOT
HETATM    1  C6  UNL     1      -1.195   0.158  -0.254  1.00  0.00     0.001 C 
HETATM    2  C7  UNL     1      -1.323  -0.654  -1.585  1.00  0.00     0.006 C 
HETATM    3  C8  UNL     1       0.099  -1.053  -2.014  1.00  0.00     0.009 C 
HETATM    4  C9  UNL     1       0.943  -0.657  -0.813  1.00  0.00     0.036 C 
HETATM    5  C10 UNL     1       0.289   0.656  -0.290  1.00  0.00    -0.033 C 
HETATM    6  C11 UNL     1       0.407   1.878  -1.238  1.00  0.00     0.016 C 
HETATM    7  C12 UNL     1       0.925   1.063   1.062  1.00  0.00     0.010 C 
HETATM    8  C13 UNL     1       2.052   0.164   1.584  1.00  0.00     0.010 C 
HETATM    9  C14 UNL     1       3.010  -0.468   0.552  1.00  0.00     0.039 C 
HETATM   10  C15 UNL     1       2.461  -0.609  -0.913  1.00  0.00     0.123 C 
HETATM   11  C16 UNL     1       3.034   0.331  -1.956  1.00  0.00     0.014 C 
HETATM   12  C17 UNL     1       4.375   0.362  -1.992  1.00  0.00     0.014 C 
HETATM   13  C18 UNL     1       5.000  -0.485  -0.915  1.00  0.00     0.124 C 
HETATM   14  C19 UNL     1       6.523  -0.548  -0.967  1.00  0.00     0.078 C 
HETATM   15  C20 UNL     1       7.085  -1.528   0.073  1.00  0.00     0.121 C 
HETATM   16  C21 UNL     1       6.158  -1.803   1.263  1.00  0.00     0.033 C 
HETATM   17  C22 UNL     1       5.344  -0.573   1.656  1.00  0.00     0.015 C 
HETATM   18  C23 UNL     1       4.492   0.021   0.494  1.00  0.00     0.001 C 
HETATM   19  C24 UNL     1       4.574   1.565   0.642  1.00  0.00     0.019 C 
HETATM   20  O2  UNL     1       4.509  -1.855  -1.138  1.00  0.00    -0.223 OA
HETATM   21  O3  UNL     1       3.010  -1.878  -1.352  1.00  0.00    -0.224 OA
ENDROOT
BRANCH   1  22
HETATM   22  C4  UNL     1      -2.348   1.188  -0.098  1.00  0.00     0.009 C 
HETATM   23  C5  UNL     1      -2.279   2.050   1.165  1.00  0.00     0.014 C 
BRANCH  22  24
HETATM   24  C3  UNL     1      -3.730   0.574  -0.253  1.00  0.00    -0.019 C 
HETATM   25  C2  UNL     1      -4.365  -0.369   0.476  1.00  0.00    -0.083 C 
HETATM   26  C1  UNL     1      -3.807  -1.046   1.699  1.00  0.00     0.043 C 
BRANCH  25  27
HETATM   27  C25 UNL     1      -5.767  -0.861   0.085  1.00  0.00     0.013 C 
HETATM   28  C26 UNL     1      -5.692  -1.609  -1.257  1.00  0.00     0.015 C 
BRANCH  27  29
HETATM   29  C27 UNL     1      -6.846   0.265   0.087  1.00  0.00    -0.015 C 
HETATM   30  C28 UNL     1      -8.236  -0.269  -0.281  1.00  0.00     0.010 C 
HETATM   31  C29 UNL     1      -6.931   0.963   1.452  1.00  0.00     0.010 C 
ENDBRANCH  27  29
ENDBRANCH  25  27
ENDBRANCH  22  24
ENDBRANCH   1  22
BRANCH  15  32
HETATM   32  O1  UNL     1       8.317  -0.998   0.570  1.00  0.00    -0.395 OA
HETATM   33  H28 UNL     1       8.952  -1.001  -0.167  1.00  0.00     0.210 HD
ENDBRANCH  15  32
TORSDOF 5
