REMARK  14 active torsions:
REMARK  status: ('A' for Active; 'I' for Inactive)
REMARK    1  A    between atoms: C19_20  and  O2_21 
REMARK    2  A    between atoms: C19_20  and  C20_22 
REMARK    3  A    between atoms: C20_22  and  C21_24 
REMARK    4  A    between atoms: C21_24  and  O4_25 
REMARK    5  A    between atoms: O4_25  and  C22_26 
REMARK    6  A    between atoms: C22_26  and  C23_28 
REMARK    7  A    between atoms: C23_28  and  C24_29 
REMARK    8  A    between atoms: C24_29  and  C25_30 
REMARK       I    between atoms: C25_30  and  N1_32 
REMARK    9  A    between atoms: N1_32  and  C26_33 
REMARK   10  A    between atoms: C26_33  and  C27_34 
REMARK   11  A    between atoms: C26_33  and  C36_45 
REMARK   12  A    between atoms: C27_34  and  C28_35 
REMARK   13  A    between atoms: C33_41  and  O7_42 
REMARK   14  A    between atoms: C36_45  and  O9_47 
ROOT
HETATM    1  O4  UNL     1       1.708  -1.230   1.035  1.00  0.00    -0.314 OA
ENDROOT
BRANCH   1   2
HETATM    2  C21 UNL     1       0.954  -0.360   0.188  1.00  0.00     0.260 C 
BRANCH   2   3
HETATM    3  C20 UNL     1      -0.550  -0.650   0.251  1.00  0.00     0.185 C 
HETATM    4  O3  UNL     1      -0.957  -1.771   0.572  1.00  0.00    -0.292 OA
BRANCH   3   5
HETATM    5  C19 UNL     1      -1.505   0.488  -0.214  1.00  0.00     0.128 C 
HETATM    6  C14 UNL     1      -2.901   0.547   0.492  1.00  0.00    -0.002 C 
HETATM    7  C13 UNL     1      -3.590   1.922   0.245  1.00  0.00     0.013 C 
HETATM    8  C15 UNL     1      -2.803   0.316   2.012  1.00  0.00     0.019 C 
HETATM    9  C16 UNL     1      -3.679  -0.580  -0.222  1.00  0.00     0.002 C 
HETATM   10  C12 UNL     1      -5.095   1.928   0.525  1.00  0.00     0.007 C 
HETATM   11  C11 UNL     1      -5.835   0.851  -0.289  1.00  0.00     0.002 C 
HETATM   12  C2  UNL     1      -7.396   0.854  -0.085  1.00  0.00    -0.016 C 
HETATM   13  C10 UNL     1      -5.206  -0.544   0.011  1.00  0.00    -0.004 C 
HETATM   14  C1  UNL     1      -7.785   0.652   1.403  1.00  0.00     0.020 C 
HETATM   15  C3  UNL     1      -8.071   2.191  -0.513  1.00  0.00     0.022 C 
HETATM   16  C7  UNL     1      -7.934  -0.298  -0.938  1.00  0.00    -0.068 C 
HETATM   17  C4  UNL     1      -8.183   2.373  -2.017  1.00  0.00     0.084 C 
HETATM   18  C5  UNL     1      -8.920   1.205  -2.622  1.00  0.00     0.149 C 
HETATM   19  O1  UNL     1      -9.623   1.313  -3.626  1.00  0.00    -0.293 OA
HETATM   20  C6  UNL     1      -8.676  -0.140  -2.050  1.00  0.00     0.053 C 
HETATM   21  C8  UNL     1      -7.427  -1.669  -0.567  1.00  0.00     0.035 C 
HETATM   22  C9  UNL     1      -5.910  -1.688  -0.749  1.00  0.00     0.010 C 
HETATM   23  C17 UNL     1      -3.221  -0.482  -1.689  1.00  0.00     0.009 C 
HETATM   24  C18 UNL     1      -1.857   0.217  -1.688  1.00  0.00     0.047 C 
BRANCH   5  25
HETATM   25  O2  UNL     1      -0.851   1.752  -0.118  1.00  0.00    -0.381 OA
HETATM   26  H27 UNL     1      -0.794   1.990   0.828  1.00  0.00     0.211 HD
ENDBRANCH   5  25
ENDBRANCH   3   5
ENDBRANCH   2   3
ENDBRANCH   1   2
BRANCH   1  27
HETATM   27  C22 UNL     1       1.526  -0.977   2.363  1.00  0.00     0.259 C 
HETATM   28  O5  UNL     1       0.791  -0.101   2.810  1.00  0.00    -0.265 OA
BRANCH  27  29
HETATM   29  C23 UNL     1       2.259  -1.970   3.238  1.00  0.00     0.120 C 
BRANCH  29  30
HETATM   30  C24 UNL     1       3.505  -2.579   2.602  1.00  0.00     0.112 C 
BRANCH  30  31
HETATM   31  C25 UNL     1       4.560  -1.535   2.303  1.00  0.00     0.218 C 
HETATM   32  O6  UNL     1       4.431  -0.344   2.573  1.00  0.00    -0.274 OA
HETATM   33  N1  UNL     1       5.686  -2.058   1.722  1.00  0.00    -0.346 N 
HETATM   34  H34 UNL     1       5.806  -3.064   1.633  1.00  0.00     0.163 HD
BRANCH  33  35
HETATM   35  C26 UNL     1       6.819  -1.218   1.305  1.00  0.00     0.186 C 
BRANCH  35  36
HETATM   36  C27 UNL     1       6.571  -0.679  -0.109  1.00  0.00     0.077 C 
BRANCH  36  37
HETATM   37  C28 UNL     1       7.422   0.496  -0.478  1.00  0.00    -0.028 A 
HETATM   38  C29 UNL     1       7.237   1.796  -0.048  1.00  0.00     0.096 A 
HETATM   39  N2  UNL     1       8.201   2.580  -0.617  1.00  0.00    -0.365 N 
HETATM   40  C30 UNL     1       9.020   1.821  -1.420  1.00  0.00     0.043 A 
HETATM   41  H39 UNL     1       8.298   3.576  -0.476  1.00  0.00     0.165 HD
HETATM   42  C31 UNL     1      10.126   2.199  -2.192  1.00  0.00     0.033 A 
HETATM   43  C35 UNL     1       8.553   0.507  -1.356  1.00  0.00     0.001 A 
HETATM   44  C32 UNL     1      10.779   1.200  -2.923  1.00  0.00     0.039 A 
HETATM   45  C33 UNL     1      10.331  -0.115  -2.872  1.00  0.00     0.066 A 
HETATM   46  C34 UNL     1       9.226  -0.481  -2.104  1.00  0.00     0.050 A 
BRANCH  45  47
HETATM   47  O7  UNL     1      10.961  -1.102  -3.579  1.00  0.00    -0.361 OA
HETATM   48  H42 UNL     1      11.733  -0.714  -4.024  1.00  0.00     0.217 HD
ENDBRANCH  45  47
ENDBRANCH  36  37
ENDBRANCH  35  36
BRANCH  35  49
HETATM   49  C36 UNL     1       8.100  -2.056   1.339  1.00  0.00     0.163 C 
HETATM   50  O8  UNL     1       9.252  -1.660   1.249  1.00  0.00    -0.648 OA
BRANCH  49  51
HETATM   51  O9  UNL     1       7.868  -3.390   1.447  1.00  0.00    -0.775 OA
HETATM   52  H44 UNL     1       8.777  -3.764   1.446  1.00  0.00     0.167 HD
ENDBRANCH  49  51
ENDBRANCH  35  49
ENDBRANCH  33  35
ENDBRANCH  30  31
ENDBRANCH  29  30
ENDBRANCH  27  29
ENDBRANCH   1  27
TORSDOF 14
