REMARK  12 active torsions:
REMARK  status: ('A' for Active; 'I' for Inactive)
REMARK    1  A    between atoms: C2_2  and  C3_3 
REMARK    2  A    between atoms: C4_4  and  C18_19 
REMARK    3  A    between atoms: C19_20  and  O1_21 
REMARK    4  A    between atoms: N2_22  and  C20_23 
REMARK    5  A    between atoms: C20_23  and  C21_24 
REMARK    6  A    between atoms: C21_24  and  O3_26 
REMARK    7  A    between atoms: O3_26  and  C22_27 
REMARK    8  A    between atoms: C25_30  and  C26_31 
REMARK    9  A    between atoms: C32_38  and  C33_39 
REMARK   10  A    between atoms: C39_47  and  O7_48 
REMARK   11  A    between atoms: C43_52  and  O8_53 
REMARK   12  A    between atoms: C45_55  and  O9_56 
ROOT
HETATM    1  C22 UNL     1      -0.146  -1.725   1.369  1.00  0.00     0.135 C 
HETATM    2  C23 UNL     1       0.182  -2.401   0.041  1.00  0.00     0.034 C 
HETATM    3  C24 UNL     1       1.657  -2.263  -0.292  1.00  0.00     0.022 C 
HETATM    4  C25 UNL     1       2.051  -0.783  -0.579  1.00  0.00     0.048 C 
HETATM    5  C27 UNL     1       3.605  -0.594  -0.437  1.00  0.00     0.011 C 
HETATM    6  C28 UNL     1       4.469  -1.657  -1.148  1.00  0.00     0.007 C 
HETATM    7  C29 UNL     1       5.597  -1.092  -2.003  1.00  0.00     0.013 C 
HETATM    8  C30 UNL     1       6.469   0.010  -1.335  1.00  0.00    -0.005 C 
HETATM    9  C31 UNL     1       7.314   0.611  -2.485  1.00  0.00     0.019 C 
HETATM   10  C32 UNL     1       7.354  -0.631  -0.196  1.00  0.00     0.028 C 
HETATM   11  C37 UNL     1       6.642  -0.259   1.112  1.00  0.00     0.013 C 
HETATM   12  C38 UNL     1       6.020   1.099   0.853  1.00  0.00     0.040 C 
HETATM   13  C39 UNL     1       5.567   1.093  -0.618  1.00  0.00     0.070 C 
HETATM   14  C40 UNL     1       4.038   0.842  -0.819  1.00  0.00     0.026 C 
HETATM   15  C41 UNL     1       3.129   1.917  -0.175  1.00  0.00     0.011 C 
HETATM   16  C42 UNL     1       2.211   1.362   0.909  1.00  0.00     0.039 C 
HETATM   17  C43 UNL     1       1.306   0.203   0.414  1.00  0.00     0.074 C 
HETATM   18  C44 UNL     1       0.769  -0.528   1.670  1.00  0.00     0.071 C 
ENDROOT
BRANCH   1  19
HETATM   19  O3  UNL     1      -1.535  -1.334   1.302  1.00  0.00    -0.315 OA
BRANCH  19  20
HETATM   20  C21 UNL     1      -2.187  -1.212   2.488  1.00  0.00     0.285 C 
HETATM   21  O2  UNL     1      -1.664  -1.301   3.590  1.00  0.00    -0.263 OA
BRANCH  20  22
HETATM   22  C20 UNL     1      -3.665  -0.934   2.264  1.00  0.00     0.352 C 
BRANCH  22  23
HETATM   23  N2  UNL     1      -4.039   0.340   1.402  1.00  0.00    -0.021 N 
HETATM   24  C6  UNL     1      -5.601   0.508   1.454  1.00  0.00     0.214 C 
HETATM   25  C5  UNL     1      -5.918   1.964   1.057  1.00  0.00     0.041 C 
HETATM   26  C7  UNL     1      -6.324  -0.453   0.460  1.00  0.00     0.109 C 
HETATM   27  C4  UNL     1      -4.765   2.519   0.212  1.00  0.00     0.004 C 
HETATM   28  C3  UNL     1      -3.627   2.824   1.216  1.00  0.00     0.047 C 
HETATM   29  C45 UNL     1      -3.343   1.539   2.047  1.00  0.00     0.329 C 
HETATM   30  N1  UNL     1      -6.510  -1.852   0.934  1.00  0.00    -0.279 NA
HETATM   31  C15 UNL     1      -5.592  -0.583  -0.916  1.00  0.00     0.035 C 
HETATM   32  C8  UNL     1      -7.507  -2.103   1.976  1.00  0.00     0.117 C 
HETATM   33  C9  UNL     1      -6.820  -2.494  -0.320  1.00  0.00     0.018 A 
HETATM   34  C10 UNL     1      -7.476  -3.697  -0.516  1.00  0.00     0.024 A 
HETATM   35  C14 UNL     1      -6.354  -1.754  -1.431  1.00  0.00    -0.024 A 
HETATM   36  C11 UNL     1      -7.706  -4.130  -1.828  1.00  0.00     0.002 A 
HETATM   37  C12 UNL     1      -7.271  -3.370  -2.924  1.00  0.00     0.001 A 
HETATM   38  C13 UNL     1      -6.576  -2.175  -2.732  1.00  0.00     0.010 A 
HETATM   39  C16 UNL     1      -4.120  -0.967  -0.745  1.00  0.00     0.053 C 
HETATM   40  C19 UNL     1      -5.470   0.783  -1.610  1.00  0.00     0.139 C 
HETATM   41  C17 UNL     1      -3.592   0.280  -0.081  1.00  0.00     0.203 C 
HETATM   42  C18 UNL     1      -4.306   1.462  -0.821  1.00  0.00     0.051 C 
BRANCH  28  43
HETATM   43  C2  UNL     1      -2.339   3.380   0.578  1.00  0.00     0.005 C 
HETATM   44  C1  UNL     1      -2.556   4.678  -0.190  1.00  0.00     0.005 C 
ENDBRANCH  28  43
BRANCH  29  45
HETATM   45  O9  UNL     1      -3.786   1.721   3.375  1.00  0.00    -0.369 OA
HETATM   46  H59 UNL     1      -3.238   2.420   3.778  1.00  0.00     0.212 HD
ENDBRANCH  29  45
BRANCH  40  47
HETATM   47  O1  UNL     1      -5.024   0.623  -2.954  1.00  0.00    -0.394 OA
HETATM   48  H24 UNL     1      -5.253   1.427  -3.459  1.00  0.00     0.210 HD
ENDBRANCH  40  47
ENDBRANCH  22  23
ENDBRANCH  20  22
ENDBRANCH  19  20
ENDBRANCH   1  19
BRANCH  17  49
HETATM   49  O8  UNL     1       0.137   0.777  -0.204  1.00  0.00    -0.389 OA
HETATM   50  H55 UNL     1       0.334   1.704  -0.445  1.00  0.00     0.210 HD
ENDBRANCH  17  49
BRANCH   4  51
HETATM   51  C26 UNL     1       1.670  -0.476  -2.040  1.00  0.00     0.244 C 
HETATM   52  O4  UNL     1       1.835  -1.247  -2.978  1.00  0.00    -0.306 OA
ENDBRANCH   4  51
BRANCH  13  53
HETATM   53  O7  UNL     1       5.830   2.389  -1.174  1.00  0.00    -0.389 OA
HETATM   54  H49 UNL     1       5.748   3.069  -0.485  1.00  0.00     0.210 HD
ENDBRANCH  13  53
BRANCH  10  55
HETATM   55  C33 UNL     1       8.820  -0.274  -0.186  1.00  0.00    -0.045 A 
HETATM   56  C34 UNL     1       9.442   0.760   0.383  1.00  0.00     0.087 A 
HETATM   57  C35 UNL     1      10.868   0.624   0.097  1.00  0.00     0.283 A 
HETATM   58  O5  UNL     1      11.720   1.416   0.457  1.00  0.00    -0.260 OA
HETATM   59  O6  UNL     1      11.074  -0.515  -0.612  1.00  0.00    -0.314 OA
HETATM   60  C36 UNL     1       9.820  -1.164  -0.828  1.00  0.00     0.213 A 
ENDBRANCH  10  55
TORSDOF 12
