REMARK  11 active torsions:
REMARK  status: ('A' for Active; 'I' for Inactive)
REMARK    1  A    between atoms: C5_5  and  C7_7 
REMARK    2  A    between atoms: C7_7  and  C9_9 
REMARK    3  A    between atoms: C18_18  and  C20_20 
REMARK    4  A    between atoms: C20_20  and  O2_22 
REMARK    5  A    between atoms: C21_23  and  O3_24 
REMARK    6  A    between atoms: O3_24  and  C22_25 
REMARK    7  A    between atoms: C23_27  and  C24_28 
REMARK    8  A    between atoms: C24_28  and  O5_29 
REMARK    9  A    between atoms: C25_30  and  O6_31 
REMARK   10  A    between atoms: C26_32  and  O7_33 
REMARK   11  A    between atoms: C27_34  and  O8_35 
ROOT
HETATM    1  C9  UNL     1      -4.573  -0.288  -0.483  1.00  0.00     0.001 C 
HETATM    2  C10 UNL     1      -4.670  -0.032  -2.015  1.00  0.00     0.007 C 
HETATM    3  C11 UNL     1      -3.254   0.199  -2.563  1.00  0.00     0.011 C 
HETATM    4  C12 UNL     1      -2.311  -0.199  -1.420  1.00  0.00    -0.032 C 
HETATM    5  C13 UNL     1      -2.109  -1.744  -1.503  1.00  0.00     0.016 C 
HETATM    6  C14 UNL     1      -0.940   0.526  -1.465  1.00  0.00     0.004 C 
HETATM    7  C15 UNL     1      -0.046   0.088  -2.633  1.00  0.00     0.007 C 
HETATM    8  C16 UNL     1       1.299   0.811  -2.607  1.00  0.00     0.007 C 
HETATM    9  C17 UNL     1       2.105   0.331  -1.389  1.00  0.00     0.016 C 
HETATM   10  C18 UNL     1       3.566   0.871  -1.295  1.00  0.00     0.072 C 
HETATM   11  C19 UNL     1       3.601   2.393  -1.033  1.00  0.00     0.030 C 
HETATM   12  C21 UNL     1       4.340   0.069  -0.188  1.00  0.00     0.143 C 
HETATM   13  C28 UNL     1       3.424  -0.669   0.802  1.00  0.00     0.034 C 
HETATM   14  C29 UNL     1       2.177   0.126   1.164  1.00  0.00     0.013 C 
HETATM   15  C30 UNL     1       1.359   0.547  -0.061  1.00  0.00    -0.027 A 
HETATM   16  C31 UNL     1       0.528   1.781   0.204  1.00  0.00     0.021 A 
HETATM   17  C32 UNL     1      -0.202   0.490  -0.101  1.00  0.00    -0.027 A 
HETATM   18  C33 UNL     1      -0.893  -0.233   1.054  1.00  0.00     0.011 C 
HETATM   19  C34 UNL     1      -2.432  -0.272   1.081  1.00  0.00     0.011 C 
HETATM   20  C35 UNL     1      -3.132   0.282  -0.167  1.00  0.00    -0.032 C 
HETATM   21  C36 UNL     1      -3.208   1.835  -0.039  1.00  0.00     0.016 C 
ENDROOT
BRANCH  12  22
HETATM   22  O3  UNL     1       5.204   0.941   0.560  1.00  0.00    -0.352 OA
BRANCH  22  23
HETATM   23  C22 UNL     1       6.585   0.570   0.469  1.00  0.00     0.292 C 
HETATM   24  O4  UNL     1       6.788  -0.619   1.237  1.00  0.00    -0.348 OA
HETATM   25  C23 UNL     1       8.142  -1.080   1.196  1.00  0.00     0.179 C 
HETATM   26  C25 UNL     1       9.057  -0.040   1.859  1.00  0.00     0.180 C 
HETATM   27  C26 UNL     1       8.910   1.298   1.131  1.00  0.00     0.183 C 
HETATM   28  C27 UNL     1       7.444   1.730   1.020  1.00  0.00     0.204 C 
BRANCH  25  29
HETATM   29  C24 UNL     1       8.228  -2.435   1.911  1.00  0.00     0.198 C 
BRANCH  29  30
HETATM   30  O5  UNL     1       9.505  -3.042   1.753  1.00  0.00    -0.398 OA
HETATM   31  H37 UNL     1      10.177  -2.338   1.884  1.00  0.00     0.209 HD
ENDBRANCH  29  30
ENDBRANCH  25  29
BRANCH  26  32
HETATM   32  O6  UNL     1      10.427  -0.459   1.831  1.00  0.00    -0.390 OA
HETATM   33  H39 UNL     1      10.966   0.353   1.941  1.00  0.00     0.210 HD
ENDBRANCH  26  32
BRANCH  27  34
HETATM   34  O7  UNL     1       9.681   2.308   1.810  1.00  0.00    -0.390 OA
HETATM   35  H41 UNL     1       9.307   2.435   2.702  1.00  0.00     0.210 HD
ENDBRANCH  27  34
BRANCH  28  36
HETATM   36  O8  UNL     1       7.376   2.884   0.167  1.00  0.00    -0.388 OA
HETATM   37  H43 UNL     1       8.083   3.492   0.458  1.00  0.00     0.210 HD
ENDBRANCH  28  36
ENDBRANCH  22  23
ENDBRANCH  12  22
BRANCH  10  38
HETATM   38  C20 UNL     1       4.266   0.545  -2.615  1.00  0.00     0.151 C 
HETATM   39  O1  UNL     1       4.617  -0.566  -2.987  1.00  0.00    -0.649 OA
BRANCH  38  40
HETATM   40  O2  UNL     1       4.448   1.598  -3.433  1.00  0.00    -0.776 OA
HETATM   41  H31 UNL     1       4.889   1.229  -4.228  1.00  0.00     0.167 HD
ENDBRANCH  38  40
ENDBRANCH  10  38
BRANCH   1  42
HETATM   42  C7  UNL     1      -5.820   0.217   0.347  1.00  0.00     0.021 C 
HETATM   43  C8  UNL     1      -5.495   0.104   1.858  1.00  0.00     0.013 C 
BRANCH  42  44
HETATM   44  C5  UNL     1      -7.200  -0.535   0.070  1.00  0.00     0.074 C 
HETATM   45  C4  UNL     1      -8.380   0.218   0.741  1.00  0.00     0.066 C 
HETATM   46  C3  UNL     1      -9.573  -0.667   0.918  1.00  0.00    -0.011 C 
HETATM   47  C2  UNL     1      -9.468  -2.005   0.947  1.00  0.00     0.010 C 
HETATM   48  C1  UNL     1     -10.646  -2.915   1.116  1.00  0.00     0.054 C 
HETATM   49  C37 UNL     1      -8.139  -2.665   0.869  1.00  0.00     0.289 C 
HETATM   50  O9  UNL     1      -7.067  -1.870   0.630  1.00  0.00    -0.306 OA
HETATM   51  O10 UNL     1      -8.016  -3.871   1.042  1.00  0.00    -0.260 OA
HETATM   52  C6  UNL     1      -7.541  -0.704  -1.422  1.00  0.00     0.047 C 
ENDBRANCH  42  44
ENDBRANCH   1  42
TORSDOF 11
