REMARK  12 active torsions:
REMARK  status: ('A' for Active; 'I' for Inactive)
REMARK    1  A    between atoms: C2_2  and  O1_3 
REMARK    2  A    between atoms: C2_2  and  C3_4 
REMARK    3  A    between atoms: C4_5  and  C5_6 
REMARK    4  A    between atoms: C5_6  and  O2_7 
REMARK    5  A    between atoms: C8_10  and  O3_11 
REMARK    6  A    between atoms: O3_11  and  C9_12 
REMARK    7  A    between atoms: C10_14  and  C11_15 
REMARK    8  A    between atoms: C11_15  and  O5_16 
REMARK    9  A    between atoms: C12_17  and  O6_18 
REMARK   10  A    between atoms: C13_19  and  O7_20 
REMARK   11  A    between atoms: C14_21  and  O8_22 
REMARK   12  A    between atoms: C15_23  and  O9_24 
ROOT
HETATM    1  C5  UNL     1       2.199  -0.208  -0.003  1.00  0.00     0.088 C 
HETATM    2  C6  UNL     1       0.769  -0.025   0.583  1.00  0.00     0.052 C 
HETATM    3  C7  UNL     1       0.477   1.403   1.080  1.00  0.00     0.016 C 
HETATM    4  C8  UNL     1      -0.302  -0.401  -0.474  1.00  0.00     0.160 C 
HETATM    5  C15 UNL     1       0.140  -1.557  -1.405  1.00  0.00     0.148 C 
HETATM    6  C16 UNL     1       1.156  -2.473  -0.728  1.00  0.00     0.046 C 
HETATM    7  C17 UNL     1       2.464  -1.751  -0.289  1.00  0.00    -0.010 C 
HETATM    8  C18 UNL     1       3.526  -1.940  -1.400  1.00  0.00     0.018 C 
HETATM    9  C19 UNL     1       2.979  -2.513   0.960  1.00  0.00     0.018 C 
ENDROOT
BRANCH   4  10
HETATM   10  O3  UNL     1      -1.501  -0.797   0.224  1.00  0.00    -0.350 OA
BRANCH  10  11
HETATM   11  C9  UNL     1      -2.684  -0.286  -0.405  1.00  0.00     0.292 C 
HETATM   12  O4  UNL     1      -2.976   0.997   0.148  1.00  0.00    -0.348 OA
HETATM   13  C10 UNL     1      -4.164   1.581  -0.397  1.00  0.00     0.179 C 
HETATM   14  C12 UNL     1      -5.381   0.700  -0.077  1.00  0.00     0.180 C 
HETATM   15  C13 UNL     1      -5.153  -0.702  -0.645  1.00  0.00     0.183 C 
HETATM   16  C14 UNL     1      -3.832  -1.286  -0.145  1.00  0.00     0.204 C 
BRANCH  13  17
HETATM   17  C11 UNL     1      -4.339   2.992   0.181  1.00  0.00     0.198 C 
BRANCH  17  18
HETATM   18  O5  UNL     1      -5.391   3.706  -0.462  1.00  0.00    -0.398 OA
HETATM   19  H18 UNL     1      -6.145   3.083  -0.553  1.00  0.00     0.209 HD
ENDBRANCH  17  18
ENDBRANCH  13  17
BRANCH  14  20
HETATM   20  O6  UNL     1      -6.582   1.251  -0.633  1.00  0.00    -0.390 OA
HETATM   21  H20 UNL     1      -7.243   0.529  -0.569  1.00  0.00     0.210 HD
ENDBRANCH  14  20
BRANCH  15  22
HETATM   22  O7  UNL     1      -6.253  -1.544  -0.267  1.00  0.00    -0.390 OA
HETATM   23  H22 UNL     1      -5.946  -2.461  -0.423  1.00  0.00     0.210 HD
ENDBRANCH  15  22
BRANCH  16  24
HETATM   24  O8  UNL     1      -3.631  -2.555  -0.798  1.00  0.00    -0.388 OA
HETATM   25  H24 UNL     1      -3.139  -2.397  -1.630  1.00  0.00     0.210 HD
ENDBRANCH  16  24
ENDBRANCH  10  11
ENDBRANCH   4  10
BRANCH   5  26
HETATM   26  O9  UNL     1      -0.997  -2.346  -1.794  1.00  0.00    -0.393 OA
HETATM   27  H26 UNL     1      -1.310  -2.753  -0.960  1.00  0.00     0.210 HD
ENDBRANCH   5  26
BRANCH   1  28
HETATM   28  C4  UNL     1       3.259   0.401   0.907  1.00  0.00     0.010 C 
HETATM   29  C3  UNL     1       4.112   1.408   0.639  1.00  0.00     0.003 C 
BRANCH  29  30
HETATM   30  C2  UNL     1       5.096   1.960   1.628  1.00  0.00     0.136 C 
HETATM   31  C1  UNL     1       6.527   1.638   1.224  1.00  0.00     0.043 C 
BRANCH  30  32
HETATM   32  O1  UNL     1       4.921   3.372   1.644  1.00  0.00    -0.392 OA
HETATM   33  H5  UNL     1       5.515   3.727   2.328  1.00  0.00     0.210 HD
ENDBRANCH  30  32
ENDBRANCH  29  30
ENDBRANCH   1  28
BRANCH   1  34
HETATM   34  O2  UNL     1       2.196   0.500  -1.252  1.00  0.00    -0.385 OA
HETATM   35  H8  UNL     1       3.111   0.549  -1.574  1.00  0.00     0.211 HD
ENDBRANCH   1  34
TORSDOF 12
