REMARK  9 active torsions:
REMARK  status: ('A' for Active; 'I' for Inactive)
REMARK    1  A    between atoms: C3_3  and  O1_4 
REMARK    2  A    between atoms: N1_14  and  O2_16 
REMARK    3  A    between atoms: O2_16  and  C13_17 
REMARK    4  A    between atoms: C13_17  and  C14_18 
REMARK       I    between atoms: C14_18  and  N2_20 
REMARK    5  A    between atoms: N2_20  and  C15_21 
REMARK    6  A    between atoms: C15_21  and  C16_22 
REMARK    7  A    between atoms: C15_21  and  C18_26 
REMARK    8  A    between atoms: C16_22  and  C17_23 
REMARK    9  A    between atoms: C17_23  and  O5_25 
ROOT
HETATM    1  C1  UNL     1     -10.478   0.597   1.717  1.00  0.00     0.015 C 
HETATM    2  C2  UNL     1      -9.624   0.002   1.117  1.00  0.00    -0.078 C 
HETATM    3  C3  UNL     1      -8.606  -0.742   0.360  1.00  0.00     0.128 C 
HETATM    4  C4  UNL     1      -7.945  -1.838   1.193  1.00  0.00     0.052 C 
HETATM    5  C5  UNL     1      -6.745  -2.243   0.346  1.00  0.00     0.010 C 
HETATM    6  C6  UNL     1      -6.259  -0.949  -0.347  1.00  0.00     0.002 C 
HETATM    7  C7  UNL     1      -4.850  -0.531   0.176  1.00  0.00    -0.004 C 
HETATM    8  C8  UNL     1      -3.770  -1.479  -0.405  1.00  0.00     0.010 C 
HETATM    9  C9  UNL     1      -2.713  -0.766  -1.248  1.00  0.00     0.035 C 
HETATM   10  C10 UNL     1      -2.112   0.336  -0.425  1.00  0.00    -0.069 C 
HETATM   11  C11 UNL     1      -0.814   0.299  -0.074  1.00  0.00     0.030 C 
HETATM   12  C12 UNL     1      -0.270   1.305   0.877  1.00  0.00     0.032 C 
HETATM   13  N1  UNL     1       0.982   1.621   1.009  1.00  0.00    -0.271 N 
ATOM     14  H1  UNL     1       1.330   2.303   1.682  1.00  0.00     0.194 HD
HETATM   15  C25 UNL     1      -1.254   2.042   1.770  1.00  0.00     0.060 C 
HETATM   16  C26 UNL     1      -2.712   1.627   1.573  1.00  0.00     0.020 C 
HETATM   17  C27 UNL     1      -3.079   1.408   0.085  1.00  0.00    -0.016 C 
HETATM   18  C28 UNL     1      -2.864   2.719  -0.716  1.00  0.00     0.020 C 
HETATM   19  C29 UNL     1      -4.573   0.956  -0.138  1.00  0.00     0.002 C 
HETATM   20  C30 UNL     1      -5.626   1.876   0.523  1.00  0.00     0.007 C 
HETATM   21  C31 UNL     1      -6.931   1.166   0.896  1.00  0.00     0.014 C 
HETATM   22  C32 UNL     1      -7.394   0.114  -0.140  1.00  0.00     0.003 C 
HETATM   23  C33 UNL     1      -7.733   0.829  -1.468  1.00  0.00     0.020 C 
ENDROOT
BRANCH   3  24
HETATM   24  O1  UNL     1      -9.253  -1.381  -0.745  1.00  0.00    -0.377 OA
HETATM   25  H2  UNL     1     -10.054  -1.808  -0.395  1.00  0.00     0.211 HD
ENDBRANCH   3  24
BRANCH  13  26
HETATM   26  O2  UNL     1       1.800   0.912   0.115  1.00  0.00    -0.271 OA
BRANCH  26  27
HETATM   27  C13 UNL     1       2.925   1.724  -0.206  1.00  0.00     0.303 C 
BRANCH  27  28
HETATM   28  C14 UNL     1       3.960   0.903  -0.958  1.00  0.00     0.244 C 
HETATM   29  O3  UNL     1       4.442   1.262  -2.028  1.00  0.00    -0.271 OA
HETATM   30  N2  UNL     1       4.349  -0.246  -0.296  1.00  0.00    -0.354 N 
HETATM   31  H16 UNL     1       3.948  -0.417   0.626  1.00  0.00     0.162 HD
BRANCH  30  32
HETATM   32  C15 UNL     1       5.480  -1.063  -0.727  1.00  0.00     0.098 C 
BRANCH  32  33
HETATM   33  C16 UNL     1       5.373  -2.492  -0.184  1.00  0.00     0.135 C 
BRANCH  33  34
HETATM   34  C17 UNL     1       5.527  -2.605   1.303  1.00  0.00     0.141 C 
HETATM   35  O4  UNL     1       6.483  -3.078   1.894  1.00  0.00    -0.650 OA
BRANCH  34  36
HETATM   36  O5  UNL     1       4.466  -2.121   1.981  1.00  0.00    -0.776 OA
HETATM   37  H20 UNL     1       4.682  -2.300   2.923  1.00  0.00     0.167 HD
ENDBRANCH  34  36
ENDBRANCH  33  34
ENDBRANCH  32  33
BRANCH  32  38
HETATM   38  C18 UNL     1       6.833  -0.329  -0.504  1.00  0.00     0.014 C 
HETATM   39  C19 UNL     1       6.998   0.325   0.881  1.00  0.00     0.033 C 
HETATM   40  C20 UNL     1       8.463   0.506   1.264  1.00  0.00     0.169 C 
HETATM   41  O6  UNL     1       9.252   0.776   0.111  1.00  0.00    -0.381 OA
HETATM   42  C21 UNL     1       9.355  -0.327  -0.803  1.00  0.00     0.054 C 
HETATM   43  C22 UNL     1       9.604   0.292  -2.185  1.00  0.00     0.045 C 
HETATM   44  C23 UNL     1      10.568  -1.182  -0.412  1.00  0.00     0.045 C 
HETATM   45  C24 UNL     1       8.067  -1.186  -0.825  1.00  0.00     0.044 C 
ENDBRANCH  32  38
ENDBRANCH  30  32
ENDBRANCH  27  28
ENDBRANCH  26  27
ENDBRANCH  13  26
TORSDOF 9
