REMARK  12 active torsions:
REMARK  status: ('A' for Active; 'I' for Inactive)
REMARK    1  A    between atoms: O1_2  and  C2_3 
REMARK    2  A    between atoms: C2_3  and  C5_6 
REMARK    3  A    between atoms: C6_7  and  C7_8 
REMARK    4  A    between atoms: C7_8  and  C8_9 
REMARK    5  A    between atoms: C8_9  and  C10_11 
REMARK    6  A    between atoms: C28_31  and  O4_32 
REMARK    7  A    between atoms: O4_32  and  C29_33 
REMARK    8  A    between atoms: C30_35  and  C31_36 
REMARK    9  A    between atoms: C31_36  and  O6_37 
REMARK   10  A    between atoms: C32_38  and  O7_39 
REMARK   11  A    between atoms: C33_40  and  O8_41 
REMARK   12  A    between atoms: C34_42  and  O9_43 
ROOT
HETATM    1  C10 UNL     1       3.524   1.222  -0.380  1.00  0.00    -0.002 C 
HETATM    2  C11 UNL     1       3.955   1.849   0.984  1.00  0.00     0.006 C 
HETATM    3  C12 UNL     1       2.684   2.014   1.846  1.00  0.00     0.011 C 
HETATM    4  C13 UNL     1       1.584   1.254   1.082  1.00  0.00    -0.028 C 
HETATM    5  C14 UNL     1       1.751  -0.251   1.484  1.00  0.00     0.016 C 
HETATM    6  C15 UNL     1       0.129   1.743   1.354  1.00  0.00     0.035 C 
HETATM    7  C16 UNL     1      -0.315   1.568   2.793  1.00  0.00    -0.021 C 
HETATM    8  C17 UNL     1      -1.482   0.982   3.103  1.00  0.00     0.009 C 
HETATM    9  C18 UNL     1      -2.396   0.395   2.031  1.00  0.00     0.102 C 
HETATM   10  O2  UNL     1      -3.017   1.529   1.394  1.00  0.00    -0.304 OA
HETATM   11  C19 UNL     1      -2.159   2.040   0.448  1.00  0.00     0.270 C 
HETATM   12  O3  UNL     1      -2.365   3.075  -0.161  1.00  0.00    -0.264 OA
HETATM   13  C20 UNL     1      -0.918   1.140   0.340  1.00  0.00     0.062 C 
HETATM   14  C21 UNL     1      -0.409   1.110  -1.124  1.00  0.00     0.022 C 
HETATM   15  C22 UNL     1       1.075   0.749  -1.332  1.00  0.00     0.011 C 
HETATM   16  C23 UNL     1       1.995   1.566  -0.410  1.00  0.00    -0.032 C 
HETATM   17  C24 UNL     1       1.840   3.074  -0.803  1.00  0.00     0.016 C 
HETATM   18  C25 UNL     1      -1.543  -0.174   0.879  1.00  0.00     0.045 C 
HETATM   19  C26 UNL     1      -2.359  -0.949  -0.175  1.00  0.00     0.012 C 
HETATM   20  C27 UNL     1      -3.290  -1.978   0.454  1.00  0.00     0.033 C 
HETATM   21  C28 UNL     1      -4.253  -1.301   1.445  1.00  0.00     0.136 C 
HETATM   22  C35 UNL     1      -3.465  -0.597   2.606  1.00  0.00     0.015 C 
HETATM   23  C36 UNL     1      -2.800  -1.684   3.486  1.00  0.00     0.021 C 
HETATM   24  C37 UNL     1      -4.486   0.145   3.504  1.00  0.00     0.021 C 
ENDROOT
BRANCH  21  25
HETATM   25  O4  UNL     1      -5.057  -0.321   0.773  1.00  0.00    -0.352 OA
BRANCH  25  26
HETATM   26  C29 UNL     1      -6.234  -0.837   0.131  1.00  0.00     0.292 C 
HETATM   27  O5  UNL     1      -5.898  -1.515  -1.069  1.00  0.00    -0.348 OA
HETATM   28  C30 UNL     1      -7.033  -2.084  -1.752  1.00  0.00     0.179 C 
HETATM   29  C32 UNL     1      -8.406  -1.509  -1.336  1.00  0.00     0.180 C 
HETATM   30  C33 UNL     1      -8.351  -0.005  -1.021  1.00  0.00     0.183 C 
HETATM   31  C34 UNL     1      -7.096   0.391  -0.224  1.00  0.00     0.204 C 
BRANCH  28  32
HETATM   32  C31 UNL     1      -6.757  -1.899  -3.249  1.00  0.00     0.198 C 
BRANCH  32  33
HETATM   33  O6  UNL     1      -5.502  -2.498  -3.575  1.00  0.00    -0.398 OA
HETATM   34  H46 UNL     1      -4.882  -2.139  -2.915  1.00  0.00     0.209 HD
ENDBRANCH  32  33
ENDBRANCH  28  32
BRANCH  29  35
HETATM   35  O7  UNL     1      -8.836  -2.214  -0.161  1.00  0.00    -0.390 OA
HETATM   36  H48 UNL     1      -9.718  -1.867   0.091  1.00  0.00     0.210 HD
ENDBRANCH  29  35
BRANCH  30  37
HETATM   37  O8  UNL     1      -8.425   0.735  -2.244  1.00  0.00    -0.390 OA
HETATM   38  H50 UNL     1      -8.530   1.677  -2.009  1.00  0.00     0.210 HD
ENDBRANCH  30  37
BRANCH  31  39
HETATM   39  O9  UNL     1      -7.483   1.095   0.969  1.00  0.00    -0.388 OA
HETATM   40  H52 UNL     1      -6.641   1.301   1.416  1.00  0.00     0.210 HD
ENDBRANCH  31  39
ENDBRANCH  25  26
ENDBRANCH  21  25
BRANCH   1  41
HETATM   41  C8  UNL     1       4.416   1.637  -1.591  1.00  0.00    -0.010 C 
HETATM   42  C9  UNL     1       4.193   0.718  -2.805  1.00  0.00     0.010 C 
BRANCH  41  43
HETATM   43  C7  UNL     1       5.935   1.690  -1.281  1.00  0.00     0.031 C 
BRANCH  43  44
HETATM   44  C6  UNL     1       6.584   0.417  -0.812  1.00  0.00    -0.027 C 
HETATM   45  C5  UNL     1       7.514  -0.253  -1.514  1.00  0.00     0.006 C 
BRANCH  45  46
HETATM   46  C2  UNL     1       8.269  -1.481  -1.038  1.00  0.00     0.070 C 
HETATM   47  C3  UNL     1       9.686  -1.512  -1.632  1.00  0.00     0.050 C 
HETATM   48  C4  UNL     1       7.511  -2.727  -1.524  1.00  0.00     0.050 C 
BRANCH  46  49
HETATM   49  O1  UNL     1       8.277  -1.569   0.398  1.00  0.00    -0.382 OA
HETATM   50  C1  UNL     1       9.159  -0.677   1.074  1.00  0.00     0.202 C 
ENDBRANCH  46  49
ENDBRANCH  45  46
ENDBRANCH  43  44
ENDBRANCH  41  43
ENDBRANCH   1  41
TORSDOF 12
