REMARK  11 active torsions:
REMARK  status: ('A' for Active; 'I' for Inactive)
REMARK    1  A    between atoms: C5_5  and  C6_6 
REMARK    2  A    between atoms: C8_8  and  C9_9 
REMARK    3  A    between atoms: C9_9  and  O1_10 
REMARK    4  A    between atoms: C11_12  and  C12_13 
REMARK    5  A    between atoms: C12_13  and  C13_14 
REMARK    6  A    between atoms: C13_14  and  O2_15 
REMARK    7  A    between atoms: C13_14  and  C14_16 
REMARK    8  A    between atoms: C14_16  and  O3_18 
REMARK    9  A    between atoms: C24_29  and  O6_30 
REMARK   10  A    between atoms: C29_35  and  C30_36 
REMARK   11  A    between atoms: C30_36  and  O7_37 
ROOT
HETATM    1  C1  UNL     1      -1.536   3.098   3.046  1.00  0.00     0.036 C 
HETATM    2  C2  UNL     1      -0.535   2.572   2.064  1.00  0.00    -0.018 C 
HETATM    3  C3  UNL     1      -0.587   1.413   1.375  1.00  0.00     0.015 C 
HETATM    4  C4  UNL     1       0.509   1.018   0.401  1.00  0.00     0.066 C 
HETATM    5  C5  UNL     1       1.894   0.699   1.045  1.00  0.00     0.102 C 
HETATM    6  C17 UNL     1       1.820  -0.471   1.952  1.00  0.00    -0.096 C 
HETATM    7  C18 UNL     1       1.592  -1.435   2.634  1.00  0.00    -0.096 C 
HETATM    8  C19 UNL     1       1.006  -2.569   3.378  1.00  0.00     0.110 C 
HETATM    9  C20 UNL     1       1.998  -3.674   3.671  1.00  0.00     0.133 C 
HETATM   10  C21 UNL     1       1.334  -4.741   4.507  1.00  0.00     0.265 C 
HETATM   11  O4  UNL     1       1.927  -5.333   5.405  1.00  0.00    -0.265 OA
HETATM   12  O5  UNL     1       0.024  -5.078   4.166  1.00  0.00    -0.278 OA
HETATM   13  C22 UNL     1      -0.656  -4.399   3.139  1.00  0.00     0.089 A 
HETATM   14  C23 UNL     1      -1.831  -4.956   2.637  1.00  0.00     0.075 A 
HETATM   15  C24 UNL     1      -2.516  -4.291   1.615  1.00  0.00     0.074 A 
HETATM   16  C25 UNL     1      -2.017  -3.105   1.067  1.00  0.00    -0.022 A 
HETATM   17  C26 UNL     1      -0.819  -2.603   1.578  1.00  0.00     0.021 A 
HETATM   18  C27 UNL     1      -0.163  -3.195   2.658  1.00  0.00    -0.007 A 
HETATM   19  C28 UNL     1      -2.707  -2.333  -0.040  1.00  0.00     0.077 C 
HETATM   20  C29 UNL     1      -3.283  -0.948   0.397  1.00  0.00     0.171 C 
HETATM   21  O9  UNL     1      -2.192   0.022   0.390  1.00  0.00    -0.309 OA
HETATM   22  C40 UNL     1      -1.725   0.469   1.587  1.00  0.00     0.289 C 
HETATM   23  O10 UNL     1      -2.158   0.166   2.686  1.00  0.00    -0.260 OA
ENDROOT
BRANCH   5  24
HETATM   24  C6  UNL     1       2.941   0.477  -0.041  1.00  0.00    -0.041 A 
HETATM   25  C7  UNL     1       2.851  -0.613  -0.923  1.00  0.00     0.017 A 
HETATM   26  C8  UNL     1       3.790  -0.804  -1.946  1.00  0.00    -0.034 A 
HETATM   27  C10 UNL     1       4.848   0.105  -2.068  1.00  0.00     0.016 A 
HETATM   28  C11 UNL     1       4.967   1.198  -1.196  1.00  0.00    -0.054 A 
HETATM   29  C16 UNL     1       4.009   1.377  -0.188  1.00  0.00     0.015 A 
BRANCH  26  30
HETATM   30  C9  UNL     1       3.698  -1.998  -2.860  1.00  0.00     0.202 C 
BRANCH  30  31
HETATM   31  O1  UNL     1       2.355  -2.185  -3.290  1.00  0.00    -0.396 OA
HETATM   32  H11 UNL     1       2.362  -2.945  -3.895  1.00  0.00     0.209 HD
ENDBRANCH  30  31
ENDBRANCH  26  30
BRANCH  28  33
HETATM   33  C12 UNL     1       6.127   2.158  -1.333  1.00  0.00     0.073 C 
BRANCH  33  34
HETATM   34  C13 UNL     1       7.452   1.545  -0.852  1.00  0.00     0.150 C 
BRANCH  34  35
HETATM   35  O2  UNL     1       7.396   1.309   0.570  1.00  0.00    -0.393 OA
HETATM   36  H16 UNL     1       6.699   0.640   0.713  1.00  0.00     0.210 HD
ENDBRANCH  34  35
BRANCH  34  37
HETATM   37  C14 UNL     1       8.663   2.470  -1.092  1.00  0.00     0.143 C 
HETATM   38  C15 UNL     1       8.958   2.737  -2.560  1.00  0.00     0.042 C 
BRANCH  37  39
HETATM   39  O3  UNL     1       9.819   1.842  -0.523  1.00  0.00    -0.393 OA
HETATM   40  H21 UNL     1       9.531   1.562   0.370  1.00  0.00     0.210 HD
ENDBRANCH  37  39
ENDBRANCH  34  37
ENDBRANCH  33  34
ENDBRANCH  28  33
ENDBRANCH   5  24
BRANCH  20  41
HETATM   41  C30 UNL     1      -4.429  -0.470  -0.575  1.00  0.00     0.089 C 
HETATM   42  C31 UNL     1      -3.912  -0.292  -2.025  1.00  0.00     0.041 C 
HETATM   43  C32 UNL     1      -4.752   0.645  -2.901  1.00  0.00     0.004 C 
HETATM   44  C33 UNL     1      -6.217   0.720  -2.503  1.00  0.00     0.005 C 
HETATM   45  C34 UNL     1      -6.464   1.009  -1.005  1.00  0.00    -0.001 C 
HETATM   46  C35 UNL     1      -7.189   2.339  -0.780  1.00  0.00     0.083 C 
HETATM   47  C39 UNL     1      -5.198   0.815  -0.104  1.00  0.00     0.027 C 
HETATM   48  C36 UNL     1      -6.217   3.484  -0.765  1.00  0.00     0.127 C 
HETATM   49  O8  UNL     1      -6.351   4.473  -1.481  1.00  0.00    -0.298 OA
HETATM   50  C37 UNL     1      -5.112   3.368   0.244  1.00  0.00     0.079 C 
HETATM   51  C38 UNL     1      -4.329   2.086   0.007  1.00  0.00     0.015 C 
BRANCH  41  52
HETATM   52  O7  UNL     1      -5.448  -1.499  -0.574  1.00  0.00    -0.387 OA
HETATM   53  H32 UNL     1      -5.208  -2.205  -1.197  1.00  0.00     0.210 HD
ENDBRANCH  41  52
ENDBRANCH  20  41
BRANCH  15  54
HETATM   54  O6  UNL     1      -3.684  -4.804   1.125  1.00  0.00    -0.360 OA
HETATM   55  H27 UNL     1      -3.894  -5.625   1.605  1.00  0.00     0.217 HD
ENDBRANCH  15  54
TORSDOF 11
