REMARK  15 active torsions:
REMARK  status: ('A' for Active; 'I' for Inactive)
REMARK    1  A    between atoms: C2_2  and  C3_3 
REMARK    2  A    between atoms: C3_3  and  C4_4 
REMARK    3  A    between atoms: C4_4  and  O1_5 
REMARK    4  A    between atoms: C4_4  and  C5_6 
REMARK    5  A    between atoms: C5_6  and  C6_7 
REMARK    6  A    between atoms: C6_7  and  O2_8 
REMARK    7  A    between atoms: C6_7  and  C7_9 
REMARK    8  A    between atoms: C7_9  and  C8_10 
REMARK    9  A    between atoms: C8_10  and  C9_12 
REMARK   10  A    between atoms: C9_12  and  C10_13 
REMARK   11  A    between atoms: C10_13  and  C11_14 
REMARK   12  A    between atoms: C25_29  and  O5_30 
REMARK   13  A    between atoms: C29_34  and  C30_35 
REMARK   14  A    between atoms: C30_35  and  N1_36 
REMARK   15  A    between atoms: C30_35  and  N2_37 
ROOT
HETATM    1  C11 UNL     1       2.710  -0.868   0.776  1.00  0.00    -0.055 A 
HETATM    2  C12 UNL     1       3.191  -2.179   0.758  1.00  0.00     0.010 A 
HETATM    3  C13 UNL     1       2.440  -3.196   0.176  1.00  0.00     0.041 A 
HETATM    4  C14 UNL     1       1.175  -2.938  -0.360  1.00  0.00     0.120 A 
HETATM    5  O4  UNL     1       0.638  -4.053  -0.974  1.00  0.00    -0.258 OA
HETATM    6  C15 UNL     1      -0.653  -3.968  -1.215  1.00  0.00     0.061 C 
HETATM    7  C16 UNL     1      -1.801  -3.661  -1.326  1.00  0.00    -0.064 C 
HETATM    8  C17 UNL     1      -3.038  -2.877  -1.242  1.00  0.00     0.044 C 
HETATM    9  C18 UNL     1      -4.243  -3.835  -1.311  1.00  0.00     0.024 C 
HETATM   10  C19 UNL     1      -4.404  -4.170  -2.795  1.00  0.00     0.002 C 
HETATM   11  C20 UNL     1      -3.755  -3.025  -3.567  1.00  0.00     0.002 C 
HETATM   12  C21 UNL     1      -3.232  -2.039  -2.519  1.00  0.00     0.024 C 
HETATM   13  C22 UNL     1      -2.958  -2.031   0.092  1.00  0.00     0.135 C 
HETATM   14  C23 UNL     1      -4.251  -1.287   0.290  1.00  0.00    -0.093 C 
HETATM   15  C24 UNL     1      -5.290  -0.680   0.201  1.00  0.00    -0.069 C 
HETATM   16  C25 UNL     1      -6.522  -0.008  -0.275  1.00  0.00     0.230 C 
HETATM   17  C26 UNL     1      -7.117   1.071   0.615  1.00  0.00    -0.011 A 
HETATM   18  C27 UNL     1      -8.129   0.624   1.500  1.00  0.00     0.012 A 
HETATM   19  C28 UNL     1      -8.891   1.513   2.261  1.00  0.00     0.012 A 
HETATM   20  C29 UNL     1      -8.676   2.888   2.172  1.00  0.00     0.004 A 
HETATM   21  C31 UNL     1      -7.625   3.339   1.360  1.00  0.00     0.019 A 
HETATM   22  C32 UNL     1      -6.832   2.465   0.578  1.00  0.00    -0.043 A 
HETATM   23  C33 UNL     1      -5.694   3.130  -0.193  1.00  0.00     0.080 C 
HETATM   24  C34 UNL     1      -4.418   3.059   0.580  1.00  0.00    -0.025 C 
HETATM   25  C35 UNL     1      -4.091   3.651   1.756  1.00  0.00     0.096 C 
HETATM   26  N3  UNL     1      -3.006   3.072   2.444  1.00  0.00    -0.364 N 
ATOM     27  H3  UNL     1      -2.586   3.347   3.332  1.00  0.00     0.165 HD
HETATM   28  C36 UNL     1      -2.683   2.102   1.655  1.00  0.00     0.060 C 
HETATM   29  C37 UNL     1      -1.789   0.943   1.702  1.00  0.00     0.123 C 
HETATM   30  N4  UNL     1      -1.943   0.275   0.604  1.00  0.00    -0.335 N 
HETATM   31  C38 UNL     1      -2.865   1.084  -0.271  1.00  0.00     0.107 C 
HETATM   32  C39 UNL     1      -3.433   2.068   0.418  1.00  0.00     0.015 C 
HETATM   33  C40 UNL     1      -1.609  -1.140   0.295  1.00  0.00     0.251 C 
HETATM   34  O6  UNL     1      -0.616  -1.302  -0.740  1.00  0.00    -0.321 OA
HETATM   35  C41 UNL     1       0.631  -1.643  -0.252  1.00  0.00     0.106 A 
HETATM   36  C42 UNL     1       1.423  -0.611   0.280  1.00  0.00     0.047 A 
ENDROOT
BRANCH   1  37
HETATM   37  C10 UNL     1       3.606   0.252   1.266  1.00  0.00     0.046 C 
BRANCH  37  38
HETATM   38  C9  UNL     1       4.604   0.721   0.207  1.00  0.00     0.083 C 
BRANCH  38  39
HETATM   39  C8  UNL     1       5.736  -0.261  -0.034  1.00  0.00     0.129 C 
HETATM   40  O3  UNL     1       5.737  -0.993  -1.024  1.00  0.00    -0.298 OA
BRANCH  39  41
HETATM   41  C7  UNL     1       6.827  -0.347   1.017  1.00  0.00     0.110 C 
BRANCH  41  42
HETATM   42  C6  UNL     1       8.186  -0.669   0.388  1.00  0.00     0.127 C 
BRANCH  42  43
HETATM   43  C5  UNL     1       8.756   0.531  -0.377  1.00  0.00     0.063 C 
BRANCH  43  44
HETATM   44  C4  UNL     1       9.825   0.160  -1.421  1.00  0.00     0.120 C 
BRANCH  44  45
HETATM   45  C3  UNL     1      11.111  -0.425  -0.818  1.00  0.00     0.031 C 
BRANCH  45  46
HETATM   46  C2  UNL     1      12.187  -0.803  -1.853  1.00  0.00    -0.002 C 
HETATM   47  C1  UNL     1      12.924   0.386  -2.452  1.00  0.00     0.005 C 
ENDBRANCH  45  46
ENDBRANCH  44  45
BRANCH  44  48
HETATM   48  O1  UNL     1      10.137   1.358  -2.133  1.00  0.00    -0.395 OA
HETATM   49  H9  UNL     1       9.369   1.598  -2.680  1.00  0.00     0.210 HD
ENDBRANCH  44  48
ENDBRANCH  43  44
ENDBRANCH  42  43
BRANCH  42  50
HETATM   50  O2  UNL     1       9.070  -0.993   1.465  1.00  0.00    -0.395 OA
HETATM   51  H13 UNL     1       9.090  -1.963   1.553  1.00  0.00     0.210 HD
ENDBRANCH  42  50
ENDBRANCH  41  42
ENDBRANCH  39  41
ENDBRANCH  38  39
ENDBRANCH  37  38
ENDBRANCH   1  37
BRANCH  16  52
HETATM   52  O5  UNL     1      -6.230   0.498  -1.579  1.00  0.00    -0.379 OA
HETATM   53  H32 UNL     1      -6.585  -0.165  -2.201  1.00  0.00     0.211 HD
ENDBRANCH  16  52
BRANCH  20  54
HETATM   54  C30 UNL     1      -9.550   3.840   2.960  1.00  0.00     0.479 C 
BRANCH  54  55
HETATM   55  N1  UNL     1      -9.691   5.132   2.330  1.00  0.00     0.116 N 
HETATM   56  H36 UNL     1     -10.316   5.023   1.532  1.00  0.00     0.316 HD
HETATM   57  H37 UNL     1     -10.186   5.720   2.998  1.00  0.00     0.316 HD
ENDBRANCH  54  55
BRANCH  54  58
HETATM   58  N2  UNL     1      -8.983   4.177   4.231  1.00  0.00     0.116 N 
HETATM   59  H38 UNL     1      -8.129   4.698   4.055  1.00  0.00     0.316 HD
HETATM   60  H39 UNL     1      -8.711   3.325   4.716  1.00  0.00     0.316 HD
ENDBRANCH  54  58
ENDBRANCH  20  54
TORSDOF 15
