REMARK  12 active torsions:
REMARK  status: ('A' for Active; 'I' for Inactive)
REMARK    1  A    between atoms: C2_2  and  C3_3 
REMARK    2  A    between atoms: C3_3  and  C5_5 
REMARK    3  A    between atoms: C3_3  and  C20_20 
REMARK    4  A    between atoms: C6_6  and  C7_7 
REMARK    5  A    between atoms: C7_7  and  C9_9 
REMARK    6  A    between atoms: C9_9  and  C10_10 
REMARK    7  A    between atoms: C10_10  and  C11_11 
REMARK    8  A    between atoms: C12_12  and  C14_14 
REMARK    9  A    between atoms: C14_14  and  C15_15 
REMARK   10  A    between atoms: C15_15  and  C16_16 
REMARK   11  A    between atoms: C20_20  and  C21_21 
REMARK   12  A    between atoms: C21_21  and  C22_22 
ROOT
HETATM    1  C3  UNL     1      -1.096   2.370   0.930  1.00  0.00    -0.010 C 
HETATM    2  C4  UNL     1      -0.409   2.643   2.292  1.00  0.00     0.024 C 
ENDROOT
BRANCH   1   3
HETATM    3  C2  UNL     1      -1.297   3.748   0.302  1.00  0.00    -0.024 C 
HETATM    4  C1  UNL     1      -2.435   4.412   0.057  1.00  0.00     0.008 C 
ENDBRANCH   1   3
BRANCH   1   5
HETATM    5  C5  UNL     1      -0.132   1.507   0.110  1.00  0.00    -0.017 C 
HETATM    6  C6  UNL     1       0.181   1.637  -1.192  1.00  0.00    -0.025 C 
BRANCH   6   7
HETATM    7  C7  UNL     1       1.157   0.733  -1.914  1.00  0.00     0.004 C 
HETATM    8  C8  UNL     1       0.390  -0.133  -2.916  1.00  0.00     0.014 C 
BRANCH   7   9
HETATM    9  C9  UNL     1       2.241   1.594  -2.593  1.00  0.00     0.012 C 
BRANCH   9  10
HETATM   10  C10 UNL     1       3.412   0.806  -3.193  1.00  0.00     0.028 C 
BRANCH  10  11
HETATM   11  C11 UNL     1       4.254   0.135  -2.139  1.00  0.00    -0.024 C 
HETATM   12  C12 UNL     1       4.498  -1.180  -1.964  1.00  0.00    -0.087 C 
HETATM   13  C13 UNL     1       3.933  -2.269  -2.842  1.00  0.00     0.043 C 
BRANCH  12  14
HETATM   14  C14 UNL     1       5.377  -1.734  -0.845  1.00  0.00     0.037 C 
BRANCH  14  15
HETATM   15  C15 UNL     1       6.003  -0.732   0.136  1.00  0.00     0.031 C 
BRANCH  15  16
HETATM   16  C16 UNL     1       6.782  -1.430   1.221  1.00  0.00    -0.024 C 
HETATM   17  C17 UNL     1       8.121  -1.529   1.334  1.00  0.00    -0.091 C 
HETATM   18  C18 UNL     1       9.111  -0.999   0.334  1.00  0.00     0.042 C 
HETATM   19  C19 UNL     1       8.743  -2.221   2.520  1.00  0.00     0.042 C 
ENDBRANCH  15  16
ENDBRANCH  14  15
ENDBRANCH  12  14
ENDBRANCH  10  11
ENDBRANCH   9  10
ENDBRANCH   7   9
ENDBRANCH   6   7
ENDBRANCH   1   5
BRANCH   1  20
HETATM   20  C20 UNL     1      -2.392   1.538   1.223  1.00  0.00     0.018 C 
BRANCH  20  21
HETATM   21  C21 UNL     1      -3.169   1.056  -0.013  1.00  0.00     0.011 C 
BRANCH  21  22
HETATM   22  C22 UNL     1      -4.535   0.322   0.146  1.00  0.00     0.022 C 
HETATM   23  C23 UNL     1      -5.768   1.170   0.443  1.00  0.00    -0.084 C 
HETATM   24  C24 UNL     1      -5.814   2.339   1.102  1.00  0.00     0.014 C 
HETATM   25  C25 UNL     1      -7.056   0.544  -0.057  1.00  0.00     0.034 C 
HETATM   26  C26 UNL     1      -6.982  -0.986  -0.105  1.00  0.00     0.009 C 
HETATM   27  C27 UNL     1      -6.120  -1.541   1.040  1.00  0.00    -0.010 C 
HETATM   28  C28 UNL     1      -6.287  -3.063   1.125  1.00  0.00     0.011 C 
HETATM   29  C29 UNL     1      -4.610  -1.035   0.966  1.00  0.00    -0.037 C 
HETATM   30  C30 UNL     1      -4.135  -0.894   2.429  1.00  0.00     0.016 C 
HETATM   31  C31 UNL     1      -3.692  -2.070   0.275  1.00  0.00     0.016 C 
ENDBRANCH  21  22
ENDBRANCH  20  21
ENDBRANCH   1  20
TORSDOF 12
