REMARK  6 active torsions:
REMARK  status: ('A' for Active; 'I' for Inactive)
REMARK    1  A    between atoms: C3_3  and  C4_4 
REMARK    2  A    between atoms: C4_4  and  O1_5 
REMARK    3  A    between atoms: C7_9  and  O3_10 
REMARK    4  A    between atoms: C25_30  and  C26_31 
REMARK    5  A    between atoms: C39_45  and  O7_47 
REMARK    6  A    between atoms: C41_48  and  O8_49 
ROOT
HETATM    1  C1  UNL     1       7.244  -0.577  -1.912  1.00  0.00     0.013 C 
HETATM    2  C2  UNL     1       5.788  -0.117  -1.928  1.00  0.00     0.023 C 
HETATM    3  C3  UNL     1       5.691   1.416  -1.690  1.00  0.00     0.047 C 
HETATM    4  C5  UNL     1       4.943   1.588  -0.344  1.00  0.00     0.160 C 
HETATM    5  O2  UNL     1       5.132   0.304   0.262  1.00  0.00    -0.373 OA
HETATM    6  C6  UNL     1       4.953  -0.675  -0.780  1.00  0.00     0.167 C 
HETATM    7  C7  UNL     1       5.184  -2.084  -0.207  1.00  0.00     0.226 C 
HETATM    8  C8  UNL     1       4.182  -2.261   0.865  1.00  0.00    -0.072 C 
HETATM    9  C9  UNL     1       3.344  -2.086   1.709  1.00  0.00    -0.103 C 
HETATM   10  C10 UNL     1       2.406  -1.646   2.743  1.00  0.00     0.099 C 
HETATM   11  C11 UNL     1       0.991  -1.271   2.282  1.00  0.00     0.009 C 
HETATM   12  C12 UNL     1       0.264  -2.566   1.720  1.00  0.00     0.016 C 
HETATM   13  C13 UNL     1      -1.258  -2.362   1.619  1.00  0.00     0.027 C 
HETATM   14  C14 UNL     1      -1.744  -0.954   1.946  1.00  0.00    -0.036 C 
HETATM   15  C15 UNL     1      -2.786  -1.019   2.828  1.00  0.00     0.057 C 
HETATM   16  C16 UNL     1      -3.737  -2.152   2.508  1.00  0.00     0.154 C 
HETATM   17  O4  UNL     1      -4.522  -2.621   3.314  1.00  0.00    -0.293 OA
HETATM   18  C17 UNL     1      -3.654  -2.510   1.035  1.00  0.00     0.071 C 
HETATM   19  C18 UNL     1      -4.842  -3.022   0.255  1.00  0.00     0.045 C 
HETATM   20  C19 UNL     1      -4.706  -2.375  -1.147  1.00  0.00     0.122 C 
HETATM   21  C20 UNL     1      -3.367  -2.876  -1.764  1.00  0.00     0.033 C 
HETATM   22  C21 UNL     1      -2.105  -2.599  -0.890  1.00  0.00     0.013 C 
HETATM   23  C22 UNL     1      -2.250  -3.031   0.596  1.00  0.00    -0.026 C 
HETATM   24  C23 UNL     1      -2.138  -4.561   0.710  1.00  0.00     0.016 C 
HETATM   25  O5  UNL     1      -4.618  -0.925  -1.099  1.00  0.00    -0.384 OA
HETATM   26  C24 UNL     1      -5.721  -0.229  -0.498  1.00  0.00     0.190 C 
HETATM   27  C25 UNL     1      -5.420   1.248  -0.077  1.00  0.00     0.121 C 
HETATM   28  C32 UNL     1      -4.382   1.409   0.993  1.00  0.00    -0.093 C 
HETATM   29  C33 UNL     1      -3.512   1.677   1.790  1.00  0.00    -0.080 C 
HETATM   30  C34 UNL     1      -2.333   2.074   2.626  1.00  0.00     0.263 C 
HETATM   31  O6  UNL     1      -1.174   1.175   2.672  1.00  0.00    -0.363 OA
HETATM   32  C35 UNL     1      -0.928   0.284   1.537  1.00  0.00     0.094 C 
HETATM   33  C36 UNL     1      -1.065   1.171   0.273  1.00  0.00     0.044 C 
HETATM   34  C37 UNL     1       0.174   2.108   0.385  1.00  0.00     0.012 C 
HETATM   35  C38 UNL     1       1.237   1.390   1.306  1.00  0.00     0.034 C 
HETATM   36  C39 UNL     1       2.692   1.988   1.098  1.00  0.00     0.087 C 
HETATM   37  C40 UNL     1       3.594   1.610   2.282  1.00  0.00     0.049 C 
HETATM   38  C41 UNL     1       3.432   2.002  -0.325  1.00  0.00     0.181 C 
HETATM   39  C42 UNL     1       0.690  -0.091   1.284  1.00  0.00     0.002 C 
HETATM   40  C43 UNL     1       0.966  -0.649  -0.160  1.00  0.00     0.019 C 
ENDROOT
BRANCH  27  41
HETATM   41  C26 UNL     1      -5.172   2.239  -1.211  1.00  0.00    -0.040 A 
HETATM   42  C27 UNL     1      -4.531   1.893  -2.410  1.00  0.00     0.008 A 
HETATM   43  C28 UNL     1      -4.321   2.848  -3.409  1.00  0.00     0.001 A 
HETATM   44  C29 UNL     1      -4.736   4.165  -3.222  1.00  0.00     0.000 A 
HETATM   45  C30 UNL     1      -5.356   4.534  -2.032  1.00  0.00     0.001 A 
HETATM   46  C31 UNL     1      -5.570   3.579  -1.037  1.00  0.00     0.008 A 
ENDBRANCH  27  41
BRANCH  36  47
HETATM   47  O7  UNL     1       2.446   3.426   1.350  1.00  0.00    -0.387 OA
HETATM   48  H49 UNL     1       3.306   3.869   1.456  1.00  0.00     0.210 HD
ENDBRANCH  36  47
BRANCH  38  49
HETATM   49  O8  UNL     1       2.726   1.302  -1.341  1.00  0.00    -0.390 OA
HETATM   50  H51 UNL     1       2.126   1.943  -1.765  1.00  0.00     0.210 HD
ENDBRANCH  38  49
BRANCH   7  51
HETATM   51  O3  UNL     1       4.992  -3.088  -1.195  1.00  0.00    -0.381 OA
HETATM   52  H12 UNL     1       5.837  -3.199  -1.658  1.00  0.00     0.211 HD
ENDBRANCH   7  51
BRANCH   3  53
HETATM   53  C4  UNL     1       5.164   2.202  -2.883  1.00  0.00     0.172 C 
BRANCH  53  54
HETATM   54  O1  UNL     1       5.148   3.593  -2.584  1.00  0.00    -0.400 OA
HETATM   55  H8  UNL     1       6.067   3.912  -2.639  1.00  0.00     0.209 HD
ENDBRANCH  53  54
ENDBRANCH   3  53
TORSDOF 6
