REMARK  11 active torsions:
REMARK  status: ('A' for Active; 'I' for Inactive)
REMARK    1  A    between atoms: C3_3  and  O1_4 
REMARK    2  A    between atoms: N1_14  and  O2_16 
REMARK    3  A    between atoms: O2_16  and  C13_17 
REMARK    4  A    between atoms: C13_17  and  C14_18 
REMARK       I    between atoms: C14_18  and  N2_20 
REMARK    5  A    between atoms: N2_20  and  C15_21 
REMARK    6  A    between atoms: C15_21  and  C16_22 
REMARK    7  A    between atoms: C15_21  and  C19_27 
REMARK    8  A    between atoms: C16_22  and  O5_24 
REMARK    9  A    between atoms: O5_24  and  C17_25 
REMARK   10  A    between atoms: C19_27  and  O6_28 
REMARK   11  A    between atoms: C19_27  and  C20_29 
ROOT
HETATM    1  C1  UNL     1      -8.355   1.967   3.557  1.00  0.00     0.015 C 
HETATM    2  C2  UNL     1      -7.960   1.693   2.455  1.00  0.00    -0.078 C 
HETATM    3  C3  UNL     1      -7.478   1.375   1.090  1.00  0.00     0.128 C 
HETATM    4  C4  UNL     1      -6.148   2.087   0.843  1.00  0.00     0.052 C 
HETATM    5  C5  UNL     1      -5.078   1.148   1.401  1.00  0.00     0.010 C 
HETATM    6  C6  UNL     1      -5.731  -0.244   1.549  1.00  0.00     0.002 C 
HETATM    7  C7  UNL     1      -4.878  -1.416   1.026  1.00  0.00    -0.004 C 
HETATM    8  C8  UNL     1      -3.601  -1.605   1.853  1.00  0.00     0.010 C 
HETATM    9  C9  UNL     1      -2.605  -2.505   1.142  1.00  0.00     0.035 C 
HETATM   10  C10 UNL     1      -2.151  -1.761  -0.080  1.00  0.00    -0.069 C 
HETATM   11  C11 UNL     1      -0.879  -1.327  -0.164  1.00  0.00     0.030 C 
HETATM   12  C12 UNL     1      -0.404  -0.500  -1.310  1.00  0.00     0.032 C 
HETATM   13  N1  UNL     1       0.822  -0.125  -1.519  1.00  0.00    -0.271 N 
ATOM     14  H1  UNL     1       1.121   0.433  -2.319  1.00  0.00     0.194 HD
HETATM   15  C26 UNL     1      -1.428  -0.064  -2.339  1.00  0.00     0.060 C 
HETATM   16  C27 UNL     1      -2.856  -0.114  -1.803  1.00  0.00     0.020 C 
HETATM   17  C28 UNL     1      -3.221  -1.460  -1.122  1.00  0.00    -0.016 C 
HETATM   18  C29 UNL     1      -3.156  -2.587  -2.190  1.00  0.00     0.020 C 
HETATM   19  C30 UNL     1      -4.698  -1.468  -0.524  1.00  0.00     0.002 C 
HETATM   20  C31 UNL     1      -5.687  -0.541  -1.260  1.00  0.00     0.007 C 
HETATM   21  C32 UNL     1      -7.078  -0.560  -0.629  1.00  0.00     0.014 C 
HETATM   22  C33 UNL     1      -7.128  -0.136   0.874  1.00  0.00     0.003 C 
HETATM   23  C34 UNL     1      -8.154  -1.071   1.556  1.00  0.00     0.020 C 
ENDROOT
BRANCH   3  24
HETATM   24  O1  UNL     1      -8.448   1.843   0.166  1.00  0.00    -0.377 OA
HETATM   25  H2  UNL     1      -9.300   1.458   0.434  1.00  0.00     0.211 HD
ENDBRANCH   3  24
BRANCH  13  26
HETATM   26  O2  UNL     1       1.686  -0.581  -0.511  1.00  0.00    -0.271 OA
BRANCH  26  27
HETATM   27  C13 UNL     1       3.009  -0.183  -0.830  1.00  0.00     0.303 C 
BRANCH  27  28
HETATM   28  C14 UNL     1       3.985  -0.588   0.272  1.00  0.00     0.244 C 
HETATM   29  O3  UNL     1       3.650  -1.083   1.344  1.00  0.00    -0.271 OA
HETATM   30  N2  UNL     1       5.309  -0.355  -0.053  1.00  0.00    -0.343 N 
HETATM   31  H16 UNL     1       5.487   0.327  -0.784  1.00  0.00     0.163 HD
BRANCH  30  32
HETATM   32  C15 UNL     1       6.367  -0.453   0.973  1.00  0.00     0.217 C 
BRANCH  32  33
HETATM   33  C16 UNL     1       6.708   0.926   1.562  1.00  0.00     0.284 C 
HETATM   34  O4  UNL     1       7.425   1.101   2.540  1.00  0.00    -0.263 OA
BRANCH  33  35
HETATM   35  O5  UNL     1       6.125   1.932   0.840  1.00  0.00    -0.320 OA
BRANCH  35  36
HETATM   36  C17 UNL     1       6.363   3.265   1.316  1.00  0.00     0.174 C 
HETATM   37  C18 UNL     1       7.654   3.809   0.735  1.00  0.00     0.034 C 
ENDBRANCH  35  36
ENDBRANCH  33  35
ENDBRANCH  32  33
BRANCH  32  38
HETATM   38  C19 UNL     1       7.626  -1.164   0.419  1.00  0.00     0.183 C 
BRANCH  38  39
HETATM   39  O6  UNL     1       8.546  -1.536   1.448  1.00  0.00    -0.388 OA
HETATM   40  H24 UNL     1       8.055  -2.022   2.134  1.00  0.00     0.210 HD
ENDBRANCH  38  39
BRANCH  38  41
HETATM   41  C20 UNL     1       8.355  -0.381  -0.659  1.00  0.00    -0.027 A 
HETATM   42  C21 UNL     1       9.381   0.521  -0.338  1.00  0.00     0.010 A 
HETATM   43  C22 UNL     1      10.019   1.260  -1.336  1.00  0.00     0.001 A 
HETATM   44  C23 UNL     1       9.643   1.104  -2.668  1.00  0.00     0.000 A 
HETATM   45  C24 UNL     1       8.633   0.206  -3.004  1.00  0.00     0.001 A 
HETATM   46  C25 UNL     1       7.993  -0.533  -2.007  1.00  0.00     0.010 A 
ENDBRANCH  38  41
ENDBRANCH  32  38
ENDBRANCH  30  32
ENDBRANCH  27  28
ENDBRANCH  26  27
ENDBRANCH  13  26
TORSDOF 11
