REMARK  11 active torsions:
REMARK  status: ('A' for Active; 'I' for Inactive)
REMARK    1  A    between atoms: O1_2  and  C2_3 
REMARK    2  A    between atoms: C4_5  and  O2_6 
REMARK    3  A    between atoms: O2_6  and  C5_7 
REMARK    4  A    between atoms: C8_10  and  C9_11 
REMARK    5  A    between atoms: N1_12  and  C10_14 
REMARK    6  A    between atoms: C10_14  and  C11_15 
REMARK    7  A    between atoms: C11_15  and  O3_16 
REMARK    8  A    between atoms: C17_22  and  C18_23 
REMARK    9  A    between atoms: C24_31  and  O6_32 
REMARK   10  A    between atoms: C28_36  and  O7_37 
REMARK   11  A    between atoms: C32_42  and  O9_43 
ROOT
HETATM    1  C5  UNL     1      -2.879  -0.966   0.412  1.00  0.00     0.127 C 
HETATM    2  C6  UNL     1      -2.090  -1.775   1.449  1.00  0.00     0.033 C 
HETATM    3  C7  UNL     1      -0.597  -1.454   1.431  1.00  0.00     0.021 C 
HETATM    4  C8  UNL     1       0.097  -1.655   0.036  1.00  0.00     0.026 C 
HETATM    5  C12 UNL     1       1.284  -0.610  -0.044  1.00  0.00     0.009 C 
HETATM    6  C13 UNL     1       2.399  -0.855   1.002  1.00  0.00     0.007 C 
HETATM    7  C14 UNL     1       3.516   0.185   0.942  1.00  0.00     0.013 C 
HETATM    8  C15 UNL     1       4.148   0.318  -0.463  1.00  0.00    -0.005 C 
HETATM    9  C16 UNL     1       4.973  -0.947  -0.786  1.00  0.00     0.019 C 
HETATM   10  C17 UNL     1       5.012   1.617  -0.593  1.00  0.00     0.028 C 
HETATM   11  C22 UNL     1       3.975   2.737  -0.844  1.00  0.00     0.013 C 
HETATM   12  C23 UNL     1       2.678   2.053  -1.296  1.00  0.00     0.040 C 
HETATM   13  C24 UNL     1       3.045   0.577  -1.529  1.00  0.00     0.070 C 
HETATM   14  C25 UNL     1       1.866  -0.431  -1.468  1.00  0.00     0.026 C 
HETATM   15  C26 UNL     1       0.741  -0.067  -2.446  1.00  0.00     0.011 C 
HETATM   16  C27 UNL     1      -0.302  -1.167  -2.486  1.00  0.00     0.039 C 
HETATM   17  C28 UNL     1      -0.945  -1.481  -1.131  1.00  0.00     0.073 C 
HETATM   18  C29 UNL     1      -2.005  -0.430  -0.736  1.00  0.00     0.071 C 
ENDROOT
BRANCH   1  19
HETATM   19  O2  UNL     1      -3.540   0.112   1.089  1.00  0.00    -0.356 OA
BRANCH  19  20
HETATM   20  C4  UNL     1      -4.853   0.343   0.594  1.00  0.00     0.263 C 
HETATM   21  C3  UNL     1      -5.665   1.054   1.681  1.00  0.00     0.095 C 
HETATM   22  C2  UNL     1      -6.930   1.606   1.045  1.00  0.00     0.156 C 
HETATM   23  C32 UNL     1      -6.547   2.643  -0.048  1.00  0.00     0.175 C 
HETATM   24  C30 UNL     1      -5.104   2.422  -0.554  1.00  0.00     0.151 C 
HETATM   25  O8  UNL     1      -4.816   1.023  -0.661  1.00  0.00    -0.354 OA
HETATM   26  C31 UNL     1      -4.893   3.058  -1.923  1.00  0.00     0.042 C 
BRANCH  22  27
HETATM   27  O1  UNL     1      -7.777   2.261   1.995  1.00  0.00    -0.388 OA
HETATM   28  C1  UNL     1      -8.459   1.391   2.878  1.00  0.00     0.202 C 
ENDBRANCH  22  27
BRANCH  23  29
HETATM   29  O9  UNL     1      -6.671   3.981   0.482  1.00  0.00    -0.390 OA
HETATM   30  H49 UNL     1      -7.363   3.889   1.176  1.00  0.00     0.210 HD
ENDBRANCH  23  29
ENDBRANCH  19  20
ENDBRANCH   1  19
BRANCH  17  31
HETATM   31  O7  UNL     1      -1.678  -2.717  -1.326  1.00  0.00    -0.389 OA
HETATM   32  H41 UNL     1      -2.244  -2.600  -2.124  1.00  0.00     0.210 HD
ENDBRANCH  17  31
BRANCH   4  33
HETATM   33  C9  UNL     1       0.573  -3.121   0.000  1.00  0.00     0.068 C 
HETATM   34  N1  UNL     1       1.671  -3.511  -0.557  1.00  0.00    -0.399 N 
ATOM     35  H1  UNL     1       2.326  -2.882  -1.022  1.00  0.00     0.158 HD
BRANCH  34  36
HETATM   36  C10 UNL     1       1.873  -4.972  -0.446  1.00  0.00     0.144 C 
BRANCH  36  37
HETATM   37  C11 UNL     1       2.496  -5.307   0.912  1.00  0.00     0.183 C 
BRANCH  37  38
HETATM   38  O3  UNL     1       3.652  -4.507   1.156  1.00  0.00    -0.399 OA
HETATM   39  H18 UNL     1       3.802  -3.995   0.337  1.00  0.00     0.209 HD
ENDBRANCH  37  38
ENDBRANCH  36  37
ENDBRANCH  34  36
ENDBRANCH   4  33
BRANCH  13  40
HETATM   40  O6  UNL     1       3.648   0.474  -2.831  1.00  0.00    -0.389 OA
HETATM   41  H35 UNL     1       3.070   0.918  -3.479  1.00  0.00     0.210 HD
ENDBRANCH  13  40
BRANCH  10  42
HETATM   42  C18 UNL     1       6.028   1.907   0.488  1.00  0.00    -0.045 A 
HETATM   43  C19 UNL     1       6.030   2.873   1.410  1.00  0.00     0.087 A 
HETATM   44  C20 UNL     1       7.296   2.776   2.138  1.00  0.00     0.283 A 
HETATM   45  O4  UNL     1       7.627   3.509   3.052  1.00  0.00    -0.260 OA
HETATM   46  O5  UNL     1       8.033   1.754   1.621  1.00  0.00    -0.314 OA
HETATM   47  C21 UNL     1       7.290   1.127   0.574  1.00  0.00     0.213 A 
ENDBRANCH  10  42
TORSDOF 11
