REMARK  8 active torsions:
REMARK  status: ('A' for Active; 'I' for Inactive)
REMARK    1  A    between atoms: C4_4  and  C5_5 
REMARK    2  A    between atoms: C5_5  and  C6_6 
REMARK    3  A    between atoms: C6_6  and  C7_7 
REMARK    4  A    between atoms: C7_7  and  C9_9 
REMARK    5  A    between atoms: C19_19  and  C21_21 
REMARK    6  A    between atoms: C21_21  and  O2_23 
REMARK    7  A    between atoms: C22_24  and  O3_25 
REMARK    8  A    between atoms: C24_27  and  O4_28 
ROOT
HETATM    1  C9  UNL     1      -2.382  -0.418   0.102  1.00  0.00    -0.002 C 
HETATM    2  C10 UNL     1      -2.277  -1.954  -0.130  1.00  0.00     0.006 C 
HETATM    3  C11 UNL     1      -0.855  -2.239  -0.649  1.00  0.00     0.011 C 
HETATM    4  C12 UNL     1      -0.028  -1.013  -0.217  1.00  0.00    -0.028 C 
HETATM    5  C13 UNL     1       0.195  -1.179   1.349  1.00  0.00     0.016 C 
HETATM    6  C14 UNL     1       1.413  -0.816  -0.894  1.00  0.00    -0.028 C 
HETATM    7  C15 UNL     1       1.421  -0.871  -2.449  1.00  0.00     0.016 C 
HETATM    8  C16 UNL     1       2.333  -2.015  -0.453  1.00  0.00     0.011 C 
HETATM    9  C17 UNL     1       3.826  -1.719  -0.430  1.00  0.00     0.007 C 
HETATM   10  C18 UNL     1       4.127  -0.619   0.601  1.00  0.00     0.018 C 
HETATM   11  C19 UNL     1       5.667  -0.303   0.752  1.00  0.00     0.072 C 
HETATM   12  C20 UNL     1       6.409  -0.305  -0.604  1.00  0.00     0.030 C 
HETATM   13  C22 UNL     1       5.899   1.036   1.522  1.00  0.00     0.139 C 
HETATM   14  C23 UNL     1       4.687   1.431   2.354  1.00  0.00     0.065 C 
HETATM   15  C24 UNL     1       3.458   1.679   1.480  1.00  0.00     0.130 C 
HETATM   16  C25 UNL     1       3.307   0.651   0.358  1.00  0.00    -0.000 A 
HETATM   17  C26 UNL     1       3.251   1.136  -1.066  1.00  0.00     0.024 A 
HETATM   18  C27 UNL     1       1.967   0.599  -0.445  1.00  0.00    -0.021 A 
HETATM   19  C28 UNL     1       0.924   1.744  -0.387  1.00  0.00     0.012 C 
HETATM   20  C29 UNL     1      -0.478   1.412   0.140  1.00  0.00     0.011 C 
HETATM   21  C30 UNL     1      -1.056   0.154  -0.525  1.00  0.00    -0.032 C 
HETATM   22  C31 UNL     1      -1.316   0.464  -2.017  1.00  0.00     0.016 C 
ENDROOT
BRANCH   1  23
HETATM   23  C7  UNL     1      -3.805   0.149  -0.201  1.00  0.00    -0.014 C 
HETATM   24  C8  UNL     1      -3.901   1.633   0.177  1.00  0.00     0.010 C 
BRANCH  23  25
HETATM   25  C6  UNL     1      -4.370  -0.103  -1.621  1.00  0.00     0.008 C 
BRANCH  25  26
HETATM   26  C5  UNL     1      -5.832  -0.582  -1.633  1.00  0.00     0.028 C 
BRANCH  26  27
HETATM   27  C4  UNL     1      -6.819   0.475  -1.227  1.00  0.00    -0.025 C 
HETATM   28  C2  UNL     1      -7.633   0.489  -0.153  1.00  0.00    -0.091 C 
HETATM   29  C1  UNL     1      -7.692  -0.574   0.910  1.00  0.00     0.042 C 
HETATM   30  C3  UNL     1      -8.580   1.639   0.074  1.00  0.00     0.042 C 
ENDBRANCH  26  27
ENDBRANCH  25  26
ENDBRANCH  23  25
ENDBRANCH   1  23
BRANCH  15  31
HETATM   31  O4  UNL     1       2.315   1.619   2.332  1.00  0.00    -0.395 OA
HETATM   32  H41 UNL     1       2.364   2.387   2.925  1.00  0.00     0.210 HD
ENDBRANCH  15  31
BRANCH  11  33
HETATM   33  C21 UNL     1       6.293  -1.404   1.616  1.00  0.00     0.151 C 
HETATM   34  O1  UNL     1       5.714  -2.242   2.287  1.00  0.00    -0.649 OA
BRANCH  33  35
HETATM   35  O2  UNL     1       7.643  -1.380   1.626  1.00  0.00    -0.776 OA
HETATM   36  H35 UNL     1       7.886  -2.137   2.203  1.00  0.00     0.167 HD
ENDBRANCH  33  35
ENDBRANCH  11  33
BRANCH  13  37
HETATM   37  O3  UNL     1       6.194   2.134   0.651  1.00  0.00    -0.394 OA
HETATM   38  H37 UNL     1       7.118   2.039   0.359  1.00  0.00     0.210 HD
ENDBRANCH  13  37
TORSDOF 8
