REMARK  6 active torsions:
REMARK  status: ('A' for Active; 'I' for Inactive)
REMARK    1  A    between atoms: C3_3  and  C4_4 
REMARK    2  A    between atoms: C4_4  and  O2_6 
REMARK    3  A    between atoms: O2_6  and  C5_7 
REMARK    4  A    between atoms: C5_7  and  C6_8 
REMARK    5  A    between atoms: C6_8  and  C7_9 
REMARK    6  A    between atoms: C13_15  and  C14_16 
ROOT
HETATM    1  C1  UNL     1       1.684  -3.081  -2.561  1.00  0.00     0.069 C 
HETATM    2  C2  UNL     1       0.393  -2.607  -1.944  1.00  0.00     0.018 C 
HETATM    3  C3  UNL     1       0.275  -1.516  -1.153  1.00  0.00     0.052 C 
HETATM    4  C13 UNL     1      -1.059  -1.093  -0.545  1.00  0.00     0.104 C 
HETATM    5  C23 UNL     1      -2.225  -1.894  -1.128  1.00  0.00     0.024 C 
HETATM    6  C24 UNL     1      -2.025  -2.963  -1.928  1.00  0.00     0.020 C 
HETATM    7  C25 UNL     1      -3.154  -3.763  -2.532  1.00  0.00     0.058 C 
HETATM    8  C26 UNL     1      -4.455  -2.972  -2.593  1.00  0.00     0.014 C 
HETATM    9  C27 UNL     1      -4.765  -2.326  -1.254  1.00  0.00     0.084 C 
HETATM   10  C28 UNL     1      -3.611  -1.469  -0.783  1.00  0.00     0.158 C 
HETATM   11  O5  UNL     1      -3.803  -0.480  -0.077  1.00  0.00    -0.293 OA
HETATM   12  N1  UNL     1      -0.738  -3.348  -2.257  1.00  0.00    -0.362 N 
HETATM   13  H24 UNL     1      -0.625  -4.106  -2.927  1.00  0.00     0.165 HD
ENDROOT
BRANCH   4  14
HETATM   14  C14 UNL     1      -1.002  -1.205   0.972  1.00  0.00     0.029 A 
HETATM   15  C15 UNL     1      -1.197  -2.329   1.680  1.00  0.00     0.154 A 
HETATM   16  O3  UNL     1      -1.178  -2.458   3.048  1.00  0.00    -0.321 OA
HETATM   17  C16 UNL     1      -0.993  -1.320   3.790  1.00  0.00     0.089 A 
HETATM   18  C17 UNL     1      -1.033  -1.448   5.178  1.00  0.00     0.040 A 
HETATM   19  C21 UNL     1      -0.762  -0.073   3.211  1.00  0.00     0.050 A 
HETATM   20  C18 UNL     1      -0.842  -0.322   5.984  1.00  0.00     0.026 A 
HETATM   21  C19 UNL     1      -0.611   0.925   5.397  1.00  0.00     0.035 A 
HETATM   22 CL1  UNL     1      -0.373   2.306   6.396  1.00  0.00    -0.084 Cl
HETATM   23  C20 UNL     1      -0.569   1.058   4.011  1.00  0.00     0.042 A 
HETATM   24  C22 UNL     1      -0.710   0.030   1.743  1.00  0.00     0.194 A 
HETATM   25  O4  UNL     1      -0.407   1.085   1.203  1.00  0.00    -0.287 OA
ENDBRANCH   4  14
BRANCH   3  26
HETATM   26  C4  UNL     1       1.446  -0.685  -0.820  1.00  0.00     0.292 C 
HETATM   27  O1  UNL     1       2.423  -1.093  -0.215  1.00  0.00    -0.259 OA
BRANCH  26  28
HETATM   28  O2  UNL     1       1.238   0.567  -1.292  1.00  0.00    -0.317 OA
BRANCH  28  29
HETATM   29  C5  UNL     1       2.255   1.516  -0.940  1.00  0.00     0.183 C 
BRANCH  29  30
HETATM   30  C6  UNL     1       1.683   2.919  -1.127  1.00  0.00     0.065 C 
BRANCH  30  31
HETATM   31  C7  UNL     1       2.720   3.990  -0.908  1.00  0.00    -0.056 A 
HETATM   32  C8  UNL     1       3.109   4.345   0.392  1.00  0.00     0.007 A 
HETATM   33  C9  UNL     1       4.084   5.322   0.597  1.00  0.00     0.001 A 
HETATM   34  C10 UNL     1       4.679   5.953  -0.495  1.00  0.00     0.000 A 
HETATM   35  C11 UNL     1       4.298   5.609  -1.791  1.00  0.00     0.001 A 
HETATM   36  C12 UNL     1       3.324   4.630  -1.998  1.00  0.00     0.007 A 
ENDBRANCH  30  31
ENDBRANCH  29  30
ENDBRANCH  28  29
ENDBRANCH  26  28
ENDBRANCH   3  26
TORSDOF 6
