REMARK  15 active torsions:
REMARK  status: ('A' for Active; 'I' for Inactive)
REMARK    1  A    between atoms: C14_14  and  C15_15 
REMARK    2  A    between atoms: C15_15  and  C16_16 
REMARK    3  A    between atoms: C16_16  and  O1_17 
REMARK    4  A    between atoms: C16_16  and  C23_29 
REMARK    5  A    between atoms: O1_17  and  C17_18 
REMARK    6  A    between atoms: C18_20  and  C19_21 
REMARK    7  A    between atoms: C19_21  and  O3_22 
REMARK    8  A    between atoms: C20_23  and  O4_24 
REMARK    9  A    between atoms: C21_25  and  O5_26 
REMARK   10  A    between atoms: C22_27  and  O6_28 
REMARK   11  A    between atoms: C25_31  and  C26_32 
REMARK   12  A    between atoms: C26_32  and  O7_33 
REMARK   13  A    between atoms: O7_33  and  C27_34 
REMARK   14  A    between atoms: C27_34  and  C28_36 
REMARK   15  A    between atoms: C28_36  and  C29_37 
ROOT
HETATM    1  C16 UNL     1       0.637   0.358   2.084  1.00  0.00     0.153 C 
ENDROOT
BRANCH   1   2
HETATM    2  C15 UNL     1      -0.730  -0.072   2.662  1.00  0.00     0.046 C 
BRANCH   2   3
HETATM    3  C14 UNL     1      -1.563  -1.000   1.721  1.00  0.00     0.025 C 
HETATM    4  C2  UNL     1      -1.447  -2.506   2.005  1.00  0.00    -0.084 C 
HETATM    5  C1  UNL     1      -0.901  -3.090   3.083  1.00  0.00     0.014 C 
HETATM    6  C3  UNL     1      -2.063  -3.370   0.930  1.00  0.00     0.034 C 
HETATM    7  C4  UNL     1      -3.534  -3.016   0.712  1.00  0.00     0.010 C 
HETATM    8  C5  UNL     1      -3.719  -1.507   0.436  1.00  0.00     0.002 C 
HETATM    9  C6  UNL     1      -5.153  -1.122  -0.071  1.00  0.00    -0.043 C 
HETATM   10  C12 UNL     1      -3.110  -0.617   1.601  1.00  0.00    -0.032 C 
HETATM   11  C7  UNL     1      -6.294  -1.523   0.883  1.00  0.00     0.015 C 
HETATM   12  C8  UNL     1      -5.447  -1.832  -1.421  1.00  0.00     0.015 C 
HETATM   13  C9  UNL     1      -5.202   0.399  -0.360  1.00  0.00     0.009 C 
HETATM   14  C10 UNL     1      -4.696   1.260   0.786  1.00  0.00     0.002 C 
HETATM   15  C11 UNL     1      -3.277   0.877   1.197  1.00  0.00     0.010 C 
HETATM   16  C13 UNL     1      -3.777  -0.834   2.983  1.00  0.00     0.016 C 
ENDBRANCH   2   3
ENDBRANCH   1   2
BRANCH   1  17
HETATM   17  O1  UNL     1       0.382   1.042   0.844  1.00  0.00    -0.349 OA
BRANCH  17  18
HETATM   18  C17 UNL     1       0.817   2.400   0.828  1.00  0.00     0.292 C 
HETATM   19  O2  UNL     1      -0.052   3.061  -0.115  1.00  0.00    -0.348 OA
HETATM   20  C18 UNL     1       0.541   4.214  -0.698  1.00  0.00     0.179 C 
HETATM   21  C20 UNL     1       1.711   3.819  -1.627  1.00  0.00     0.180 C 
HETATM   22  C21 UNL     1       2.445   2.566  -1.107  1.00  0.00     0.183 C 
HETATM   23  C22 UNL     1       2.322   2.480   0.427  1.00  0.00     0.204 C 
BRANCH  20  24
HETATM   24  C19 UNL     1      -0.519   5.002  -1.474  1.00  0.00     0.198 C 
BRANCH  24  25
HETATM   25  O3  UNL     1       0.034   6.205  -2.008  1.00  0.00    -0.398 OA
HETATM   26  H31 UNL     1       0.100   6.842  -1.267  1.00  0.00     0.209 HD
ENDBRANCH  24  25
ENDBRANCH  20  24
BRANCH  21  27
HETATM   27  O4  UNL     1       2.634   4.917  -1.679  1.00  0.00    -0.390 OA
HETATM   28  H33 UNL     1       2.168   5.616  -2.186  1.00  0.00     0.210 HD
ENDBRANCH  21  27
BRANCH  22  29
HETATM   29  O5  UNL     1       1.943   1.387  -1.746  1.00  0.00    -0.390 OA
HETATM   30  H35 UNL     1       1.046   1.210  -1.391  1.00  0.00     0.210 HD
ENDBRANCH  22  29
BRANCH  23  31
HETATM   31  O6  UNL     1       2.937   3.618   1.062  1.00  0.00    -0.388 OA
HETATM   32  H37 UNL     1       3.379   4.151   0.366  1.00  0.00     0.210 HD
ENDBRANCH  23  31
ENDBRANCH  17  18
ENDBRANCH   1  17
BRANCH   1  33
HETATM   33  C23 UNL     1       1.634  -0.778   1.869  1.00  0.00    -0.057 C 
HETATM   34  C24 UNL     1       2.404  -1.167   3.107  1.00  0.00     0.046 C 
HETATM   35  C25 UNL     1       1.863  -1.311   0.649  1.00  0.00     0.005 C 
BRANCH  35  36
HETATM   36  C26 UNL     1       2.845  -2.367   0.255  1.00  0.00     0.206 C 
BRANCH  36  37
HETATM   37  O7  UNL     1       3.954  -1.706  -0.363  1.00  0.00    -0.318 OA
BRANCH  37  38
HETATM   38  C27 UNL     1       4.004  -1.753  -1.723  1.00  0.00     0.259 C 
HETATM   39  O8  UNL     1       3.233  -2.370  -2.442  1.00  0.00    -0.265 OA
BRANCH  38  40
HETATM   40  C28 UNL     1       5.153  -0.892  -2.205  1.00  0.00     0.115 C 
BRANCH  40  41
HETATM   41  C29 UNL     1       5.642  -1.265  -3.612  1.00  0.00    -0.013 C 
HETATM   42  C30 UNL     1       6.614  -0.202  -4.125  1.00  0.00     0.010 C 
HETATM   43  C31 UNL     1       6.319  -2.636  -3.627  1.00  0.00     0.010 C 
ENDBRANCH  40  41
ENDBRANCH  38  40
ENDBRANCH  37  38
ENDBRANCH  36  37
ENDBRANCH  35  36
ENDBRANCH   1  33
TORSDOF 15
