REMARK  20 active torsions:
REMARK  status: ('A' for Active; 'I' for Inactive)
REMARK    1  A    between atoms: C2_2  and  C3_3 
REMARK    2  A    between atoms: C2_2  and  C27_34 
REMARK    3  A    between atoms: C4_4  and  C5_5 
REMARK    4  A    between atoms: C6_6  and  C7_7 
REMARK    5  A    between atoms: C6_6  and  C10_12 
REMARK    6  A    between atoms: C7_7  and  O1_8 
REMARK    7  A    between atoms: O1_8  and  C8_9 
REMARK    8  A    between atoms: C8_9  and  C9_10 
REMARK    9  A    between atoms: C9_10  and  O2_11 
REMARK   10  A    between atoms: C14_16  and  O3_17 
REMARK   11  A    between atoms: C15_18  and  C16_19 
REMARK   12  A    between atoms: C16_19  and  C17_20 
REMARK   13  A    between atoms: C17_20  and  C18_21 
REMARK   14  A    between atoms: C18_21  and  O4_22 
REMARK   15  A    between atoms: C20_24  and  C22_26 
REMARK   16  A    between atoms: C25_30  and  O6_31 
REMARK   17  A    between atoms: C25_30  and  C26_32 
REMARK   18  A    between atoms: C26_32  and  O7_33 
REMARK   19  A    between atoms: C27_34  and  C28_35 
REMARK   20  A    between atoms: C28_35  and  C29_36 
ROOT
HETATM    1  C10 UNL     1      -0.664  -1.930   1.250  1.00  0.00     0.046 C 
HETATM    2  C11 UNL     1      -2.038  -2.534   0.943  1.00  0.00     0.013 C 
HETATM    3  C12 UNL     1      -2.888  -1.321   0.605  1.00  0.00     0.017 C 
HETATM    4  C13 UNL     1      -1.984  -0.393  -0.265  1.00  0.00     0.027 C 
HETATM    5  C14 UNL     1      -0.530  -0.882   0.108  1.00  0.00     0.138 C 
HETATM    6  C15 UNL     1      -2.169   1.109   0.240  1.00  0.00     0.029 C 
HETATM    7  C19 UNL     1      -3.600   1.581  -0.039  1.00  0.00    -0.066 C 
HETATM    8  C20 UNL     1      -4.480   2.025   0.892  1.00  0.00    -0.021 C 
HETATM    9  C21 UNL     1      -5.866   2.515   0.592  1.00  0.00     0.052 C 
HETATM   10  C23 UNL     1      -3.935   1.541  -1.514  1.00  0.00     0.038 C 
HETATM   11  C24 UNL     1      -3.766   0.138  -2.079  1.00  0.00     0.045 C 
HETATM   12  C25 UNL     1      -2.391  -0.528  -1.797  1.00  0.00     0.090 C 
ENDROOT
BRANCH   5  13
HETATM   13  O3  UNL     1       0.140  -1.412  -1.026  1.00  0.00    -0.394 OA
HETATM   14  H19 UNL     1       0.150  -0.683  -1.686  1.00  0.00     0.210 HD
ENDBRANCH   5  13
BRANCH   6  15
HETATM   15  C16 UNL     1      -1.147   2.156  -0.304  1.00  0.00     0.012 C 
BRANCH  15  16
HETATM   16  C17 UNL     1      -1.308   3.536   0.362  1.00  0.00     0.027 C 
BRANCH  16  17
HETATM   17  C18 UNL     1      -0.250   4.532  -0.095  1.00  0.00     0.164 C 
BRANCH  17  18
HETATM   18  O4  UNL     1      -0.395   4.785  -1.484  1.00  0.00    -0.401 OA
HETATM   19  H27 UNL     1       0.296   5.426  -1.728  1.00  0.00     0.209 HD
ENDBRANCH  17  18
ENDBRANCH  16  17
ENDBRANCH  15  16
ENDBRANCH   6  15
BRANCH  12  20
HETATM   20  O6  UNL     1      -1.393   0.160  -2.580  1.00  0.00    -0.387 OA
HETATM   21  H36 UNL     1      -1.449  -0.192  -3.491  1.00  0.00     0.210 HD
ENDBRANCH  12  20
BRANCH  12  22
HETATM   22  C26 UNL     1      -2.522  -1.982  -2.376  1.00  0.00     0.202 C 
BRANCH  22  23
HETATM   23  O7  UNL     1      -1.288  -2.592  -2.722  1.00  0.00    -0.398 OA
HETATM   24  H39 UNL     1      -0.678  -2.482  -1.958  1.00  0.00     0.209 HD
ENDBRANCH  22  23
ENDBRANCH  12  22
BRANCH   1  25
HETATM   25  C6  UNL     1       0.449  -2.942   1.557  1.00  0.00    -0.050 C 
HETATM   26  C5  UNL     1       1.788  -2.797   1.429  1.00  0.00     0.005 C 
BRANCH  26  27
HETATM   27  C4  UNL     1       2.578  -1.697   0.924  1.00  0.00     0.001 C 
HETATM   28  C3  UNL     1       3.922  -1.712   0.954  1.00  0.00     0.006 C 
BRANCH  28  29
HETATM   29  C2  UNL     1       4.825  -0.705   0.408  1.00  0.00    -0.067 C 
HETATM   30  C1  UNL     1       6.149  -0.831   0.607  1.00  0.00     0.019 C 
BRANCH  29  31
HETATM   31  C27 UNL     1       4.296   0.427  -0.448  1.00  0.00     0.041 C 
BRANCH  31  32
HETATM   32  C28 UNL     1       3.800   1.620   0.376  1.00  0.00     0.032 C 
BRANCH  32  33
HETATM   33  C29 UNL     1       3.374   2.749  -0.527  1.00  0.00    -0.024 C 
HETATM   34  C30 UNL     1       4.009   3.916  -0.750  1.00  0.00    -0.091 C 
HETATM   35  C31 UNL     1       3.430   4.932  -1.698  1.00  0.00     0.042 C 
HETATM   36  C32 UNL     1       5.323   4.322  -0.139  1.00  0.00     0.042 C 
ENDBRANCH  32  33
ENDBRANCH  31  32
ENDBRANCH  29  31
ENDBRANCH  28  29
ENDBRANCH  26  27
BRANCH  25  37
HETATM   37  C7  UNL     1      -0.012  -4.249   2.202  1.00  0.00     0.202 C 
BRANCH  37  38
HETATM   38  O1  UNL     1      -0.713  -5.077   1.274  1.00  0.00    -0.385 OA
BRANCH  38  39
HETATM   39  C8  UNL     1       0.129  -5.758   0.338  1.00  0.00     0.194 C 
BRANCH  39  40
HETATM   40  C9  UNL     1       0.593  -7.108   0.884  1.00  0.00     0.190 C 
BRANCH  40  41
HETATM   41  O2  UNL     1       1.670  -6.946   1.808  1.00  0.00    -0.399 OA
HETATM   42  H12 UNL     1       1.897  -7.835   2.129  1.00  0.00     0.209 HD
ENDBRANCH  40  41
ENDBRANCH  39  40
ENDBRANCH  38  39
ENDBRANCH  37  38
ENDBRANCH  25  37
ENDBRANCH   1  25
BRANCH   8  43
HETATM   43  C22 UNL     1      -4.125   2.124   2.338  1.00  0.00     0.265 C 
HETATM   44  O5  UNL     1      -3.636   1.211   2.988  1.00  0.00    -0.302 OA
ENDBRANCH   8  43
TORSDOF 20
