REMARK  19 active torsions:
REMARK  status: ('A' for Active; 'I' for Inactive)
REMARK    1  A    between atoms: O1_2  and  C2_3 
REMARK    2  A    between atoms: C2_3  and  C3_4 
REMARK    3  A    between atoms: C2_3  and  C28_36 
REMARK    4  A    between atoms: C3_4  and  C4_5 
REMARK    5  A    between atoms: C4_5  and  C6_7 
REMARK    6  A    between atoms: C6_7  and  O2_8 
REMARK    7  A    between atoms: C6_7  and  C7_9 
REMARK    8  A    between atoms: C8_10  and  C9_11 
REMARK    9  A    between atoms: C10_12  and  C11_13 
REMARK   10  A    between atoms: C11_13  and  N1_14 
REMARK       I    between atoms: N1_14  and  C12_15 
REMARK   11  A    between atoms: C12_15  and  C13_17 
REMARK   12  A    between atoms: C13_17  and  C16_20 
REMARK   13  A    between atoms: C16_20  and  O4_21 
REMARK   14  A    between atoms: C16_20  and  C17_22 
REMARK   15  A    between atoms: C19_24  and  C20_25 
REMARK   16  A    between atoms: C21_26  and  C22_27 
REMARK   17  A    between atoms: C23_28  and  C24_29 
REMARK   18  A    between atoms: C26_31  and  N2_33 
REMARK   19  A    between atoms: C28_36  and  O7_37 
ROOT
HETATM    1  C9  UNL     1      -0.497  -0.757   1.002  1.00  0.00    -0.003 C 
HETATM    2  C10 UNL     1       0.187  -1.255   2.047  1.00  0.00    -0.007 C 
ENDROOT
BRANCH   1   3
HETATM    3  C8  UNL     1      -1.863  -0.299   1.120  1.00  0.00    -0.002 C 
HETATM    4  C7  UNL     1      -2.567   0.193   0.086  1.00  0.00     0.005 C 
BRANCH   4   5
HETATM    5  C6  UNL     1      -4.005   0.652   0.133  1.00  0.00     0.144 C 
BRANCH   5   6
HETATM    6  C4  UNL     1      -4.948  -0.304  -0.635  1.00  0.00     0.016 C 
HETATM    7  C5  UNL     1      -4.927  -1.749  -0.129  1.00  0.00     0.013 C 
BRANCH   6   8
HETATM    8  C3  UNL     1      -6.382   0.254  -0.822  1.00  0.00     0.042 C 
BRANCH   8   9
HETATM    9  C2  UNL     1      -7.311   0.540   0.390  1.00  0.00     0.159 C 
BRANCH   9  10
HETATM   10  O1  UNL     1      -7.659  -0.659   1.073  1.00  0.00    -0.388 OA
HETATM   11  C1  UNL     1      -7.125  -0.738   2.393  1.00  0.00     0.202 C 
ENDBRANCH   9  10
BRANCH   9  12
HETATM   12  C28 UNL     1      -8.591   1.332  -0.039  1.00  0.00     0.133 C 
HETATM   13  C29 UNL     1      -9.611   1.710   1.090  1.00  0.00     0.114 C 
HETATM   14  C30 UNL     1     -10.160   0.614   1.996  1.00  0.00     0.023 C 
HETATM   15  C31 UNL     1     -10.791   2.210   0.279  1.00  0.00     0.227 C 
HETATM   16  O8  UNL     1     -11.632   3.008   0.655  1.00  0.00    -0.273 OA
HETATM   17  N3  UNL     1     -10.748   1.570  -0.950  1.00  0.00    -0.332 N 
HETATM   18  C32 UNL     1     -11.619   1.970  -2.033  1.00  0.00     0.154 C 
HETATM   19  C33 UNL     1      -9.499   0.735  -1.139  1.00  0.00     0.183 A 
HETATM   20  C34 UNL     1      -8.937   0.702  -2.590  1.00  0.00     0.294 A 
HETATM   21  C35 UNL     1      -9.856  -0.760  -1.482  1.00  0.00     0.169 A 
HETATM   22  O9  UNL     1      -8.452   1.484  -3.378  1.00  0.00    -0.262 OA
HETATM   23  O10 UNL     1      -9.231  -0.606  -2.793  1.00  0.00    -0.311 OA
HETATM   24  C36 UNL     1      -9.350  -2.023  -0.819  1.00  0.00     0.043 C 
BRANCH  12  25
HETATM   25  O7  UNL     1      -8.067   2.618  -0.506  1.00  0.00    -0.383 OA
HETATM   26  H42 UNL     1      -8.752   3.090  -1.014  1.00  0.00     0.210 HD
ENDBRANCH  12  25
ENDBRANCH   9  12
ENDBRANCH   8   9
ENDBRANCH   6   8
ENDBRANCH   5   6
BRANCH   5  27
HETATM   27  O2  UNL     1      -4.424   0.810   1.482  1.00  0.00    -0.391 OA
HETATM   28  H12 UNL     1      -3.874   1.520   1.860  1.00  0.00     0.210 HD
ENDBRANCH   5  27
ENDBRANCH   4   5
ENDBRANCH   1   3
BRANCH   2  29
HETATM   29  C11 UNL     1       1.588  -1.786   2.068  1.00  0.00     0.149 C 
BRANCH  29  30
HETATM   30  N1  UNL     1       2.343  -1.355   0.915  1.00  0.00    -0.357 N 
HETATM   31  C12 UNL     1       3.521  -1.995   0.589  1.00  0.00     0.228 C 
HETATM   32  O3  UNL     1       3.872  -3.028   1.161  1.00  0.00    -0.273 OA
HETATM   33  H19 UNL     1       2.219  -0.396   0.629  1.00  0.00     0.162 HD
BRANCH  31  34
HETATM   34  C13 UNL     1       4.306  -1.418  -0.603  1.00  0.00     0.063 C 
HETATM   35  C14 UNL     1       4.403   0.119  -0.544  1.00  0.00     0.028 C 
HETATM   36  C15 UNL     1       3.512  -1.818  -1.866  1.00  0.00     0.028 C 
BRANCH  34  37
HETATM   37  C16 UNL     1       5.748  -2.032  -0.697  1.00  0.00     0.164 C 
BRANCH  37  38
HETATM   38  O4  UNL     1       5.734  -3.461  -0.689  1.00  0.00    -0.390 OA
HETATM   39  H27 UNL     1       5.199  -3.737   0.083  1.00  0.00     0.210 HD
ENDBRANCH  37  38
BRANCH  37  40
HETATM   40  C17 UNL     1       6.794  -1.547   0.305  1.00  0.00    -0.054 C 
HETATM   41  C18 UNL     1       6.610  -1.974   1.743  1.00  0.00     0.046 C 
HETATM   42  C19 UNL     1       7.882  -0.800   0.007  1.00  0.00     0.005 C 
BRANCH  42  43
HETATM   43  C20 UNL     1       8.287  -0.287  -1.286  1.00  0.00     0.000 C 
HETATM   44  C21 UNL     1       9.417   0.380  -1.579  1.00  0.00     0.000 C 
BRANCH  44  45
HETATM   45  C22 UNL     1      10.493   0.738  -0.676  1.00  0.00     0.001 C 
HETATM   46  C23 UNL     1      11.612   1.360  -1.089  1.00  0.00     0.009 C 
BRANCH  46  47
HETATM   47  C24 UNL     1      12.750   1.749  -0.242  1.00  0.00    -0.034 C 
HETATM   48  C25 UNL     1      12.518   1.658   1.256  1.00  0.00     0.050 C 
HETATM   49  C26 UNL     1      13.907   2.183  -0.798  1.00  0.00     0.082 C 
HETATM   50  C27 UNL     1      14.337   2.335  -2.219  1.00  0.00     0.075 C 
BRANCH  49  51
HETATM   51  N2  UNL     1      14.985   2.538   0.102  1.00  0.00    -0.120 N 
HETATM   52  O5  UNL     1      15.638   1.608   0.593  1.00  0.00    -0.532 OA
HETATM   53  O6  UNL     1      15.179   3.745   0.289  1.00  0.00    -0.532 OA
ENDBRANCH  49  51
ENDBRANCH  46  47
ENDBRANCH  44  45
ENDBRANCH  42  43
ENDBRANCH  37  40
ENDBRANCH  34  37
ENDBRANCH  31  34
ENDBRANCH  29  30
ENDBRANCH   2  29
TORSDOF 19
