REMARK  9 active torsions:
REMARK  status: ('A' for Active; 'I' for Inactive)
REMARK    1  A    between atoms: C2_2  and  C3_3 
REMARK    2  A    between atoms: C2_2  and  C9_11 
REMARK    3  A    between atoms: C3_3  and  C4_4 
REMARK    4  A    between atoms: C4_4  and  C5_5 
REMARK    5  A    between atoms: C6_6  and  C7_7 
REMARK    6  A    between atoms: C6_6  and  C8_9 
REMARK    7  A    between atoms: C7_7  and  O1_8 
REMARK    8  A    between atoms: C8_9  and  O2_10 
REMARK    9  A    between atoms: C11_13  and  O3_14 
ROOT
HETATM    1  C9  UNL     1       1.840   0.472   1.003  1.00  0.00     0.001 C 
HETATM    2  C10 UNL     1       1.623   1.996   1.202  1.00  0.00     0.038 C 
HETATM    3  C11 UNL     1       0.100   2.255   1.072  1.00  0.00     0.131 C 
HETATM    4  C12 UNL     1      -0.552   0.838   1.111  1.00  0.00     0.014 C 
HETATM    5  C13 UNL     1      -0.697   0.483   2.630  1.00  0.00     0.023 C 
HETATM    6  C14 UNL     1      -1.940   0.555   0.533  1.00  0.00    -0.058 C 
HETATM    7  C15 UNL     1      -2.294  -0.697   0.131  1.00  0.00    -0.000 C 
HETATM    8  C16 UNL     1      -1.244  -1.807   0.172  1.00  0.00     0.157 C 
HETATM    9  O4  UNL     1      -1.548  -2.975  -0.070  1.00  0.00    -0.293 OA
HETATM   10  C17 UNL     1       0.201  -1.489   0.538  1.00  0.00     0.094 C 
HETATM   11  C18 UNL     1       0.518  -0.008   0.332  1.00  0.00    -0.019 C 
HETATM   12  C19 UNL     1       0.542   0.245  -1.204  1.00  0.00     0.017 C 
HETATM   13  C20 UNL     1      -3.716  -1.059  -0.376  1.00  0.00    -0.008 C 
HETATM   14  C21 UNL     1      -3.586  -1.274  -1.904  1.00  0.00     0.021 C 
HETATM   15  C22 UNL     1      -4.255  -2.375   0.274  1.00  0.00     0.022 C 
HETATM   16  C23 UNL     1      -5.771  -2.477   0.426  1.00  0.00     0.080 C 
HETATM   17  C24 UNL     1      -6.511  -1.624  -0.575  1.00  0.00     0.135 C 
HETATM   18  O5  UNL     1      -7.380  -2.109  -1.300  1.00  0.00    -0.297 OA
HETATM   19  C25 UNL     1      -6.193  -0.125  -0.561  1.00  0.00     0.018 C 
HETATM   20  C26 UNL     1      -7.213   0.529   0.397  1.00  0.00     0.023 C 
HETATM   21  C27 UNL     1      -6.429   0.473  -1.960  1.00  0.00     0.023 C 
HETATM   22  C28 UNL     1      -4.741   0.080  -0.006  1.00  0.00     0.014 C 
HETATM   23  C29 UNL     1      -4.164   1.465  -0.310  1.00  0.00     0.011 C 
HETATM   24  C30 UNL     1      -2.911   1.713   0.521  1.00  0.00     0.036 C 
ENDROOT
BRANCH   1  25
HETATM   25  C2  UNL     1       3.207   0.030   0.392  1.00  0.00    -0.013 C 
HETATM   26  C1  UNL     1       4.243  -0.071   1.528  1.00  0.00     0.010 C 
BRANCH  25  27
HETATM   27  C3  UNL     1       3.756   0.932  -0.742  1.00  0.00     0.008 C 
BRANCH  27  28
HETATM   28  C4  UNL     1       4.897   0.312  -1.572  1.00  0.00     0.028 C 
BRANCH  28  29
HETATM   29  C5  UNL     1       6.267   0.614  -1.029  1.00  0.00    -0.020 C 
HETATM   30  C6  UNL     1       7.287  -0.236  -0.777  1.00  0.00    -0.037 C 
BRANCH  30  31
HETATM   31  C7  UNL     1       7.232  -1.724  -0.994  1.00  0.00     0.200 C 
BRANCH  31  32
HETATM   32  O1  UNL     1       8.320  -2.111  -1.822  1.00  0.00    -0.397 OA
HETATM   33  H12 UNL     1       8.231  -3.069  -1.968  1.00  0.00     0.209 HD
ENDBRANCH  31  32
ENDBRANCH  30  31
BRANCH  30  34
HETATM   34  C8  UNL     1       8.614   0.236  -0.219  1.00  0.00     0.200 C 
BRANCH  34  35
HETATM   35  O2  UNL     1       8.543   1.575   0.258  1.00  0.00    -0.397 OA
HETATM   36  H15 UNL     1       9.452   1.829   0.489  1.00  0.00     0.209 HD
ENDBRANCH  34  35
ENDBRANCH  30  34
ENDBRANCH  28  29
ENDBRANCH  27  28
ENDBRANCH  25  27
ENDBRANCH   1  25
BRANCH   3  37
HETATM   37  O3  UNL     1      -0.143   2.943  -0.150  1.00  0.00    -0.394 OA
HETATM   38  H20 UNL     1       0.295   3.810  -0.092  1.00  0.00     0.210 HD
ENDBRANCH   3  37
TORSDOF 9
