REMARK  13 active torsions:
REMARK  status: ('A' for Active; 'I' for Inactive)
REMARK    1  A    between atoms: C2_2  and  C3_3 
REMARK    2  A    between atoms: C2_2  and  C4_5 
REMARK    3  A    between atoms: C3_3  and  O1_4 
REMARK    4  A    between atoms: C4_5  and  C5_6 
REMARK    5  A    between atoms: C5_6  and  C6_7 
REMARK    6  A    between atoms: C6_7  and  O2_8 
REMARK    7  A    between atoms: C6_7  and  C7_9 
REMARK    8  A    between atoms: C7_9  and  C9_11 
REMARK    9  A    between atoms: C10_12  and  O3_13 
REMARK   10  A    between atoms: O3_13  and  C11_14 
REMARK   11  A    between atoms: C13_17  and  O5_18 
REMARK   12  A    between atoms: C14_19  and  O6_20 
REMARK   13  A    between atoms: C15_21  and  O7_22 
ROOT
HETATM    1  C9  UNL     1       0.603   0.798   0.055  1.00  0.00     0.029 C 
HETATM    2  C10 UNL     1      -0.304   2.032   0.479  1.00  0.00     0.130 C 
HETATM    3  C16 UNL     1      -1.772   1.627   0.216  1.00  0.00     0.038 C 
HETATM    4  C17 UNL     1      -1.685   0.135  -0.056  1.00  0.00     0.001 C 
HETATM    5  C18 UNL     1      -2.873  -0.584  -0.691  1.00  0.00    -0.004 C 
HETATM    6  C19 UNL     1      -4.215  -0.181  -0.075  1.00  0.00     0.010 C 
HETATM    7  C20 UNL     1      -5.286  -1.218  -0.367  1.00  0.00     0.035 C 
HETATM    8  C21 UNL     1      -4.904  -2.442   0.410  1.00  0.00    -0.068 C 
HETATM    9  C22 UNL     1      -5.666  -2.840   1.445  1.00  0.00     0.053 C 
HETATM   10  C23 UNL     1      -5.254  -3.949   2.336  1.00  0.00     0.149 C 
HETATM   11  O8  UNL     1      -6.047  -4.371   3.175  1.00  0.00    -0.293 OA
HETATM   12  C24 UNL     1      -3.875  -4.540   2.169  1.00  0.00     0.084 C 
HETATM   13  C25 UNL     1      -2.944  -3.637   1.359  1.00  0.00     0.022 C 
HETATM   14  C26 UNL     1      -3.574  -3.097   0.044  1.00  0.00    -0.016 C 
HETATM   15  C27 UNL     1      -3.889  -4.296  -0.892  1.00  0.00     0.020 C 
HETATM   16  C28 UNL     1      -2.593  -2.128  -0.754  1.00  0.00     0.002 C 
HETATM   17  C29 UNL     1      -1.084  -2.459  -0.530  1.00  0.00     0.007 C 
HETATM   18  C30 UNL     1      -0.150  -1.491  -1.261  1.00  0.00     0.010 C 
HETATM   19  C31 UNL     1      -0.383  -0.010  -0.881  1.00  0.00    -0.034 C 
HETATM   20  C32 UNL     1      -0.430   0.726  -2.263  1.00  0.00     0.016 C 
ENDROOT
BRANCH   2  21
HETATM   21  O3  UNL     1      -0.007   3.157  -0.347  1.00  0.00    -0.353 OA
BRANCH  21  22
HETATM   22  C11 UNL     1       0.766   4.167   0.302  1.00  0.00     0.291 C 
HETATM   23  O4  UNL     1      -0.099   4.881   1.196  1.00  0.00    -0.356 OA
HETATM   24  C12 UNL     1       0.553   5.961   1.866  1.00  0.00     0.205 C 
HETATM   25  C13 UNL     1       1.000   7.002   0.843  1.00  0.00     0.173 C 
HETATM   26  C14 UNL     1       1.953   6.352  -0.160  1.00  0.00     0.182 C 
HETATM   27  C15 UNL     1       1.340   5.096  -0.789  1.00  0.00     0.204 C 
BRANCH  25  28
HETATM   28  O5  UNL     1      -0.129   7.524   0.119  1.00  0.00    -0.391 OA
HETATM   29  H24 UNL     1      -0.865   6.884   0.228  1.00  0.00     0.210 HD
ENDBRANCH  25  28
BRANCH  26  30
HETATM   30  O6  UNL     1       2.277   7.279  -1.209  1.00  0.00    -0.390 OA
HETATM   31  H26 UNL     1       1.472   7.826  -1.336  1.00  0.00     0.210 HD
ENDBRANCH  26  30
BRANCH  27  32
HETATM   32  O7  UNL     1       2.366   4.439  -1.560  1.00  0.00    -0.388 OA
HETATM   33  H28 UNL     1       2.723   5.136  -2.143  1.00  0.00     0.210 HD
ENDBRANCH  27  32
ENDBRANCH  21  22
ENDBRANCH   2  21
BRANCH   1  34
HETATM   34  C7  UNL     1       1.211   0.116   1.343  1.00  0.00     0.017 C 
HETATM   35  C8  UNL     1       2.086   1.130   2.127  1.00  0.00     0.013 C 
BRANCH  34  36
HETATM   36  C6  UNL     1       2.037  -1.180   1.114  1.00  0.00     0.122 C 
BRANCH  36  37
HETATM   37  C5  UNL     1       3.234  -1.020   0.161  1.00  0.00     0.032 C 
BRANCH  37  38
HETATM   38  C4  UNL     1       3.900  -2.369  -0.154  1.00  0.00     0.009 C 
BRANCH  38  39
HETATM   39  C2  UNL     1       5.117  -2.232  -1.092  1.00  0.00     0.005 C 
HETATM   40  C1  UNL     1       4.699  -1.804  -2.503  1.00  0.00     0.012 C 
BRANCH  39  41
HETATM   41  C3  UNL     1       5.918  -3.541  -1.148  1.00  0.00     0.168 C 
BRANCH  41  42
HETATM   42  O1  UNL     1       5.173  -4.597  -1.735  1.00  0.00    -0.400 OA
HETATM   43  H7  UNL     1       4.452  -4.830  -1.128  1.00  0.00     0.209 HD
ENDBRANCH  41  42
ENDBRANCH  39  41
ENDBRANCH  38  39
ENDBRANCH  37  38
ENDBRANCH  36  37
BRANCH  36  44
HETATM   44  O2  UNL     1       2.485  -1.700   2.372  1.00  0.00    -0.395 OA
HETATM   45  H13 UNL     1       3.319  -1.261   2.611  1.00  0.00     0.210 HD
ENDBRANCH  36  44
ENDBRANCH  34  36
ENDBRANCH   1  34
TORSDOF 13
