REMARK  6 active torsions:
REMARK  status: ('A' for Active; 'I' for Inactive)
REMARK    1  A    between atoms: C2_2  and  C30_31 
REMARK    2  A    between atoms: C3_3  and  C4_4 
REMARK    3  A    between atoms: C4_4  and  C5_5 
REMARK    4  A    between atoms: C5_5  and  C6_6 
REMARK    5  A    between atoms: C6_6  and  C8_8 
REMARK    6  A    between atoms: C30_31  and  O3_33 
ROOT
HETATM    1  C8  UNL     1       1.875  -0.362   0.876  1.00  0.00    -0.002 C 
HETATM    2  C9  UNL     1       1.587  -1.781   1.462  1.00  0.00     0.007 C 
HETATM    3  C10 UNL     1       0.069  -1.892   1.695  1.00  0.00     0.015 C 
HETATM    4  C11 UNL     1      -0.443  -0.443   1.605  1.00  0.00    -0.013 C 
HETATM    5  C12 UNL     1      -0.175   0.200   3.006  1.00  0.00     0.021 C 
HETATM    6  C13 UNL     1      -1.926  -0.197   1.332  1.00  0.00    -0.070 C 
HETATM    7  C14 UNL     1      -2.863  -1.092   1.683  1.00  0.00    -0.022 C 
HETATM    8  C15 UNL     1      -4.308  -0.740   1.711  1.00  0.00     0.034 C 
HETATM    9  C16 UNL     1      -4.738   0.095   0.496  1.00  0.00     0.013 C 
HETATM   10  C17 UNL     1      -4.942  -0.735  -0.835  1.00  0.00     0.018 C 
HETATM   11  C18 UNL     1      -6.291  -0.350  -1.496  1.00  0.00     0.023 C 
HETATM   12  C19 UNL     1      -5.009  -2.268  -0.641  1.00  0.00     0.023 C 
HETATM   13  C20 UNL     1      -3.838  -0.422  -1.841  1.00  0.00     0.135 C 
HETATM   14  O1  UNL     1      -3.210  -1.306  -2.430  1.00  0.00    -0.297 OA
HETATM   15  C21 UNL     1      -3.613   1.023  -2.201  1.00  0.00     0.080 C 
HETATM   16  C22 UNL     1      -3.959   1.979  -1.068  1.00  0.00     0.017 C 
HETATM   17  C23 UNL     1      -3.833   1.401   0.369  1.00  0.00    -0.031 C 
HETATM   18  C24 UNL     1      -4.465   2.488   1.299  1.00  0.00     0.016 C 
HETATM   19  C25 UNL     1      -2.321   1.217   0.899  1.00  0.00     0.024 C 
HETATM   20  C26 UNL     1      -1.247   1.963   0.056  1.00  0.00     0.010 C 
HETATM   21  C27 UNL     1       0.223   1.635   0.369  1.00  0.00     0.011 C 
HETATM   22  C28 UNL     1       0.451   0.113   0.440  1.00  0.00    -0.029 C 
HETATM   23  C29 UNL     1       0.096  -0.526  -0.938  1.00  0.00     0.016 C 
ENDROOT
BRANCH   1  24
HETATM   24  C6  UNL     1       3.044  -0.391  -0.161  1.00  0.00    -0.014 C 
HETATM   25  C7  UNL     1       3.268   0.985  -0.799  1.00  0.00     0.010 C 
BRANCH  24  26
HETATM   26  C5  UNL     1       4.359  -0.877   0.514  1.00  0.00     0.008 C 
BRANCH  26  27
HETATM   27  C4  UNL     1       5.312  -1.658  -0.407  1.00  0.00     0.028 C 
BRANCH  27  28
HETATM   28  C3  UNL     1       5.994  -0.839  -1.468  1.00  0.00    -0.013 C 
HETATM   29  C2  UNL     1       7.182  -0.201  -1.401  1.00  0.00     0.008 C 
HETATM   30  C1  UNL     1       7.716   0.566  -2.579  1.00  0.00     0.055 C 
BRANCH  29  31
HETATM   31  C30 UNL     1       7.996  -0.180  -0.158  1.00  0.00     0.171 C 
HETATM   32  O2  UNL     1       7.647  -0.490   0.967  1.00  0.00    -0.646 OA
BRANCH  31  33
HETATM   33  O3  UNL     1       9.246   0.262  -0.386  1.00  0.00    -0.773 OA
HETATM   34  H46 UNL     1       9.654   0.239   0.505  1.00  0.00     0.167 HD
ENDBRANCH  31  33
ENDBRANCH  29  31
ENDBRANCH  27  28
ENDBRANCH  26  27
ENDBRANCH  24  26
ENDBRANCH   1  24
TORSDOF 6
