REMARK  9 active torsions:
REMARK  status: ('A' for Active; 'I' for Inactive)
REMARK    1  A    between atoms: C2_2  and  C3_3 
REMARK    2  A    between atoms: C3_3  and  C5_5 
REMARK    3  A    between atoms: C3_3  and  C6_7 
REMARK    4  A    between atoms: C5_5  and  O1_6 
REMARK    5  A    between atoms: C7_8  and  O2_9 
REMARK    6  A    between atoms: C18_22  and  O5_23 
REMARK    7  A    between atoms: O5_23  and  C19_24 
REMARK    8  A    between atoms: C19_24  and  C20_26 
REMARK    9  A    between atoms: C29_36  and  O8_37 
ROOT
HETATM    1  C6  UNL     1      -5.356  -0.226  -0.132  1.00  0.00     0.023 A 
HETATM    2  C7  UNL     1      -4.823  -1.244  -0.959  1.00  0.00     0.076 A 
HETATM    3  C8  UNL     1      -3.455  -1.374  -1.204  1.00  0.00     0.053 A 
HETATM    4  C9  UNL     1      -2.558  -0.468  -0.640  1.00  0.00     0.034 A 
HETATM    5  C10 UNL     1      -1.121  -0.615  -0.925  1.00  0.00     0.192 C 
HETATM    6  O3  UNL     1      -0.751  -1.430  -1.762  1.00  0.00    -0.287 OA
HETATM    7  C11 UNL     1      -0.155   0.261  -0.214  1.00  0.00     0.035 C 
HETATM    8  C12 UNL     1      -0.607   1.326   0.467  1.00  0.00     0.131 C 
HETATM    9  O4  UNL     1       0.218   2.302   0.994  1.00  0.00    -0.336 OA
HETATM   10  C13 UNL     1       1.586   2.349   0.538  1.00  0.00     0.065 C 
HETATM   11  C14 UNL     1       1.640   3.064  -0.821  1.00  0.00     0.046 C 
HETATM   12  C15 UNL     1       2.311   3.229   1.571  1.00  0.00     0.046 C 
HETATM   13  C16 UNL     1       2.161   0.917   0.529  1.00  0.00     0.031 C 
HETATM   14  C17 UNL     1       3.645   0.795   0.160  1.00  0.00     0.041 C 
HETATM   15  C18 UNL     1       4.141  -0.645   0.355  1.00  0.00     0.136 C 
HETATM   16  C23 UNL     1       3.262  -1.656  -0.406  1.00  0.00     0.012 C 
HETATM   17  C24 UNL     1       3.687  -3.095  -0.094  1.00  0.00     0.012 C 
HETATM   18  C25 UNL     1       1.767  -1.462  -0.095  1.00  0.00     0.017 C 
HETATM   19  C26 UNL     1       1.325  -0.011  -0.387  1.00  0.00     0.033 C 
HETATM   20  C27 UNL     1      -2.067   1.554   0.677  1.00  0.00     0.219 C 
HETATM   21  O7  UNL     1      -2.486   2.532   1.293  1.00  0.00    -0.284 OA
HETATM   22  C28 UNL     1      -3.030   0.575   0.141  1.00  0.00     0.065 A 
HETATM   23  C29 UNL     1      -4.420   0.702   0.384  1.00  0.00     0.091 A 
ENDROOT
BRANCH   1  24
HETATM   24  C3  UNL     1      -6.899  -0.156   0.117  1.00  0.00     0.027 C 
HETATM   25  C4  UNL     1      -7.360   0.810   1.240  1.00  0.00     0.027 C 
BRANCH  24  26
HETATM   26  C2  UNL     1      -7.402  -1.519   0.637  1.00  0.00    -0.021 C 
HETATM   27  C1  UNL     1      -8.409  -2.262   0.154  1.00  0.00     0.008 C 
ENDBRANCH  24  26
BRANCH  24  28
HETATM   28  C5  UNL     1      -7.550   0.321  -1.228  1.00  0.00     0.182 C 
BRANCH  28  29
HETATM   29  O1  UNL     1      -8.939   0.653  -1.135  1.00  0.00    -0.399 OA
HETATM   30  H9  UNL     1      -9.012   1.453  -0.586  1.00  0.00     0.209 HD
ENDBRANCH  28  29
ENDBRANCH  24  28
ENDBRANCH   1  24
BRANCH   2  31
HETATM   31  O2  UNL     1      -5.664  -2.129  -1.575  1.00  0.00    -0.360 OA
HETATM   32  H10 UNL     1      -5.159  -2.806  -2.056  1.00  0.00     0.217 HD
ENDBRANCH   2  31
BRANCH  23  33
HETATM   33  O8  UNL     1      -4.882   1.768   1.113  1.00  0.00    -0.359 OA
HETATM   34  H36 UNL     1      -4.129   2.341   1.388  1.00  0.00     0.217 HD
ENDBRANCH  23  33
BRANCH  15  35
HETATM   35  O5  UNL     1       5.483  -0.750  -0.159  1.00  0.00    -0.315 OA
BRANCH  35  36
HETATM   36  C19 UNL     1       6.486  -0.391   0.688  1.00  0.00     0.262 C 
HETATM   37  O6  UNL     1       6.326   0.036   1.824  1.00  0.00    -0.265 OA
BRANCH  36  38
HETATM   38  C20 UNL     1       7.844  -0.536   0.029  1.00  0.00     0.077 C 
HETATM   39  C21 UNL     1       8.075   0.619  -0.938  1.00  0.00     0.020 C 
HETATM   40  C22 UNL     1       8.000  -1.889  -0.659  1.00  0.00     0.020 C 
ENDBRANCH  36  38
ENDBRANCH  35  36
ENDBRANCH  15  35
TORSDOF 9
