REMARK  9 active torsions:
REMARK  status: ('A' for Active; 'I' for Inactive)
REMARK    1  A    between atoms: C11_11  and  C12_12 
REMARK    2  A    between atoms: C12_12  and  O1_13 
REMARK    3  A    between atoms: C12_12  and  C13_14 
REMARK    4  A    between atoms: C17_19  and  C18_20 
REMARK    5  A    between atoms: C19_21  and  C20_22 
REMARK    6  A    between atoms: C20_22  and  O4_24 
REMARK    7  A    between atoms: C21_25  and  C22_26 
REMARK    8  A    between atoms: C22_26  and  C23_28 
REMARK    9  A    between atoms: C23_28  and  O6_30 
ROOT
HETATM    1  C1  UNL     1       0.151   0.102   3.941  1.00  0.00     0.048 C 
HETATM    2  C2  UNL     1      -0.484  -0.254   2.630  1.00  0.00    -0.065 C 
HETATM    3  C3  UNL     1      -0.320  -1.458   2.039  1.00  0.00    -0.015 C 
HETATM    4  C4  UNL     1      -1.030  -1.833   0.751  1.00  0.00     0.014 C 
HETATM    5  C5  UNL     1      -1.026  -3.348   0.511  1.00  0.00     0.009 C 
HETATM    6  C6  UNL     1      -1.997  -3.696  -0.610  1.00  0.00     0.001 C 
HETATM    7  C7  UNL     1      -1.736  -2.884  -1.874  1.00  0.00     0.005 C 
HETATM    8  C8  UNL     1      -1.634  -1.354  -1.631  1.00  0.00    -0.013 C 
HETATM    9  C9  UNL     1      -1.452  -0.705  -2.999  1.00  0.00     0.010 C 
HETATM   10  C10 UNL     1      -0.542  -1.070  -0.550  1.00  0.00     0.008 C 
HETATM   11  C11 UNL     1      -0.157   0.410  -0.198  1.00  0.00     0.059 C 
HETATM   12  C21 UNL     1      -1.237   1.066   0.683  1.00  0.00    -0.002 C 
HETATM   13  C25 UNL     1      -1.309   0.781   2.004  1.00  0.00     0.018 C 
ENDROOT
BRANCH  11  14
HETATM   14  C12 UNL     1       0.538   1.375  -1.218  1.00  0.00     0.166 C 
BRANCH  14  15
HETATM   15  O1  UNL     1       0.676   2.657  -0.525  1.00  0.00    -0.391 OA
HETATM   16  H19 UNL     1       1.410   2.568   0.105  1.00  0.00     0.210 HD
ENDBRANCH  14  15
BRANCH  14  17
HETATM   17  C13 UNL     1       1.961   0.978  -1.794  1.00  0.00     0.111 C 
HETATM   18  C14 UNL     1       1.936  -0.132  -2.845  1.00  0.00     0.054 C 
HETATM   19  O2  UNL     1       2.445   2.142  -2.548  1.00  0.00    -0.369 OA
HETATM   20  C15 UNL     1       3.564   2.722  -1.867  1.00  0.00     0.197 C 
HETATM   21  C16 UNL     1       3.943   1.747  -0.821  1.00  0.00     0.009 C 
HETATM   22  C17 UNL     1       3.050   0.756  -0.760  1.00  0.00    -0.023 C 
BRANCH  22  23
HETATM   23  C18 UNL     1       3.143  -0.408   0.086  1.00  0.00     0.017 C 
HETATM   24  C19 UNL     1       3.523  -0.377   1.372  1.00  0.00     0.082 C 
BRANCH  24  25
HETATM   25  C20 UNL     1       3.530  -1.616   2.158  1.00  0.00     0.165 C 
HETATM   26  O3  UNL     1       3.194  -2.726   1.793  1.00  0.00    -0.647 OA
BRANCH  25  27
HETATM   27  O4  UNL     1       3.964  -1.369   3.404  1.00  0.00    -0.773 OA
HETATM   28  H28 UNL     1       3.943  -2.246   3.840  1.00  0.00     0.167 HD
ENDBRANCH  25  27
ENDBRANCH  24  25
ENDBRANCH  22  23
ENDBRANCH  14  17
ENDBRANCH  11  14
BRANCH  12  29
HETATM   29  C22 UNL     1      -2.210   2.003   0.033  1.00  0.00     0.184 C 
HETATM   30  O5  UNL     1      -2.440   1.913  -1.177  1.00  0.00    -0.290 OA
BRANCH  29  31
HETATM   31  C23 UNL     1      -2.942   3.065   0.863  1.00  0.00     0.188 C 
HETATM   32  C24 UNL     1      -4.291   2.541   1.330  1.00  0.00     0.048 C 
BRANCH  31  33
HETATM   33  O6  UNL     1      -3.187   4.221   0.058  1.00  0.00    -0.388 OA
HETATM   34  H33 UNL     1      -3.262   3.893  -0.862  1.00  0.00     0.210 HD
ENDBRANCH  31  33
ENDBRANCH  29  31
ENDBRANCH  12  29
TORSDOF 9
