REMARK  21 active torsions:
REMARK  status: ('A' for Active; 'I' for Inactive)
REMARK    1  A    between atoms: C2_2  and  C14_18 
REMARK    2  A    between atoms: C3_3  and  C4_4 
REMARK    3  A    between atoms: C4_4  and  O2_6 
REMARK    4  A    between atoms: O2_6  and  C5_7 
REMARK    5  A    between atoms: C5_7  and  C6_8 
REMARK    6  A    between atoms: C6_8  and  C7_9 
REMARK    7  A    between atoms: C7_9  and  C8_10 
REMARK    8  A    between atoms: C8_10  and  C9_11 
REMARK    9  A    between atoms: C9_11  and  C10_12 
REMARK   10  A    between atoms: C10_12  and  C11_13 
REMARK   11  A    between atoms: C11_13  and  C12_14 
REMARK   12  A    between atoms: C12_14  and  C13_15 
REMARK   13  A    between atoms: C13_15  and  O4_17 
REMARK   14  A    between atoms: C14_18  and  C15_19 
REMARK   15  A    between atoms: C17_22  and  O6_23 
REMARK   16  A    between atoms: C17_22  and  C18_24 
REMARK   17  A    between atoms: C18_24  and  C19_25 
REMARK   18  A    between atoms: C20_26  and  C21_27 
REMARK   19  A    between atoms: C21_27  and  C23_29 
REMARK   20  A    between atoms: C23_29  and  O7_31 
REMARK   21  A    between atoms: C25_32  and  O8_33 
ROOT
HETATM    1  C15 UNL     1       2.129   0.007   0.226  1.00  0.00     0.197 C 
HETATM    2  O5  UNL     1       3.333  -0.632   0.689  1.00  0.00    -0.375 OA
HETATM    3  C16 UNL     1       4.225  -0.942  -0.382  1.00  0.00     0.210 C 
HETATM    4  C17 UNL     1       4.749   0.340  -1.060  1.00  0.00     0.115 C 
HETATM    5  C25 UNL     1       3.539   1.126  -1.612  1.00  0.00     0.227 C 
HETATM    6  C26 UNL     1       2.506   1.300  -0.507  1.00  0.00     0.187 C 
HETATM    7  O9  UNL     1       2.029   2.405  -0.249  1.00  0.00    -0.292 OA
ENDROOT
BRANCH   1   8
HETATM    8  C14 UNL     1       1.232   0.249   1.453  1.00  0.00     0.073 C 
BRANCH   8   9
HETATM    9  C2  UNL     1      -0.255   0.138   1.150  1.00  0.00    -0.075 C 
HETATM   10  C1  UNL     1      -0.859   1.330   0.453  1.00  0.00     0.043 C 
HETATM   11  C3  UNL     1      -0.938  -0.954   1.552  1.00  0.00     0.084 C 
BRANCH  11  12
HETATM   12  C4  UNL     1      -2.368  -1.278   1.354  1.00  0.00     0.283 C 
HETATM   13  O1  UNL     1      -2.994  -1.954   2.155  1.00  0.00    -0.260 OA
BRANCH  12  14
HETATM   14  O2  UNL     1      -2.826  -0.798   0.175  1.00  0.00    -0.318 OA
BRANCH  14  15
HETATM   15  C5  UNL     1      -4.211  -1.055  -0.109  1.00  0.00     0.179 C 
BRANCH  15  16
HETATM   16  C6  UNL     1      -5.083  -0.012   0.585  1.00  0.00     0.027 C 
BRANCH  16  17
HETATM   17  C7  UNL     1      -6.557  -0.062   0.178  1.00  0.00     0.002 C 
BRANCH  17  18
HETATM   18  C8  UNL     1      -7.253  -1.365   0.569  1.00  0.00     0.000 C 
BRANCH  18  19
HETATM   19  C9  UNL     1      -8.731  -1.435   0.163  1.00  0.00     0.000 C 
BRANCH  19  20
HETATM   20  C10 UNL     1      -9.654  -0.488   0.939  1.00  0.00     0.001 C 
BRANCH  20  21
HETATM   21  C11 UNL     1      -9.964   0.862   0.273  1.00  0.00     0.010 C 
BRANCH  21  22
HETATM   22  C12 UNL     1     -10.818   0.760  -0.994  1.00  0.00     0.110 C 
BRANCH  22  23
HETATM   23  C13 UNL     1     -10.015   0.711  -2.268  1.00  0.00     0.139 C 
HETATM   24  O3  UNL     1      -8.820   0.897  -2.407  1.00  0.00    -0.650 OA
BRANCH  23  25
HETATM   25  O4  UNL     1     -10.791   0.440  -3.337  1.00  0.00    -0.776 OA
HETATM   26  H21 UNL     1     -10.166   0.449  -4.091  1.00  0.00     0.167 HD
ENDBRANCH  23  25
ENDBRANCH  22  23
ENDBRANCH  21  22
ENDBRANCH  20  21
ENDBRANCH  19  20
ENDBRANCH  18  19
ENDBRANCH  17  18
ENDBRANCH  16  17
ENDBRANCH  15  16
ENDBRANCH  14  15
ENDBRANCH  12  14
ENDBRANCH  11  12
ENDBRANCH   8   9
ENDBRANCH   1   8
BRANCH   5  27
HETATM   27  O8  UNL     1       2.960   0.411  -2.709  1.00  0.00    -0.385 OA
HETATM   28  H42 UNL     1       3.723   0.143  -3.262  1.00  0.00     0.210 HD
ENDBRANCH   5  27
BRANCH   4  29
HETATM   29  O6  UNL     1       5.560  -0.028  -2.198  1.00  0.00    -0.384 OA
HETATM   30  H27 UNL     1       6.405  -0.373  -1.855  1.00  0.00     0.210 HD
ENDBRANCH   4  29
BRANCH   4  31
HETATM   31  C18 UNL     1       5.569   1.250  -0.108  1.00  0.00     0.070 C 
BRANCH  31  32
HETATM   32  C19 UNL     1       6.746   0.577   0.560  1.00  0.00    -0.027 C 
HETATM   33  C20 UNL     1       8.029   0.872   0.291  1.00  0.00    -0.024 C 
BRANCH  33  34
HETATM   34  C21 UNL     1       9.273   0.317   0.975  1.00  0.00     0.032 C 
HETATM   35  C22 UNL     1       8.986  -0.414   2.295  1.00  0.00     0.017 C 
BRANCH  34  36
HETATM   36  C23 UNL     1      10.131  -0.581   0.044  1.00  0.00     0.121 C 
HETATM   37  C24 UNL     1      10.538   0.087  -1.265  1.00  0.00     0.040 C 
BRANCH  36  38
HETATM   38  O7  UNL     1       9.459  -1.804  -0.262  1.00  0.00    -0.395 OA
HETATM   39  H40 UNL     1       8.565  -1.578  -0.564  1.00  0.00     0.210 HD
ENDBRANCH  36  38
ENDBRANCH  34  36
ENDBRANCH  33  34
ENDBRANCH  31  32
ENDBRANCH   4  31
TORSDOF 21
