REMARK  13 active torsions:
REMARK  status: ('A' for Active; 'I' for Inactive)
REMARK    1  A    between atoms: C3_3  and  O1_4 
REMARK    2  A    between atoms: N1_14  and  O2_16 
REMARK    3  A    between atoms: O2_16  and  C13_17 
REMARK    4  A    between atoms: C13_17  and  C14_18 
REMARK       I    between atoms: C14_18  and  N2_20 
REMARK    5  A    between atoms: N2_20  and  C15_21 
REMARK    6  A    between atoms: C15_21  and  C16_22 
REMARK    7  A    between atoms: C15_21  and  C21_33 
REMARK       I    between atoms: C16_22  and  N3_24 
REMARK    8  A    between atoms: N3_24  and  C17_25 
REMARK    9  A    between atoms: C17_25  and  C18_26 
REMARK   10  A    between atoms: C17_25  and  C20_30 
REMARK   11  A    between atoms: C18_26  and  C19_27 
REMARK   12  A    between atoms: C19_27  and  O6_29 
REMARK   13  A    between atoms: C20_30  and  O8_32 
ROOT
HETATM    1  C1  UNL     1      -9.600   0.850   2.196  1.00  0.00     0.015 C 
HETATM    2  C2  UNL     1      -8.858   0.202   1.511  1.00  0.00    -0.078 C 
HETATM    3  C3  UNL     1      -7.959  -0.609   0.671  1.00  0.00     0.128 C 
HETATM    4  C4  UNL     1      -8.622  -0.996  -0.655  1.00  0.00     0.052 C 
HETATM    5  C5  UNL     1      -7.441  -1.473  -1.491  1.00  0.00     0.010 C 
HETATM    6  C6  UNL     1      -6.371  -0.406  -1.227  1.00  0.00     0.002 C 
HETATM    7  C7  UNL     1      -4.917  -0.792  -1.602  1.00  0.00    -0.004 C 
HETATM    8  C8  UNL     1      -4.508  -2.256  -1.361  1.00  0.00     0.010 C 
HETATM    9  C9  UNL     1      -3.083  -2.534  -1.839  1.00  0.00     0.035 C 
HETATM   10  C10 UNL     1      -2.060  -1.540  -1.333  1.00  0.00    -0.069 C 
HETATM   11  C11 UNL     1      -0.880  -1.980  -0.866  1.00  0.00     0.030 C 
HETATM   12  C12 UNL     1       0.219  -1.051  -0.492  1.00  0.00     0.032 C 
HETATM   13  N1  UNL     1       1.288  -1.581   0.028  1.00  0.00    -0.271 N 
ATOM     14  H1  UNL     1       1.394  -2.581   0.201  1.00  0.00     0.194 HD
HETATM   15  C24 UNL     1       0.035   0.424  -0.790  1.00  0.00     0.060 C 
HETATM   16  C25 UNL     1      -1.431   0.817  -0.613  1.00  0.00     0.020 C 
HETATM   17  C26 UNL     1      -2.424  -0.060  -1.433  1.00  0.00    -0.016 C 
HETATM   18  C27 UNL     1      -2.307   0.368  -2.917  1.00  0.00     0.020 C 
HETATM   19  C28 UNL     1      -3.906   0.174  -0.935  1.00  0.00     0.002 C 
HETATM   20  C29 UNL     1      -4.058   0.154   0.610  1.00  0.00     0.007 C 
HETATM   21  C30 UNL     1      -5.431  -0.266   1.147  1.00  0.00     0.014 C 
HETATM   22  C31 UNL     1      -6.617   0.098   0.237  1.00  0.00     0.003 C 
HETATM   23  C32 UNL     1      -6.774   1.643   0.202  1.00  0.00     0.020 C 
ENDROOT
BRANCH   3  24
HETATM   24  O1  UNL     1      -7.688  -1.826   1.371  1.00  0.00    -0.377 OA
HETATM   25  H2  UNL     1      -8.524  -2.125   1.764  1.00  0.00     0.211 HD
ENDBRANCH   3  24
BRANCH  13  26
HETATM   26  O2  UNL     1       2.278  -0.634   0.325  1.00  0.00    -0.271 OA
BRANCH  26  27
HETATM   27  C13 UNL     1       3.220  -1.260   1.189  1.00  0.00     0.303 C 
BRANCH  27  28
HETATM   28  C14 UNL     1       4.341  -0.335   1.642  1.00  0.00     0.244 C 
HETATM   29  O3  UNL     1       5.143  -0.668   2.518  1.00  0.00    -0.271 OA
HETATM   30  N2  UNL     1       4.446   0.868   0.980  1.00  0.00    -0.346 N 
HETATM   31  H16 UNL     1       3.948   0.957   0.099  1.00  0.00     0.163 HD
BRANCH  30  32
HETATM   32  C15 UNL     1       5.531   1.811   1.273  1.00  0.00     0.180 C 
BRANCH  32  33
HETATM   33  C16 UNL     1       6.747   1.377   0.413  1.00  0.00     0.241 C 
HETATM   34  O4  UNL     1       7.136   1.990  -0.580  1.00  0.00    -0.271 OA
HETATM   35  N3  UNL     1       7.351   0.209   0.848  1.00  0.00    -0.344 N 
HETATM   36  H18 UNL     1       6.805  -0.350   1.506  1.00  0.00     0.163 HD
BRANCH  35  37
HETATM   37  C17 UNL     1       8.283  -0.510  -0.029  1.00  0.00     0.192 C 
BRANCH  37  38
HETATM   38  C18 UNL     1       9.226  -1.367   0.808  1.00  0.00     0.146 C 
BRANCH  38  39
HETATM   39  C19 UNL     1      10.317  -1.966  -0.033  1.00  0.00     0.141 C 
HETATM   40  O5  UNL     1      10.562  -3.156  -0.154  1.00  0.00    -0.650 OA
BRANCH  39  41
HETATM   41  O6  UNL     1      11.067  -1.044  -0.654  1.00  0.00    -0.776 OA
HETATM   42  H22 UNL     1      11.710  -1.575  -1.175  1.00  0.00     0.167 HD
ENDBRANCH  39  41
ENDBRANCH  38  39
ENDBRANCH  37  38
BRANCH  37  43
HETATM   43  C20 UNL     1       7.523  -1.413  -1.016  1.00  0.00     0.164 C 
HETATM   44  O7  UNL     1       8.016  -2.029  -1.948  1.00  0.00    -0.648 OA
BRANCH  43  45
HETATM   45  O8  UNL     1       6.212  -1.569  -0.738  1.00  0.00    -0.775 OA
HETATM   46  H23 UNL     1       5.904  -2.202  -1.421  1.00  0.00     0.167 HD
ENDBRANCH  43  45
ENDBRANCH  37  43
ENDBRANCH  35  37
ENDBRANCH  32  33
BRANCH  32  47
HETATM   47  C21 UNL     1       5.102   3.272   1.001  1.00  0.00     0.009 C 
HETATM   48  C22 UNL     1       6.191   4.259   1.445  1.00  0.00     0.012 C 
HETATM   49  C23 UNL     1       3.797   3.610   1.736  1.00  0.00     0.012 C 
ENDBRANCH  32  47
ENDBRANCH  30  32
ENDBRANCH  27  28
ENDBRANCH  26  27
ENDBRANCH  13  26
TORSDOF 13
