REMARK  1 active torsions:
REMARK  status: ('A' for Active; 'I' for Inactive)
REMARK    1  A    between atoms: C22_26  and  O5_27 
ROOT
HETATM    1  C1  UNL     1      -5.955  -1.846  -1.604  1.00  0.00     0.014 C 
HETATM    2  C2  UNL     1      -5.185  -0.900  -1.039  1.00  0.00    -0.085 C 
HETATM    3  C3  UNL     1      -5.805   0.120  -0.105  1.00  0.00     0.035 C 
HETATM    4  C4  UNL     1      -5.134   0.075   1.268  1.00  0.00     0.025 C 
HETATM    5  C5  UNL     1      -3.613   0.203   1.158  1.00  0.00     0.055 C 
HETATM    6  C6  UNL     1      -3.156   1.647   0.847  1.00  0.00     0.021 C 
HETATM    7  C7  UNL     1      -1.625   1.834   0.908  1.00  0.00     0.014 C 
HETATM    8  C8  UNL     1      -0.829   0.675   0.223  1.00  0.00    -0.001 C 
HETATM    9  C9  UNL     1      -0.889   0.998  -1.303  1.00  0.00     0.019 C 
HETATM   10  C10 UNL     1      -1.543  -0.711   0.547  1.00  0.00     0.112 C 
HETATM   11  O1  UNL     1      -1.691  -0.778   2.013  1.00  0.00    -0.305 OA
HETATM   12  C11 UNL     1      -2.891  -0.240   2.402  1.00  0.00     0.269 C 
HETATM   13  O2  UNL     1      -3.255  -0.114   3.556  1.00  0.00    -0.264 OA
HETATM   14  C12 UNL     1      -3.034  -0.842   0.184  1.00  0.00     0.050 C 
HETATM   15  C13 UNL     1      -3.664  -0.753  -1.222  1.00  0.00     0.018 C 
HETATM   16  C14 UNL     1      -3.064  -1.753  -2.212  1.00  0.00     0.015 C 
HETATM   17  C15 UNL     1      -0.717  -1.923   0.208  1.00  0.00     0.187 A 
HETATM   18  O3  UNL     1      -0.132  -2.034  -1.085  1.00  0.00    -0.372 OA
HETATM   19  C16 UNL     1       0.783  -1.802  -0.001  1.00  0.00     0.160 A 
HETATM   20  C17 UNL     1       1.482  -0.459  -0.114  1.00  0.00     0.035 C 
HETATM   21  C18 UNL     1       3.049  -0.525   0.025  1.00  0.00    -0.023 C 
HETATM   22  C19 UNL     1       3.521  -1.086   1.394  1.00  0.00     0.016 C 
HETATM   23  C20 UNL     1       3.613  -1.456  -1.087  1.00  0.00     0.096 C 
HETATM   24  C21 UNL     1       5.117  -1.371  -1.219  1.00  0.00     0.183 C 
HETATM   25  O4  UNL     1       5.792  -2.278  -1.711  1.00  0.00    -0.290 OA
HETATM   26  C22 UNL     1       5.824  -0.132  -0.775  1.00  0.00     0.114 C 
HETATM   27  C23 UNL     1       5.140   0.933  -0.317  1.00  0.00    -0.042 C 
HETATM   28  C24 UNL     1       5.851   2.204   0.068  1.00  0.00     0.047 C 
HETATM   29  C25 UNL     1       3.614   0.912  -0.251  1.00  0.00     0.026 C 
HETATM   30  C26 UNL     1       2.976   1.960   0.685  1.00  0.00     0.011 C 
HETATM   31  C27 UNL     1       1.446   2.001   0.551  1.00  0.00     0.011 C 
HETATM   32  C28 UNL     1       0.733   0.629   0.740  1.00  0.00    -0.027 C 
HETATM   33  C29 UNL     1       0.825   0.298   2.260  1.00  0.00     0.016 C 
ENDROOT
BRANCH  26  34
HETATM   34  O5  UNL     1       7.201  -0.135  -0.888  1.00  0.00    -0.357 OA
HETATM   35  H27 UNL     1       7.420  -1.008  -1.280  1.00  0.00     0.218 HD
ENDBRANCH  26  34
TORSDOF 1
