REMARK  11 active torsions:
REMARK  status: ('A' for Active; 'I' for Inactive)
REMARK    1  A    between atoms: C2_2  and  C4_4 
REMARK    2  A    between atoms: C4_4  and  C6_6 
REMARK    3  A    between atoms: C7_7  and  C8_8 
REMARK    4  A    between atoms: C8_8  and  C10_10 
REMARK    5  A    between atoms: C24_24  and  O1_25 
REMARK    6  A    between atoms: O1_25  and  C25_26 
REMARK    7  A    between atoms: C26_28  and  C27_29 
REMARK    8  A    between atoms: C27_29  and  O3_30 
REMARK    9  A    between atoms: C28_31  and  O4_32 
REMARK   10  A    between atoms: C29_33  and  O5_34 
REMARK   11  A    between atoms: C30_35  and  O6_36 
ROOT
HETATM    1  C10 UNL     1       3.892  -0.056  -0.087  1.00  0.00     0.001 C 
HETATM    2  C11 UNL     1       3.994   1.038  -1.196  1.00  0.00     0.006 C 
HETATM    3  C12 UNL     1       2.565   1.375  -1.635  1.00  0.00     0.009 C 
HETATM    4  C13 UNL     1       1.690   0.641  -0.628  1.00  0.00     0.036 C 
HETATM    5  C14 UNL     1       2.472  -0.666  -0.340  1.00  0.00    -0.033 C 
HETATM    6  C15 UNL     1       2.522  -1.665  -1.519  1.00  0.00     0.016 C 
HETATM    7  C16 UNL     1       1.785  -1.312   0.878  1.00  0.00     0.010 C 
HETATM    8  C17 UNL     1       0.302  -1.620   0.599  1.00  0.00     0.010 C 
HETATM    9  C18 UNL     1      -0.518  -0.394   0.129  1.00  0.00     0.039 C 
HETATM   10  C19 UNL     1       0.202   0.474  -0.957  1.00  0.00     0.123 C 
HETATM   11  C20 UNL     1      -0.498   1.819  -0.985  1.00  0.00     0.014 C 
HETATM   12  C21 UNL     1      -1.806   1.737  -1.250  1.00  0.00     0.014 C 
HETATM   13  C22 UNL     1      -2.270   0.323  -1.548  1.00  0.00     0.124 C 
HETATM   14  C23 UNL     1      -3.744   0.315  -1.946  1.00  0.00     0.078 C 
HETATM   15  C24 UNL     1      -4.678   0.672  -0.776  1.00  0.00     0.128 C 
HETATM   16  C31 UNL     1      -4.015   0.579   0.608  1.00  0.00     0.033 C 
HETATM   17  C32 UNL     1      -3.043  -0.593   0.751  1.00  0.00     0.015 C 
HETATM   18  C33 UNL     1      -1.989  -0.706  -0.390  1.00  0.00     0.001 C 
HETATM   19  C34 UNL     1      -2.102  -2.160  -0.939  1.00  0.00     0.019 C 
HETATM   20  O7  UNL     1      -1.444  -0.063  -2.674  1.00  0.00    -0.223 OA
HETATM   21  O8  UNL     1      -0.001  -0.156  -2.242  1.00  0.00    -0.224 OA
ENDROOT
BRANCH  15  22
HETATM   22  O1  UNL     1      -5.804  -0.211  -0.874  1.00  0.00    -0.353 OA
BRANCH  22  23
HETATM   23  C25 UNL     1      -7.052   0.398  -0.520  1.00  0.00     0.292 C 
HETATM   24  O2  UNL     1      -7.186   0.505   0.893  1.00  0.00    -0.348 OA
HETATM   25  C26 UNL     1      -8.424   1.108   1.288  1.00  0.00     0.179 C 
HETATM   26  C28 UNL     1      -9.620   0.276   0.790  1.00  0.00     0.180 C 
HETATM   27  C29 UNL     1      -9.522   0.092  -0.726  1.00  0.00     0.183 C 
HETATM   28  C30 UNL     1      -8.163  -0.497  -1.096  1.00  0.00     0.204 C 
BRANCH  25  29
HETATM   29  C27 UNL     1      -8.452   1.234   2.820  1.00  0.00     0.198 C 
BRANCH  29  30
HETATM   30  O3  UNL     1      -9.565   1.995   3.283  1.00  0.00    -0.398 OA
HETATM   31  H41 UNL     1     -10.334   1.757   2.719  1.00  0.00     0.209 HD
ENDBRANCH  29  30
ENDBRANCH  25  29
BRANCH  26  32
HETATM   32  O4  UNL     1     -10.862   0.910   1.117  1.00  0.00    -0.390 OA
HETATM   33  H43 UNL     1     -11.528   0.468   0.542  1.00  0.00     0.210 HD
ENDBRANCH  26  32
BRANCH  27  34
HETATM   34  O5  UNL     1     -10.587  -0.768  -1.162  1.00  0.00    -0.390 OA
HETATM   35  H45 UNL     1     -10.333  -1.048  -2.067  1.00  0.00     0.210 HD
ENDBRANCH  27  34
BRANCH  28  36
HETATM   36  O6  UNL     1      -8.079  -0.589  -2.527  1.00  0.00    -0.388 OA
HETATM   37  H47 UNL     1      -7.168  -0.903  -2.711  1.00  0.00     0.210 HD
ENDBRANCH  28  36
ENDBRANCH  22  23
ENDBRANCH  15  22
BRANCH   1  38
HETATM   38  C8  UNL     1       5.140  -0.986  -0.061  1.00  0.00     0.008 C 
HETATM   39  C9  UNL     1       5.056  -2.066   1.022  1.00  0.00     0.014 C 
BRANCH  38  40
HETATM   40  C7  UNL     1       6.415  -0.154   0.036  1.00  0.00    -0.026 C 
HETATM   41  C6  UNL     1       7.227   0.004   1.097  1.00  0.00    -0.026 C 
BRANCH  41  42
HETATM   42  C4  UNL     1       8.495   0.845   1.154  1.00  0.00     0.007 C 
HETATM   43  C5  UNL     1       8.633   1.858   0.008  1.00  0.00     0.014 C 
BRANCH  42  44
HETATM   44  C2  UNL     1       9.749  -0.059   1.341  1.00  0.00    -0.015 C 
HETATM   45  C1  UNL     1       9.998  -1.014   0.166  1.00  0.00     0.010 C 
HETATM   46  C3  UNL     1      11.016   0.759   1.612  1.00  0.00     0.010 C 
ENDBRANCH  42  44
ENDBRANCH  41  42
ENDBRANCH  38  40
ENDBRANCH   1  38
TORSDOF 11
