REMARK  9 active torsions:
REMARK  status: ('A' for Active; 'I' for Inactive)
REMARK    1  A    between atoms: O1_2  and  C2_3 
REMARK    2  A    between atoms: C2_3  and  C3_4 
REMARK    3  A    between atoms: C3_4  and  N1_5 
REMARK       I    between atoms: N1_5  and  C4_6 
REMARK    4  A    between atoms: C4_6  and  C5_8 
REMARK    5  A    between atoms: C5_8  and  C7_10 
REMARK    6  A    between atoms: C15_20  and  C16_21 
REMARK    7  A    between atoms: C16_21  and  O3_22 
REMARK    8  A    between atoms: O3_22  and  C17_23 
REMARK    9  A    between atoms: C26_34  and  O4_35 
ROOT
HETATM    1  C7  UNL     1      -2.313  -1.040   0.327  1.00  0.00     0.027 C 
HETATM    2  C8  UNL     1      -1.913  -2.232   1.206  1.00  0.00     0.009 C 
HETATM    3  C9  UNL     1      -0.411  -2.216   1.472  1.00  0.00     0.010 C 
HETATM    4  C10 UNL     1       0.471  -2.259   0.197  1.00  0.00    -0.033 C 
HETATM    5  C11 UNL     1       0.383  -3.693  -0.399  1.00  0.00     0.016 C 
HETATM    6  C12 UNL     1       1.970  -2.062   0.650  1.00  0.00     0.058 C 
HETATM    7  C13 UNL     1       2.720  -1.125  -0.228  1.00  0.00     0.008 A 
HETATM    8  C14 UNL     1       2.159  -0.086  -0.928  1.00  0.00     0.027 A 
HETATM    9  N2  UNL     1       3.033   0.674  -1.670  1.00  0.00    -0.354 N 
ATOM     10  H2  UNL     1       2.771   1.461  -2.264  1.00  0.00     0.166 HD
HETATM   11  C15 UNL     1       4.264   0.227  -1.494  1.00  0.00     0.076 A 
HETATM   12  S1  UNL     1       4.400  -1.159  -0.470  1.00  0.00    -0.077 SA
HETATM   13  C23 UNL     1       0.685   0.167  -0.914  1.00  0.00     0.040 C 
HETATM   14  C24 UNL     1       0.318   1.127   0.214  1.00  0.00     0.017 C 
HETATM   15  C25 UNL     1      -0.032  -1.225  -0.908  1.00  0.00     0.033 C 
HETATM   16  C26 UNL     1      -1.575  -1.102  -1.028  1.00  0.00     0.128 C 
ENDROOT
BRANCH   1  17
HETATM   17  C5  UNL     1      -3.864  -0.893   0.246  1.00  0.00     0.080 C 
HETATM   18  C6  UNL     1      -4.595  -1.978  -0.546  1.00  0.00     0.020 C 
BRANCH  17  19
HETATM   19  C4  UNL     1      -4.260   0.501  -0.257  1.00  0.00     0.222 C 
HETATM   20  N1  UNL     1      -5.615   0.755  -0.205  1.00  0.00    -0.359 N 
HETATM   21  H8  UNL     1      -6.176   0.169   0.401  1.00  0.00     0.162 HD
HETATM   22  O2  UNL     1      -3.449   1.338  -0.645  1.00  0.00    -0.273 OA
BRANCH  20  23
HETATM   23  C3  UNL     1      -6.136   2.086  -0.466  1.00  0.00     0.148 C 
BRANCH  23  24
HETATM   24  C2  UNL     1      -6.061   2.973   0.781  1.00  0.00     0.186 C 
BRANCH  24  25
HETATM   25  O1  UNL     1      -6.864   2.437   1.843  1.00  0.00    -0.394 OA
HETATM   26  C1  UNL     1      -8.223   2.845   1.769  1.00  0.00     0.201 C 
ENDBRANCH  24  25
ENDBRANCH  23  24
ENDBRANCH  20  23
ENDBRANCH  17  19
ENDBRANCH   1  17
BRANCH  16  27
HETATM   27  O4  UNL     1      -2.045  -2.237  -1.763  1.00  0.00    -0.395 OA
HETATM   28  H35 UNL     1      -1.725  -2.140  -2.677  1.00  0.00     0.210 HD
ENDBRANCH  16  27
BRANCH  11  29
HETATM   29  C16 UNL     1       5.480   0.814  -2.146  1.00  0.00     0.240 C 
BRANCH  29  30
HETATM   30  O3  UNL     1       5.997   1.851  -1.309  1.00  0.00    -0.345 OA
BRANCH  30  31
HETATM   31  C17 UNL     1       7.085   1.622  -0.518  1.00  0.00     0.070 A 
HETATM   32  C18 UNL     1       7.774   0.418  -0.367  1.00  0.00     0.037 A 
HETATM   33  C19 UNL     1       8.876   0.339   0.492  1.00  0.00     0.004 A 
HETATM   34  C20 UNL     1       9.295   1.462   1.204  1.00  0.00     0.024 A 
HETATM   35  C21 UNL     1       8.607   2.663   1.055  1.00  0.00     0.036 A 
HETATM   36 CL1  UNL     1       9.117   4.053   1.932  1.00  0.00    -0.084 Cl
HETATM   37  C22 UNL     1       7.509   2.744   0.202  1.00  0.00     0.060 A 
ENDBRANCH  30  31
ENDBRANCH  29  30
ENDBRANCH  11  29
TORSDOF 9
