REMARK  7 active torsions:
REMARK  status: ('A' for Active; 'I' for Inactive)
REMARK    1  A    between atoms: C3_3  and  C5_5 
REMARK    2  A    between atoms: C24_26  and  O3_27 
REMARK    3  A    between atoms: C30_35  and  O6_36 
REMARK    4  A    between atoms: C31_38  and  O8_39 
REMARK    5  A    between atoms: C32_40  and  O9_41 
REMARK    6  A    between atoms: O9_41  and  C33_42 
REMARK    7  A    between atoms: C33_42  and  C34_44 
ROOT
HETATM    1  C5  UNL     1       3.625  -1.588  -0.688  1.00  0.00     0.160 C 
HETATM    2  O1  UNL     1       2.285  -1.128  -0.483  1.00  0.00    -0.342 OA
HETATM    3  C6  UNL     1       1.964   0.048  -1.234  1.00  0.00     0.196 C 
HETATM    4  C7  UNL     1       0.757   0.702  -0.521  1.00  0.00     0.104 C 
HETATM    5  C8  UNL     1      -0.139   1.451  -1.503  1.00  0.00     0.139 C 
HETATM    6  C9  UNL     1      -0.578   0.534  -2.652  1.00  0.00     0.065 C 
HETATM    7  C10 UNL     1       0.263  -0.742  -2.705  1.00  0.00     0.131 C 
HETATM    8  C11 UNL     1       0.029  -1.554  -3.990  1.00  0.00     0.059 C 
HETATM    9  C12 UNL     1      -1.387  -2.073  -4.008  1.00  0.00    -0.022 C 
HETATM   10  C13 UNL     1      -1.832  -3.231  -3.475  1.00  0.00    -0.087 C 
HETATM   11  C14 UNL     1      -0.931  -4.308  -2.936  1.00  0.00     0.043 C 
HETATM   12  C15 UNL     1      -3.330  -3.471  -3.347  1.00  0.00     0.041 C 
HETATM   13  C16 UNL     1      -3.933  -3.419  -1.912  1.00  0.00     0.008 C 
HETATM   14  C17 UNL     1      -3.834  -4.769  -1.197  1.00  0.00     0.014 C 
HETATM   15  C18 UNL     1      -3.336  -2.333  -1.041  1.00  0.00    -0.022 C 
HETATM   16  C19 UNL     1      -3.986  -1.236  -0.621  1.00  0.00    -0.003 C 
HETATM   17  C20 UNL     1      -3.335  -0.229   0.190  1.00  0.00     0.008 C 
HETATM   18  C21 UNL     1      -3.887   0.925   0.606  1.00  0.00    -0.019 C 
HETATM   19  C22 UNL     1      -5.316   1.356   0.427  1.00  0.00     0.206 C 
HETATM   20  O2  UNL     1      -5.512   2.472   1.324  1.00  0.00    -0.375 OA
HETATM   21  C23 UNL     1      -4.433   2.375   2.287  1.00  0.00     0.194 C 
HETATM   22  C24 UNL     1      -4.272   3.675   3.092  1.00  0.00     0.179 C 
HETATM   23  C25 UNL     1      -3.414   4.731   2.445  1.00  0.00    -0.056 C 
HETATM   24  C26 UNL     1      -3.358   6.066   3.138  1.00  0.00     0.046 C 
HETATM   25  C27 UNL     1      -2.711   4.498   1.323  1.00  0.00    -0.004 C 
HETATM   26  C28 UNL     1      -2.700   3.176   0.585  1.00  0.00     0.150 C 
HETATM   27  C29 UNL     1      -1.299   2.897   0.034  1.00  0.00     0.270 C 
HETATM   28  O4  UNL     1      -0.278   3.505   0.327  1.00  0.00    -0.264 OA
HETATM   29  O5  UNL     1      -1.359   1.888  -0.872  1.00  0.00    -0.315 OA
HETATM   30  C30 UNL     1      -3.210   1.987   1.451  1.00  0.00     0.128 C 
HETATM   31  O7  UNL     1       1.630  -0.338  -2.593  1.00  0.00    -0.347 OA
HETATM   32  C31 UNL     1       3.175   1.030  -1.330  1.00  0.00     0.210 C 
HETATM   33  C32 UNL     1       4.132   0.857  -0.142  1.00  0.00     0.172 C 
HETATM   34  C37 UNL     1       4.601  -0.615   0.016  1.00  0.00     0.047 C 
HETATM   35  C38 UNL     1       6.032  -0.790  -0.501  1.00  0.00     0.015 C 
ENDROOT
BRANCH  32  36
HETATM   36  O8  UNL     1       3.919   0.798  -2.544  1.00  0.00    -0.387 OA
HETATM   37  H42 UNL     1       3.269   0.424  -3.174  1.00  0.00     0.210 HD
ENDBRANCH  32  36
BRANCH   1  38
HETATM   38  C3  UNL     1       3.713  -3.024  -0.167  1.00  0.00    -0.059 C 
HETATM   39  C2  UNL     1       3.068  -3.406   0.956  1.00  0.00    -0.026 C 
HETATM   40  C1  UNL     1       3.036  -4.755   1.599  1.00  0.00     0.036 C 
HETATM   41  C4  UNL     1       4.512  -3.966  -1.031  1.00  0.00     0.046 C 
ENDBRANCH   1  38
BRANCH  33  42
HETATM   42  O9  UNL     1       3.445   1.270   1.062  1.00  0.00    -0.312 OA
BRANCH  42  43
HETATM   43  C33 UNL     1       4.229   1.714   2.086  1.00  0.00     0.262 C 
HETATM   44  O10 UNL     1       5.448   1.823   2.035  1.00  0.00    -0.265 OA
BRANCH  43  45
HETATM   45  C34 UNL     1       3.380   2.008   3.313  1.00  0.00     0.077 C 
HETATM   46  C35 UNL     1       4.263   2.444   4.483  1.00  0.00     0.020 C 
HETATM   47  C36 UNL     1       2.330   3.073   3.015  1.00  0.00     0.020 C 
ENDBRANCH  43  45
ENDBRANCH  42  43
ENDBRANCH  33  42
BRANCH  30  48
HETATM   48  O6  UNL     1      -2.189   1.435   2.277  1.00  0.00    -0.381 OA
HETATM   49  H40 UNL     1      -1.787   2.162   2.789  1.00  0.00     0.211 HD
ENDBRANCH  30  48
BRANCH  22  50
HETATM   50  O3  UNL     1      -5.559   4.224   3.362  1.00  0.00    -0.389 OA
HETATM   51  H34 UNL     1      -6.098   4.023   2.571  1.00  0.00     0.210 HD
ENDBRANCH  22  50
TORSDOF 7
