REMARK  9 active torsions:
REMARK  status: ('A' for Active; 'I' for Inactive)
REMARK    1  A    between atoms: O1_2  and  C2_3 
REMARK    2  A    between atoms: C2_3  and  C3_4 
REMARK    3  A    between atoms: C3_4  and  C4_5 
REMARK    4  A    between atoms: C4_5  and  O2_6 
REMARK    5  A    between atoms: O2_6  and  C5_7 
REMARK    6  A    between atoms: C23_29  and  O5_30 
REMARK    7  A    between atoms: C34_42  and  O7_43 
REMARK    8  A    between atoms: C35_44  and  O8_46 
REMARK    9  A    between atoms: C42_52  and  O9_53 
ROOT
HETATM    1  C5  UNL     1       4.956   1.839  -1.074  1.00  0.00     0.122 C 
HETATM    2  C6  UNL     1       3.968   2.416  -2.117  1.00  0.00     0.033 C 
HETATM    3  C7  UNL     1       2.526   1.933  -1.919  1.00  0.00     0.014 C 
HETATM    4  C8  UNL     1       2.383   0.368  -1.985  1.00  0.00    -0.010 C 
HETATM    5  C9  UNL     1       2.066   0.017  -3.478  1.00  0.00     0.018 C 
HETATM    6  C10 UNL     1       3.772  -0.278  -1.719  1.00  0.00     0.073 C 
HETATM    7  C11 UNL     1       4.548   0.427  -0.613  1.00  0.00     0.045 C 
HETATM    8  C12 UNL     1       3.743  -1.779  -1.532  1.00  0.00     0.161 C 
HETATM    9  O3  UNL     1       4.745  -2.457  -1.772  1.00  0.00    -0.292 OA
HETATM   10  C13 UNL     1       2.510  -2.441  -1.025  1.00  0.00    -0.005 C 
HETATM   11  C14 UNL     1       1.440  -1.712  -0.657  1.00  0.00    -0.014 C 
HETATM   12  C15 UNL     1       1.251  -0.204  -0.968  1.00  0.00     0.058 C 
HETATM   13  C16 UNL     1       1.309   0.558   0.328  1.00  0.00    -0.091 C 
HETATM   14  C17 UNL     1       1.337   1.195   1.352  1.00  0.00    -0.104 C 
HETATM   15  C18 UNL     1       1.462   1.917   2.624  1.00  0.00     0.115 C 
HETATM   16  C19 UNL     1       0.305   2.855   2.820  1.00  0.00     0.090 A 
HETATM   17  C20 UNL     1       0.009   3.990   1.881  1.00  0.00     0.120 A 
HETATM   18  N1  UNL     1      -0.852   2.857   1.986  1.00  0.00    -0.243 NA
HETATM   19  C21 UNL     1      -2.135   2.911   2.552  1.00  0.00     0.234 C 
HETATM   20  O4  UNL     1      -2.590   3.855   3.185  1.00  0.00    -0.277 OA
HETATM   21  C22 UNL     1      -2.842   1.559   2.326  1.00  0.00     0.318 C 
HETATM   22  N2  UNL     1      -3.032   0.857   3.621  1.00  0.00     0.128 N 
HETATM   23  C23 UNL     1      -3.650  -0.451   3.466  1.00  0.00     0.384 C 
HETATM   24  C24 UNL     1      -3.634  -0.949   2.001  1.00  0.00     0.186 C 
HETATM   25  O6  UNL     1      -4.242  -2.236   1.810  1.00  0.00    -0.373 OA
HETATM   26  C25 UNL     1      -5.153  -2.139   0.700  1.00  0.00     0.158 C 
HETATM   27  C26 UNL     1      -5.619  -0.663   0.752  1.00  0.00     0.021 C 
HETATM   28  C27 UNL     1      -6.428  -0.176  -0.437  1.00  0.00     0.013 C 
HETATM   29  C28 UNL     1      -4.294   0.046   1.027  1.00  0.00     0.036 C 
HETATM   30  C29 UNL     1      -4.162   1.538   1.486  1.00  0.00     0.005 C 
HETATM   31  C30 UNL     1      -5.364   2.103   2.293  1.00  0.00     0.012 C 
HETATM   32  C31 UNL     1      -5.980   3.216   1.447  1.00  0.00     0.001 C 
HETATM   33  C32 UNL     1      -4.828   3.728   0.607  1.00  0.00     0.001 C 
HETATM   34  C33 UNL     1      -4.080   2.459   0.241  1.00  0.00     0.012 C 
HETATM   35  C34 UNL     1      -4.547  -2.709  -0.634  1.00  0.00     0.181 C 
HETATM   36  C35 UNL     1      -3.399  -3.784  -0.570  1.00  0.00     0.087 C 
HETATM   37  C36 UNL     1      -3.902  -4.979   0.264  1.00  0.00     0.049 C 
HETATM   38  C37 UNL     1      -1.977  -3.304  -0.086  1.00  0.00     0.034 C 
HETATM   39  C38 UNL     1      -0.993  -4.497   0.173  1.00  0.00     0.016 C 
HETATM   40  C39 UNL     1       0.395  -3.873   0.445  1.00  0.00     0.026 C 
HETATM   41  C40 UNL     1       1.589  -4.668  -0.065  1.00  0.00     0.013 C 
HETATM   42  C41 UNL     1       2.527  -3.946  -1.033  1.00  0.00     0.043 C 
HETATM   43  C42 UNL     1       0.268  -2.409  -0.002  1.00  0.00     0.095 C 
HETATM   44  C43 UNL     1      -1.014  -2.337  -0.900  1.00  0.00    -0.002 C 
HETATM   45  C44 UNL     1      -0.768  -2.876  -2.338  1.00  0.00     0.019 C 
HETATM   46  C45 UNL     1      -1.345  -0.827  -0.993  1.00  0.00     0.015 C 
HETATM   47  C46 UNL     1      -0.188   0.024  -1.571  1.00  0.00     0.029 C 
HETATM   48  H27 UNL     1      -2.151   0.774   4.119  1.00  0.00     0.320 HD
ENDROOT
BRANCH   1  49
HETATM   49  O2  UNL     1       6.240   1.890  -1.709  1.00  0.00    -0.386 OA
BRANCH  49  50
HETATM   50  C4  UNL     1       7.384   1.472  -0.960  1.00  0.00     0.170 C 
BRANCH  50  51
HETATM   51  C3  UNL     1       7.723   2.381   0.220  1.00  0.00     0.052 C 
BRANCH  51  52
HETATM   52  C2  UNL     1       8.262   3.729  -0.237  1.00  0.00     0.169 C 
BRANCH  52  53
HETATM   53  O1  UNL     1       9.551   3.533  -0.815  1.00  0.00    -0.396 OA
HETATM   54  C1  UNL     1      10.106   4.745  -1.300  1.00  0.00     0.201 C 
ENDBRANCH  52  53
ENDBRANCH  51  52
ENDBRANCH  50  51
ENDBRANCH  49  50
ENDBRANCH   1  49
BRANCH  43  55
HETATM   55  O9  UNL     1       0.032  -1.685   1.233  1.00  0.00    -0.384 OA
HETATM   56  H59 UNL     1      -0.487  -2.230   1.838  1.00  0.00     0.211 HD
ENDBRANCH  43  55
BRANCH  36  57
HETATM   57  O8  UNL     1      -3.242  -4.262  -1.924  1.00  0.00    -0.387 OA
HETATM   58  H50 UNL     1      -3.971  -4.881  -2.119  1.00  0.00     0.210 HD
ENDBRANCH  36  57
BRANCH  35  59
HETATM   59  O7  UNL     1      -4.172  -1.703  -1.571  1.00  0.00    -0.390 OA
HETATM   60  H46 UNL     1      -3.757  -2.184  -2.318  1.00  0.00     0.210 HD
ENDBRANCH  35  59
BRANCH  23  61
HETATM   61  O5  UNL     1      -2.949  -1.353   4.308  1.00  0.00    -0.366 OA
HETATM   62  H29 UNL     1      -2.041  -1.404   3.971  1.00  0.00     0.212 HD
ENDBRANCH  23  61
TORSDOF 9
