REMARK  8 active torsions:
REMARK  status: ('A' for Active; 'I' for Inactive)
REMARK    1  A    between atoms: C2_2  and  C3_3 
REMARK    2  A    between atoms: C2_2  and  C9_12 
REMARK    3  A    between atoms: C3_3  and  C4_4 
REMARK    4  A    between atoms: C4_4  and  C5_5 
REMARK    5  A    between atoms: C6_6  and  C7_7 
REMARK    6  A    between atoms: C6_6  and  C8_9 
REMARK    7  A    between atoms: C7_7  and  O1_8 
REMARK    8  A    between atoms: C8_9  and  O3_11 
ROOT
HETATM    1  C9  UNL     1       1.648  -1.640   0.018  1.00  0.00    -0.002 C 
HETATM    2  C10 UNL     1       1.213  -2.881   0.859  1.00  0.00     0.006 C 
HETATM    3  C11 UNL     1      -0.116  -2.515   1.557  1.00  0.00     0.011 C 
HETATM    4  C12 UNL     1      -0.614  -1.268   0.809  1.00  0.00    -0.032 C 
HETATM    5  C13 UNL     1      -1.278  -1.792  -0.504  1.00  0.00     0.016 C 
HETATM    6  C14 UNL     1      -1.623  -0.348   1.562  1.00  0.00     0.004 C 
HETATM    7  C15 UNL     1      -2.894  -1.034   2.069  1.00  0.00     0.007 C 
HETATM    8  C16 UNL     1      -4.144  -1.008   1.195  1.00  0.00     0.007 C 
HETATM    9  C17 UNL     1      -4.161  -0.117  -0.059  1.00  0.00     0.010 C 
HETATM   10  C18 UNL     1      -5.612   0.290  -0.489  1.00  0.00     0.018 C 
HETATM   11  C19 UNL     1      -6.468  -0.967  -0.754  1.00  0.00     0.023 C 
HETATM   12  C20 UNL     1      -6.349   1.163   0.544  1.00  0.00     0.023 C 
HETATM   13  C21 UNL     1      -5.511   1.099  -1.791  1.00  0.00     0.135 C 
HETATM   14  O4  UNL     1      -6.198   0.855  -2.784  1.00  0.00    -0.297 OA
HETATM   15  C22 UNL     1      -4.571   2.277  -1.786  1.00  0.00     0.080 C 
HETATM   16  C23 UNL     1      -3.185   1.832  -1.361  1.00  0.00     0.018 C 
HETATM   17  C24 UNL     1      -3.202   1.080  -0.035  1.00  0.00    -0.026 A 
HETATM   18  C25 UNL     1      -2.983   1.868   1.233  1.00  0.00     0.021 A 
HETATM   19  C26 UNL     1      -1.882   0.936   0.750  1.00  0.00    -0.027 A 
HETATM   20  C27 UNL     1      -0.593   1.643   0.300  1.00  0.00     0.011 C 
HETATM   21  C28 UNL     1       0.466   0.710  -0.319  1.00  0.00     0.011 C 
HETATM   22  C29 UNL     1       0.755  -0.496   0.592  1.00  0.00    -0.032 C 
HETATM   23  C30 UNL     1       1.402   0.044   1.902  1.00  0.00     0.016 C 
ENDROOT
BRANCH   1  24
HETATM   24  C2  UNL     1       3.194  -1.517  -0.170  1.00  0.00    -0.014 C 
HETATM   25  C1  UNL     1       4.032  -1.433   1.111  1.00  0.00     0.010 C 
BRANCH  24  26
HETATM   26  C3  UNL     1       3.543  -0.378  -1.158  1.00  0.00     0.008 C 
BRANCH  26  27
HETATM   27  C4  UNL     1       4.889  -0.516  -1.888  1.00  0.00     0.028 C 
BRANCH  27  28
HETATM   28  C5  UNL     1       6.098  -0.189  -1.059  1.00  0.00    -0.011 C 
HETATM   29  C6  UNL     1       6.696   1.018  -0.966  1.00  0.00     0.035 C 
BRANCH  29  30
HETATM   30  C7  UNL     1       6.194   2.273  -1.614  1.00  0.00     0.209 C 
BRANCH  30  31
HETATM   31  O1  UNL     1       6.737   2.365  -2.926  1.00  0.00    -0.396 OA
HETATM   32  H12 UNL     1       6.545   3.263  -3.245  1.00  0.00     0.209 HD
ENDBRANCH  30  31
ENDBRANCH  29  30
BRANCH  29  33
HETATM   33  C8  UNL     1       7.903   1.201  -0.121  1.00  0.00     0.173 C 
HETATM   34  O2  UNL     1       8.394   2.271   0.194  1.00  0.00    -0.646 OA
BRANCH  33  35
HETATM   35  O3  UNL     1       8.449   0.049   0.307  1.00  0.00    -0.773 OA
HETATM   36  H13 UNL     1       9.230   0.342   0.820  1.00  0.00     0.167 HD
ENDBRANCH  33  35
ENDBRANCH  29  33
ENDBRANCH  27  28
ENDBRANCH  26  27
ENDBRANCH  24  26
ENDBRANCH   1  24
TORSDOF 8
