REMARK  8 active torsions:
REMARK  status: ('A' for Active; 'I' for Inactive)
REMARK    1  A    between atoms: C4_4  and  C5_5 
REMARK    2  A    between atoms: C5_5  and  C6_6 
REMARK    3  A    between atoms: C6_6  and  C7_7 
REMARK    4  A    between atoms: C7_7  and  C9_9 
REMARK    5  A    between atoms: C22_22  and  O1_23 
REMARK    6  A    between atoms: C24_25  and  O2_26 
REMARK    7  A    between atoms: C25_27  and  C27_29 
REMARK    8  A    between atoms: C27_29  and  O4_31 
ROOT
HETATM    1  C9  UNL     1       2.602  -0.630   1.097  1.00  0.00    -0.002 C 
HETATM    2  C10 UNL     1       2.874   0.872   0.870  1.00  0.00     0.007 C 
HETATM    3  C11 UNL     1       1.497   1.540   0.625  1.00  0.00     0.015 C 
HETATM    4  C12 UNL     1       0.454   0.510   1.109  1.00  0.00    -0.005 C 
HETATM    5  C13 UNL     1       0.354   0.662   2.660  1.00  0.00     0.021 C 
HETATM    6  C14 UNL     1      -0.997   0.555   0.636  1.00  0.00    -0.000 C 
HETATM    7  C15 UNL     1      -1.735  -0.581   0.506  1.00  0.00    -0.058 C 
HETATM    8  C16 UNL     1      -1.102  -1.961   0.777  1.00  0.00     0.036 C 
HETATM    9  C17 UNL     1       0.388  -2.003   1.175  1.00  0.00     0.015 C 
HETATM   10  C18 UNL     1       1.145  -0.814   0.582  1.00  0.00    -0.028 C 
HETATM   11  C19 UNL     1       1.103  -0.931  -0.973  1.00  0.00     0.016 C 
HETATM   12  C20 UNL     1      -3.212  -0.584  -0.005  1.00  0.00     0.011 C 
HETATM   13  C21 UNL     1      -3.102  -0.851  -1.524  1.00  0.00     0.023 C 
HETATM   14  C22 UNL     1      -4.068  -1.687   0.719  1.00  0.00     0.133 C 
HETATM   15  C23 UNL     1      -5.585  -1.463   0.771  1.00  0.00     0.065 C 
HETATM   16  C24 UNL     1      -6.097  -0.420  -0.214  1.00  0.00     0.139 C 
HETATM   17  C25 UNL     1      -5.392   0.957  -0.066  1.00  0.00     0.072 C 
HETATM   18  C26 UNL     1      -6.094   1.794   1.039  1.00  0.00     0.030 C 
HETATM   19  C28 UNL     1      -3.869   0.796   0.327  1.00  0.00     0.029 C 
HETATM   20  C29 UNL     1      -3.014   1.963  -0.167  1.00  0.00     0.090 C 
HETATM   21  C30 UNL     1      -1.585   1.891   0.310  1.00  0.00     0.157 C 
HETATM   22  O5  UNL     1      -0.915   2.923   0.372  1.00  0.00    -0.293 OA
ENDROOT
BRANCH   1  23
HETATM   23  C7  UNL     1       3.742  -1.627   0.750  1.00  0.00    -0.014 C 
HETATM   24  C8  UNL     1       4.981  -1.309   1.607  1.00  0.00     0.010 C 
BRANCH  23  25
HETATM   25  C6  UNL     1       4.151  -1.917  -0.714  1.00  0.00     0.008 C 
BRANCH  25  26
HETATM   26  C5  UNL     1       4.681  -0.803  -1.627  1.00  0.00     0.028 C 
BRANCH  26  27
HETATM   27  C4  UNL     1       6.034  -0.270  -1.250  1.00  0.00    -0.025 C 
HETATM   28  C2  UNL     1       6.463   1.009  -1.296  1.00  0.00    -0.091 C 
HETATM   29  C1  UNL     1       7.862   1.366  -0.863  1.00  0.00     0.042 C 
HETATM   30  C3  UNL     1       5.651   2.187  -1.765  1.00  0.00     0.042 C 
ENDBRANCH  26  27
ENDBRANCH  25  26
ENDBRANCH  23  25
ENDBRANCH   1  23
BRANCH  14  31
HETATM   31  O1  UNL     1      -3.822  -2.990   0.170  1.00  0.00    -0.394 OA
HETATM   32  H35 UNL     1      -4.300  -3.074  -0.669  1.00  0.00     0.210 HD
ENDBRANCH  14  31
BRANCH  17  33
HETATM   33  C27 UNL     1      -5.545   1.664  -1.418  1.00  0.00     0.151 C 
HETATM   34  O3  UNL     1      -5.409   1.142  -2.512  1.00  0.00    -0.649 OA
BRANCH  33  35
HETATM   35  O4  UNL     1      -5.774   2.988  -1.335  1.00  0.00    -0.776 OA
HETATM   36  H43 UNL     1      -5.814   3.307  -2.264  1.00  0.00     0.167 HD
ENDBRANCH  33  35
ENDBRANCH  17  33
BRANCH  16  37
HETATM   37  O2  UNL     1      -7.513  -0.308  -0.024  1.00  0.00    -0.394 OA
HETATM   38  H39 UNL     1      -7.916  -0.114  -0.887  1.00  0.00     0.210 HD
ENDBRANCH  16  37
TORSDOF 8
