REMARK  9 active torsions:
REMARK  status: ('A' for Active; 'I' for Inactive)
REMARK    1  A    between atoms: C2_2  and  C30_33 
REMARK    2  A    between atoms: C3_3  and  C4_4 
REMARK    3  A    between atoms: C4_4  and  C5_5 
REMARK    4  A    between atoms: C5_5  and  C6_6 
REMARK    5  A    between atoms: C6_6  and  C8_8 
REMARK    6  A    between atoms: C10_10  and  O1_11 
REMARK    7  A    between atoms: C23_24  and  O2_25 
REMARK    8  A    between atoms: C29_31  and  O3_32 
REMARK    9  A    between atoms: C30_33  and  O4_34 
ROOT
HETATM    1  C8  UNL     1       2.023  -1.502  -0.942  1.00  0.00     0.001 C 
HETATM    2  C9  UNL     1       2.036  -2.321   0.376  1.00  0.00     0.038 C 
HETATM    3  C10 UNL     1       0.653  -2.111   1.036  1.00  0.00     0.132 C 
HETATM    4  C11 UNL     1      -0.248  -1.561  -0.099  1.00  0.00     0.016 C 
HETATM    5  C12 UNL     1      -0.719  -2.757  -0.993  1.00  0.00     0.023 C 
HETATM    6  C13 UNL     1      -1.518  -0.794   0.265  1.00  0.00    -0.037 C 
HETATM    7  C14 UNL     1      -2.004   0.131  -0.606  1.00  0.00    -0.065 C 
HETATM    8  C15 UNL     1      -1.260   0.486  -1.903  1.00  0.00     0.036 C 
HETATM    9  C16 UNL     1       0.150  -0.110  -2.114  1.00  0.00     0.015 C 
HETATM   10  C17 UNL     1       0.769  -0.584  -0.795  1.00  0.00    -0.026 C 
HETATM   11  C18 UNL     1       1.108   0.682   0.045  1.00  0.00     0.016 C 
HETATM   12  C19 UNL     1      -3.307   0.928  -0.307  1.00  0.00    -0.016 C 
HETATM   13  C20 UNL     1      -2.831   2.285   0.252  1.00  0.00     0.020 C 
HETATM   14  C21 UNL     1      -4.142   1.098  -1.596  1.00  0.00     0.016 C 
HETATM   15  C22 UNL     1      -5.534   1.710  -1.448  1.00  0.00     0.033 C 
HETATM   16  C23 UNL     1      -6.102   1.803  -0.034  1.00  0.00     0.126 C 
HETATM   17  C24 UNL     1      -5.642   0.708   0.975  1.00  0.00    -0.017 C 
HETATM   18  C25 UNL     1      -6.639  -0.480   0.837  1.00  0.00     0.018 C 
HETATM   19  C26 UNL     1      -5.806   1.246   2.418  1.00  0.00     0.018 C 
HETATM   20  C27 UNL     1      -4.199   0.121   0.688  1.00  0.00     0.011 C 
HETATM   21  C28 UNL     1      -3.388  -0.248   1.945  1.00  0.00     0.043 C 
HETATM   22  C29 UNL     1      -2.172  -1.115   1.592  1.00  0.00     0.148 C 
ENDROOT
BRANCH   1  23
HETATM   23  C6  UNL     1       3.364  -0.859  -1.399  1.00  0.00    -0.013 C 
HETATM   24  C7  UNL     1       4.189  -1.912  -2.162  1.00  0.00     0.010 C 
BRANCH  23  25
HETATM   25  C5  UNL     1       4.237  -0.257  -0.275  1.00  0.00     0.008 C 
BRANCH  25  26
HETATM   26  C4  UNL     1       5.274   0.744  -0.801  1.00  0.00     0.028 C 
BRANCH  26  27
HETATM   27  C3  UNL     1       6.050   1.372   0.322  1.00  0.00    -0.022 C 
HETATM   28  C2  UNL     1       7.270   1.019   0.781  1.00  0.00    -0.064 C 
HETATM   29  C1  UNL     1       8.051  -0.159   0.259  1.00  0.00     0.045 C 
BRANCH  28  30
HETATM   30  C30 UNL     1       7.974   1.750   1.908  1.00  0.00     0.197 C 
BRANCH  30  31
HETATM   31  O4  UNL     1       7.361   2.996   2.211  1.00  0.00    -0.397 OA
HETATM   32  H50 UNL     1       7.382   3.514   1.391  1.00  0.00     0.209 HD
ENDBRANCH  30  31
ENDBRANCH  28  30
ENDBRANCH  26  27
ENDBRANCH  25  26
ENDBRANCH  23  25
ENDBRANCH   1  23
BRANCH   3  33
HETATM   33  O1  UNL     1       0.153  -3.319   1.598  1.00  0.00    -0.394 OA
HETATM   34  H17 UNL     1       0.849  -3.670   2.192  1.00  0.00     0.210 HD
ENDBRANCH   3  33
BRANCH  22  35
HETATM   35  O3  UNL     1      -2.608  -2.467   1.572  1.00  0.00    -0.391 OA
HETATM   36  H47 UNL     1      -1.810  -3.025   1.648  1.00  0.00     0.210 HD
ENDBRANCH  22  35
BRANCH  16  37
HETATM   37  O2  UNL     1      -5.820   3.112   0.475  1.00  0.00    -0.395 OA
HETATM   38  H36 UNL     1      -6.253   3.760  -0.108  1.00  0.00     0.210 HD
ENDBRANCH  16  37
TORSDOF 9
