REMARK  7 active torsions:
REMARK  status: ('A' for Active; 'I' for Inactive)
REMARK    1  A    between atoms: C4_4  and  C5_5 
REMARK    2  A    between atoms: C5_5  and  O1_6 
REMARK    3  A    between atoms: C5_5  and  C6_7 
REMARK    4  A    between atoms: C6_7  and  C7_8 
REMARK    5  A    between atoms: C7_8  and  C8_9 
REMARK    6  A    between atoms: C7_8  and  C9_11 
REMARK    7  A    between atoms: C8_9  and  O2_10 
ROOT
HETATM    1  C9  UNL     1       2.045   0.040  -0.444  1.00  0.00     0.001 C 
HETATM    2  C10 UNL     1       1.932  -0.143  -1.989  1.00  0.00     0.007 C 
HETATM    3  C11 UNL     1       0.449  -0.356  -2.330  1.00  0.00     0.015 C 
HETATM    4  C12 UNL     1      -0.238  -0.602  -0.973  1.00  0.00    -0.013 C 
HETATM    5  C13 UNL     1      -0.053  -2.119  -0.668  1.00  0.00     0.021 C 
HETATM    6  C14 UNL     1      -1.722  -0.297  -0.870  1.00  0.00    -0.070 C 
HETATM    7  C15 UNL     1      -2.541  -0.162  -1.925  1.00  0.00    -0.022 C 
HETATM    8  C16 UNL     1      -3.962   0.260  -1.745  1.00  0.00     0.034 C 
HETATM    9  C17 UNL     1      -4.665  -0.431  -0.551  1.00  0.00     0.013 C 
HETATM   10  C18 UNL     1      -6.058   0.215  -0.234  1.00  0.00     0.018 C 
HETATM   11  C19 UNL     1      -7.028  -0.029  -1.419  1.00  0.00     0.023 C 
HETATM   12  C20 UNL     1      -6.018   1.735   0.007  1.00  0.00     0.023 C 
HETATM   13  C21 UNL     1      -6.646  -0.472   1.003  1.00  0.00     0.135 C 
HETATM   14  O3  UNL     1      -7.804  -0.901   1.032  1.00  0.00    -0.297 OA
HETATM   15  C22 UNL     1      -5.788  -0.592   2.239  1.00  0.00     0.080 C 
HETATM   16  C23 UNL     1      -4.342  -0.181   2.025  1.00  0.00     0.017 C 
HETATM   17  C24 UNL     1      -3.716  -0.695   0.703  1.00  0.00    -0.031 C 
HETATM   18  C25 UNL     1      -3.566  -2.242   0.831  1.00  0.00     0.016 C 
HETATM   19  C26 UNL     1      -2.293  -0.021   0.516  1.00  0.00     0.024 C 
HETATM   20  C27 UNL     1      -1.290  -0.308   1.665  1.00  0.00     0.010 C 
HETATM   21  C28 UNL     1       0.178   0.110   1.432  1.00  0.00     0.011 C 
HETATM   22  C29 UNL     1       0.567   0.374  -0.038  1.00  0.00    -0.029 C 
HETATM   23  C30 UNL     1       0.298   1.883  -0.337  1.00  0.00     0.016 C 
ENDROOT
BRANCH   1  24
HETATM   24  C7  UNL     1       3.219   1.005  -0.057  1.00  0.00     0.017 C 
BRANCH  24  25
HETATM   25  C6  UNL     1       4.542   0.497  -0.719  1.00  0.00     0.043 C 
BRANCH  25  26
HETATM   26  C5  UNL     1       5.877   1.205  -0.423  1.00  0.00     0.141 C 
BRANCH  26  27
HETATM   27  C4  UNL     1       6.587   0.706   0.808  1.00  0.00     0.006 C 
HETATM   28  C2  UNL     1       7.341  -0.409   0.914  1.00  0.00    -0.089 C 
HETATM   29  C1  UNL     1       7.595  -1.382  -0.204  1.00  0.00     0.042 C 
HETATM   30  C3  UNL     1       8.009  -0.768   2.214  1.00  0.00     0.042 C 
ENDBRANCH  26  27
BRANCH  26  31
HETATM   31  O1  UNL     1       5.708   2.613  -0.334  1.00  0.00    -0.392 OA
HETATM   32  H9  UNL     1       5.129   2.770   0.442  1.00  0.00     0.210 HD
ENDBRANCH  26  31
ENDBRANCH  25  26
ENDBRANCH  24  25
BRANCH  24  33
HETATM   33  C8  UNL     1       3.361   1.164   1.462  1.00  0.00     0.169 C 
BRANCH  33  34
HETATM   34  O2  UNL     1       4.123   2.331   1.763  1.00  0.00    -0.400 OA
HETATM   35  H15 UNL     1       4.057   2.467   2.726  1.00  0.00     0.209 HD
ENDBRANCH  33  34
ENDBRANCH  24  33
ENDBRANCH   1  24
TORSDOF 7
