REMARK  13 active torsions:
REMARK  status: ('A' for Active; 'I' for Inactive)
REMARK    1  A    between atoms: O1_2  and  C2_3 
REMARK    2  A    between atoms: C3_5  and  C4_6 
REMARK    3  A    between atoms: C4_6  and  O3_7 
REMARK    4  A    between atoms: C4_6  and  C5_8 
REMARK    5  A    between atoms: C5_8  and  O4_10 
REMARK    6  A    between atoms: C5_8  and  C7_11 
REMARK    7  A    between atoms: C7_11  and  O5_12 
REMARK    8  A    between atoms: C9_14  and  C10_15 
REMARK    9  A    between atoms: C23_28  and  O6_29 
REMARK   10  A    between atoms: O6_29  and  C24_30 
REMARK   11  A    between atoms: C24_30  and  C25_32 
REMARK   12  A    between atoms: C25_32  and  C26_33 
REMARK   13  A    between atoms: C34_41  and  O8_42 
ROOT
HETATM    1  C10 UNL     1      -3.185  -1.523  -1.513  1.00  0.00     0.004 C 
HETATM    2  C11 UNL     1      -3.103  -3.070  -1.568  1.00  0.00     0.007 C 
HETATM    3  C12 UNL     1      -1.610  -3.395  -1.421  1.00  0.00     0.011 C 
HETATM    4  C13 UNL     1      -1.033  -2.246  -0.601  1.00  0.00    -0.021 A 
HETATM    5  C14 UNL     1      -1.774  -1.931   0.681  1.00  0.00     0.022 A 
HETATM    6  C15 UNL     1      -2.049  -1.121  -0.578  1.00  0.00    -0.027 A 
HETATM    7  C16 UNL     1      -1.606   0.324  -0.571  1.00  0.00     0.011 C 
HETATM    8  C17 UNL     1      -0.107   0.563  -0.790  1.00  0.00     0.007 C 
HETATM    9  C18 UNL     1       0.785  -0.500  -0.117  1.00  0.00     0.005 C 
HETATM   10  C19 UNL     1       2.313  -0.086   0.056  1.00  0.00    -0.035 C 
HETATM   11  C20 UNL     1       2.960   0.334  -1.283  1.00  0.00     0.016 C 
HETATM   12  C21 UNL     1       2.378   1.159   1.012  1.00  0.00     0.012 C 
HETATM   13  C22 UNL     1       3.444   1.087   2.112  1.00  0.00     0.034 C 
HETATM   14  C23 UNL     1       4.765   0.470   1.650  1.00  0.00     0.140 C 
HETATM   15  C29 UNL     1       4.576  -1.000   1.135  1.00  0.00    -0.016 C 
HETATM   16  C30 UNL     1       5.576  -1.344   0.012  1.00  0.00     0.018 C 
HETATM   17  C31 UNL     1       4.928  -1.937   2.329  1.00  0.00     0.018 C 
HETATM   18  C32 UNL     1       3.069  -1.280   0.740  1.00  0.00     0.007 C 
HETATM   19  C33 UNL     1       2.841  -2.615  -0.013  1.00  0.00     0.038 C 
HETATM   20  C34 UNL     1       1.354  -2.997  -0.064  1.00  0.00     0.128 C 
HETATM   21  C35 UNL     1       0.488  -1.910  -0.762  1.00  0.00    -0.005 C 
HETATM   22  C36 UNL     1       0.810  -1.929  -2.285  1.00  0.00     0.019 C 
ENDROOT
BRANCH   1  23
HETATM   23  C9  UNL     1      -4.617  -1.060  -1.221  1.00  0.00     0.048 C 
HETATM   24  C2  UNL     1      -5.253  -1.298   0.146  1.00  0.00     0.264 C 
HETATM   25  O2  UNL     1      -6.477  -0.546   0.101  1.00  0.00    -0.353 OA
HETATM   26  C3  UNL     1      -6.349   0.503  -0.887  1.00  0.00     0.157 C 
HETATM   27  C8  UNL     1      -4.910   0.416  -1.404  1.00  0.00     0.044 C 
BRANCH  24  28
HETATM   28  O1  UNL     1      -4.470  -0.771   1.209  1.00  0.00    -0.366 OA
HETATM   29  C1  UNL     1      -4.918  -1.234   2.476  1.00  0.00     0.204 C 
ENDBRANCH  24  28
BRANCH  26  30
HETATM   30  C4  UNL     1      -6.671   1.871  -0.249  1.00  0.00     0.183 C 
BRANCH  30  31
HETATM   31  O3  UNL     1      -5.972   2.006   0.997  1.00  0.00    -0.390 OA
HETATM   32  H7  UNL     1      -5.733   1.097   1.278  1.00  0.00     0.210 HD
ENDBRANCH  30  31
BRANCH  30  33
HETATM   33  C5  UNL     1      -8.186   2.190  -0.066  1.00  0.00     0.103 C 
HETATM   34  C6  UNL     1      -8.358   3.505   0.711  1.00  0.00     0.051 C 
BRANCH  33  35
HETATM   35  O4  UNL     1      -8.790   2.371  -1.371  1.00  0.00    -0.385 OA
HETATM   36  H11 UNL     1      -8.463   3.217  -1.728  1.00  0.00     0.210 HD
ENDBRANCH  33  35
BRANCH  33  37
HETATM   37  C7  UNL     1      -8.993   1.084   0.644  1.00  0.00     0.204 C 
BRANCH  37  38
HETATM   38  O5  UNL     1      -9.350   0.050  -0.275  1.00  0.00    -0.398 OA
HETATM   39  H14 UNL     1      -9.563   0.524  -1.104  1.00  0.00     0.209 HD
ENDBRANCH  37  38
ENDBRANCH  33  37
ENDBRANCH  30  33
ENDBRANCH  26  30
ENDBRANCH   1  23
BRANCH  20  40
HETATM   40  O8  UNL     1       0.913  -3.212   1.281  1.00  0.00    -0.395 OA
HETATM   41  H57 UNL     1       1.399  -3.978   1.629  1.00  0.00     0.210 HD
ENDBRANCH  20  40
BRANCH  14  42
HETATM   42  O6  UNL     1       5.301   1.343   0.635  1.00  0.00    -0.315 OA
BRANCH  42  43
HETATM   43  C24 UNL     1       6.614   1.702   0.739  1.00  0.00     0.259 C 
HETATM   44  O7  UNL     1       7.380   1.323   1.611  1.00  0.00    -0.265 OA
BRANCH  43  45
HETATM   45  C25 UNL     1       6.956   2.619  -0.418  1.00  0.00     0.115 C 
BRANCH  45  46
HETATM   46  C26 UNL     1       8.364   3.236  -0.408  1.00  0.00    -0.013 C 
HETATM   47  C27 UNL     1       8.606   4.130   0.810  1.00  0.00     0.010 C 
HETATM   48  C28 UNL     1       9.470   2.192  -0.559  1.00  0.00     0.010 C 
ENDBRANCH  45  46
ENDBRANCH  43  45
ENDBRANCH  42  43
ENDBRANCH  14  42
TORSDOF 13
