REMARK  11 active torsions:
REMARK  status: ('A' for Active; 'I' for Inactive)
REMARK    1  A    between atoms: C5_5  and  C6_6 
REMARK    2  A    between atoms: C6_6  and  C8_8 
REMARK    3  A    between atoms: C8_8  and  O1_9 
REMARK    4  A    between atoms: O1_9  and  C9_10 
REMARK    5  A    between atoms: C9_10  and  C10_12 
REMARK    6  A    between atoms: C10_12  and  C11_13 
REMARK    7  A    between atoms: C17_20  and  O4_22 
REMARK    8  A    between atoms: C22_26  and  O5_28 
REMARK    9  A    between atoms: O5_28  and  C24_29 
REMARK   10  A    between atoms: C24_29  and  C25_31 
REMARK   11  A    between atoms: C25_31  and  C26_32 
ROOT
HETATM    1  C1  UNL     1       2.232  -4.056   0.021  1.00  0.00     0.015 C 
HETATM    2  C2  UNL     1       1.301  -3.458  -0.741  1.00  0.00    -0.077 C 
HETATM    3  C3  UNL     1       1.505  -3.269  -2.224  1.00  0.00     0.034 C 
HETATM    4  C4  UNL     1       0.807  -2.017  -2.769  1.00  0.00     0.010 C 
HETATM    5  C5  UNL     1       0.727  -0.863  -1.749  1.00  0.00    -0.001 C 
HETATM    6  C13 UNL     1      -0.156  -1.328  -0.547  1.00  0.00     0.037 C 
HETATM    7  C14 UNL     1       0.028  -2.879  -0.161  1.00  0.00     0.090 C 
HETATM    8  C15 UNL     1      -1.170  -3.856  -0.505  1.00  0.00     0.138 C 
HETATM    9  O3  UNL     1      -1.399  -4.220  -1.663  1.00  0.00    -0.297 OA
HETATM   10  C16 UNL     1      -2.104  -4.319   0.648  1.00  0.00     0.119 C 
HETATM   11  C17 UNL     1      -3.511  -3.604   0.746  1.00  0.00     0.087 C 
HETATM   12  C18 UNL     1      -3.891  -3.450   2.223  1.00  0.00     0.049 C 
HETATM   13  C19 UNL     1      -3.460  -2.259   0.004  1.00  0.00     0.156 C 
HETATM   14  C20 UNL     1      -4.434  -1.100   0.162  1.00  0.00     0.038 C 
HETATM   15  C21 UNL     1      -3.691   0.276   0.080  1.00  0.00     0.043 C 
HETATM   16  C22 UNL     1      -2.355   0.341  -0.779  1.00  0.00     0.093 C 
HETATM   17  C23 UNL     1      -2.669   0.725  -2.235  1.00  0.00     0.049 C 
HETATM   18  C28 UNL     1      -1.658  -1.052  -0.759  1.00  0.00     0.162 C 
HETATM   19  O7  UNL     1      -2.208  -1.712   0.377  1.00  0.00    -0.374 OA
ENDROOT
BRANCH   5  20
HETATM   20  C6  UNL     1       2.130  -0.325  -1.303  1.00  0.00     0.010 C 
HETATM   21  C7  UNL     1       3.071  -0.078  -2.496  1.00  0.00     0.012 C 
BRANCH  20  22
HETATM   22  C8  UNL     1       2.016   0.995  -0.509  1.00  0.00     0.183 C 
BRANCH  22  23
HETATM   23  O1  UNL     1       3.300   1.308   0.062  1.00  0.00    -0.321 OA
BRANCH  23  24
HETATM   24  C9  UNL     1       3.467   2.604   0.445  1.00  0.00     0.258 C 
HETATM   25  O2  UNL     1       2.633   3.490   0.317  1.00  0.00    -0.265 OA
BRANCH  24  26
HETATM   26  C10 UNL     1       4.827   2.770   1.078  1.00  0.00     0.111 C 
BRANCH  26  27
HETATM   27  C11 UNL     1       5.207   4.242   1.229  1.00  0.00     0.005 C 
HETATM   28  C12 UNL     1       6.571   4.400   1.881  1.00  0.00     0.005 C 
ENDBRANCH  26  27
ENDBRANCH  24  26
ENDBRANCH  23  24
ENDBRANCH  22  23
ENDBRANCH  20  22
ENDBRANCH   5  20
BRANCH  16  29
HETATM   29  O5  UNL     1      -1.421   1.296  -0.204  1.00  0.00    -0.308 OA
BRANCH  29  30
HETATM   30  C24 UNL     1      -1.799   2.593  -0.004  1.00  0.00     0.259 C 
HETATM   31  O6  UNL     1      -2.889   3.069  -0.289  1.00  0.00    -0.265 OA
BRANCH  30  32
HETATM   32  C25 UNL     1      -0.643   3.365   0.584  1.00  0.00     0.111 C 
BRANCH  32  33
HETATM   33  C26 UNL     1      -1.066   4.658   1.274  1.00  0.00     0.005 C 
HETATM   34  C27 UNL     1      -1.810   4.406   2.579  1.00  0.00     0.005 C 
ENDBRANCH  32  33
ENDBRANCH  30  32
ENDBRANCH  29  30
ENDBRANCH  16  29
BRANCH  11  35
HETATM   35  O4  UNL     1      -4.521  -4.416   0.137  1.00  0.00    -0.387 OA
HETATM   36  H28 UNL     1      -4.489  -5.302   0.540  1.00  0.00     0.210 HD
ENDBRANCH  11  35
TORSDOF 11
