REMARK  10 active torsions:
REMARK  status: ('A' for Active; 'I' for Inactive)
REMARK    1  A    between atoms: O1_2  and  C2_3 
REMARK    2  A    between atoms: C4_5  and  O2_6 
REMARK    3  A    between atoms: O2_6  and  C5_7 
REMARK    4  A    between atoms: C6_8  and  O3_9 
REMARK    5  A    between atoms: C8_11  and  O4_12 
REMARK    6  A    between atoms: O4_12  and  C9_13 
REMARK    7  A    between atoms: C20_24  and  C21_25 
REMARK    8  A    between atoms: C21_25  and  O5_27 
REMARK    9  A    between atoms: C25_30  and  O6_31 
REMARK   10  A    between atoms: C34_42  and  O9_43 
ROOT
HETATM    1  C9  UNL     1       0.029  -0.166  -1.266  1.00  0.00     0.046 C 
HETATM    2  C10 UNL     1      -0.561   1.012  -1.515  1.00  0.00     0.011 C 
HETATM    3  C11 UNL     1      -1.881   1.447  -0.908  1.00  0.00     0.019 C 
HETATM    4  C12 UNL     1      -2.843   1.790  -2.061  1.00  0.00     0.010 C 
HETATM    5  C13 UNL     1      -4.289   1.916  -1.602  1.00  0.00     0.009 C 
HETATM    6  C14 UNL     1      -4.840   0.566  -1.088  1.00  0.00     0.025 C 
HETATM    7  C15 UNL     1      -3.714  -0.319  -0.463  1.00  0.00     0.001 C 
HETATM    8  C16 UNL     1      -4.252  -1.487   0.380  1.00  0.00     0.007 C 
HETATM    9  C17 UNL     1      -5.732  -1.766   0.131  1.00  0.00     0.013 C 
HETATM   10  C18 UNL     1      -6.633  -0.558   0.515  1.00  0.00    -0.007 C 
HETATM   11  C19 UNL     1      -6.571  -0.386   2.050  1.00  0.00     0.019 C 
HETATM   12  C20 UNL     1      -8.101  -0.868   0.016  1.00  0.00     0.025 C 
HETATM   13  C23 UNL     1      -8.120  -0.248  -1.386  1.00  0.00     0.011 C 
HETATM   14  C24 UNL     1      -7.335   1.049  -1.252  1.00  0.00     0.039 C 
HETATM   15  C25 UNL     1      -6.171   0.727  -0.271  1.00  0.00     0.070 C 
HETATM   16  C26 UNL     1      -2.499   0.461   0.166  1.00  0.00    -0.033 C 
HETATM   17  C27 UNL     1      -2.937   1.294   1.397  1.00  0.00     0.016 C 
HETATM   18  C28 UNL     1      -1.401  -0.515   0.703  1.00  0.00     0.016 C 
HETATM   19  C29 UNL     1      -0.609  -1.208  -0.398  1.00  0.00     0.065 C 
ENDROOT
BRANCH   1  20
HETATM   20  O4  UNL     1       1.295  -0.448  -1.757  1.00  0.00    -0.325 OA
BRANCH  20  21
HETATM   21  C8  UNL     1       2.316   0.016  -0.839  1.00  0.00     0.269 C 
HETATM   22  C7  UNL     1       3.654   0.018  -1.583  1.00  0.00     0.095 C 
HETATM   23  C6  UNL     1       4.554  -1.144  -1.181  1.00  0.00     0.154 C 
HETATM   24  C5  UNL     1       4.776  -1.175   0.346  1.00  0.00     0.182 C 
HETATM   25  C30 UNL     1       3.527  -0.681   1.124  1.00  0.00     0.152 C 
HETATM   26  O7  UNL     1       2.341  -0.783   0.342  1.00  0.00    -0.353 OA
HETATM   27  C31 UNL     1       3.644   0.711   1.749  1.00  0.00     0.042 C 
BRANCH  23  28
HETATM   28  O3  UNL     1       3.997  -2.392  -1.612  1.00  0.00    -0.393 OA
HETATM   29  H10 UNL     1       3.642  -2.265  -2.513  1.00  0.00     0.210 HD
ENDBRANCH  23  28
BRANCH  24  30
HETATM   30  O2  UNL     1       5.900  -0.384   0.756  1.00  0.00    -0.351 OA
BRANCH  30  31
HETATM   31  C4  UNL     1       7.173  -0.929   0.424  1.00  0.00     0.263 C 
HETATM   32  C3  UNL     1       8.050  -0.790   1.667  1.00  0.00     0.095 C 
HETATM   33  C2  UNL     1       9.517  -0.655   1.293  1.00  0.00     0.156 C 
HETATM   34  C34 UNL     1       9.740   0.539   0.331  1.00  0.00     0.175 C 
HETATM   35  C32 UNL     1       8.417   0.941  -0.354  1.00  0.00     0.151 C 
HETATM   36  O8  UNL     1       7.714  -0.259  -0.716  1.00  0.00    -0.354 OA
HETATM   37  C33 UNL     1       8.614   1.784  -1.608  1.00  0.00     0.042 C 
BRANCH  33  38
HETATM   38  O1  UNL     1      10.242  -0.489   2.522  1.00  0.00    -0.388 OA
HETATM   39  C1  UNL     1      11.646  -0.677   2.375  1.00  0.00     0.202 C 
ENDBRANCH  33  38
BRANCH  34  40
HETATM   40  O9  UNL     1      10.716   0.125  -0.648  1.00  0.00    -0.390 OA
HETATM   41  H56 UNL     1      10.254  -0.466  -1.261  1.00  0.00     0.210 HD
ENDBRANCH  34  40
ENDBRANCH  30  31
ENDBRANCH  24  30
ENDBRANCH  20  21
ENDBRANCH   1  20
BRANCH  15  42
HETATM   42  O6  UNL     1      -6.002   1.805   0.651  1.00  0.00    -0.389 OA
HETATM   43  H39 UNL     1      -6.680   2.484   0.475  1.00  0.00     0.210 HD
ENDBRANCH  15  42
BRANCH  12  44
HETATM   44  C21 UNL     1      -9.261  -0.367   0.918  1.00  0.00     0.119 C 
HETATM   45  C22 UNL     1     -10.637  -0.821   0.444  1.00  0.00     0.040 C 
BRANCH  44  46
HETATM   46  O5  UNL     1      -9.280   1.056   1.018  1.00  0.00    -0.396 OA
HETATM   47  H34 UNL     1      -9.774   1.278   1.821  1.00  0.00     0.210 HD
ENDBRANCH  44  46
ENDBRANCH  12  44
TORSDOF 10
