REMARK  3 active torsions:
REMARK  status: ('A' for Active; 'I' for Inactive)
REMARK    1  A    between atoms: N2_7  and  C6_8 
REMARK    2  A    between atoms: C9_11  and  C10_12 
REMARK    3  A    between atoms: C13_15  and  N3_16 
ROOT
HETATM    1  C6  UNL     1      -1.862  -0.163  -0.871  1.00  0.00     0.030 A 
HETATM    2  C7  UNL     1      -0.959   0.069  -1.920  1.00  0.00     0.030 A 
HETATM    3  C8  UNL     1       0.428   0.149  -1.713  1.00  0.00     0.014 A 
HETATM    4  C9  UNL     1       0.979   0.010  -0.436  1.00  0.00    -0.026 A 
HETATM    5  C20 UNL     1       0.091  -0.206   0.622  1.00  0.00     0.014 A 
HETATM    6  C21 UNL     1      -1.295  -0.284   0.406  1.00  0.00     0.030 A 
ENDROOT
BRANCH   4   7
HETATM    7  C10 UNL     1       2.431   0.092  -0.214  1.00  0.00    -0.026 A 
HETATM    8  C11 UNL     1       3.181   1.172  -0.695  1.00  0.00     0.014 A 
HETATM    9  C12 UNL     1       4.568   1.254  -0.485  1.00  0.00     0.032 A 
HETATM   10  C13 UNL     1       5.264   0.259   0.213  1.00  0.00     0.060 A 
HETATM   11  C18 UNL     1       4.502  -0.822   0.695  1.00  0.00     0.032 A 
HETATM   12  C19 UNL     1       3.117  -0.905   0.487  1.00  0.00     0.014 A 
BRANCH  10  13
HETATM   13  N3  UNL     1       6.686   0.306   0.449  1.00  0.00    -0.221 N 
HETATM   14  N4  UNL     1       7.162  -0.777   1.181  1.00  0.00    -0.302 N 
HETATM   15  C14 UNL     1       8.422  -0.827   1.447  1.00  0.00     0.108 A 
ATOM     16  H4  UNL     1       6.530  -1.512   1.499  1.00  0.00     0.186 HD
HETATM   17  C15 UNL     1       9.422   0.161   1.050  1.00  0.00     0.024 A 
HETATM   18  C16 UNL     1       8.966   1.196   0.348  1.00  0.00     0.077 A 
HETATM   19  C17 UNL     1       7.530   1.332  -0.005  1.00  0.00     0.266 A 
HETATM   20  O1  UNL     1       7.232   2.328  -0.660  1.00  0.00    -0.266 OA
ENDBRANCH  10  13
ENDBRANCH   4   7
BRANCH   1  21
HETATM   21  N2  UNL     1      -3.230  -0.221  -1.081  1.00  0.00    -0.374 N 
HETATM   22  C5  UNL     1      -3.790  -0.403  -2.420  1.00  0.00     0.124 C 
HETATM   23  C4  UNL     1      -5.292  -0.461  -2.179  1.00  0.00     0.028 C 
HETATM   24  C3  UNL     1      -5.407  -1.193  -0.845  1.00  0.00     0.040 C 
HETATM   25  C2  UNL     1      -6.601  -0.751   0.001  1.00  0.00     0.278 C 
HETATM   26  C22 UNL     1      -4.157  -0.748  -0.068  1.00  0.00     0.118 C 
HETATM   27  N1  UNL     1      -6.018  -0.251   1.251  1.00  0.00     0.086 N 
HETATM   28  C1  UNL     1      -6.871   0.721   1.919  1.00  0.00     0.310 C 
HETATM   29  C23 UNL     1      -4.711   0.312   0.883  1.00  0.00     0.297 C 
ENDBRANCH   1  21
TORSDOF 3
