REMARK  12 active torsions:
REMARK  status: ('A' for Active; 'I' for Inactive)
REMARK    1  A    between atoms: C2_2  and  C3_3 
REMARK    2  A    between atoms: C2_2  and  C15_20 
REMARK    3  A    between atoms: C3_3  and  O1_4 
REMARK    4  A    between atoms: C3_3  and  C4_5 
REMARK    5  A    between atoms: C4_5  and  C6_7 
REMARK    6  A    between atoms: C6_7  and  O2_8 
REMARK    7  A    between atoms: C6_7  and  C7_9 
REMARK    8  A    between atoms: C7_9  and  C9_11 
REMARK    9  A    between atoms: C10_12  and  C11_13 
REMARK   10  A    between atoms: C12_14  and  C13_15 
REMARK   11  A    between atoms: C12_14  and  C14_17 
REMARK   12  A    between atoms: C13_15  and  O3_16 
REMARK       I    between atoms: C14_17  and  N1_18 
ROOT
HETATM    1  C4  UNL     1       0.191  -1.248  -1.319  1.00  0.00     0.040 C 
HETATM    2  C5  UNL     1       0.010  -2.762  -1.464  1.00  0.00     0.015 C 
ENDROOT
BRANCH   1   3
HETATM    3  C3  UNL     1      -1.145  -0.499  -1.002  1.00  0.00     0.130 C 
BRANCH   3   4
HETATM    4  C2  UNL     1      -2.261  -1.199  -0.165  1.00  0.00     0.040 C 
HETATM    5  C1  UNL     1      -1.807  -1.551   1.254  1.00  0.00     0.015 C 
BRANCH   4   6
HETATM    6  C15 UNL     1      -3.539  -0.294  -0.124  1.00  0.00     0.137 C 
HETATM    7  O5  UNL     1      -3.238   0.876   0.659  1.00  0.00    -0.349 OA
HETATM    8  C16 UNL     1      -4.373   1.680   0.987  1.00  0.00     0.161 C 
HETATM    9  C17 UNL     1      -3.890   2.842   1.837  1.00  0.00     0.079 C 
HETATM   10  C18 UNL     1      -5.153   2.132  -0.247  1.00  0.00     0.071 C 
HETATM   11  O6  UNL     1      -5.315   0.899   1.728  1.00  0.00    -0.350 OA
HETATM   12  C19 UNL     1      -6.201   1.035  -0.412  1.00  0.00     0.038 C 
HETATM   13  C20 UNL     1      -5.893   0.057   0.719  1.00  0.00     0.131 C 
HETATM   14  C21 UNL     1      -4.822  -1.000   0.390  1.00  0.00     0.040 C 
HETATM   15  C22 UNL     1      -5.346  -2.055  -0.581  1.00  0.00     0.015 C 
ENDBRANCH   4   6
ENDBRANCH   3   4
BRANCH   3  16
HETATM   16  O1  UNL     1      -1.734  -0.218  -2.295  1.00  0.00    -0.395 OA
HETATM   17  H6  UNL     1      -1.203   0.487  -2.706  1.00  0.00     0.210 HD
ENDBRANCH   3  16
ENDBRANCH   1   3
BRANCH   1  18
HETATM   18  C6  UNL     1       1.359  -0.844  -0.376  1.00  0.00     0.131 C 
BRANCH  18  19
HETATM   19  O2  UNL     1       1.071  -1.285   0.948  1.00  0.00    -0.394 OA
HETATM   20  H12 UNL     1       1.618  -0.762   1.561  1.00  0.00     0.210 HD
ENDBRANCH  18  19
BRANCH  18  21
HETATM   21  C7  UNL     1       2.763  -1.386  -0.788  1.00  0.00     0.033 C 
HETATM   22  C8  UNL     1       3.117  -1.074  -2.247  1.00  0.00     0.017 C 
BRANCH  21  23
HETATM   23  C9  UNL     1       3.828  -0.904   0.194  1.00  0.00    -0.020 C 
HETATM   24  C10 UNL     1       4.753   0.048  -0.012  1.00  0.00    -0.003 C 
BRANCH  24  25
HETATM   25  C11 UNL     1       5.748   0.395   0.984  1.00  0.00     0.014 C 
HETATM   26  C12 UNL     1       6.697   1.348   0.889  1.00  0.00     0.033 C 
BRANCH  26  27
HETATM   27  C13 UNL     1       7.784   1.596   1.897  1.00  0.00     0.208 C 
BRANCH  27  28
HETATM   28  O3  UNL     1       7.781   0.623   2.938  1.00  0.00    -0.396 OA
HETATM   29  H22 UNL     1       8.194  -0.176   2.565  1.00  0.00     0.209 HD
ENDBRANCH  27  28
ENDBRANCH  26  27
BRANCH  26  30
HETATM   30  C14 UNL     1       6.804   2.256  -0.282  1.00  0.00     0.247 C 
HETATM   31  N1  UNL     1       5.725   3.057  -0.485  1.00  0.00    -0.366 N 
HETATM   32  H23 UNL     1       5.776   3.738  -1.229  1.00  0.00     0.159 HD
HETATM   33  H24 UNL     1       4.928   3.068   0.135  1.00  0.00     0.159 HD
HETATM   34  O4  UNL     1       7.812   2.325  -0.967  1.00  0.00    -0.268 OA
ENDBRANCH  26  30
ENDBRANCH  24  25
ENDBRANCH  21  23
ENDBRANCH  18  21
ENDBRANCH   1  18
TORSDOF 12
