REMARK  9 active torsions:
REMARK  status: ('A' for Active; 'I' for Inactive)
REMARK       I    between atoms: N1_1  and  C1_2 
REMARK       I    between atoms: C1_2  and  N2_3 
REMARK    1  A    between atoms: N3_4  and  C2_6 
REMARK    2  A    between atoms: C2_6  and  C3_7 
REMARK    3  A    between atoms: C3_7  and  C4_8 
REMARK    4  A    between atoms: C4_8  and  C5_9 
REMARK    5  A    between atoms: C5_9  and  O1_10 
REMARK    6  A    between atoms: C19_25  and  S1_26 
REMARK    7  A    between atoms: C28_38  and  C29_39 
REMARK    8  A    between atoms: C29_39  and  O6_40 
REMARK    9  A    between atoms: C35_46  and  O7_47 
ROOT
HETATM    1  C2  UNL     1       4.099  -0.655   0.152  1.00  0.00     0.171 C 
HETATM    2  O2  UNL     1       4.226   0.802   0.379  1.00  0.00    -0.316 OA
HETATM    3  C11 UNL     1       3.381   1.626  -0.315  1.00  0.00     0.072 C 
HETATM    4  C12 UNL     1       2.591   2.488   0.447  1.00  0.00     0.037 C 
HETATM    5  C13 UNL     1       1.530   3.172  -0.151  1.00  0.00     0.010 C 
HETATM    6  C14 UNL     1       1.271   3.023  -1.521  1.00  0.00    -0.058 C 
HETATM    7  C15 UNL     1       2.185   2.297  -2.294  1.00  0.00     0.010 C 
HETATM    8  C16 UNL     1       3.237   1.593  -1.695  1.00  0.00     0.037 C 
HETATM    9  C17 UNL     1       0.028   3.645  -2.110  1.00  0.00     0.040 C 
HETATM   10  C18 UNL     1      -0.724   2.899  -3.227  1.00  0.00     0.028 C 
HETATM   11  C19 UNL     1      -1.373   1.489  -2.983  1.00  0.00     0.140 C 
HETATM   12  C20 UNL     1      -1.658   1.100  -1.495  1.00  0.00     0.053 C 
HETATM   13  C21 UNL     1      -3.089   1.586  -1.109  1.00  0.00    -0.013 C 
HETATM   14  C22 UNL     1      -4.071   0.657  -1.124  1.00  0.00    -0.050 C 
HETATM   15  C23 UNL     1      -3.791  -0.561  -1.984  1.00  0.00     0.043 C 
HETATM   16  C24 UNL     1      -2.702  -1.348  -1.278  1.00  0.00     0.016 C 
HETATM   17  C25 UNL     1      -3.308  -2.166  -0.099  1.00  0.00     0.039 C 
HETATM   18  C26 UNL     1      -4.731  -1.840   0.476  1.00  0.00     0.123 C 
HETATM   19  C27 UNL     1      -5.900  -2.582  -0.236  1.00  0.00     0.039 C 
HETATM   20  C28 UNL     1      -7.233  -2.840   0.544  1.00  0.00     0.023 C 
HETATM   21  C30 UNL     1      -8.473  -2.145  -0.092  1.00  0.00     0.101 C 
HETATM   22  C31 UNL     1      -8.417  -0.687   0.036  1.00  0.00    -0.101 C 
HETATM   23  C32 UNL     1      -8.113   0.460   0.212  1.00  0.00    -0.066 C 
HETATM   24  C33 UNL     1      -7.392   1.650   0.554  1.00  0.00     0.029 C 
HETATM   25  C34 UNL     1      -8.081   2.710   1.157  1.00  0.00     0.057 C 
HETATM   26  C35 UNL     1      -7.357   3.764   1.699  1.00  0.00     0.067 C 
HETATM   27  C36 UNL     1      -5.969   3.747   1.689  1.00  0.00     0.037 C 
HETATM   28  C37 UNL     1      -5.286   2.684   1.081  1.00  0.00     0.014 C 
HETATM   29  C38 UNL     1      -5.978   1.650   0.431  1.00  0.00    -0.006 C 
HETATM   30  C39 UNL     1      -5.291   0.472  -0.257  1.00  0.00     0.185 C 
HETATM   31  O8  UNL     1      -4.968  -0.466   0.791  1.00  0.00    -0.371 OA
HETATM   32  C40 UNL     1      -1.598  -0.339  -0.800  1.00  0.00     0.104 A 
HETATM   33  C41 UNL     1      -0.206  -0.840  -0.453  1.00  0.00     0.082 A 
HETATM   34  C42 UNL     1       0.629  -1.431  -1.388  1.00  0.00     0.010 C 
HETATM   35  C43 UNL     1       2.013  -1.463  -1.169  1.00  0.00     0.011 C 
HETATM   36  C44 UNL     1       2.587  -1.021   0.038  1.00  0.00    -0.003 C 
HETATM   37  C45 UNL     1       1.702  -0.669   1.068  1.00  0.00     0.011 C 
HETATM   38  C46 UNL     1       0.332  -0.552   0.816  1.00  0.00     0.010 C 
HETATM   39 NA1  UNL     1       0.000   0.000   0.000  1.00  0.00    -0.398 Na
ATOM     40  HA1 UNL     1       0.631   0.606   0.524  1.00  0.00     0.155 HD
ENDROOT
BRANCH   1  41
HETATM   41  N3  UNL     1       4.952  -1.133  -0.952  1.00  0.00    -0.331 N 
HETATM   42  C1  UNL     1       5.056  -2.343  -1.331  1.00  0.00     0.146 C 
HETATM   43  N1  UNL     1       4.451  -3.476  -0.919  1.00  0.00    -0.376 N 
HETATM   44  N2  UNL     1       5.886  -2.642  -2.361  1.00  0.00    -0.274 NA
HETATM   45  H1  UNL     1       3.845  -3.407  -0.112  1.00  0.00     0.158 HD
HETATM   46  H2  UNL     1       5.047  -4.295  -0.914  1.00  0.00     0.158 HD
HETATM   47  H3  UNL     1       5.398  -3.192  -3.059  1.00  0.00     0.127 HD
HETATM   48  H4  UNL     1       6.196  -1.776  -2.797  1.00  0.00     0.127 HD
ATOM     49  H3  UNL     1       5.504  -0.436  -1.453  1.00  0.00     0.165 HD
ENDBRANCH   1  41
BRANCH   1  50
HETATM   50  C3  UNL     1       4.684  -1.243   1.482  1.00  0.00     0.070 C 
BRANCH  50  51
HETATM   51  C4  UNL     1       6.218  -1.184   1.698  1.00  0.00     0.043 C 
BRANCH  51  52
HETATM   52  C5  UNL     1       6.912   0.204   1.787  1.00  0.00     0.058 C 
HETATM   53  C6  UNL     1       7.376   0.754   0.423  1.00  0.00     0.038 C 
HETATM   54  C7  UNL     1       8.458  -0.095  -0.248  1.00  0.00     0.003 C 
HETATM   55  C8  UNL     1       9.401  -0.777   0.742  1.00  0.00     0.000 C 
HETATM   56  C9  UNL     1       9.493  -0.007   2.048  1.00  0.00     0.003 C 
HETATM   57  C10 UNL     1       8.137   0.161   2.739  1.00  0.00     0.038 C 
BRANCH  52  58
HETATM   58  O1  UNL     1       5.998   1.130   2.383  1.00  0.00    -0.390 OA
HETATM   59  H9  UNL     1       5.361   1.375   1.679  1.00  0.00     0.210 HD
ENDBRANCH  52  58
ENDBRANCH  51  52
ENDBRANCH  50  51
ENDBRANCH   1  50
BRANCH  11  60
HETATM   60  S1  UNL     1      -0.716   0.300  -4.172  1.00  0.00     0.106 S 
HETATM   61  O3  UNL     1      -1.051   0.918  -5.458  1.00  0.00    -0.595 OA
HETATM   62  O4  UNL     1       0.718   0.226  -3.916  1.00  0.00    -0.595 OA
HETATM   63  O5  UNL     1      -1.439  -0.946  -3.937  1.00  0.00    -0.595 OA
ENDBRANCH  11  60
BRANCH  20  64
HETATM   64  C29 UNL     1      -7.162  -2.625   2.061  1.00  0.00     0.169 C 
BRANCH  64  65
HETATM   65  O6  UNL     1      -8.357  -3.096   2.682  1.00  0.00    -0.400 OA
HETATM   66  H42 UNL     1      -8.331  -4.068   2.661  1.00  0.00     0.209 HD
ENDBRANCH  64  65
ENDBRANCH  20  64
BRANCH  26  67
HETATM   67  O7  UNL     1      -7.980   4.812   2.313  1.00  0.00    -0.361 OA
HETATM   68  H46 UNL     1      -8.936   4.691   2.213  1.00  0.00     0.217 HD
ENDBRANCH  26  67
TORSDOF 9
