REMARK  20 active torsions:
REMARK  status: ('A' for Active; 'I' for Inactive)
REMARK    1  A    between atoms: C2_2  and  C18_24 
REMARK    2  A    between atoms: C3_3  and  C4_4 
REMARK    3  A    between atoms: C4_4  and  O2_6 
REMARK    4  A    between atoms: O2_6  and  C5_7 
REMARK    5  A    between atoms: C5_7  and  C6_8 
REMARK    6  A    between atoms: C6_8  and  C7_9 
REMARK    7  A    between atoms: C7_9  and  C8_10 
REMARK    8  A    between atoms: C8_10  and  C9_11 
REMARK    9  A    between atoms: C9_11  and  C10_12 
REMARK   10  A    between atoms: C10_12  and  C11_13 
REMARK   11  A    between atoms: C11_13  and  C12_14 
REMARK       I    between atoms: C12_14  and  N1_16 
REMARK   12  A    between atoms: N1_16  and  C13_17 
REMARK   13  A    between atoms: C18_24  and  C19_25 
REMARK   14  A    between atoms: C21_28  and  C22_29 
REMARK   15  A    between atoms: C22_29  and  C23_30 
REMARK   16  A    between atoms: C24_31  and  C25_32 
REMARK   17  A    between atoms: C25_32  and  C27_34 
REMARK   18  A    between atoms: C27_34  and  O6_36 
REMARK   19  A    between atoms: C29_37  and  O7_38 
REMARK   20  A    between atoms: C30_39  and  O8_40 
ROOT
HETATM    1  C1  UNL     1      -2.233  -0.059  -1.528  1.00  0.00     0.043 C 
HETATM    2  C2  UNL     1      -2.250   0.729  -0.245  1.00  0.00    -0.075 C 
HETATM    3  C3  UNL     1      -1.151   1.050   0.470  1.00  0.00     0.084 C 
ENDROOT
BRANCH   3   4
HETATM    4  C4  UNL     1       0.238   0.615   0.177  1.00  0.00     0.283 C 
HETATM    5  O1  UNL     1       0.570  -0.229  -0.636  1.00  0.00    -0.260 OA
BRANCH   4   6
HETATM    6  O2  UNL     1       1.065   1.319   0.993  1.00  0.00    -0.318 OA
BRANCH   6   7
HETATM    7  C5  UNL     1       2.461   0.999   0.872  1.00  0.00     0.179 C 
BRANCH   7   8
HETATM    8  C6  UNL     1       3.089   1.827  -0.248  1.00  0.00     0.027 C 
BRANCH   8   9
HETATM    9  C7  UNL     1       4.583   1.560  -0.444  1.00  0.00     0.002 C 
BRANCH   9  10
HETATM   10  C8  UNL     1       4.872   0.143  -0.948  1.00  0.00     0.000 C 
BRANCH  10  11
HETATM   11  C9  UNL     1       6.323  -0.065  -1.392  1.00  0.00     0.000 C 
BRANCH  11  12
HETATM   12  C10 UNL     1       7.334   0.102  -0.257  1.00  0.00     0.009 C 
BRANCH  12  13
HETATM   13  C11 UNL     1       8.736  -0.319  -0.698  1.00  0.00     0.103 C 
BRANCH  13  14
HETATM   14  C12 UNL     1       9.769  -0.107   0.394  1.00  0.00     0.218 C 
HETATM   15  O3  UNL     1       9.553   0.525   1.421  1.00  0.00    -0.274 OA
HETATM   16  N1  UNL     1      10.992  -0.669   0.093  1.00  0.00    -0.348 N 
HETATM   17  H19 UNL     1      11.012  -1.391  -0.619  1.00  0.00     0.163 HD
BRANCH  16  18
HETATM   18  C13 UNL     1      12.072  -0.685   1.080  1.00  0.00     0.176 C 
HETATM   19  C14 UNL     1      12.765   0.675   1.207  1.00  0.00     0.036 C 
HETATM   20  C15 UNL     1      13.710   0.930   0.037  1.00  0.00     0.022 C 
HETATM   21  C16 UNL     1      14.754  -0.172  -0.010  1.00  0.00     0.122 C 
HETATM   22  N2  UNL     1      14.159  -1.487  -0.023  1.00  0.00    -0.359 N 
HETATM   23  C17 UNL     1      13.037  -1.819   0.689  1.00  0.00     0.240 C 
HETATM   24  H27 UNL     1      14.754  -2.283  -0.223  1.00  0.00     0.162 HD
HETATM   25  O4  UNL     1      12.752  -3.008   0.847  1.00  0.00    -0.271 OA
ENDBRANCH  16  18
ENDBRANCH  13  14
ENDBRANCH  12  13
ENDBRANCH  11  12
ENDBRANCH  10  11
ENDBRANCH   9  10
ENDBRANCH   8   9
ENDBRANCH   7   8
ENDBRANCH   6   7
ENDBRANCH   4   6
ENDBRANCH   3   4
BRANCH   2  26
HETATM   26  C18 UNL     1      -3.621   1.188   0.227  1.00  0.00     0.068 C 
BRANCH  26  27
HETATM   27  C19 UNL     1      -4.405   0.079   0.959  1.00  0.00     0.156 C 
HETATM   28  O5  UNL     1      -4.774  -1.025   0.116  1.00  0.00    -0.382 OA
HETATM   29  C20 UNL     1      -5.762  -0.735  -0.871  1.00  0.00     0.175 C 
HETATM   30  C21 UNL     1      -7.081  -0.276  -0.242  1.00  0.00     0.044 C 
HETATM   31  C29 UNL     1      -6.794   0.924   0.679  1.00  0.00     0.155 C 
HETATM   32  C30 UNL     1      -5.659   0.611   1.669  1.00  0.00     0.176 C 
BRANCH  30  33
HETATM   33  C22 UNL     1      -8.103   0.038  -1.355  1.00  0.00     0.036 C 
BRANCH  33  34
HETATM   34  C23 UNL     1      -9.532   0.011  -0.885  1.00  0.00    -0.030 C 
HETATM   35  C24 UNL     1     -10.445  -0.867  -1.334  1.00  0.00    -0.024 C 
BRANCH  35  36
HETATM   36  C25 UNL     1     -11.902  -0.987  -0.923  1.00  0.00     0.032 C 
HETATM   37  C26 UNL     1     -12.261  -2.474  -0.759  1.00  0.00     0.017 C 
BRANCH  36  38
HETATM   38  C27 UNL     1     -12.364  -0.149   0.300  1.00  0.00     0.121 C 
HETATM   39  C28 UNL     1     -11.831  -0.633   1.646  1.00  0.00     0.040 C 
BRANCH  38  40
HETATM   40  O6  UNL     1     -13.795  -0.166   0.382  1.00  0.00    -0.395 OA
HETATM   41  H46 UNL     1     -14.135   0.261  -0.422  1.00  0.00     0.210 HD
ENDBRANCH  38  40
ENDBRANCH  36  38
ENDBRANCH  35  36
ENDBRANCH  33  34
ENDBRANCH  30  33
BRANCH  31  42
HETATM   42  O7  UNL     1      -7.958   1.274   1.431  1.00  0.00    -0.392 OA
HETATM   43  H48 UNL     1      -7.959   0.680   2.212  1.00  0.00     0.210 HD
ENDBRANCH  31  42
BRANCH  32  44
HETATM   44  O8  UNL     1      -6.150  -0.388   2.589  1.00  0.00    -0.390 OA
HETATM   45  H50 UNL     1      -5.961  -1.258   2.182  1.00  0.00     0.210 HD
ENDBRANCH  32  44
ENDBRANCH  26  27
ENDBRANCH   2  26
TORSDOF 20
