REMARK  12 active torsions:
REMARK  status: ('A' for Active; 'I' for Inactive)
REMARK    1  A    between atoms: C2_2  and  C3_3 
REMARK    2  A    between atoms: C2_2  and  C26_31 
REMARK    3  A    between atoms: C3_3  and  C4_4 
REMARK    4  A    between atoms: C4_4  and  C5_5 
REMARK    5  A    between atoms: C5_5  and  C7_7 
REMARK    6  A    between atoms: C8_8  and  O1_9 
REMARK    7  A    between atoms: C9_10  and  O2_11 
REMARK    8  A    between atoms: C11_13  and  O3_14 
REMARK    9  A    between atoms: C13_16  and  O4_17 
REMARK   10  A    between atoms: C16_20  and  O5_21 
REMARK   11  A    between atoms: C26_31  and  C28_33 
REMARK   12  A    between atoms: C28_33  and  O6_34 
ROOT
HETATM    1  C7  UNL     1      -1.177  -1.752   0.616  1.00  0.00     0.029 C 
HETATM    2  C8  UNL     1      -0.569  -1.461  -0.764  1.00  0.00     0.152 C 
HETATM    3  C9  UNL     1       0.040  -0.062  -0.626  1.00  0.00     0.155 C 
HETATM    4  C10 UNL     1       0.469   0.070   0.857  1.00  0.00     0.060 C 
HETATM    5  C11 UNL     1       1.908   0.542   1.194  1.00  0.00     0.071 C 
HETATM    6  C12 UNL     1       2.266   1.900   0.570  1.00  0.00     0.071 C 
HETATM    7  C13 UNL     1       3.719   2.278   0.851  1.00  0.00     0.126 C 
HETATM    8  C14 UNL     1       4.682   1.351   0.099  1.00  0.00     0.025 C 
HETATM    9  C15 UNL     1       4.806   1.834  -1.367  1.00  0.00     0.039 C 
HETATM   10  C16 UNL     1       5.801   1.008  -2.171  1.00  0.00     0.118 C 
HETATM   11  C17 UNL     1       5.528  -0.488  -2.085  1.00  0.00     0.032 C 
HETATM   12  C18 UNL     1       4.330  -0.835  -1.202  1.00  0.00     0.012 C 
HETATM   13  C19 UNL     1       4.345  -0.187   0.217  1.00  0.00    -0.031 C 
HETATM   14  C20 UNL     1       5.530  -0.847   0.994  1.00  0.00     0.016 C 
HETATM   15  C21 UNL     1       3.022  -0.543   1.058  1.00  0.00     0.029 C 
HETATM   16  C22 UNL     1       2.432  -1.926   0.701  1.00  0.00     0.009 C 
HETATM   17  C23 UNL     1       1.209  -2.314   1.532  1.00  0.00     0.011 C 
HETATM   18  C24 UNL     1       0.035  -1.283   1.540  1.00  0.00    -0.029 C 
HETATM   19  C25 UNL     1      -0.372  -1.114   3.020  1.00  0.00     0.016 C 
ENDROOT
BRANCH   1  20
HETATM   20  C5  UNL     1      -2.564  -1.074   0.967  1.00  0.00    -0.011 C 
HETATM   21  C6  UNL     1      -3.354  -1.995   1.918  1.00  0.00     0.010 C 
BRANCH  20  22
HETATM   22  C4  UNL     1      -3.467  -0.680  -0.226  1.00  0.00     0.009 C 
BRANCH  22  23
HETATM   23  C3  UNL     1      -4.762   0.056   0.175  1.00  0.00     0.034 C 
BRANCH  23  24
HETATM   24  C2  UNL     1      -5.590   0.646  -0.963  1.00  0.00    -0.083 C 
HETATM   25  C1  UNL     1      -5.355   0.370  -2.260  1.00  0.00     0.015 C 
BRANCH  24  26
HETATM   26  C26 UNL     1      -6.701   1.604  -0.499  1.00  0.00     0.033 C 
HETATM   27  C27 UNL     1      -7.178   2.598  -1.567  1.00  0.00     0.017 C 
BRANCH  26  28
HETATM   28  C28 UNL     1      -7.903   0.845   0.094  1.00  0.00     0.172 C 
BRANCH  28  29
HETATM   29  O6  UNL     1      -8.548   0.025  -0.874  1.00  0.00    -0.400 OA
HETATM   30  H48 UNL     1      -7.872  -0.586  -1.218  1.00  0.00     0.209 HD
ENDBRANCH  28  29
ENDBRANCH  26  28
ENDBRANCH  24  26
ENDBRANCH  23  24
ENDBRANCH  22  23
ENDBRANCH  20  22
ENDBRANCH   1  20
BRANCH   2  31
HETATM   31  O1  UNL     1      -1.447  -1.564  -1.872  1.00  0.00    -0.393 OA
HETATM   32  H13 UNL     1      -0.908  -1.828  -2.640  1.00  0.00     0.210 HD
ENDBRANCH   2  31
BRANCH   3  33
HETATM   33  O2  UNL     1       1.075   0.105  -1.580  1.00  0.00    -0.392 OA
HETATM   34  H15 UNL     1       0.631   0.260  -2.433  1.00  0.00     0.210 HD
ENDBRANCH   3  33
BRANCH   5  35
HETATM   35  O3  UNL     1       1.821   0.815   2.625  1.00  0.00    -0.389 OA
HETATM   36  H17 UNL     1       2.604   1.362   2.852  1.00  0.00     0.210 HD
ENDBRANCH   5  35
BRANCH   7  37
HETATM   37  O4  UNL     1       3.960   2.216   2.257  1.00  0.00    -0.395 OA
HETATM   38  H21 UNL     1       4.925   2.134   2.418  1.00  0.00     0.210 HD
ENDBRANCH   7  37
BRANCH  10  39
HETATM   39  O5  UNL     1       7.124   1.258  -1.702  1.00  0.00    -0.396 OA
HETATM   40  H26 UNL     1       7.316   2.201  -1.851  1.00  0.00     0.210 HD
ENDBRANCH  10  39
TORSDOF 12
