REMARK  6 active torsions:
REMARK  status: ('A' for Active; 'I' for Inactive)
REMARK    1  A    between atoms: C9_10  and  C10_11 
REMARK    2  A    between atoms: C11_13  and  O3_14 
REMARK    3  A    between atoms: C12_15  and  C13_16 
REMARK    4  A    between atoms: C14_18  and  O5_19 
REMARK    5  A    between atoms: C16_21  and  C17_22 
REMARK    6  A    between atoms: C17_22  and  C18_23 
ROOT
HETATM    1  C1  UNL     1       3.100   2.817  -0.907  1.00  0.00     0.043 C 
HETATM    2  C2  UNL     1       3.518   1.409  -0.598  1.00  0.00    -0.087 C 
HETATM    3  C3  UNL     1       3.403   0.369  -1.447  1.00  0.00    -0.024 C 
HETATM    4  C4  UNL     1       2.715   0.301  -2.772  1.00  0.00     0.030 C 
HETATM    5  C5  UNL     1       1.180   0.143  -2.750  1.00  0.00     0.042 C 
HETATM    6  C6  UNL     1       0.468  -0.717  -1.646  1.00  0.00     0.069 C 
HETATM    7  C7  UNL     1       1.151  -2.098  -1.509  1.00  0.00     0.047 C 
HETATM    8  O1  UNL     1      -0.829  -1.027  -2.256  1.00  0.00    -0.338 OA
HETATM    9  C8  UNL     1      -1.728  -1.583  -1.385  1.00  0.00     0.095 A 
HETATM   10  C9  UNL     1      -2.466  -2.711  -1.756  1.00  0.00     0.070 A 
HETATM   11  C11 UNL     1      -3.420  -3.239  -0.873  1.00  0.00     0.097 A 
HETATM   12  C12 UNL     1      -3.653  -2.610   0.356  1.00  0.00     0.069 A 
HETATM   13  C14 UNL     1      -2.930  -1.454   0.698  1.00  0.00     0.091 A 
HETATM   14  C15 UNL     1      -1.949  -0.947  -0.162  1.00  0.00     0.015 A 
HETATM   15  C16 UNL     1      -1.200   0.345   0.087  1.00  0.00     0.032 C 
HETATM   16  C21 UNL     1       0.291   0.140  -0.302  1.00  0.00     0.034 C 
HETATM   17  C22 UNL     1       1.260  -0.277   0.825  1.00  0.00     0.006 A 
HETATM   18  C23 UNL     1       1.643   0.844   1.789  1.00  0.00    -0.001 A 
HETATM   19  C24 UNL     1       3.047   1.380   1.951  1.00  0.00     0.010 C 
HETATM   20  C25 UNL     1       4.047   1.147   0.804  1.00  0.00     0.034 C 
HETATM   21  C26 UNL     1       1.169  -0.488   2.346  1.00  0.00    -0.039 A 
HETATM   22  C27 UNL     1      -0.126  -0.513   3.112  1.00  0.00     0.015 C 
HETATM   23  C28 UNL     1       2.182  -1.457   2.927  1.00  0.00     0.015 C 
ENDROOT
BRANCH  15  24
HETATM   24  C17 UNL     1      -1.916   1.461  -0.742  1.00  0.00     0.014 C 
BRANCH  24  25
HETATM   25  C18 UNL     1      -1.944   2.893  -0.165  1.00  0.00    -0.022 C 
HETATM   26  C19 UNL     1      -0.586   3.582  -0.179  1.00  0.00     0.009 C 
HETATM   27  C20 UNL     1      -2.576   2.964   1.225  1.00  0.00     0.009 C 
ENDBRANCH  24  25
ENDBRANCH  15  24
BRANCH  13  28
HETATM   28  O5  UNL     1      -3.176  -0.763   1.857  1.00  0.00    -0.359 OA
HETATM   29  H15 UNL     1      -3.879  -1.235   2.360  1.00  0.00     0.217 HD
ENDBRANCH  13  28
BRANCH  10  30
HETATM   30  C10 UNL     1      -2.225  -3.333  -3.071  1.00  0.00     0.275 C 
HETATM   31  O2  UNL     1      -2.841  -4.345  -3.399  1.00  0.00    -0.301 OA
ENDBRANCH  10  30
BRANCH  12  32
HETATM   32  C13 UNL     1      -4.676  -3.155   1.271  1.00  0.00     0.275 C 
HETATM   33  O4  UNL     1      -4.908  -2.603   2.345  1.00  0.00    -0.301 OA
ENDBRANCH  12  32
BRANCH  11  34
HETATM   34  O3  UNL     1      -4.150  -4.359  -1.187  1.00  0.00    -0.359 OA
HETATM   35  H13 UNL     1      -3.879  -4.673  -2.082  1.00  0.00     0.217 HD
ENDBRANCH  11  34
TORSDOF 6
