REMARK  8 active torsions:
REMARK  status: ('A' for Active; 'I' for Inactive)
REMARK    1  A    between atoms: C5_5  and  O1_6 
REMARK    2  A    between atoms: C9_10  and  C10_11 
REMARK    3  A    between atoms: C10_11  and  C11_12 
REMARK    4  A    between atoms: C11_12  and  C12_13 
REMARK    5  A    between atoms: C14_15  and  C15_16 
REMARK    6  A    between atoms: C15_16  and  C16_17 
REMARK    7  A    between atoms: C16_17  and  C17_18 
REMARK    8  A    between atoms: C23_24  and  O2_25 
ROOT
HETATM    1  C12 UNL     1      -0.331   1.274  -1.224  1.00  0.00    -0.087 C 
HETATM    2  C13 UNL     1      -0.672   1.160  -2.686  1.00  0.00     0.043 C 
HETATM    3  C14 UNL     1       0.661   2.030  -0.712  1.00  0.00    -0.024 C 
ENDROOT
BRANCH   3   4
HETATM    4  C15 UNL     1       1.625   2.921  -1.442  1.00  0.00     0.030 C 
BRANCH   4   5
HETATM    5  C16 UNL     1       3.099   2.736  -1.039  1.00  0.00     0.042 C 
BRANCH   5   6
HETATM    6  C17 UNL     1       3.774   1.369  -1.351  1.00  0.00     0.065 C 
HETATM    7  C18 UNL     1       3.534   0.967  -2.815  1.00  0.00     0.046 C 
HETATM    8  C19 UNL     1       5.275   1.526  -1.034  1.00  0.00     0.043 C 
HETATM    9  C20 UNL     1       6.019   0.208  -1.163  1.00  0.00     0.044 C 
HETATM   10  C21 UNL     1       5.247  -0.899  -0.512  1.00  0.00    -0.021 A 
HETATM   11  C22 UNL     1       5.893  -2.109  -0.219  1.00  0.00     0.046 A 
HETATM   12  C27 UNL     1       3.884  -0.755  -0.219  1.00  0.00     0.082 A 
HETATM   13  C23 UNL     1       5.184  -3.146   0.378  1.00  0.00     0.066 A 
HETATM   14  C24 UNL     1       3.839  -3.000   0.688  1.00  0.00     0.046 A 
HETATM   15  C25 UNL     1       3.176  -1.799   0.401  1.00  0.00    -0.025 A 
HETATM   16  C26 UNL     1       1.715  -1.661   0.720  1.00  0.00     0.051 C 
HETATM   17  O3  UNL     1       3.176   0.388  -0.487  1.00  0.00    -0.340 OA
BRANCH  13  18
HETATM   18  O2  UNL     1       5.781  -4.334   0.678  1.00  0.00    -0.361 OA
HETATM   19  H36 UNL     1       6.714  -4.287   0.413  1.00  0.00     0.217 HD
ENDBRANCH  13  18
ENDBRANCH   5   6
ENDBRANCH   4   5
ENDBRANCH   3   4
BRANCH   1  20
HETATM   20  C11 UNL     1      -1.189   0.424  -0.298  1.00  0.00     0.034 C 
BRANCH  20  21
HETATM   21  C10 UNL     1      -2.640   0.926  -0.205  1.00  0.00     0.014 C 
BRANCH  21  22
HETATM   22  C9  UNL     1      -3.438   0.419   1.032  1.00  0.00     0.024 C 
HETATM   23  C2  UNL     1      -4.628   1.327   1.413  1.00  0.00    -0.084 C 
HETATM   24  C1  UNL     1      -5.006   2.453   0.780  1.00  0.00     0.015 C 
HETATM   25  C3  UNL     1      -5.480   0.852   2.574  1.00  0.00     0.036 C 
HETATM   26  C4  UNL     1      -4.845  -0.298   3.340  1.00  0.00     0.037 C 
HETATM   27  C5  UNL     1      -4.440  -1.468   2.434  1.00  0.00     0.127 C 
HETATM   28  C6  UNL     1      -3.966  -1.067   0.989  1.00  0.00    -0.014 C 
HETATM   29  C7  UNL     1      -5.103  -1.231  -0.055  1.00  0.00     0.018 C 
HETATM   30  C8  UNL     1      -2.882  -2.091   0.590  1.00  0.00     0.018 C 
BRANCH  27  31
HETATM   31  O1  UNL     1      -5.506  -2.417   2.370  1.00  0.00    -0.395 OA
HETATM   32  H8  UNL     1      -5.695  -2.711   3.277  1.00  0.00     0.210 HD
ENDBRANCH  27  31
ENDBRANCH  21  22
ENDBRANCH  20  21
ENDBRANCH   1  20
TORSDOF 8
