REMARK  10 active torsions:
REMARK  status: ('A' for Active; 'I' for Inactive)
REMARK    1  A    between atoms: C2_2  and  O1_3 
REMARK    2  A    between atoms: O1_3  and  C3_4 
REMARK    3  A    between atoms: C14_15  and  O2_16 
REMARK    4  A    between atoms: C19_21  and  O3_22 
REMARK    5  A    between atoms: O3_22  and  C20_23 
REMARK    6  A    between atoms: C21_25  and  C22_26 
REMARK    7  A    between atoms: C22_26  and  O5_27 
REMARK    8  A    between atoms: C23_28  and  O6_29 
REMARK    9  A    between atoms: C24_30  and  O7_31 
REMARK   10  A    between atoms: C25_32  and  O8_33 
ROOT
HETATM    1  C3  UNL     1      -7.695  -0.075   0.337  1.00  0.00     0.260 C 
HETATM    2  C4  UNL     1      -7.498   0.828  -0.895  1.00  0.00     0.065 C 
HETATM    3  C5  UNL     1      -6.170   0.536  -1.605  1.00  0.00    -0.007 C 
HETATM    4  C6  UNL     1      -6.035   1.392  -2.862  1.00  0.00     0.010 C 
HETATM    5  C7  UNL     1      -5.033   0.790  -0.593  1.00  0.00     0.027 C 
HETATM    6  C8  UNL     1      -5.392   0.219   0.810  1.00  0.00     0.130 C 
HETATM    7  C9  UNL     1      -4.133  -0.496   1.329  1.00  0.00     0.042 C 
HETATM    8  C10 UNL     1      -2.977   0.163   0.553  1.00  0.00    -0.029 C 
HETATM    9  C11 UNL     1      -2.712   1.556   1.206  1.00  0.00     0.016 C 
HETATM   10  C12 UNL     1      -1.669  -0.667   0.510  1.00  0.00     0.006 C 
HETATM   11  C13 UNL     1      -0.964  -0.773   1.864  1.00  0.00     0.038 C 
HETATM   12  C14 UNL     1       0.354  -1.551   1.779  1.00  0.00     0.124 C 
HETATM   13  C15 UNL     1       1.373  -0.745   0.944  1.00  0.00     0.034 C 
HETATM   14  C16 UNL     1       2.829  -1.326   0.793  1.00  0.00    -0.015 C 
HETATM   15  C17 UNL     1       3.438  -1.783   2.139  1.00  0.00     0.018 C 
HETATM   16  C18 UNL     1       2.853  -2.571  -0.123  1.00  0.00     0.018 C 
HETATM   17  C19 UNL     1       3.756  -0.172   0.256  1.00  0.00     0.133 C 
HETATM   18  C26 UNL     1       3.010   0.947  -0.487  1.00  0.00     0.034 C 
HETATM   19  C27 UNL     1       1.823   0.443  -1.290  1.00  0.00     0.013 C 
HETATM   20  C28 UNL     1       0.823  -0.356  -0.448  1.00  0.00    -0.025 A 
HETATM   21  C29 UNL     1       0.029  -1.345  -1.273  1.00  0.00     0.021 A 
HETATM   22  C30 UNL     1      -0.720  -0.202  -0.623  1.00  0.00    -0.027 A 
HETATM   23  C31 UNL     1      -1.199   0.932  -1.543  1.00  0.00     0.011 C 
HETATM   24  C32 UNL     1      -2.710   1.140  -1.743  1.00  0.00     0.011 C 
HETATM   25  C33 UNL     1      -3.599   0.236  -0.885  1.00  0.00    -0.030 C 
HETATM   26  C34 UNL     1      -3.705  -1.138  -1.607  1.00  0.00     0.016 C 
HETATM   27  O9  UNL     1      -6.478  -0.695   0.752  1.00  0.00    -0.356 OA
ENDROOT
BRANCH  17  28
HETATM   28  O3  UNL     1       4.767  -0.709  -0.608  1.00  0.00    -0.352 OA
BRANCH  28  29
HETATM   29  C20 UNL     1       6.090  -0.272  -0.275  1.00  0.00     0.292 C 
HETATM   30  O4  UNL     1       6.192   1.138  -0.486  1.00  0.00    -0.348 OA
HETATM   31  C21 UNL     1       7.484   1.662  -0.149  1.00  0.00     0.179 C 
HETATM   32  C23 UNL     1       8.522   1.075  -1.121  1.00  0.00     0.180 C 
HETATM   33  C24 UNL     1       8.496  -0.452  -1.012  1.00  0.00     0.183 C 
HETATM   34  C25 UNL     1       7.087  -1.024  -1.181  1.00  0.00     0.204 C 
BRANCH  31  35
HETATM   35  C22 UNL     1       7.403   3.193  -0.232  1.00  0.00     0.198 C 
BRANCH  35  36
HETATM   36  O5  UNL     1       8.398   3.808   0.577  1.00  0.00    -0.398 OA
HETATM   37  H37 UNL     1       8.365   4.763   0.398  1.00  0.00     0.209 HD
ENDBRANCH  35  36
ENDBRANCH  31  35
BRANCH  32  38
HETATM   38  O6  UNL     1       9.847   1.531  -0.861  1.00  0.00    -0.390 OA
HETATM   39  H39 UNL     1      10.457   0.891  -1.276  1.00  0.00     0.210 HD
ENDBRANCH  32  38
BRANCH  33  40
HETATM   40  O7  UNL     1       9.380  -1.027  -1.995  1.00  0.00    -0.390 OA
HETATM   41  H41 UNL     1       9.037  -0.803  -2.880  1.00  0.00     0.210 HD
ENDBRANCH  33  40
BRANCH  34  42
HETATM   42  O8  UNL     1       7.129  -2.430  -0.880  1.00  0.00    -0.388 OA
HETATM   43  H43 UNL     1       7.943  -2.775  -1.292  1.00  0.00     0.210 HD
ENDBRANCH  34  42
ENDBRANCH  28  29
ENDBRANCH  17  28
BRANCH  12  44
HETATM   44  O2  UNL     1       0.814  -1.699   3.123  1.00  0.00    -0.395 OA
HETATM   45  H24 UNL     1       0.174  -2.268   3.589  1.00  0.00     0.210 HD
ENDBRANCH  12  44
BRANCH   1  46
HETATM   46  O1  UNL     1      -8.275   0.717   1.374  1.00  0.00    -0.362 OA
BRANCH  46  47
HETATM   47  C2  UNL     1      -8.992  -0.028   2.354  1.00  0.00     0.166 C 
HETATM   48  C1  UNL     1      -8.083  -0.781   3.307  1.00  0.00     0.033 C 
ENDBRANCH  46  47
ENDBRANCH   1  46
TORSDOF 10
