REMARK  6 active torsions:
REMARK  status: ('A' for Active; 'I' for Inactive)
REMARK    1  A    between atoms: C2_2  and  C4_4 
REMARK    2  A    between atoms: C10_11  and  O2_12 
REMARK    3  A    between atoms: C26_29  and  C27_30 
REMARK    4  A    between atoms: C27_30  and  O3_33 
REMARK    5  A    between atoms: C30_34  and  O4_35 
REMARK    6  A    between atoms: C37_43  and  O6_44 
ROOT
HETATM    1  C4  UNL     1       5.939   0.552   1.302  1.00  0.00     0.181 C 
HETATM    2  O1  UNL     1       4.914  -0.442   1.157  1.00  0.00    -0.370 OA
HETATM    3  C5  UNL     1       4.657  -0.807  -0.212  1.00  0.00     0.163 C 
HETATM    4  C6  UNL     1       3.769  -2.050  -0.101  1.00  0.00     0.036 C 
HETATM    5  C7  UNL     1       2.641  -2.158  -1.111  1.00  0.00     0.016 C 
HETATM    6  C8  UNL     1       1.871  -0.827  -1.287  1.00  0.00     0.007 C 
HETATM    7  C9  UNL     1       1.378  -0.328   0.122  1.00  0.00     0.020 C 
HETATM    8  C10 UNL     1       2.884   0.226  -1.878  1.00  0.00     0.103 C 
HETATM    9  C11 UNL     1       2.167   1.568  -2.216  1.00  0.00     0.046 C 
HETATM   10  C12 UNL     1       0.905   1.421  -3.078  1.00  0.00     0.038 C 
HETATM   11  C13 UNL     1       0.016   0.367  -2.516  1.00  0.00    -0.064 A 
HETATM   12  C14 UNL     1      -1.262   0.427  -2.056  1.00  0.00     0.018 A 
HETATM   13  C15 UNL     1      -1.641  -0.812  -1.470  1.00  0.00     0.001 A 
HETATM   14  C16 UNL     1      -0.560  -1.642  -1.595  1.00  0.00     0.034 A 
HETATM   15  N1  UNL     1      -0.865  -2.863  -1.122  1.00  0.00    -0.357 N 
HETATM   16  C17 UNL     1      -2.172  -2.828  -0.660  1.00  0.00     0.044 A 
HETATM   17  C18 UNL     1      -2.906  -3.890  -0.131  1.00  0.00     0.031 A 
HETATM   18  C19 UNL     1      -4.224  -3.649   0.218  1.00  0.00     0.010 A 
HETATM   19  C20 UNL     1      -4.767  -2.362   0.133  1.00  0.00    -0.044 A 
HETATM   20  C21 UNL     1      -6.244  -2.213   0.422  1.00  0.00     0.073 C 
HETATM   21  C22 UNL     1      -6.662  -0.850   0.879  1.00  0.00    -0.078 C 
HETATM   22  C23 UNL     1      -7.508  -0.675   1.907  1.00  0.00     0.015 C 
HETATM   23  C24 UNL     1      -6.131   0.322   0.107  1.00  0.00     0.054 C 
HETATM   24  C25 UNL     1      -5.783   1.595   0.907  1.00  0.00     0.023 C 
HETATM   25  C26 UNL     1      -4.338   1.070   1.078  1.00  0.00     0.060 C 
HETATM   26  C30 UNL     1      -4.572   0.238  -0.277  1.00  0.00     0.100 C 
HETATM   27  C31 UNL     1      -3.996  -1.248  -0.320  1.00  0.00    -0.003 A 
HETATM   28  C32 UNL     1      -2.682  -1.511  -0.808  1.00  0.00     0.013 A 
HETATM   29  C33 UNL     1       0.635  -1.030  -2.256  1.00  0.00     0.033 A 
HETATM   30  C34 UNL     1       0.888  -1.774  -3.586  1.00  0.00     0.028 C 
HETATM   31  C35 UNL     1       4.104   0.401  -0.945  1.00  0.00     0.147 A 
HETATM   32  O5  UNL     1       5.179   1.123  -1.629  1.00  0.00    -0.360 OA
HETATM   33  C36 UNL     1       4.605   1.775  -0.501  1.00  0.00     0.194 A 
HETATM   34  C37 UNL     1       5.537   1.924   0.660  1.00  0.00     0.183 C 
HETATM   35  H21 UNL     1      -0.275  -3.681  -1.128  1.00  0.00     0.166 HD
ENDROOT
BRANCH  25  36
HETATM   36  C27 UNL     1      -3.285   2.180   1.237  1.00  0.00     0.057 C 
HETATM   37  C28 UNL     1      -1.893   1.591   1.444  1.00  0.00     0.046 C 
HETATM   38  C29 UNL     1      -3.631   3.064   2.444  1.00  0.00     0.046 C 
BRANCH  36  39
HETATM   39  O3  UNL     1      -3.275   3.014   0.090  1.00  0.00    -0.390 OA
HETATM   40  H38 UNL     1      -3.427   2.457  -0.699  1.00  0.00     0.210 HD
ENDBRANCH  36  39
ENDBRANCH  25  36
BRANCH  26  41
HETATM   41  O4  UNL     1      -4.266   0.990  -1.489  1.00  0.00    -0.384 OA
HETATM   42  H39 UNL     1      -4.450   0.368  -2.208  1.00  0.00     0.211 HD
ENDBRANCH  26  41
BRANCH   8  43
HETATM   43  O2  UNL     1       3.417  -0.258  -3.124  1.00  0.00    -0.386 OA
HETATM   44  H15 UNL     1       4.175   0.325  -3.328  1.00  0.00     0.210 HD
ENDBRANCH   8  43
BRANCH  34  45
HETATM   45  O6  UNL     1       4.918   2.832   1.584  1.00  0.00    -0.390 OA
HETATM   46  H45 UNL     1       5.036   3.728   1.223  1.00  0.00     0.210 HD
ENDBRANCH  34  45
BRANCH   1  47
HETATM   47  C2  UNL     1       6.304   0.565   2.784  1.00  0.00    -0.062 C 
HETATM   48  C1  UNL     1       7.576   0.435   3.231  1.00  0.00     0.016 C 
HETATM   49  C3  UNL     1       5.157   0.681   3.769  1.00  0.00     0.045 C 
ENDBRANCH   1  47
TORSDOF 6
