REMARK  7 active torsions:
REMARK  status: ('A' for Active; 'I' for Inactive)
REMARK    1  A    between atoms: C2_2  and  C3_3 
REMARK    2  A    between atoms: C4_5  and  C5_6 
REMARK    3  A    between atoms: C5_6  and  C6_7 
REMARK    4  A    between atoms: C6_7  and  C7_8 
REMARK    5  A    between atoms: C7_8  and  C9_10 
REMARK    6  A    between atoms: C11_12  and  O2_13 
REMARK    7  A    between atoms: C30_33  and  O4_34 
ROOT
HETATM    1  C9  UNL     1       2.285  -0.242  -0.264  1.00  0.00     0.001 C 
HETATM    2  C10 UNL     1       2.163  -0.046  -1.806  1.00  0.00     0.038 C 
HETATM    3  C11 UNL     1       0.663   0.072  -2.132  1.00  0.00     0.132 C 
HETATM    4  C12 UNL     1       0.002   0.421  -0.779  1.00  0.00     0.016 C 
HETATM    5  C13 UNL     1       0.212   1.947  -0.490  1.00  0.00     0.023 C 
HETATM    6  C14 UNL     1      -1.497   0.174  -0.607  1.00  0.00    -0.037 C 
HETATM    7  C15 UNL     1      -1.997  -0.023   0.642  1.00  0.00    -0.065 C 
HETATM    8  C16 UNL     1      -1.069  -0.147   1.862  1.00  0.00     0.036 C 
HETATM    9  C17 UNL     1       0.457  -0.155   1.618  1.00  0.00     0.015 C 
HETATM   10  C18 UNL     1       0.813  -0.535   0.175  1.00  0.00    -0.026 C 
HETATM   11  C19 UNL     1       0.485  -2.045  -0.041  1.00  0.00     0.016 C 
HETATM   12  C20 UNL     1      -3.522  -0.150   0.909  1.00  0.00    -0.015 C 
HETATM   13  C21 UNL     1      -3.800  -1.636   1.240  1.00  0.00     0.020 C 
HETATM   14  C22 UNL     1      -3.929   0.727   2.132  1.00  0.00     0.021 C 
HETATM   15  C23 UNL     1      -5.369   1.233   2.135  1.00  0.00     0.080 C 
HETATM   16  C24 UNL     1      -6.281   0.374   1.296  1.00  0.00     0.135 C 
HETATM   17  O3  UNL     1      -7.298  -0.121   1.781  1.00  0.00    -0.297 OA
HETATM   18  C25 UNL     1      -5.906   0.220  -0.183  1.00  0.00     0.018 C 
HETATM   19  C26 UNL     1      -6.604   1.369  -0.938  1.00  0.00     0.023 C 
HETATM   20  C27 UNL     1      -6.479  -1.100  -0.733  1.00  0.00     0.023 C 
HETATM   21  C28 UNL     1      -4.350   0.357  -0.329  1.00  0.00     0.016 C 
HETATM   22  C29 UNL     1      -3.802  -0.236  -1.634  1.00  0.00     0.043 C 
HETATM   23  C30 UNL     1      -2.349   0.178  -1.856  1.00  0.00     0.148 C 
ENDROOT
BRANCH   1  24
HETATM   24  C7  UNL     1       3.415  -1.240   0.114  1.00  0.00    -0.013 C 
HETATM   25  C8  UNL     1       3.525  -1.479   1.624  1.00  0.00     0.010 C 
BRANCH  24  26
HETATM   26  C6  UNL     1       4.801  -0.819  -0.448  1.00  0.00     0.008 C 
BRANCH  26  27
HETATM   27  C5  UNL     1       5.342   0.510   0.089  1.00  0.00     0.028 C 
BRANCH  27  28
HETATM   28  C4  UNL     1       6.721   0.797  -0.445  1.00  0.00    -0.017 C 
HETATM   29  C2  UNL     1       7.902   0.597   0.168  1.00  0.00    -0.028 C 
HETATM   30  C1  UNL     1       9.211   0.971  -0.463  1.00  0.00     0.051 C 
BRANCH  29  31
HETATM   31  C3  UNL     1       8.025  -0.044   1.511  1.00  0.00     0.265 C 
HETATM   32  O1  UNL     1       7.196  -0.805   1.992  1.00  0.00    -0.302 OA
ENDBRANCH  29  31
ENDBRANCH  27  28
ENDBRANCH  26  27
ENDBRANCH  24  26
ENDBRANCH   1  24
BRANCH   3  33
HETATM   33  O2  UNL     1       0.412   1.044  -3.141  1.00  0.00    -0.394 OA
HETATM   34  H18 UNL     1       1.005   0.845  -3.887  1.00  0.00     0.210 HD
ENDBRANCH   3  33
BRANCH  23  35
HETATM   35  O4  UNL     1      -2.337   1.485  -2.418  1.00  0.00    -0.391 OA
HETATM   36  H46 UNL     1      -1.455   1.588  -2.835  1.00  0.00     0.210 HD
ENDBRANCH  23  35
TORSDOF 7
