REMARK  9 active torsions:
REMARK  status: ('A' for Active; 'I' for Inactive)
REMARK    1  A    between atoms: C2_2  and  O1_3 
REMARK    2  A    between atoms: O1_3  and  C3_4 
REMARK    3  A    between atoms: C3_4  and  C4_6 
REMARK    4  A    between atoms: C5_7  and  C6_8 
REMARK    5  A    between atoms: C12_16  and  C13_17 
REMARK    6  A    between atoms: C24_30  and  C25_31 
REMARK    7  A    between atoms: C25_31  and  O6_32 
REMARK    8  A    between atoms: C32_40  and  O8_42 
REMARK    9  A    between atoms: C35_44  and  O9_45 
ROOT
HETATM    1  C4  UNL     1       0.069   2.743  -0.342  1.00  0.00     0.165 C 
HETATM    2  C5  UNL     1       0.899   1.881   0.286  1.00  0.00     0.053 C 
HETATM    3  C7  UNL     1       0.515   0.460   0.224  1.00  0.00    -0.002 C 
HETATM    4  C8  UNL     1       1.354  -0.554  -0.123  1.00  0.00    -0.066 C 
HETATM    5  C9  UNL     1       0.921  -1.991  -0.365  1.00  0.00     0.042 C 
HETATM    6  C10 UNL     1       1.492  -2.628  -1.630  1.00  0.00     0.083 C 
HETATM    7  C11 UNL     1       2.286  -1.682  -2.503  1.00  0.00     0.136 C 
HETATM    8  O4  UNL     1       2.242  -1.800  -3.731  1.00  0.00    -0.297 OA
HETATM    9  C12 UNL     1       3.207  -0.664  -1.838  1.00  0.00     0.092 C 
HETATM   10  C21 UNL     1       2.847  -0.429  -0.363  1.00  0.00     0.052 C 
HETATM   11  C22 UNL     1      -0.956   0.260   0.359  1.00  0.00     0.044 C 
HETATM   12  C23 UNL     1      -1.734   1.206  -0.360  1.00  0.00     0.101 C 
HETATM   13  O5  UNL     1      -1.098   2.273  -0.986  1.00  0.00    -0.302 OA
HETATM   14  C24 UNL     1      -3.135   1.143  -0.422  1.00  0.00     0.034 C 
HETATM   15  C26 UNL     1      -3.721   0.120   0.304  1.00  0.00     0.090 C 
HETATM   16  O7  UNL     1      -5.089  -0.115   0.372  1.00  0.00    -0.341 OA
HETATM   17  C27 UNL     1      -5.100  -1.489   0.811  1.00  0.00     0.175 C 
HETATM   18  C28 UNL     1      -3.957  -1.623   1.827  1.00  0.00     0.079 C 
HETATM   19  C29 UNL     1      -3.733  -3.068   2.136  1.00  0.00    -0.019 C 
HETATM   20  C30 UNL     1      -4.759  -3.942   2.094  1.00  0.00    -0.027 C 
HETATM   21  C31 UNL     1      -6.178  -3.570   1.685  1.00  0.00     0.067 C 
HETATM   22  C32 UNL     1      -6.402  -2.045   1.417  1.00  0.00     0.085 C 
HETATM   23  C33 UNL     1      -7.595  -1.820   0.492  1.00  0.00     0.049 C 
HETATM   24  C34 UNL     1      -2.979  -0.783   1.087  1.00  0.00     0.021 C 
HETATM   25  C35 UNL     1      -1.602  -0.684   1.168  1.00  0.00     0.091 C 
ENDROOT
BRANCH   2  26
HETATM   26  C6  UNL     1       2.071   2.313   1.091  1.00  0.00     0.273 C 
HETATM   27  O3  UNL     1       2.425   1.706   2.096  1.00  0.00    -0.301 OA
ENDBRANCH   2  26
BRANCH   1  28
HETATM   28  C3  UNL     1       0.231   4.221  -0.407  1.00  0.00     0.318 C 
HETATM   29  O2  UNL     1      -0.206   4.895  -1.327  1.00  0.00    -0.257 OA
BRANCH  28  30
HETATM   30  O1  UNL     1       0.814   4.708   0.712  1.00  0.00    -0.316 OA
BRANCH  30  31
HETATM   31  C2  UNL     1       0.912   6.142   0.801  1.00  0.00     0.175 C 
HETATM   32  C1  UNL     1      -0.264   6.674   1.600  1.00  0.00     0.034 C 
ENDBRANCH  30  31
ENDBRANCH  28  30
ENDBRANCH   1  28
BRANCH  25  33
HETATM   33  O9  UNL     1      -0.931  -1.526   2.008  1.00  0.00    -0.354 OA
HETATM   34  C36 UNL     1      -0.504  -0.839   3.185  1.00  0.00     0.210 C 
ENDBRANCH  25  33
BRANCH   9  35
HETATM   35  C13 UNL     1       4.690  -0.994  -1.973  1.00  0.00    -0.046 A 
HETATM   36  C14 UNL     1       5.165  -2.313  -1.877  1.00  0.00     0.010 A 
HETATM   37  C15 UNL     1       6.527  -2.618  -1.960  1.00  0.00     0.031 A 
HETATM   38  C16 UNL     1       7.416  -1.552  -2.129  1.00  0.00     0.042 A 
HETATM   39  N1  UNL     1       8.789  -1.551  -2.239  1.00  0.00    -0.365 N 
HETATM   40  C19 UNL     1       6.996  -0.224  -2.208  1.00  0.00    -0.008 A 
HETATM   41  C17 UNL     1       9.250  -0.266  -2.384  1.00  0.00     0.089 A 
HETATM   42  H14 UNL     1       9.373  -2.377  -2.226  1.00  0.00     0.165 HD
HETATM   43  C18 UNL     1       8.162   0.576  -2.366  1.00  0.00     0.030 A 
HETATM   44  C20 UNL     1       5.617   0.057  -2.131  1.00  0.00     0.021 A 
ENDBRANCH   9  35
BRANCH  14  45
HETATM   45  C25 UNL     1      -3.952   2.111  -1.228  1.00  0.00     0.208 C 
BRANCH  45  46
HETATM   46  O6  UNL     1      -3.811   1.837  -2.618  1.00  0.00    -0.396 OA
HETATM   47  H22 UNL     1      -2.861   1.783  -2.813  1.00  0.00     0.209 HD
ENDBRANCH  45  46
ENDBRANCH  14  45
BRANCH  22  48
HETATM   48  O8  UNL     1      -6.738  -1.396   2.655  1.00  0.00    -0.387 OA
HETATM   49  H32 UNL     1      -6.165  -1.741   3.362  1.00  0.00     0.210 HD
ENDBRANCH  22  48
TORSDOF 9
