REMARK  8 active torsions:
REMARK  status: ('A' for Active; 'I' for Inactive)
REMARK    1  A    between atoms: N1_2  and  C2_3 
REMARK    2  A    between atoms: C2_3  and  C3_4 
REMARK    3  A    between atoms: C5_6  and  O1_7 
REMARK    4  A    between atoms: C20_22  and  N2_23 
REMARK    5  A    between atoms: C20_22  and  C21_24 
REMARK    6  A    between atoms: C21_24  and  C22_25 
REMARK    7  A    between atoms: C22_25  and  O2_26 
REMARK    8  A    between atoms: C27_31  and  C29_33 
ROOT
HETATM    1  C3  UNL     1       5.285  -0.985   0.054  1.00  0.00    -0.021 A 
HETATM    2  C4  UNL     1       6.242  -1.263  -0.940  1.00  0.00     0.045 A 
HETATM    3  C5  UNL     1       5.856  -1.503  -2.243  1.00  0.00     0.066 A 
HETATM    4  C6  UNL     1       4.517  -1.459  -2.595  1.00  0.00     0.045 A 
HETATM    5  C7  UNL     1       3.505  -1.179  -1.640  1.00  0.00    -0.037 A 
HETATM    6  C8  UNL     1       3.895  -0.940  -0.283  1.00  0.00    -0.042 A 
HETATM    7  C9  UNL     1       2.887  -0.656   0.821  1.00  0.00     0.044 C 
HETATM    8  C10 UNL     1       2.497   0.816   1.123  1.00  0.00    -0.010 C 
HETATM    9  C11 UNL     1       2.687   1.809  -0.034  1.00  0.00     0.005 C 
HETATM   10  C12 UNL     1       1.666   2.932  -0.028  1.00  0.00     0.001 C 
HETATM   11  C13 UNL     1       0.280   2.321  -0.148  1.00  0.00     0.007 C 
HETATM   12  C14 UNL     1      -0.088   1.485   1.093  1.00  0.00     0.022 C 
HETATM   13  C15 UNL     1       1.131   0.911   1.859  1.00  0.00     0.012 C 
HETATM   14  C16 UNL     1      -1.310   0.508   0.867  1.00  0.00     0.082 C 
HETATM   15  C17 UNL     1      -2.169   0.468   2.163  1.00  0.00     0.040 C 
HETATM   16  C18 UNL     1      -3.450  -0.340   1.939  1.00  0.00     0.013 C 
HETATM   17  C19 UNL     1      -3.475  -0.844   0.466  1.00  0.00     0.060 C 
HETATM   18  C20 UNL     1      -2.250  -1.839   0.294  1.00  0.00     0.180 C 
HETATM   19  C23 UNL     1      -0.950  -0.971   0.466  1.00  0.00     0.139 C 
HETATM   20  C24 UNL     1      -0.014  -1.022  -0.674  1.00  0.00    -0.096 C 
HETATM   21  C25 UNL     1       0.915  -1.066  -1.435  1.00  0.00    -0.101 C 
HETATM   22  C26 UNL     1       2.113  -1.080  -2.275  1.00  0.00     0.133 C 
HETATM   23  C27 UNL     1      -3.368   0.432  -0.455  1.00  0.00     0.068 C 
HETATM   24  C28 UNL     1      -3.327   0.090  -1.953  1.00  0.00     0.047 C 
HETATM   25  O3  UNL     1      -2.135   1.114  -0.162  1.00  0.00    -0.367 OA
ENDROOT
BRANCH  18  26
HETATM   26  N2  UNL     1      -2.339  -2.808   1.431  1.00  0.00     0.090 N 
HETATM   27  H27 UNL     1      -3.231  -3.303   1.369  1.00  0.00     0.313 HD
HETATM   28  H28 UNL     1      -1.662  -3.565   1.279  1.00  0.00     0.313 HD
ENDBRANCH  18  26
BRANCH  18  29
HETATM   29  C21 UNL     1      -2.346  -2.726  -0.995  1.00  0.00     0.069 C 
BRANCH  29  30
HETATM   30  C22 UNL     1      -1.381  -3.918  -1.116  1.00  0.00     0.166 C 
BRANCH  30  31
HETATM   31  O2  UNL     1      -1.728  -4.949  -0.196  1.00  0.00    -0.401 OA
HETATM   32  H33 UNL     1      -1.146  -5.705  -0.389  1.00  0.00     0.209 HD
ENDBRANCH  30  31
ENDBRANCH  29  30
ENDBRANCH  18  29
BRANCH  23  33
HETATM   33  C29 UNL     1      -4.511   1.468  -0.183  1.00  0.00     0.020 C 
HETATM   34  C30 UNL     1      -5.936   0.973  -0.468  1.00  0.00     0.007 C 
HETATM   35  C31 UNL     1      -6.745   2.213  -0.858  1.00  0.00     0.000 C 
HETATM   36  C32 UNL     1      -5.812   3.403  -0.674  1.00  0.00     0.000 C 
HETATM   37  C33 UNL     1      -4.427   2.819  -0.913  1.00  0.00     0.007 C 
ENDBRANCH  23  33
BRANCH   3  38
HETATM   38  O1  UNL     1       6.830  -1.769  -3.159  1.00  0.00    -0.361 OA
HETATM   39  H8  UNL     1       6.415  -1.892  -4.028  1.00  0.00     0.217 HD
ENDBRANCH   3  38
BRANCH   1  40
HETATM   40  C2  UNL     1       5.833  -0.707   1.446  1.00  0.00     0.308 C 
BRANCH  40  41
HETATM   41  N1  UNL     1       5.937   0.731   1.687  1.00  0.00     0.083 N 
HETATM   42  C1  UNL     1       6.517   1.007   2.990  1.00  0.00     0.307 C 
HETATM   43  H4  UNL     1       6.514   1.145   0.955  1.00  0.00     0.315 HD
ENDBRANCH  40  41
ENDBRANCH   1  40
TORSDOF 8
