REMARK  11 active torsions:
REMARK  status: ('A' for Active; 'I' for Inactive)
REMARK    1  A    between atoms: C3_3  and  O1_4 
REMARK    2  A    between atoms: N1_14  and  O2_16 
REMARK    3  A    between atoms: O2_16  and  C13_17 
REMARK    4  A    between atoms: C13_17  and  C14_18 
REMARK       I    between atoms: C14_18  and  N2_20 
REMARK    5  A    between atoms: N2_20  and  C15_21 
REMARK    6  A    between atoms: C15_21  and  C16_22 
REMARK    7  A    between atoms: C15_21  and  C17_25 
REMARK    8  A    between atoms: C16_22  and  O5_24 
REMARK    9  A    between atoms: C17_25  and  O6_26 
REMARK   10  A    between atoms: C17_25  and  C18_27 
REMARK   11  A    between atoms: C22_31  and  N3_32 
ROOT
HETATM    1  C1  UNL     1      -8.503  -0.043  -4.148  1.00  0.00     0.015 C 
HETATM    2  C2  UNL     1      -8.134   0.376  -3.083  1.00  0.00    -0.078 C 
HETATM    3  C3  UNL     1      -7.699   0.869  -1.766  1.00  0.00     0.128 C 
HETATM    4  C4  UNL     1      -6.950   2.208  -1.856  1.00  0.00     0.052 C 
HETATM    5  C5  UNL     1      -5.952   2.213  -0.687  1.00  0.00     0.010 C 
HETATM    6  C6  UNL     1      -6.151   0.881   0.060  1.00  0.00     0.002 C 
HETATM    7  C7  UNL     1      -4.919   0.339   0.813  1.00  0.00    -0.004 C 
HETATM    8  C8  UNL     1      -4.378   1.381   1.800  1.00  0.00     0.010 C 
HETATM    9  C9  UNL     1      -3.263   0.794   2.652  1.00  0.00     0.035 C 
HETATM   10  C10 UNL     1      -2.144   0.224   1.814  1.00  0.00    -0.069 C 
HETATM   11  C11 UNL     1      -0.870   0.508   2.147  1.00  0.00     0.030 C 
HETATM   12  C12 UNL     1       0.282  -0.166   1.498  1.00  0.00     0.032 C 
HETATM   13  N1  UNL     1       1.457   0.028   2.029  1.00  0.00    -0.271 N 
ATOM     14  H1  UNL     1       1.628   0.658   2.813  1.00  0.00     0.194 HD
HETATM   15  C24 UNL     1       0.011  -1.104   0.341  1.00  0.00     0.060 C 
HETATM   16  C25 UNL     1      -1.333  -0.818  -0.325  1.00  0.00     0.020 C 
HETATM   17  C26 UNL     1      -2.531  -0.718   0.667  1.00  0.00    -0.016 C 
HETATM   18  C27 UNL     1      -2.808  -2.111   1.276  1.00  0.00     0.020 C 
HETATM   19  C28 UNL     1      -3.788  -0.161  -0.121  1.00  0.00     0.002 C 
HETATM   20  C29 UNL     1      -4.362  -1.152  -1.159  1.00  0.00     0.007 C 
HETATM   21  C30 UNL     1      -5.553  -0.575  -1.928  1.00  0.00     0.014 C 
HETATM   22  C31 UNL     1      -6.708  -0.076  -1.021  1.00  0.00     0.003 C 
HETATM   23  C32 UNL     1      -7.437  -1.276  -0.383  1.00  0.00     0.020 C 
ENDROOT
BRANCH   3  24
HETATM   24  O1  UNL     1      -8.862   1.085  -0.959  1.00  0.00    -0.377 OA
HETATM   25  H2  UNL     1      -9.519   1.536  -1.520  1.00  0.00     0.211 HD
ENDBRANCH   3  24
BRANCH  13  26
HETATM   26  O2  UNL     1       2.459  -0.726   1.402  1.00  0.00    -0.271 OA
BRANCH  26  27
HETATM   27  C13 UNL     1       3.405  -1.115   2.392  1.00  0.00     0.303 C 
BRANCH  27  28
HETATM   28  C14 UNL     1       4.806  -1.265   1.805  1.00  0.00     0.244 C 
HETATM   29  O3  UNL     1       5.547  -2.204   2.089  1.00  0.00    -0.271 OA
HETATM   30  N2  UNL     1       5.196  -0.223   0.983  1.00  0.00    -0.342 N 
HETATM   31  H16 UNL     1       4.636   0.622   1.084  1.00  0.00     0.163 HD
BRANCH  30  32
HETATM   32  C15 UNL     1       6.631  -0.023   0.672  1.00  0.00     0.216 C 
BRANCH  32  33
HETATM   33  C16 UNL     1       7.243   0.939   1.692  1.00  0.00     0.166 C 
HETATM   34  O4  UNL     1       8.428   1.194   1.836  1.00  0.00    -0.648 OA
BRANCH  33  35
HETATM   35  O5  UNL     1       6.328   1.585   2.456  1.00  0.00    -0.775 OA
HETATM   36  H18 UNL     1       6.875   2.094   3.096  1.00  0.00     0.167 HD
ENDBRANCH  33  35
ENDBRANCH  32  33
BRANCH  32  37
HETATM   37  C17 UNL     1       6.782   0.563  -0.749  1.00  0.00     0.184 C 
BRANCH  37  38
HETATM   38  O6  UNL     1       5.945  -0.155  -1.672  1.00  0.00    -0.388 OA
HETATM   39  H20 UNL     1       5.177  -0.467  -1.158  1.00  0.00     0.210 HD
ENDBRANCH  37  38
BRANCH  37  40
HETATM   40  C18 UNL     1       8.197   0.511  -1.287  1.00  0.00    -0.025 A 
HETATM   41  C19 UNL     1       8.975   1.682  -1.341  1.00  0.00     0.010 A 
HETATM   42  C20 UNL     1      10.299   1.646  -1.789  1.00  0.00     0.003 A 
HETATM   43  C21 UNL     1      10.865   0.440  -2.204  1.00  0.00     0.036 A 
HETATM   44  C22 UNL     1      10.093  -0.729  -2.169  1.00  0.00     0.103 A 
HETATM   45  C23 UNL     1       8.766  -0.698  -1.715  1.00  0.00     0.045 A 
BRANCH  44  46
HETATM   46  N3  UNL     1      10.695  -2.005  -2.587  1.00  0.00    -0.116 N 
HETATM   47  O7  UNL     1      10.029  -3.038  -2.426  1.00  0.00    -0.532 OA
HETATM   48  O8  UNL     1      11.839  -1.979  -3.063  1.00  0.00    -0.532 OA
ENDBRANCH  44  46
ENDBRANCH  37  40
ENDBRANCH  32  37
ENDBRANCH  30  32
ENDBRANCH  27  28
ENDBRANCH  26  27
ENDBRANCH  13  26
TORSDOF 11
