REMARK  6 active torsions:
REMARK  status: ('A' for Active; 'I' for Inactive)
REMARK    1  A    between atoms: C6_7  and  O2_8 
REMARK    2  A    between atoms: C17_21  and  C18_22 
REMARK    3  A    between atoms: C18_22  and  C19_23 
REMARK    4  A    between atoms: C23_27  and  C24_28 
REMARK    5  A    between atoms: C24_28  and  N1_29 
REMARK    6  A    between atoms: C24_28  and  N2_30 
ROOT
HETATM    1  C1  UNL     1       9.894   1.457  -1.122  1.00  0.00     0.077 C 
HETATM    2  C2  UNL     1       8.698   0.753  -0.561  1.00  0.00     0.053 A 
HETATM    3  C3  UNL     1       8.801  -0.248   0.323  1.00  0.00     0.088 A 
HETATM    4  C4  UNL     1       7.579  -0.892   0.824  1.00  0.00     0.190 A 
HETATM    5  O1  UNL     1       7.624  -1.811   1.635  1.00  0.00    -0.287 OA
HETATM    6  C5  UNL     1       6.297  -0.390   0.311  1.00  0.00     0.082 A 
HETATM    7  C6  UNL     1       5.072  -0.947   0.709  1.00  0.00     0.092 A 
HETATM    8  C7  UNL     1       3.859  -0.455   0.199  1.00  0.00     0.016 A 
HETATM    9  C8  UNL     1       3.917   0.613  -0.735  1.00  0.00     0.082 A 
HETATM   10  C9  UNL     1       5.142   1.154  -1.134  1.00  0.00     0.075 A 
HETATM   11  C10 UNL     1       6.329   0.655  -0.608  1.00  0.00     0.095 A 
HETATM   12  O3  UNL     1       7.493   1.237  -1.045  1.00  0.00    -0.314 OA
HETATM   13  O4  UNL     1       2.819   1.194  -1.348  1.00  0.00    -0.337 OA
HETATM   14  C11 UNL     1       1.563   0.928  -0.693  1.00  0.00     0.091 C 
HETATM   15  C12 UNL     1       1.494   1.839   0.552  1.00  0.00     0.049 C 
HETATM   16  C13 UNL     1       0.350   1.281  -1.663  1.00  0.00     0.041 C 
HETATM   17  C14 UNL     1      -1.039   1.479  -0.975  1.00  0.00     0.003 C 
HETATM   18  C15 UNL     1      -2.301   0.847  -1.615  1.00  0.00     0.003 C 
HETATM   19  C16 UNL     1      -2.538  -0.683  -1.576  1.00  0.00     0.042 C 
HETATM   20  C17 UNL     1      -2.792  -1.357  -0.206  1.00  0.00     0.107 A 
HETATM   21  O5  UNL     1      -2.119  -0.724   0.859  1.00  0.00    -0.352 OA
HETATM   22  C26 UNL     1      -1.565  -2.031   0.526  1.00  0.00     0.180 A 
HETATM   23  C27 UNL     1      -1.406  -2.765   1.850  1.00  0.00     0.052 C 
HETATM   24  C28 UNL     1       0.087  -2.735   2.359  1.00  0.00     0.004 C 
HETATM   25  C29 UNL     1       0.693  -1.327   2.620  1.00  0.00     0.001 C 
HETATM   26  C30 UNL     1       2.140  -1.029   2.099  1.00  0.00     0.012 C 
HETATM   27  C31 UNL     1       2.527  -1.108   0.573  1.00  0.00     0.057 C 
HETATM   28  C32 UNL     1       1.518  -0.587  -0.447  1.00  0.00     0.175 C 
HETATM   29  O6  UNL     1       0.228  -0.845  -0.007  1.00  0.00    -0.310 OA
HETATM   30  C33 UNL     1      -0.340  -2.009  -0.285  1.00  0.00     0.297 C 
HETATM   31  O7  UNL     1       0.062  -2.922  -0.982  1.00  0.00    -0.262 OA
ENDROOT
BRANCH  20  32
HETATM   32  C18 UNL     1      -4.183  -1.837   0.105  1.00  0.00     0.080 C 
BRANCH  32  33
HETATM   33  C19 UNL     1      -5.120  -0.691   0.408  1.00  0.00    -0.055 A 
HETATM   34  C20 UNL     1      -5.169  -0.146   1.696  1.00  0.00     0.007 A 
HETATM   35  C21 UNL     1      -6.018   0.920   1.982  1.00  0.00     0.001 A 
HETATM   36  C22 UNL     1      -6.822   1.462   0.979  1.00  0.00     0.011 A 
HETATM   37  C23 UNL     1      -6.791   0.945  -0.328  1.00  0.00     0.004 A 
HETATM   38  C25 UNL     1      -5.935  -0.140  -0.594  1.00  0.00     0.018 A 
BRANCH  37  39
HETATM   39  C24 UNL     1      -7.620   1.535  -1.449  1.00  0.00     0.479 C 
BRANCH  39  40
HETATM   40  N1  UNL     1      -9.026   1.576  -1.168  1.00  0.00     0.116 N 
HETATM   41  H24 UNL     1      -9.434   2.151  -1.903  1.00  0.00     0.316 HD
HETATM   42  H25 UNL     1      -9.181   2.090  -0.309  1.00  0.00     0.316 HD
ENDBRANCH  39  40
BRANCH  39  43
HETATM   43  N2  UNL     1      -7.293   2.911  -1.718  1.00  0.00     0.116 N 
HETATM   44  H26 UNL     1      -6.314   2.945  -2.003  1.00  0.00     0.316 HD
HETATM   45  H27 UNL     1      -7.328   3.434  -0.848  1.00  0.00     0.316 HD
ENDBRANCH  39  43
ENDBRANCH  37  39
ENDBRANCH  32  33
ENDBRANCH  20  32
BRANCH   7  46
HETATM   46  O2  UNL     1       5.021  -2.005   1.582  1.00  0.00    -0.359 OA
HETATM   47  H5  UNL     1       5.939  -2.249   1.837  1.00  0.00     0.217 HD
ENDBRANCH   7  46
TORSDOF 6
