REMARK  7 active torsions:
REMARK  status: ('A' for Active; 'I' for Inactive)
REMARK    1  A    between atoms: N1_2  and  C2_3 
REMARK    2  A    between atoms: C2_3  and  C3_4 
REMARK    3  A    between atoms: C5_6  and  O1_7 
REMARK    4  A    between atoms: C23_26  and  N2_27 
REMARK    5  A    between atoms: C23_26  and  C24_28 
REMARK    6  A    between atoms: C24_28  and  C25_29 
REMARK    7  A    between atoms: C25_29  and  O3_30 
ROOT
HETATM    1  C3  UNL     1       4.210   0.548   0.977  1.00  0.00    -0.021 A 
HETATM    2  C4  UNL     1       4.518   1.927   0.891  1.00  0.00     0.045 A 
HETATM    3  C5  UNL     1       3.647   2.886   1.375  1.00  0.00     0.066 A 
HETATM    4  C6  UNL     1       2.462   2.510   1.973  1.00  0.00     0.045 A 
HETATM    5  C7  UNL     1       2.105   1.149   2.101  1.00  0.00    -0.037 A 
HETATM    6  C8  UNL     1       2.977   0.132   1.570  1.00  0.00    -0.042 A 
HETATM    7  C9  UNL     1       2.637  -1.365   1.667  1.00  0.00     0.044 C 
HETATM    8  C10 UNL     1       1.785  -2.063   0.552  1.00  0.00    -0.010 C 
HETATM    9  C11 UNL     1       2.415  -2.188  -0.841  1.00  0.00     0.005 C 
HETATM   10  C12 UNL     1       1.971  -1.085  -1.800  1.00  0.00     0.001 C 
HETATM   11  C13 UNL     1       0.446  -1.032  -2.007  1.00  0.00     0.007 C 
HETATM   12  C14 UNL     1      -0.381  -1.550  -0.809  1.00  0.00     0.022 C 
HETATM   13  C15 UNL     1       0.433  -1.384   0.465  1.00  0.00     0.012 C 
HETATM   14  C16 UNL     1      -1.824  -0.910  -0.674  1.00  0.00     0.082 C 
HETATM   15  C17 UNL     1      -2.579  -1.113  -2.022  1.00  0.00     0.040 C 
HETATM   16  C18 UNL     1      -4.047  -0.708  -1.900  1.00  0.00     0.013 C 
HETATM   17  C19 UNL     1      -4.303  -0.205  -0.466  1.00  0.00     0.059 C 
HETATM   18  C20 UNL     1      -3.905  -1.378   0.502  1.00  0.00     0.061 C 
HETATM   19  C21 UNL     1      -4.699  -2.670   0.202  1.00  0.00     0.046 C 
HETATM   20  C22 UNL     1      -4.114  -1.092   1.997  1.00  0.00     0.046 C 
HETATM   21  O2  UNL     1      -2.512  -1.708   0.324  1.00  0.00    -0.368 OA
HETATM   22  C23 UNL     1      -3.432   1.089  -0.219  1.00  0.00     0.180 C 
HETATM   23  C26 UNL     1      -1.917   0.631  -0.263  1.00  0.00     0.139 C 
HETATM   24  C27 UNL     1      -1.179   0.977   0.987  1.00  0.00    -0.096 C 
HETATM   25  C28 UNL     1      -0.394   1.090   1.894  1.00  0.00    -0.101 C 
HETATM   26  C29 UNL     1       0.763   0.920   2.806  1.00  0.00     0.133 C 
ENDROOT
BRANCH  22  27
HETATM   27  N2  UNL     1      -3.931   1.699   1.037  1.00  0.00     0.090 N 
HETATM   28  H33 UNL     1      -3.884   2.725   0.959  1.00  0.00     0.313 HD
HETATM   29  H34 UNL     1      -3.303   1.493   1.811  1.00  0.00     0.313 HD
ENDBRANCH  22  27
BRANCH  22  30
HETATM   30  C24 UNL     1      -3.667   2.180  -1.331  1.00  0.00     0.069 C 
BRANCH  30  31
HETATM   31  C25 UNL     1      -2.936   3.518  -1.140  1.00  0.00     0.166 C 
BRANCH  31  32
HETATM   32  O3  UNL     1      -3.427   4.213  -0.002  1.00  0.00    -0.401 OA
HETATM   33  H39 UNL     1      -2.936   5.053   0.051  1.00  0.00     0.209 HD
ENDBRANCH  31  32
ENDBRANCH  30  31
ENDBRANCH  22  30
BRANCH   3  34
HETATM   34  O1  UNL     1       3.929   4.217   1.292  1.00  0.00    -0.361 OA
HETATM   35  H8  UNL     1       4.767   4.329   0.816  1.00  0.00     0.217 HD
ENDBRANCH   3  34
BRANCH   1  36
HETATM   36  C2  UNL     1       5.284  -0.387   0.440  1.00  0.00     0.308 C 
BRANCH  36  37
HETATM   37  N1  UNL     1       5.364  -0.339  -1.022  1.00  0.00     0.083 N 
HETATM   38  C1  UNL     1       6.454  -1.168  -1.517  1.00  0.00     0.307 C 
HETATM   39  H4  UNL     1       5.499   0.622  -1.327  1.00  0.00     0.315 HD
ENDBRANCH  36  37
ENDBRANCH   1  36
TORSDOF 7
