REMARK  12 active torsions:
REMARK  status: ('A' for Active; 'I' for Inactive)
REMARK    1  A    between atoms: C2_2  and  C23_27 
REMARK    2  A    between atoms: C3_3  and  C4_4 
REMARK    3  A    between atoms: C4_4  and  C5_5 
REMARK    4  A    between atoms: C13_13  and  C14_14 
REMARK    5  A    between atoms: C14_14  and  C16_16 
REMARK    6  A    between atoms: C17_17  and  C18_18 
REMARK    7  A    between atoms: C18_18  and  O1_19 
REMARK    8  A    between atoms: C18_18  and  C19_20 
REMARK    9  A    between atoms: C20_21  and  C21_23 
REMARK   10  A    between atoms: C21_23  and  C22_24 
REMARK   11  A    between atoms: C22_24  and  O2_25 
REMARK   12  A    between atoms: C23_27  and  O4_29 
ROOT
HETATM    1  C5  UNL     1      -2.691  -1.191   0.387  1.00  0.00     0.225 C 
HETATM    2  C6  UNL     1      -3.693  -0.741   1.458  1.00  0.00     0.036 C 
HETATM    3  C7  UNL     1      -2.973  -0.118   2.646  1.00  0.00     0.005 C 
HETATM    4  C8  UNL     1      -2.036   0.992   2.176  1.00  0.00     0.042 C 
HETATM    5  C9  UNL     1      -1.055   0.543   1.048  1.00  0.00     0.162 C 
HETATM    6  C10 UNL     1       0.041  -0.385   1.605  1.00  0.00     0.042 C 
HETATM    7  C11 UNL     1       1.065   0.539   2.258  1.00  0.00     0.003 C 
HETATM    8  C12 UNL     1       0.857   1.929   1.656  1.00  0.00     0.008 C 
HETATM    9  C13 UNL     1      -0.236   1.793   0.574  1.00  0.00     0.031 C 
HETATM   10  N1  UNL     1      -1.837  -0.069  -0.033  1.00  0.00     0.098 N 
HETATM   11  H35 UNL     1      -1.221  -0.383  -0.780  1.00  0.00     0.317 HD
ENDROOT
BRANCH   9  12
HETATM   12  C14 UNL     1       0.344   1.800  -0.880  1.00  0.00     0.010 C 
HETATM   13  C15 UNL     1       0.799   3.223  -1.258  1.00  0.00     0.015 C 
BRANCH  12  14
HETATM   14  C16 UNL     1       1.392   0.741  -1.167  1.00  0.00    -0.023 C 
HETATM   15  C17 UNL     1       2.720   0.922  -1.284  1.00  0.00     0.005 C 
BRANCH  15  16
HETATM   16  C18 UNL     1       3.706  -0.165  -1.598  1.00  0.00     0.165 C 
BRANCH  16  17
HETATM   17  O1  UNL     1       4.401   0.249  -2.758  1.00  0.00    -0.388 OA
HETATM   18  H28 UNL     1       5.347   0.083  -2.623  1.00  0.00     0.210 HD
ENDBRANCH  16  17
BRANCH  16  19
HETATM   19  C19 UNL     1       4.574  -0.454  -0.397  1.00  0.00     0.028 C 
HETATM   20  C20 UNL     1       5.895  -0.341  -0.172  1.00  0.00     0.013 C 
HETATM   21 CL1  UNL     1       7.001   0.263  -1.358  1.00  0.00    -0.089 Cl
BRANCH  20  22
HETATM   22  C21 UNL     1       6.529  -0.684   1.159  1.00  0.00     0.077 C 
BRANCH  22  23
HETATM   23  C22 UNL     1       7.360  -1.969   1.112  1.00  0.00     0.169 C 
BRANCH  23  24
HETATM   24  O2  UNL     1       8.651  -1.737   0.557  1.00  0.00    -0.401 OA
HETATM   25  H34 UNL     1       8.527  -1.348  -0.328  1.00  0.00     0.209 HD
ENDBRANCH  23  24
ENDBRANCH  22  23
ENDBRANCH  20  22
ENDBRANCH  16  19
ENDBRANCH  15  16
ENDBRANCH  12  14
ENDBRANCH   9  12
BRANCH   1  26
HETATM   26  C4  UNL     1      -3.407  -1.831  -0.828  1.00  0.00     0.063 C 
BRANCH  26  27
HETATM   27  C3  UNL     1      -4.285  -0.896  -1.621  1.00  0.00    -0.011 C 
HETATM   28  C2  UNL     1      -5.628  -0.923  -1.747  1.00  0.00     0.008 C 
HETATM   29  C1  UNL     1      -6.560  -1.886  -1.075  1.00  0.00     0.055 C 
BRANCH  28  30
HETATM   30  C23 UNL     1      -6.226   0.113  -2.630  1.00  0.00     0.171 C 
HETATM   31  O3  UNL     1      -5.634   0.972  -3.258  1.00  0.00    -0.646 OA
BRANCH  30  32
HETATM   32  O4  UNL     1      -7.566   0.018  -2.696  1.00  0.00    -0.773 OA
HETATM   33  H36 UNL     1      -7.808   0.750  -3.300  1.00  0.00     0.167 HD
ENDBRANCH  30  32
ENDBRANCH  28  30
ENDBRANCH  26  27
ENDBRANCH   1  26
TORSDOF 12
