REMARK  20 active torsions:
REMARK  status: ('A' for Active; 'I' for Inactive)
REMARK    1  A    between atoms: C2_2  and  C3_3 
REMARK    2  A    between atoms: C2_2  and  C30_37 
REMARK    3  A    between atoms: C4_4  and  C5_5 
REMARK    4  A    between atoms: C6_6  and  C7_7 
REMARK    5  A    between atoms: C6_6  and  C11_14 
REMARK    6  A    between atoms: C7_7  and  O1_8 
REMARK    7  A    between atoms: O1_8  and  C8_9 
REMARK    8  A    between atoms: C8_9  and  C9_10 
REMARK    9  A    between atoms: C9_10  and  O2_11 
REMARK   10  A    between atoms: C9_10  and  C10_12 
REMARK   11  A    between atoms: C10_12  and  O3_13 
REMARK   12  A    between atoms: C15_18  and  O4_19 
REMARK   13  A    between atoms: C16_20  and  C17_21 
REMARK   14  A    between atoms: C17_21  and  C18_22 
REMARK   15  A    between atoms: C18_22  and  C19_23 
REMARK   16  A    between atoms: C19_23  and  O5_24 
REMARK   17  A    between atoms: C21_26  and  C22_27 
REMARK   18  A    between atoms: C28_34  and  O7_36 
REMARK   19  A    between atoms: C30_37  and  C31_38 
REMARK   20  A    between atoms: C31_38  and  C32_39 
ROOT
HETATM    1  C11 UNL     1      -0.041   0.896   0.055  1.00  0.00     0.046 C 
HETATM    2  C12 UNL     1       0.239   0.288   1.428  1.00  0.00     0.013 C 
HETATM    3  C13 UNL     1      -1.076  -0.419   1.755  1.00  0.00     0.017 C 
HETATM    4  C14 UNL     1      -1.610  -0.995   0.400  1.00  0.00     0.024 C 
HETATM    5  C15 UNL     1      -0.682  -0.311  -0.673  1.00  0.00     0.138 C 
HETATM    6  C16 UNL     1      -3.146  -0.558   0.221  1.00  0.00     0.029 C 
HETATM    7  C20 UNL     1      -3.891  -1.616  -0.619  1.00  0.00    -0.061 C 
HETATM    8  C21 UNL     1      -4.326  -1.582  -1.903  1.00  0.00    -0.017 C 
HETATM    9  C23 UNL     1      -5.147  -2.688  -2.534  1.00  0.00     0.042 C 
HETATM   10  C24 UNL     1      -5.634  -3.742  -1.546  1.00  0.00     0.005 C 
HETATM   11  C25 UNL     1      -4.513  -4.123  -0.598  1.00  0.00     0.009 C 
HETATM   12  C26 UNL     1      -4.068  -2.894   0.213  1.00  0.00     0.018 C 
HETATM   13  C27 UNL     1      -2.781  -3.222   1.004  1.00  0.00     0.047 C 
HETATM   14  C28 UNL     1      -1.509  -2.591   0.393  1.00  0.00     0.066 C 
HETATM   15  C29 UNL     1      -0.287  -3.197   1.113  1.00  0.00     0.047 C 
ENDROOT
BRANCH   1  16
HETATM   16  C6  UNL     1       1.017   1.640  -0.759  1.00  0.00    -0.050 C 
HETATM   17  C5  UNL     1       2.329   1.841  -0.505  1.00  0.00     0.005 C 
BRANCH  17  18
HETATM   18  C4  UNL     1       3.150   1.390   0.597  1.00  0.00     0.001 C 
HETATM   19  C3  UNL     1       4.465   1.654   0.669  1.00  0.00     0.006 C 
BRANCH  19  20
HETATM   20  C2  UNL     1       5.387   1.205   1.713  1.00  0.00    -0.067 C 
HETATM   21  C1  UNL     1       6.623   1.735   1.733  1.00  0.00     0.019 C 
BRANCH  20  22
HETATM   22  C30 UNL     1       4.906   0.145   2.701  1.00  0.00     0.041 C 
BRANCH  22  23
HETATM   23  C31 UNL     1       5.956  -0.662   3.491  1.00  0.00     0.032 C 
BRANCH  23  24
HETATM   24  C32 UNL     1       6.742  -1.604   2.611  1.00  0.00    -0.024 C 
HETATM   25  C33 UNL     1       6.797  -2.950   2.662  1.00  0.00    -0.091 C 
HETATM   26  C34 UNL     1       7.636  -3.716   1.671  1.00  0.00     0.042 C 
HETATM   27  C35 UNL     1       6.068  -3.819   3.648  1.00  0.00     0.042 C 
ENDBRANCH  23  24
ENDBRANCH  22  23
ENDBRANCH  20  22
ENDBRANCH  19  20
ENDBRANCH  17  18
BRANCH  16  28
HETATM   28  C7  UNL     1       0.454   2.264  -2.039  1.00  0.00     0.202 C 
BRANCH  28  29
HETATM   29  O1  UNL     1      -0.763   2.932  -1.721  1.00  0.00    -0.384 OA
BRANCH  29  30
HETATM   30  C8  UNL     1      -1.445   3.473  -2.856  1.00  0.00     0.201 C 
BRANCH  30  31
HETATM   31  C9  UNL     1      -0.912   4.846  -3.302  1.00  0.00     0.165 C 
BRANCH  31  32
HETATM   32  O2  UNL     1       0.323   4.683  -4.014  1.00  0.00    -0.391 OA
HETATM   33  H11 UNL     1       0.520   5.533  -4.446  1.00  0.00     0.210 HD
ENDBRANCH  31  32
BRANCH  31  34
HETATM   34  C10 UNL     1      -0.715   5.818  -2.133  1.00  0.00     0.198 C 
BRANCH  34  35
HETATM   35  O3  UNL     1      -1.954   6.170  -1.532  1.00  0.00    -0.398 OA
HETATM   36  H14 UNL     1      -2.258   7.005  -1.928  1.00  0.00     0.209 HD
ENDBRANCH  34  35
ENDBRANCH  31  34
ENDBRANCH  30  31
ENDBRANCH  29  30
ENDBRANCH  28  29
ENDBRANCH  16  28
ENDBRANCH   1  16
BRANCH   5  37
HETATM   37  O4  UNL     1       0.359  -1.195  -1.118  1.00  0.00    -0.394 OA
HETATM   38  H21 UNL     1       0.837  -0.733  -1.830  1.00  0.00     0.210 HD
ENDBRANCH   5  37
BRANCH   6  39
HETATM   39  C17 UNL     1      -3.497   0.911  -0.152  1.00  0.00     0.012 C 
BRANCH  39  40
HETATM   40  C18 UNL     1      -3.609   1.910   1.012  1.00  0.00     0.027 C 
BRANCH  40  41
HETATM   41  C19 UNL     1      -4.028   3.296   0.517  1.00  0.00     0.164 C 
BRANCH  41  42
HETATM   42  O5  UNL     1      -5.295   3.228  -0.128  1.00  0.00    -0.401 OA
HETATM   43  H29 UNL     1      -5.973   3.478   0.522  1.00  0.00     0.209 HD
ENDBRANCH  41  42
ENDBRANCH  40  41
ENDBRANCH  39  40
ENDBRANCH   6  39
BRANCH  14  44
HETATM   44  O7  UNL     1      -1.421  -3.062  -0.965  1.00  0.00    -0.389 OA
HETATM   45  H43 UNL     1      -0.569  -2.708  -1.299  1.00  0.00     0.210 HD
ENDBRANCH  14  44
BRANCH   8  46
HETATM   46  C22 UNL     1      -4.011  -0.498  -2.882  1.00  0.00     0.265 C 
HETATM   47  O6  UNL     1      -4.509  -0.444  -4.003  1.00  0.00    -0.302 OA
ENDBRANCH   8  46
TORSDOF 20
