REMARK  6 active torsions:
REMARK  status: ('A' for Active; 'I' for Inactive)
REMARK    1  A    between atoms: C2_2  and  C4_4 
REMARK    2  A    between atoms: C11_11  and  C12_12 
REMARK    3  A    between atoms: C12_12  and  O2_14 
REMARK    4  A    between atoms: C21_23  and  O3_24 
REMARK    5  A    between atoms: C22_25  and  C24_27 
REMARK    6  A    between atoms: C24_27  and  O4_28 
ROOT
HETATM    1  C4  UNL     1       4.522  -0.418  -0.973  1.00  0.00     0.018 C 
HETATM    2  C5  UNL     1       5.828   0.351  -0.625  1.00  0.00     0.010 C 
HETATM    3  C6  UNL     1       5.417   1.557   0.238  1.00  0.00     0.010 C 
HETATM    4  C7  UNL     1       3.933   1.768  -0.089  1.00  0.00    -0.039 C 
HETATM    5  C8  UNL     1       3.835   2.531  -1.436  1.00  0.00     0.015 C 
HETATM    6  C9  UNL     1       3.145   2.522   0.987  1.00  0.00     0.011 C 
HETATM    7  C10 UNL     1       1.619   2.414   0.762  1.00  0.00     0.022 C 
HETATM    8  C11 UNL     1       1.076   0.940   0.588  1.00  0.00     0.057 C 
HETATM    9  C13 UNL     1       1.957   0.219  -0.507  1.00  0.00     0.011 C 
HETATM   10  C14 UNL     1       1.460  -1.178  -0.880  1.00  0.00     0.007 C 
HETATM   11  C15 UNL     1      -0.019  -1.190  -1.256  1.00  0.00     0.006 C 
HETATM   12  C16 UNL     1      -0.936  -0.549  -0.189  1.00  0.00     0.003 C 
HETATM   13  C17 UNL     1      -2.508  -0.775  -0.470  1.00  0.00    -0.035 C 
HETATM   14  C18 UNL     1      -2.803  -0.723  -1.992  1.00  0.00     0.016 C 
HETATM   15  C19 UNL     1      -2.827  -2.228   0.014  1.00  0.00     0.012 C 
HETATM   16  C20 UNL     1      -4.306  -2.567   0.104  1.00  0.00     0.033 C 
HETATM   17  C21 UNL     1      -5.017  -1.604   1.044  1.00  0.00     0.128 C 
HETATM   18  C22 UNL     1      -4.925  -0.132   0.575  1.00  0.00     0.007 C 
HETATM   19  C23 UNL     1      -5.764   0.095  -0.717  1.00  0.00     0.020 C 
HETATM   20  C25 UNL     1      -3.400   0.275   0.321  1.00  0.00     0.007 C 
HETATM   21  C26 UNL     1      -2.650   0.678   1.605  1.00  0.00     0.007 C 
HETATM   22  C27 UNL     1      -1.373   1.469   1.319  1.00  0.00     0.011 C 
HETATM   23  C28 UNL     1      -0.486   0.918   0.163  1.00  0.00    -0.022 C 
HETATM   24  C29 UNL     1      -0.716   1.849  -1.064  1.00  0.00     0.017 C 
HETATM   25  C30 UNL     1       3.451   0.294  -0.117  1.00  0.00     0.007 C 
ENDROOT
BRANCH   8  26
HETATM   26  C12 UNL     1       1.263   0.286   1.990  1.00  0.00     0.149 C 
HETATM   27  O1  UNL     1       1.472   0.873   3.042  1.00  0.00    -0.649 OA
BRANCH  26  28
HETATM   28  O2  UNL     1       1.166  -1.048   2.033  1.00  0.00    -0.776 OA
HETATM   29  H18 UNL     1       1.296  -1.263   2.980  1.00  0.00     0.167 HD
ENDBRANCH  26  28
ENDBRANCH   8  26
BRANCH   1  30
HETATM   30  C2  UNL     1       4.735  -1.917  -0.816  1.00  0.00    -0.089 C 
HETATM   31  C1  UNL     1       4.400  -2.634   0.270  1.00  0.00     0.014 C 
HETATM   32  C3  UNL     1       5.393  -2.591  -1.991  1.00  0.00     0.043 C 
ENDBRANCH   1  30
BRANCH  18  33
HETATM   33  C24 UNL     1      -5.623   0.793   1.623  1.00  0.00     0.176 C 
BRANCH  33  34
HETATM   34  O4  UNL     1      -5.308   0.432   2.965  1.00  0.00    -0.400 OA
HETATM   35  H39 UNL     1      -5.663   1.136   3.537  1.00  0.00     0.209 HD
ENDBRANCH  33  34
ENDBRANCH  18  33
BRANCH  17  36
HETATM   36  O3  UNL     1      -6.379  -2.021   1.155  1.00  0.00    -0.395 OA
HETATM   37  H33 UNL     1      -6.692  -1.685   2.014  1.00  0.00     0.210 HD
ENDBRANCH  17  36
TORSDOF 6
