REMARK  9 active torsions:
REMARK  status: ('A' for Active; 'I' for Inactive)
REMARK    1  A    between atoms: C3_3  and  O1_4 
REMARK    2  A    between atoms: N1_14  and  O2_16 
REMARK    3  A    between atoms: O2_16  and  C13_17 
REMARK    4  A    between atoms: C13_17  and  C14_18 
REMARK       I    between atoms: C14_18  and  N2_20 
REMARK    5  A    between atoms: N2_20  and  C15_21 
REMARK    6  A    between atoms: C15_21  and  C16_22 
REMARK    7  A    between atoms: C15_21  and  C17_25 
REMARK    8  A    between atoms: C16_22  and  O5_24 
REMARK    9  A    between atoms: C17_25  and  C19_27 
ROOT
HETATM    1  C1  UNL     1      -7.701  -3.310   1.329  1.00  0.00     0.015 C 
HETATM    2  C2  UNL     1      -7.007  -2.684   0.575  1.00  0.00    -0.078 C 
HETATM    3  C3  UNL     1      -6.154  -1.938  -0.362  1.00  0.00     0.128 C 
HETATM    4  C4  UNL     1      -6.983  -0.988  -1.266  1.00  0.00     0.052 C 
HETATM    5  C5  UNL     1      -6.098   0.252  -1.522  1.00  0.00     0.010 C 
HETATM    6  C6  UNL     1      -4.749  -0.096  -0.897  1.00  0.00     0.002 C 
HETATM    7  C7  UNL     1      -3.790   1.043  -0.535  1.00  0.00    -0.004 C 
HETATM    8  C8  UNL     1      -3.495   1.948  -1.747  1.00  0.00     0.010 C 
HETATM    9  C9  UNL     1      -2.428   3.003  -1.448  1.00  0.00     0.035 C 
HETATM   10  C10 UNL     1      -1.204   2.320  -0.889  1.00  0.00    -0.069 C 
HETATM   11  C11 UNL     1      -0.062   2.305  -1.599  1.00  0.00     0.030 C 
HETATM   12  C12 UNL     1       1.061   1.401  -1.240  1.00  0.00     0.032 C 
HETATM   13  N1  UNL     1       2.163   1.498  -1.927  1.00  0.00    -0.271 N 
ATOM     14  H1  UNL     1       2.311   2.171  -2.679  1.00  0.00     0.194 HD
HETATM   15  C21 UNL     1       0.807   0.372  -0.157  1.00  0.00     0.060 C 
HETATM   16  C22 UNL     1      -0.068   0.977   0.928  1.00  0.00     0.020 C 
HETATM   17  C23 UNL     1      -1.422   1.536   0.410  1.00  0.00    -0.016 C 
HETATM   18  C24 UNL     1      -1.933   2.471   1.536  1.00  0.00     0.020 C 
HETATM   19  C25 UNL     1      -2.471   0.422   0.054  1.00  0.00     0.002 C 
HETATM   20  C26 UNL     1      -2.767  -0.577   1.201  1.00  0.00     0.007 C 
HETATM   21  C27 UNL     1      -3.832  -1.628   0.836  1.00  0.00     0.014 C 
HETATM   22  C28 UNL     1      -5.128  -0.981   0.316  1.00  0.00     0.003 C 
HETATM   23  C29 UNL     1      -5.800  -0.179   1.468  1.00  0.00     0.020 C 
ENDROOT
BRANCH   3  24
HETATM   24  O1  UNL     1      -5.485  -2.903  -1.177  1.00  0.00    -0.377 OA
HETATM   25  H2  UNL     1      -5.306  -2.511  -2.046  1.00  0.00     0.211 HD
ENDBRANCH   3  24
BRANCH  13  26
HETATM   26  O2  UNL     1       3.121   0.566  -1.509  1.00  0.00    -0.271 OA
BRANCH  26  27
HETATM   27  C13 UNL     1       4.240   0.617  -2.392  1.00  0.00     0.303 C 
BRANCH  27  28
HETATM   28  C14 UNL     1       5.490   0.100  -1.686  1.00  0.00     0.244 C 
HETATM   29  O3  UNL     1       6.424  -0.404  -2.302  1.00  0.00    -0.271 OA
HETATM   30  N2  UNL     1       5.481   0.295  -0.318  1.00  0.00    -0.344 N 
HETATM   31  H16 UNL     1       4.714   0.857   0.035  1.00  0.00     0.163 HD
BRANCH  30  32
HETATM   32  C15 UNL     1       6.639   0.097   0.558  1.00  0.00     0.186 C 
BRANCH  32  33
HETATM   33  C16 UNL     1       7.590   1.292   0.359  1.00  0.00     0.163 C 
HETATM   34  O4  UNL     1       7.802   1.927  -0.661  1.00  0.00    -0.648 OA
BRANCH  33  35
HETATM   35  O5  UNL     1       8.207   1.659   1.506  1.00  0.00    -0.775 OA
HETATM   36  H18 UNL     1       8.769   2.413   1.226  1.00  0.00     0.167 HD
ENDBRANCH  33  35
ENDBRANCH  32  33
BRANCH  32  37
HETATM   37  C17 UNL     1       7.317  -1.297   0.475  1.00  0.00     0.014 C 
HETATM   38  C18 UNL     1       8.654  -1.326   1.236  1.00  0.00     0.012 C 
BRANCH  37  39
HETATM   39  C19 UNL     1       6.430  -2.429   1.052  1.00  0.00     0.002 C 
HETATM   40  C20 UNL     1       5.175  -2.745   0.253  1.00  0.00     0.005 C 
ENDBRANCH  37  39
ENDBRANCH  32  37
ENDBRANCH  30  32
ENDBRANCH  27  28
ENDBRANCH  26  27
ENDBRANCH  13  26
TORSDOF 9
