REMARK  10 active torsions:
REMARK  status: ('A' for Active; 'I' for Inactive)
REMARK    1  A    between atoms: N1_6  and  O1_8 
REMARK    2  A    between atoms: O1_8  and  C6_9 
REMARK    3  A    between atoms: C6_9  and  C7_10 
REMARK       I    between atoms: C7_10  and  N2_12 
REMARK    4  A    between atoms: N2_12  and  C8_13 
REMARK    5  A    between atoms: C8_13  and  C9_14 
REMARK    6  A    between atoms: C20_27  and  O3_28 
REMARK    7  A    between atoms: C27_35  and  O4_36 
REMARK    8  A    between atoms: C27_35  and  C28_37 
REMARK    9  A    between atoms: C28_37  and  C29_39 
REMARK   10  A    between atoms: C29_39  and  O6_40 
ROOT
HETATM    1  C1  UNL     1      -1.020  -1.461   2.261  1.00  0.00     0.020 C 
HETATM    2  C2  UNL     1      -0.801  -1.257   0.741  1.00  0.00    -0.014 C 
HETATM    3  C3  UNL     1      -0.175  -2.548   0.153  1.00  0.00     0.020 C 
HETATM    4  C4  UNL     1       1.220  -2.857   0.690  1.00  0.00     0.060 C 
HETATM    5  C5  UNL     1       2.146  -1.658   0.698  1.00  0.00     0.032 C 
HETATM    6  N1  UNL     1       3.410  -1.910   0.865  1.00  0.00    -0.271 N 
ATOM      7  H1  UNL     1       3.796  -2.849   0.968  1.00  0.00     0.194 HD
HETATM    8  C14 UNL     1       1.542  -0.308   0.520  1.00  0.00     0.030 C 
HETATM    9  C15 UNL     1       0.209  -0.120   0.520  1.00  0.00    -0.069 C 
HETATM   10  C16 UNL     1      -0.331   1.252   0.186  1.00  0.00     0.035 C 
HETATM   11  C17 UNL     1      -1.669   1.551   0.846  1.00  0.00     0.010 C 
HETATM   12  C18 UNL     1      -2.730   0.455   0.620  1.00  0.00    -0.002 C 
HETATM   13  C19 UNL     1      -2.151  -0.860   0.017  1.00  0.00     0.031 C 
HETATM   14  C20 UNL     1      -3.276  -1.923  -0.014  1.00  0.00     0.124 C 
HETATM   15  C21 UNL     1      -4.500  -1.420  -0.796  1.00  0.00     0.045 C 
HETATM   16  C22 UNL     1      -5.085  -0.070  -0.306  1.00  0.00     0.001 C 
HETATM   17  C23 UNL     1      -5.835  -0.320   1.015  1.00  0.00     0.019 C 
HETATM   18  C24 UNL     1      -3.965   0.982  -0.136  1.00  0.00     0.002 C 
HETATM   19  C25 UNL     1      -3.698   1.502  -1.559  1.00  0.00     0.009 C 
HETATM   20  C26 UNL     1      -4.963   1.212  -2.374  1.00  0.00     0.047 C 
HETATM   21  C27 UNL     1      -5.983   0.589  -1.401  1.00  0.00     0.128 C 
ENDROOT
BRANCH   6  22
HETATM   22  O1  UNL     1       4.182  -0.737   0.887  1.00  0.00    -0.271 OA
BRANCH  22  23
HETATM   23  C6  UNL     1       5.547  -1.099   1.006  1.00  0.00     0.303 C 
BRANCH  23  24
HETATM   24  C7  UNL     1       6.449   0.126   1.131  1.00  0.00     0.244 C 
HETATM   25  O2  UNL     1       6.038   1.281   1.190  1.00  0.00    -0.271 OA
HETATM   26  N2  UNL     1       7.796  -0.193   1.180  1.00  0.00    -0.355 N 
HETATM   27  H10 UNL     1       8.081  -1.132   0.938  1.00  0.00     0.162 HD
BRANCH  26  28
HETATM   28  C8  UNL     1       8.816   0.831   1.208  1.00  0.00     0.161 C 
BRANCH  28  29
HETATM   29  C9  UNL     1       9.310   1.141  -0.179  1.00  0.00    -0.038 A 
HETATM   30  C10 UNL     1       8.598   2.018  -1.004  1.00  0.00     0.025 A 
HETATM   31  C11 UNL     1       9.074   2.267  -2.281  1.00  0.00     0.088 A 
HETATM   32  N3  UNL     1      10.195   1.707  -2.787  1.00  0.00    -0.375 N 
HETATM   33  C12 UNL     1      10.864   0.858  -1.979  1.00  0.00     0.088 A 
ATOM     34  H3  UNL     1      10.519   1.915  -3.731  1.00  0.00     0.164 HD
HETATM   35  C13 UNL     1      10.466   0.542  -0.687  1.00  0.00     0.025 A 
ENDBRANCH  28  29
ENDBRANCH  26  28
ENDBRANCH  23  24
ENDBRANCH  22  23
ENDBRANCH   6  22
BRANCH  14  36
HETATM   36  O3  UNL     1      -2.836  -3.103  -0.681  1.00  0.00    -0.395 OA
HETATM   37  H25 UNL     1      -3.566  -3.747  -0.655  1.00  0.00     0.210 HD
ENDBRANCH  14  36
BRANCH  21  38
HETATM   38  O4  UNL     1      -6.754  -0.395  -2.085  1.00  0.00    -0.381 OA
HETATM   39  H36 UNL     1      -6.966  -0.057  -2.974  1.00  0.00     0.211 HD
ENDBRANCH  21  38
BRANCH  21  40
HETATM   40  C28 UNL     1      -6.922   1.697  -0.855  1.00  0.00     0.184 C 
HETATM   41  O5  UNL     1      -6.541   2.853  -0.641  1.00  0.00    -0.292 OA
BRANCH  40  42
HETATM   42  C29 UNL     1      -8.375   1.316  -0.582  1.00  0.00     0.245 C 
BRANCH  42  43
HETATM   43  O6  UNL     1      -9.049   2.327   0.157  1.00  0.00    -0.393 OA
HETATM   44  H39 UNL     1      -8.549   3.155   0.007  1.00  0.00     0.209 HD
ENDBRANCH  42  43
ENDBRANCH  40  42
ENDBRANCH  21  40
TORSDOF 10
