REMARK  6 active torsions:
REMARK  status: ('A' for Active; 'I' for Inactive)
REMARK    1  A    between atoms: C2_2  and  C3_3 
REMARK    2  A    between atoms: C5_5  and  C6_6 
REMARK    3  A    between atoms: C6_6  and  C7_7 
REMARK    4  A    between atoms: C8_8  and  C9_9 
REMARK       I    between atoms: C9_9  and  N1_11 
REMARK    5  A    between atoms: N1_11  and  C10_12 
REMARK    6  A    between atoms: C10_12  and  C12_14 
ROOT
HETATM    1  C7  UNL     1      -0.517   0.404  -0.717  1.00  0.00     0.036 C 
HETATM    2  C8  UNL     1       0.862  -0.089  -0.294  1.00  0.00     0.011 C 
HETATM    3  C18 UNL     1       1.111  -1.297   0.241  1.00  0.00    -0.013 C 
HETATM    4  C19 UNL     1       0.052  -2.322   0.475  1.00  0.00     0.034 C 
HETATM    5  C20 UNL     1      -1.247  -2.044  -0.313  1.00  0.00     0.005 C 
HETATM    6  C21 UNL     1      -2.361  -3.135  -0.047  1.00  0.00    -0.043 C 
HETATM    7  C22 UNL     1      -2.346  -3.734   1.377  1.00  0.00     0.015 C 
HETATM    8  C23 UNL     1      -2.110  -4.322  -1.016  1.00  0.00     0.015 C 
HETATM    9  C24 UNL     1      -3.778  -2.579  -0.313  1.00  0.00     0.009 C 
HETATM   10  C25 UNL     1      -3.783  -1.543  -1.420  1.00  0.00     0.002 C 
HETATM   11  C26 UNL     1      -2.978  -0.300  -1.047  1.00  0.00     0.010 C 
HETATM   12  C27 UNL     1      -1.699  -0.541  -0.182  1.00  0.00    -0.031 C 
HETATM   13  C28 UNL     1      -2.022  -0.199   1.295  1.00  0.00     0.016 C 
ENDROOT
BRANCH   2  14
HETATM   14  C9  UNL     1       2.046   0.756  -0.622  1.00  0.00     0.248 C 
HETATM   15  O1  UNL     1       2.236   1.164  -1.760  1.00  0.00    -0.268 OA
HETATM   16  N1  UNL     1       2.837   1.038   0.462  1.00  0.00    -0.349 N 
HETATM   17  H11 UNL     1       2.634   0.577   1.338  1.00  0.00     0.163 HD
BRANCH  16  18
HETATM   18  C10 UNL     1       4.137   1.669   0.320  1.00  0.00     0.114 C 
HETATM   19  C11 UNL     1       4.295   2.774   1.365  1.00  0.00     0.037 C 
BRANCH  18  20
HETATM   20  C12 UNL     1       5.215   0.597   0.365  1.00  0.00    -0.036 A 
HETATM   21  C13 UNL     1       5.825   0.178   1.557  1.00  0.00     0.009 A 
HETATM   22  C14 UNL     1       6.790  -0.833   1.547  1.00  0.00     0.001 A 
HETATM   23  C15 UNL     1       7.149  -1.449   0.350  1.00  0.00     0.000 A 
HETATM   24  C16 UNL     1       6.542  -1.057  -0.839  1.00  0.00     0.001 A 
HETATM   25  C17 UNL     1       5.580  -0.046  -0.831  1.00  0.00     0.009 A 
ENDBRANCH  18  20
ENDBRANCH  16  18
ENDBRANCH   2  14
BRANCH   1  26
HETATM   26  C6  UNL     1      -0.676   1.923  -0.369  1.00  0.00     0.038 C 
BRANCH  26  27
HETATM   27  C5  UNL     1      -1.841   2.615  -1.028  1.00  0.00    -0.019 C 
HETATM   28  C3  UNL     1      -2.809   3.371  -0.466  1.00  0.00    -0.067 C 
HETATM   29  C4  UNL     1      -2.890   3.691   1.004  1.00  0.00     0.048 C 
BRANCH  28  30
HETATM   30  C2  UNL     1      -3.844   3.925  -1.338  1.00  0.00    -0.004 C 
HETATM   31  C1  UNL     1      -4.901   4.656  -0.960  1.00  0.00     0.012 C 
ENDBRANCH  28  30
ENDBRANCH  26  27
ENDBRANCH   1  26
TORSDOF 6
