REMARK  12 active torsions:
REMARK  status: ('A' for Active; 'I' for Inactive)
REMARK    1  A    between atoms: C3_3  and  O1_4 
REMARK    2  A    between atoms: N1_14  and  O2_16 
REMARK    3  A    between atoms: O2_16  and  C13_17 
REMARK    4  A    between atoms: C13_17  and  C14_18 
REMARK       I    between atoms: C14_18  and  N2_20 
REMARK    5  A    between atoms: N2_20  and  C15_21 
REMARK    6  A    between atoms: C15_21  and  C16_22 
REMARK    7  A    between atoms: C15_21  and  C23_33 
REMARK       I    between atoms: C16_22  and  N3_24 
REMARK    8  A    between atoms: N3_24  and  C17_25 
REMARK    9  A    between atoms: C17_25  and  C18_26 
REMARK   10  A    between atoms: C17_25  and  C19_29 
REMARK   11  A    between atoms: C18_26  and  O6_28 
REMARK   12  A    between atoms: C19_29  and  C21_31 
ROOT
HETATM    1  C1  UNL     1      -9.864   3.105   0.159  1.00  0.00     0.015 C 
HETATM    2  C2  UNL     1      -9.196   2.111   0.259  1.00  0.00    -0.078 C 
HETATM    3  C3  UNL     1      -8.387   0.885   0.403  1.00  0.00     0.128 C 
HETATM    4  C4  UNL     1      -9.290  -0.326   0.713  1.00  0.00     0.052 C 
HETATM    5  C5  UNL     1      -8.625  -1.553   0.083  1.00  0.00     0.010 C 
HETATM    6  C6  UNL     1      -7.380  -1.064  -0.671  1.00  0.00     0.002 C 
HETATM    7  C7  UNL     1      -6.031  -1.526  -0.059  1.00  0.00    -0.004 C 
HETATM    8  C8  UNL     1      -5.870  -1.452   1.472  1.00  0.00     0.010 C 
HETATM    9  C9  UNL     1      -4.576  -2.126   1.922  1.00  0.00     0.035 C 
HETATM   10  C10 UNL     1      -3.360  -1.559   1.230  1.00  0.00    -0.069 C 
HETATM   11  C11 UNL     1      -2.257  -1.273   1.946  1.00  0.00     0.030 C 
HETATM   12  C12 UNL     1      -0.985  -0.848   1.304  1.00  0.00     0.032 C 
HETATM   13  N1  UNL     1       0.007  -0.525   2.086  1.00  0.00    -0.271 N 
ATOM     14  H1  UNL     1      -0.041  -0.533   3.105  1.00  0.00     0.194 HD
HETATM   15  C26 UNL     1      -0.916  -0.873  -0.211  1.00  0.00     0.060 C 
HETATM   16  C27 UNL     1      -2.276  -0.497  -0.789  1.00  0.00     0.020 C 
HETATM   17  C28 UNL     1      -3.443  -1.395  -0.290  1.00  0.00    -0.016 C 
HETATM   18  C29 UNL     1      -3.269  -2.801  -0.922  1.00  0.00     0.020 C 
HETATM   19  C30 UNL     1      -4.844  -0.806  -0.756  1.00  0.00     0.002 C 
HETATM   20  C31 UNL     1      -5.021   0.717  -0.566  1.00  0.00     0.007 C 
HETATM   21  C32 UNL     1      -6.325   1.246  -1.170  1.00  0.00     0.014 C 
HETATM   22  C33 UNL     1      -7.618   0.455  -0.887  1.00  0.00     0.003 C 
HETATM   23  C34 UNL     1      -8.535   0.619  -2.142  1.00  0.00     0.020 C 
ENDROOT
BRANCH   3  24
HETATM   24  O1  UNL     1      -7.486   1.130   1.475  1.00  0.00    -0.377 OA
HETATM   25  H2  UNL     1      -7.747   0.572   2.233  1.00  0.00     0.211 HD
ENDBRANCH   3  24
BRANCH  13  26
HETATM   26  O2  UNL     1       1.147  -0.165   1.354  1.00  0.00    -0.271 OA
BRANCH  26  27
HETATM   27  C13 UNL     1       2.040   0.543   2.211  1.00  0.00     0.303 C 
BRANCH  27  28
HETATM   28  C14 UNL     1       3.113   1.253   1.389  1.00  0.00     0.244 C 
HETATM   29  O3  UNL     1       3.563   2.354   1.703  1.00  0.00    -0.271 OA
HETATM   30  N2  UNL     1       3.561   0.545   0.289  1.00  0.00    -0.346 N 
HETATM   31  H16 UNL     1       3.393  -0.458   0.330  1.00  0.00     0.163 HD
BRANCH  30  32
HETATM   32  C15 UNL     1       4.754   0.979  -0.427  1.00  0.00     0.180 C 
BRANCH  32  33
HETATM   33  C16 UNL     1       5.990   0.356   0.264  1.00  0.00     0.241 C 
HETATM   34  O4  UNL     1       5.916  -0.646   0.973  1.00  0.00    -0.271 OA
HETATM   35  N3  UNL     1       7.185   0.991  -0.010  1.00  0.00    -0.344 N 
HETATM   36  H18 UNL     1       7.210   1.572  -0.841  1.00  0.00     0.163 HD
BRANCH  35  37
HETATM   37  C17 UNL     1       8.460   0.405   0.426  1.00  0.00     0.186 C 
BRANCH  37  38
HETATM   38  C18 UNL     1       8.891  -0.592  -0.655  1.00  0.00     0.163 C 
HETATM   39  O5  UNL     1       8.613  -0.534  -1.845  1.00  0.00    -0.648 OA
BRANCH  38  40
HETATM   40  O6  UNL     1       9.668  -1.586  -0.184  1.00  0.00    -0.775 OA
HETATM   41  H20 UNL     1       9.846  -2.153  -0.963  1.00  0.00     0.167 HD
ENDBRANCH  38  40
ENDBRANCH  37  38
BRANCH  37  42
HETATM   42  C19 UNL     1       9.510   1.505   0.706  1.00  0.00     0.014 C 
HETATM   43  C20 UNL     1       9.919   2.279  -0.557  1.00  0.00     0.012 C 
BRANCH  42  44
HETATM   44  C21 UNL     1      10.787   0.990   1.405  1.00  0.00     0.002 C 
HETATM   45  C22 UNL     1      10.531   0.371   2.774  1.00  0.00     0.005 C 
ENDBRANCH  42  44
ENDBRANCH  37  42
ENDBRANCH  35  37
ENDBRANCH  32  33
BRANCH  32  46
HETATM   46  C23 UNL     1       4.711   0.628  -1.933  1.00  0.00     0.009 C 
HETATM   47  C24 UNL     1       4.555  -0.873  -2.200  1.00  0.00     0.012 C 
HETATM   48  C25 UNL     1       3.590   1.398  -2.640  1.00  0.00     0.012 C 
ENDBRANCH  32  46
ENDBRANCH  30  32
ENDBRANCH  27  28
ENDBRANCH  26  27
ENDBRANCH  13  26
TORSDOF 12
