REMARK  13 active torsions:
REMARK  status: ('A' for Active; 'I' for Inactive)
REMARK    1  A    between atoms: C2_2  and  O1_3 
REMARK    2  A    between atoms: O1_3  and  C3_4 
REMARK       I    between atoms: C3_4  and  N1_6 
REMARK       I    between atoms: N2_9  and  C6_10 
REMARK    3  A    between atoms: C6_10  and  C7_12 
REMARK    4  A    between atoms: C7_12  and  C8_13 
REMARK    5  A    between atoms: C7_12  and  N5_24 
REMARK    6  A    between atoms: C8_13  and  C9_14 
REMARK    7  A    between atoms: C13_18  and  C14_19 
REMARK    8  A    between atoms: C14_19  and  N4_22 
REMARK    9  A    between atoms: N5_24  and  S1_25 
REMARK   10  A    between atoms: S1_25  and  C16_28 
REMARK   11  A    between atoms: C17_29  and  C18_30 
REMARK   12  A    between atoms: C22_34  and  C23_35 
REMARK   13  A    between atoms: C27_39  and  C28_40 
ROOT
HETATM    1  C7  UNL     1       0.075   1.634  -1.733  1.00  0.00     0.189 C 
ENDROOT
BRANCH   1   2
HETATM    2  C6  UNL     1       0.450   1.061  -0.352  1.00  0.00     0.243 C 
HETATM    3  N2  UNL     1       1.539   0.202  -0.230  1.00  0.00    -0.347 N 
HETATM    4  C5  UNL     1       2.517  -0.073  -1.291  1.00  0.00     0.146 C 
HETATM    5  C31 UNL     1       2.033  -0.045   1.131  1.00  0.00     0.146 C 
HETATM    6  C4  UNL     1       3.219  -1.429  -1.131  1.00  0.00     0.148 C 
HETATM    7  N1  UNL     1       3.692  -1.662   0.228  1.00  0.00    -0.325 N 
HETATM    8  C3  UNL     1       4.756  -2.530   0.408  1.00  0.00     0.362 C 
HETATM    9  C32 UNL     1       2.718  -1.405   1.288  1.00  0.00     0.148 C 
HETATM   10  O2  UNL     1       5.417  -2.996  -0.513  1.00  0.00    -0.238 OA
HETATM   11  O3  UNL     1      -0.230   1.376   0.633  1.00  0.00    -0.271 OA
BRANCH   8  12
HETATM   12  O1  UNL     1       4.982  -2.808   1.720  1.00  0.00    -0.304 OA
BRANCH  12  13
HETATM   13  C2  UNL     1       6.076  -3.692   2.001  1.00  0.00     0.176 C 
HETATM   14  C1  UNL     1       5.586  -5.128   2.003  1.00  0.00     0.034 C 
ENDBRANCH  12  13
ENDBRANCH   8  12
ENDBRANCH   1   2
BRANCH   1  15
HETATM   15  C8  UNL     1       1.022   2.762  -2.189  1.00  0.00     0.074 C 
BRANCH  15  16
HETATM   16  C9  UNL     1       1.183   3.908  -1.213  1.00  0.00    -0.055 A 
HETATM   17  C10 UNL     1       0.289   4.986  -1.220  1.00  0.00     0.007 A 
HETATM   18  C11 UNL     1       0.437   6.034  -0.310  1.00  0.00     0.002 A 
HETATM   19  C12 UNL     1       1.475   6.015   0.623  1.00  0.00     0.014 A 
HETATM   20  C13 UNL     1       2.368   4.939   0.653  1.00  0.00     0.002 A 
HETATM   21  C15 UNL     1       2.224   3.897  -0.273  1.00  0.00     0.022 A 
BRANCH  20  22
HETATM   22  C14 UNL     1       3.481   4.883   1.651  1.00  0.00     0.081 C 
HETATM   23  N3  UNL     1       4.453   4.046   1.473  1.00  0.00    -0.389 N 
HETATM   24  H16 UNL     1       5.145   4.161   2.215  1.00  0.00     0.157 HD
ATOM     25  H3  UNL     1       4.518   3.374   0.708  1.00  0.00     0.157 HD
BRANCH  22  26
HETATM   26  N4  UNL     1       3.477   5.689   2.754  1.00  0.00    -0.288 NA
HETATM   27  H17 UNL     1       2.561   5.971   3.088  1.00  0.00     0.125 HD
HETATM   28  H18 UNL     1       4.066   5.384   3.519  1.00  0.00     0.125 HD
ENDBRANCH  22  26
ENDBRANCH  20  22
ENDBRANCH  15  16
ENDBRANCH   1  15
BRANCH   1  29
HETATM   29  N5  UNL     1      -1.305   2.184  -1.657  1.00  0.00    -0.301 N 
HETATM   30  H20 UNL     1      -1.490   2.622  -0.750  1.00  0.00     0.173 HD
BRANCH  29  31
HETATM   31  S1  UNL     1      -2.608   1.317  -2.255  1.00  0.00     0.260 S 
HETATM   32  O4  UNL     1      -3.767   2.168  -2.131  1.00  0.00    -0.200 OA
HETATM   33  O5  UNL     1      -2.234   0.872  -3.579  1.00  0.00    -0.200 OA
BRANCH  31  34
HETATM   34  C16 UNL     1      -2.781  -0.090  -1.119  1.00  0.00     0.092 A 
HETATM   35  C17 UNL     1      -3.516   0.048   0.104  1.00  0.00    -0.030 A 
HETATM   36  C21 UNL     1      -3.665  -1.107   0.922  1.00  0.00     0.016 A 
HETATM   37  C22 UNL     1      -3.153  -2.357   0.589  1.00  0.00    -0.054 A 
HETATM   38  C26 UNL     1      -2.466  -2.473  -0.613  1.00  0.00     0.016 A 
HETATM   39  C27 UNL     1      -2.246  -1.377  -1.480  1.00  0.00    -0.030 A 
BRANCH  35  40
HETATM   40  C18 UNL     1      -4.257   1.263   0.689  1.00  0.00     0.012 C 
HETATM   41  C19 UNL     1      -3.515   2.590   0.845  1.00  0.00     0.015 C 
HETATM   42  C20 UNL     1      -5.673   1.419   0.121  1.00  0.00     0.015 C 
ENDBRANCH  35  40
BRANCH  37  43
HETATM   43  C23 UNL     1      -3.345  -3.572   1.478  1.00  0.00     0.010 C 
HETATM   44  C24 UNL     1      -4.824  -3.946   1.607  1.00  0.00     0.015 C 
HETATM   45  C25 UNL     1      -2.710  -3.370   2.856  1.00  0.00     0.015 C 
ENDBRANCH  37  43
BRANCH  39  46
HETATM   46  C28 UNL     1      -1.499  -1.705  -2.778  1.00  0.00     0.012 C 
HETATM   47  C29 UNL     1      -2.480  -2.188  -3.852  1.00  0.00     0.015 C 
HETATM   48  C30 UNL     1      -0.360  -2.731  -2.626  1.00  0.00     0.015 C 
ENDBRANCH  39  46
ENDBRANCH  31  34
ENDBRANCH  29  31
ENDBRANCH   1  29
TORSDOF 13
