REMARK  4 active torsions:
REMARK  status: ('A' for Active; 'I' for Inactive)
REMARK    1  A    between atoms: C10_11  and  O2_12 
REMARK    2  A    between atoms: C14_16  and  C15_17 
REMARK    3  A    between atoms: C15_17  and  O3_18 
REMARK    4  A    between atoms: C16_20  and  O5_21 
ROOT
HETATM    1  C1  UNL     1      -4.477  -0.569   0.505  1.00  0.00     0.023 C 
HETATM    2  C2  UNL     1      -3.532   0.412  -0.201  1.00  0.00     0.018 C 
HETATM    3  C3  UNL     1      -4.195   0.834  -1.532  1.00  0.00     0.023 C 
HETATM    4  C4  UNL     1      -3.400   1.682   0.664  1.00  0.00     0.135 C 
HETATM    5  O1  UNL     1      -4.309   2.509   0.755  1.00  0.00    -0.297 OA
HETATM    6  C5  UNL     1      -2.093   1.896   1.402  1.00  0.00     0.080 C 
HETATM    7  C6  UNL     1      -1.612   0.556   1.930  1.00  0.00     0.022 C 
HETATM    8  C7  UNL     1      -1.201  -0.433   0.799  1.00  0.00    -0.007 C 
HETATM    9  C8  UNL     1      -1.355  -1.852   1.412  1.00  0.00     0.021 C 
HETATM   10  C9  UNL     1       0.242  -0.360   0.237  1.00  0.00     0.003 A 
HETATM   11  C10 UNL     1       1.319   0.295   0.850  1.00  0.00     0.107 A 
HETATM   12  C11 UNL     1       2.565   0.298   0.236  1.00  0.00     0.112 A 
HETATM   13  C12 UNL     1       2.808  -0.327  -0.969  1.00  0.00     0.015 A 
HETATM   14  C13 UNL     1       4.236  -0.166  -1.325  1.00  0.00     0.079 C 
HETATM   15  C14 UNL     1       4.623   0.930  -0.318  1.00  0.00     0.157 C 
HETATM   16  O4  UNL     1       3.667   0.923   0.774  1.00  0.00    -0.340 OA
HETATM   17  C16 UNL     1       1.785  -0.995  -1.609  1.00  0.00     0.089 A 
HETATM   18  C17 UNL     1       0.508  -1.024  -1.012  1.00  0.00     0.053 A 
HETATM   19  C18 UNL     1      -0.600  -1.782  -1.680  1.00  0.00     0.163 C 
HETATM   20  O6  UNL     1      -0.382  -2.774  -2.369  1.00  0.00    -0.292 OA
HETATM   21  C19 UNL     1      -2.026  -1.326  -1.443  1.00  0.00     0.091 C 
HETATM   22  C20 UNL     1      -2.097  -0.147  -0.469  1.00  0.00     0.021 C 
ENDROOT
BRANCH  15  23
HETATM   23  C15 UNL     1       6.035   0.744   0.232  1.00  0.00     0.196 C 
BRANCH  23  24
HETATM   24  O3  UNL     1       7.002   0.808  -0.808  1.00  0.00    -0.398 OA
HETATM   25  H20 UNL     1       7.153   1.748  -1.013  1.00  0.00     0.209 HD
ENDBRANCH  23  24
ENDBRANCH  15  23
BRANCH  17  26
HETATM   26  O5  UNL     1       2.009  -1.571  -2.823  1.00  0.00    -0.359 OA
HETATM   27  H21 UNL     1       2.956  -1.740  -2.945  1.00  0.00     0.217 HD
ENDBRANCH  17  26
BRANCH  11  28
HETATM   28  O2  UNL     1       1.210   0.950   2.037  1.00  0.00    -0.357 OA
HETATM   29  H14 UNL     1       2.101   1.289   2.253  1.00  0.00     0.217 HD
ENDBRANCH  11  28
TORSDOF 4
