REMARK  7 active torsions:
REMARK  status: ('A' for Active; 'I' for Inactive)
REMARK    1  A    between atoms: C3_3  and  C4_4 
REMARK    2  A    between atoms: C4_4  and  O1_5 
REMARK    3  A    between atoms: C6_9  and  C7_10 
REMARK    4  A    between atoms: C7_10  and  C9_12 
REMARK    5  A    between atoms: C9_12  and  O4_13 
REMARK    6  A    between atoms: C10_14  and  O5_15 
REMARK    7  A    between atoms: C17_22  and  O6_23 
ROOT
HETATM    1  C9  UNL     1       1.276  -0.725  -0.669  1.00  0.00     0.097 C 
HETATM    2  C10 UNL     1       1.433  -1.431   0.740  1.00  0.00     0.154 C 
HETATM    3  C11 UNL     1       0.046  -1.445   1.406  1.00  0.00     0.040 C 
HETATM    4  C12 UNL     1      -0.901  -0.916   0.340  1.00  0.00     0.004 C 
HETATM    5  C13 UNL     1      -2.265  -0.382   0.807  1.00  0.00    -0.001 C 
HETATM    6  C14 UNL     1      -3.023  -1.454   1.597  1.00  0.00     0.033 C 
HETATM    7  C15 UNL     1      -4.442  -1.075   1.867  1.00  0.00    -0.019 C 
HETATM    8  C16 UNL     1      -5.124  -0.116   1.209  1.00  0.00    -0.035 C 
HETATM    9  C17 UNL     1      -6.565   0.245   1.543  1.00  0.00     0.171 C 
HETATM   10  C18 UNL     1      -7.425   0.259   0.326  1.00  0.00     0.013 C 
HETATM   11  C19 UNL     1      -6.956   0.349  -0.924  1.00  0.00     0.050 C 
HETATM   12  C20 UNL     1      -5.499   0.498  -1.185  1.00  0.00     0.162 C 
HETATM   13  O7  UNL     1      -5.150   0.563  -2.364  1.00  0.00    -0.292 OA
HETATM   14  C21 UNL     1      -4.516   0.652   0.013  1.00  0.00     0.051 C 
HETATM   15  C22 UNL     1      -4.428   2.154   0.357  1.00  0.00     0.029 C 
HETATM   16  C23 UNL     1      -3.107   0.068  -0.420  1.00  0.00     0.011 C 
HETATM   17  C24 UNL     1      -2.281   1.004  -1.343  1.00  0.00     0.007 C 
HETATM   18  C25 UNL     1      -0.890   0.453  -1.702  1.00  0.00     0.013 C 
HETATM   19  C26 UNL     1      -0.049   0.116  -0.449  1.00  0.00    -0.006 C 
HETATM   20  C27 UNL     1       0.237   1.402   0.373  1.00  0.00     0.019 C 
ENDROOT
BRANCH   1  21
HETATM   21  C7  UNL     1       2.573   0.021  -1.171  1.00  0.00     0.049 C 
HETATM   22  C8  UNL     1       2.288   0.924  -2.384  1.00  0.00     0.016 C 
BRANCH  21  23
HETATM   23  C6  UNL     1       3.735  -0.965  -1.568  1.00  0.00     0.143 C 
HETATM   24  O3  UNL     1       3.976  -1.957  -0.550  1.00  0.00    -0.311 OA
HETATM   25  C5  UNL     1       4.763  -1.671   0.524  1.00  0.00     0.292 C 
HETATM   26  C3  UNL     1       5.586  -0.431   0.471  1.00  0.00     0.042 C 
HETATM   27  O2  UNL     1       4.746  -2.404   1.510  1.00  0.00    -0.260 OA
HETATM   28  C2  UNL     1       5.745   0.214  -0.704  1.00  0.00    -0.067 C 
HETATM   29  C1  UNL     1       6.564   1.457  -0.904  1.00  0.00     0.044 C 
HETATM   30  C28 UNL     1       5.080  -0.329  -1.935  1.00  0.00     0.067 C 
BRANCH  26  31
HETATM   31  C4  UNL     1       6.210  -0.022   1.772  1.00  0.00     0.209 C 
BRANCH  31  32
HETATM   32  O1  UNL     1       7.629  -0.066   1.655  1.00  0.00    -0.396 OA
HETATM   33  H6  UNL     1       7.982  -0.067   2.560  1.00  0.00     0.209 HD
ENDBRANCH  31  32
ENDBRANCH  26  31
ENDBRANCH  21  23
ENDBRANCH   1  21
BRANCH   1  34
HETATM   34  O4  UNL     1       0.971  -1.747  -1.646  1.00  0.00    -0.386 OA
HETATM   35  H12 UNL     1       1.588  -2.488  -1.509  1.00  0.00     0.210 HD
ENDBRANCH   1  34
BRANCH   2  36
HETATM   36  O5  UNL     1       2.323  -0.741   1.611  1.00  0.00    -0.392 OA
HETATM   37  H14 UNL     1       2.699  -1.414   2.214  1.00  0.00     0.210 HD
ENDBRANCH   2  36
BRANCH   9  38
HETATM   38  O6  UNL     1      -7.149  -0.687   2.440  1.00  0.00    -0.387 OA
HETATM   39  H23 UNL     1      -6.710  -0.546   3.297  1.00  0.00     0.210 HD
ENDBRANCH   9  38
TORSDOF 7
