REMARK  7 active torsions:
REMARK  status: ('A' for Active; 'I' for Inactive)
REMARK    1  A    between atoms: C2_2  and  C30_33 
REMARK    2  A    between atoms: C3_3  and  C4_4 
REMARK    3  A    between atoms: C4_4  and  C5_5 
REMARK    4  A    between atoms: C5_5  and  C6_6 
REMARK    5  A    between atoms: C6_6  and  C8_8 
REMARK    6  A    between atoms: C10_10  and  O1_11 
REMARK    7  A    between atoms: C30_33  and  O5_35 
ROOT
HETATM    1  C8  UNL     1      -2.057   0.314  -1.452  1.00  0.00     0.001 C 
HETATM    2  C9  UNL     1      -2.135   1.776  -0.943  1.00  0.00     0.038 C 
HETATM    3  C10 UNL     1      -0.727   2.136  -0.406  1.00  0.00     0.131 C 
HETATM    4  C11 UNL     1       0.204   1.023  -0.966  1.00  0.00     0.014 C 
HETATM    5  C12 UNL     1       0.591   1.404  -2.434  1.00  0.00     0.023 C 
HETATM    6  C13 UNL     1       1.542   0.706  -0.297  1.00  0.00    -0.058 C 
HETATM    7  C14 UNL     1       2.126  -0.516  -0.446  1.00  0.00    -0.000 C 
HETATM    8  C15 UNL     1       1.313  -1.655  -1.060  1.00  0.00     0.157 C 
HETATM    9  O2  UNL     1       1.785  -2.789  -1.143  1.00  0.00    -0.293 OA
HETATM   10  C16 UNL     1      -0.106  -1.400  -1.556  1.00  0.00     0.094 C 
HETATM   11  C17 UNL     1      -0.740  -0.221  -0.819  1.00  0.00    -0.019 C 
HETATM   12  C18 UNL     1      -0.977  -0.650   0.663  1.00  0.00     0.017 C 
HETATM   13  C19 UNL     1       3.578  -0.826   0.022  1.00  0.00    -0.008 C 
HETATM   14  C20 UNL     1       3.434  -1.678   1.305  1.00  0.00     0.021 C 
HETATM   15  C21 UNL     1       4.394  -1.646  -1.036  1.00  0.00     0.022 C 
HETATM   16  C22 UNL     1       5.683  -0.999  -1.525  1.00  0.00     0.080 C 
HETATM   17  C23 UNL     1       6.526  -0.502  -0.377  1.00  0.00     0.135 C 
HETATM   18  O3  UNL     1       7.729  -0.784  -0.311  1.00  0.00    -0.297 OA
HETATM   19  C24 UNL     1       5.844   0.445   0.624  1.00  0.00     0.018 C 
HETATM   20  C25 UNL     1       6.155  -0.040   2.051  1.00  0.00     0.023 C 
HETATM   21  C26 UNL     1       6.505   1.834   0.430  1.00  0.00     0.023 C 
HETATM   22  C27 UNL     1       4.326   0.538   0.262  1.00  0.00     0.014 C 
HETATM   23  C28 UNL     1       3.501   1.458   1.171  1.00  0.00     0.011 C 
HETATM   24  C29 UNL     1       2.203   1.838   0.460  1.00  0.00     0.036 C 
ENDROOT
BRANCH   1  25
HETATM   25  C6  UNL     1      -3.353  -0.540  -1.326  1.00  0.00    -0.013 C 
HETATM   26  C7  UNL     1      -4.239  -0.284  -2.562  1.00  0.00     0.010 C 
BRANCH  25  27
HETATM   27  C5  UNL     1      -4.191  -0.293  -0.050  1.00  0.00     0.008 C 
BRANCH  27  28
HETATM   28  C4  UNL     1      -5.185  -1.424   0.250  1.00  0.00     0.028 C 
BRANCH  28  29
HETATM   29  C3  UNL     1      -5.952  -1.148   1.515  1.00  0.00    -0.013 C 
HETATM   30  C2  UNL     1      -7.245  -0.777   1.624  1.00  0.00     0.008 C 
HETATM   31  C1  UNL     1      -8.187  -0.538   0.483  1.00  0.00     0.055 C 
BRANCH  30  32
HETATM   32  C30 UNL     1      -7.869  -0.572   2.959  1.00  0.00     0.171 C 
HETATM   33  O4  UNL     1      -9.029  -0.255   3.151  1.00  0.00    -0.646 OA
BRANCH  32  34
HETATM   34  O5  UNL     1      -7.035  -0.787   3.993  1.00  0.00    -0.773 OA
HETATM   35  H44 UNL     1      -7.599  -0.616   4.774  1.00  0.00     0.167 HD
ENDBRANCH  32  34
ENDBRANCH  30  32
ENDBRANCH  28  29
ENDBRANCH  27  28
ENDBRANCH  25  27
ENDBRANCH   1  25
BRANCH   3  36
HETATM   36  O1  UNL     1      -0.399   3.455  -0.817  1.00  0.00    -0.394 OA
HETATM   37  H17 UNL     1       0.465   3.689  -0.441  1.00  0.00     0.210 HD
ENDBRANCH   3  36
TORSDOF 7
