REMARK  8 active torsions:
REMARK  status: ('A' for Active; 'I' for Inactive)
REMARK    1  A    between atoms: O1_2  and  C2_3 
REMARK    2  A    between atoms: C3_6  and  N2_7 
REMARK    3  A    between atoms: N5_15  and  C7_16 
REMARK    4  A    between atoms: C9_18  and  N6_19 
REMARK    5  A    between atoms: N6_19  and  N7_21 
REMARK    6  A    between atoms: N7_21  and  N8_22 
REMARK    7  A    between atoms: C10_25  and  C11_26 
REMARK    8  A    between atoms: C11_26  and  O2_27 
ROOT
HETATM    1  C2  UNL     1       2.957   0.824  -1.669  1.00  0.00     0.175 A 
HETATM    2  N1  UNL     1       2.788  -0.498  -1.934  1.00  0.00    -0.311 N 
ATOM      3  H1  UNL     1       3.463  -1.005  -2.507  1.00  0.00     0.170 HD
HETATM    4  C3  UNL     1       1.715  -1.123  -1.427  1.00  0.00     0.158 A 
HETATM    5  N3  UNL     1       0.766  -0.591  -0.644  1.00  0.00    -0.317 N 
ATOM      6  H3  UNL     1      -0.025  -1.118  -0.272  1.00  0.00     0.170 HD
HETATM    7  C4  UNL     1       0.974   0.714  -0.404  1.00  0.00     0.144 A 
HETATM    8  C5  UNL     1       2.025   1.488  -0.869  1.00  0.00     0.129 A 
HETATM    9  N4  UNL     1       1.908   2.788  -0.426  1.00  0.00    -0.346 N 
ATOM     10  H4  UNL     1       2.535   3.569  -0.618  1.00  0.00     0.167 HD
HETATM   11  C6  UNL     1       0.810   2.801   0.299  1.00  0.00     0.188 A 
HETATM   12  N5  UNL     1       0.203   1.572   0.335  1.00  0.00    -0.300 N 
ENDROOT
BRANCH  12  13
HETATM   13  C7  UNL     1      -1.035   1.282   1.021  1.00  0.00     0.233 C 
HETATM   14  C8  UNL     1      -2.172   0.802   0.134  1.00  0.00     0.084 C 
HETATM   15  C9  UNL     1      -3.021   0.020   1.113  1.00  0.00     0.149 C 
HETATM   16  C10 UNL     1      -1.970  -0.586   2.054  1.00  0.00     0.172 C 
HETATM   17  O3  UNL     1      -0.808   0.267   2.015  1.00  0.00    -0.357 OA
BRANCH  15  18
HETATM   18  N6  UNL     1      -3.874   0.981   1.841  1.00  0.00    -0.245 N 
ATOM     19  H6  UNL     1      -3.644   1.973   1.904  1.00  0.00     0.197 HD
BRANCH  18  20
HETATM   20  N7  UNL     1      -4.893   0.500   2.374  1.00  0.00    -0.248 NA
BRANCH  20  21
HETATM   21  N8  UNL     1      -5.825   0.064   2.862  1.00  0.00    -0.261 N 
ATOM     22  H82 UNL     1      -5.049   0.604   2.479  1.00  0.00     0.193 HD
ATOM     23  H81 UNL     1      -6.659  -0.330   3.298  1.00  0.00     0.193 HD
ENDBRANCH  20  21
ENDBRANCH  18  20
ENDBRANCH  15  18
BRANCH  16  24
HETATM   24  C11 UNL     1      -1.563  -2.004   1.643  1.00  0.00     0.198 C 
BRANCH  24  25
HETATM   25  O2  UNL     1      -2.676  -2.884   1.749  1.00  0.00    -0.398 OA
HETATM   26  H14 UNL     1      -2.348  -3.780   1.555  1.00  0.00     0.209 HD
ENDBRANCH  24  25
ENDBRANCH  16  24
ENDBRANCH  12  13
BRANCH   4  27
HETATM   27  N2  UNL     1       1.604  -2.471  -1.710  1.00  0.00    -0.274 NA
HETATM   28  H4  UNL     1       1.097  -2.937  -0.972  1.00  0.00     0.127 HD
HETATM   29  H5  UNL     1       2.515  -2.839  -1.947  1.00  0.00     0.127 HD
ENDBRANCH   4  27
BRANCH   1  30
HETATM   30  O1  UNL     1       4.045   1.504  -2.182  1.00  0.00    -0.339 OA
HETATM   31  C1  UNL     1       4.862   0.699  -3.023  1.00  0.00     0.211 C 
ENDBRANCH   1  30
TORSDOF 8
