REMARK  18 active torsions:
REMARK  status: ('A' for Active; 'I' for Inactive)
REMARK    1  A    between atoms: C2_2  and  C4_4 
REMARK    2  A    between atoms: C4_4  and  N1_5 
REMARK    3  A    between atoms: C4_4  and  C30_38 
REMARK       I    between atoms: N1_5  and  C5_6 
REMARK    4  A    between atoms: C5_6  and  C6_8 
REMARK    5  A    between atoms: C6_8  and  C7_9 
REMARK    6  A    between atoms: C7_9  and  C8_10 
REMARK    7  A    between atoms: C8_10  and  O3_12 
REMARK    8  A    between atoms: O3_12  and  C9_13 
REMARK    9  A    between atoms: C9_13  and  C10_14 
REMARK   10  A    between atoms: C10_14  and  C11_16 
REMARK   11  A    between atoms: C11_16  and  O5_17 
REMARK   12  A    between atoms: C26_33  and  O7_34 
REMARK       I    between atoms: C30_38  and  N2_40 
REMARK   13  A    between atoms: N2_40  and  C31_41 
REMARK   14  A    between atoms: C31_41  and  C32_42 
REMARK   15  A    between atoms: C32_42  and  C33_43 
REMARK   16  A    between atoms: C32_42  and  C35_47 
REMARK   17  A    between atoms: C33_43  and  C34_44 
REMARK   18  A    between atoms: C34_44  and  O10_46 
ROOT
HETATM    1  C8  UNL     1       0.714  -0.882  -1.266  1.00  0.00     0.259 C 
HETATM    2  O2  UNL     1       0.177  -1.300  -2.283  1.00  0.00    -0.265 OA
ENDROOT
BRANCH   1   3
HETATM    3  C7  UNL     1       2.175  -1.040  -0.960  1.00  0.00     0.120 C 
BRANCH   3   4
HETATM    4  C6  UNL     1       2.895   0.256  -1.300  1.00  0.00     0.112 C 
BRANCH   4   5
HETATM    5  C5  UNL     1       4.393   0.069  -1.350  1.00  0.00     0.218 C 
HETATM    6  N1  UNL     1       5.054   1.177  -1.828  1.00  0.00    -0.347 N 
HETATM    7  H9  UNL     1       4.572   2.069  -1.795  1.00  0.00     0.163 HD
HETATM    8  O1  UNL     1       4.973  -0.946  -0.974  1.00  0.00    -0.274 OA
BRANCH   6   9
HETATM    9  C4  UNL     1       6.518   1.218  -1.941  1.00  0.00     0.179 C 
BRANCH   9  10
HETATM   10  C2  UNL     1       6.964   2.176  -3.072  1.00  0.00     0.009 C 
HETATM   11  C1  UNL     1       8.478   2.078  -3.317  1.00  0.00     0.012 C 
HETATM   12  C3  UNL     1       6.234   1.884  -4.389  1.00  0.00     0.012 C 
ENDBRANCH   9  10
BRANCH   9  13
HETATM   13  C30 UNL     1       7.081   1.629  -0.554  1.00  0.00     0.240 C 
HETATM   14  O8  UNL     1       7.638   2.703  -0.339  1.00  0.00    -0.271 OA
HETATM   15  N2  UNL     1       6.900   0.665   0.421  1.00  0.00    -0.359 N 
HETATM   16  H43 UNL     1       6.402  -0.182   0.160  1.00  0.00     0.162 HD
BRANCH  15  17
HETATM   17  C31 UNL     1       7.403   0.816   1.775  1.00  0.00     0.132 C 
BRANCH  17  18
HETATM   18  C32 UNL     1       8.206  -0.398   2.285  1.00  0.00     0.046 C 
BRANCH  18  19
HETATM   19  C33 UNL     1       7.294  -1.626   2.456  1.00  0.00     0.120 C 
BRANCH  19  20
HETATM   20  C34 UNL     1       7.896  -2.664   3.364  1.00  0.00     0.140 C 
HETATM   21  O9  UNL     1       8.084  -3.838   3.093  1.00  0.00    -0.650 OA
BRANCH  20  22
HETATM   22  O10 UNL     1       8.147  -2.193   4.602  1.00  0.00    -0.776 OA
HETATM   23  H49 UNL     1       8.461  -2.974   5.103  1.00  0.00     0.167 HD
ENDBRANCH  20  22
ENDBRANCH  19  20
ENDBRANCH  18  19
BRANCH  18  24
HETATM   24  C35 UNL     1       9.461  -0.629   1.447  1.00  0.00    -0.052 A 
HETATM   25  C36 UNL     1      10.644   0.043   1.801  1.00  0.00     0.007 A 
HETATM   26  C37 UNL     1      11.809  -0.107   1.046  1.00  0.00     0.001 A 
HETATM   27  C38 UNL     1      11.810  -0.930  -0.077  1.00  0.00     0.000 A 
HETATM   28  C39 UNL     1      10.646  -1.597  -0.446  1.00  0.00     0.001 A 
HETATM   29  C40 UNL     1       9.479  -1.446   0.306  1.00  0.00     0.007 A 
ENDBRANCH  18  24
ENDBRANCH  17  18
ENDBRANCH  15  17
ENDBRANCH   9  13
ENDBRANCH   6   9
ENDBRANCH   4   5
ENDBRANCH   3   4
ENDBRANCH   1   3
BRANCH   1  30
HETATM   30  O3  UNL     1       0.106  -0.149  -0.296  1.00  0.00    -0.314 OA
BRANCH  30  31
HETATM   31  C9  UNL     1      -1.297   0.105  -0.476  1.00  0.00     0.260 C 
BRANCH  31  32
HETATM   32  C10 UNL     1      -2.028  -0.186   0.828  1.00  0.00     0.185 C 
HETATM   33  O4  UNL     1      -1.564  -0.985   1.657  1.00  0.00    -0.292 OA
BRANCH  32  34
HETATM   34  C11 UNL     1      -3.388   0.490   1.132  1.00  0.00     0.128 C 
HETATM   35  C12 UNL     1      -3.459   2.016   0.891  1.00  0.00     0.047 C 
HETATM   36  C13 UNL     1      -4.939   2.330   0.562  1.00  0.00     0.009 C 
HETATM   37  C14 UNL     1      -5.675   1.015   0.820  1.00  0.00     0.002 C 
HETATM   38  C15 UNL     1      -7.079   0.808   0.230  1.00  0.00    -0.002 C 
HETATM   39  C28 UNL     1      -4.649  -0.065   0.400  1.00  0.00     0.001 C 
HETATM   40  C16 UNL     1      -8.011   1.968   0.644  1.00  0.00     0.010 C 
HETATM   41  C25 UNL     1      -7.624  -0.581   0.727  1.00  0.00     0.031 C 
HETATM   42  C17 UNL     1      -9.480   1.719   0.299  1.00  0.00     0.035 C 
HETATM   43  C18 UNL     1      -9.895   0.371   0.836  1.00  0.00    -0.068 C 
HETATM   44  C19 UNL     1     -10.795   0.293   1.834  1.00  0.00     0.053 C 
HETATM   45  C23 UNL     1      -9.115  -0.832   0.289  1.00  0.00    -0.014 C 
HETATM   46  C20 UNL     1     -10.998  -0.966   2.586  1.00  0.00     0.149 C 
HETATM   47  O6  UNL     1     -11.868  -1.021   3.450  1.00  0.00    -0.293 OA
HETATM   48  C21 UNL     1     -10.041  -2.102   2.330  1.00  0.00     0.084 C 
HETATM   49  C22 UNL     1      -9.710  -2.158   0.850  1.00  0.00     0.022 C 
HETATM   50  C24 UNL     1      -9.301  -0.916  -1.249  1.00  0.00     0.020 C 
HETATM   51  C26 UNL     1      -6.620  -1.740   0.458  1.00  0.00     0.124 C 
HETATM   52  C27 UNL     1      -5.176  -1.425   0.906  1.00  0.00     0.045 C 
HETATM   53  C29 UNL     1      -4.414  -0.101  -1.130  1.00  0.00     0.019 C 
BRANCH  34  54
HETATM   54  O5  UNL     1      -3.576   0.327   2.559  1.00  0.00    -0.381 OA
HETATM   55  H16 UNL     1      -3.048  -0.454   2.829  1.00  0.00     0.211 HD
ENDBRANCH  34  54
BRANCH  51  56
HETATM   56  O7  UNL     1      -6.605  -2.173  -0.894  1.00  0.00    -0.395 OA
HETATM   57  H37 UNL     1      -6.798  -1.423  -1.475  1.00  0.00     0.210 HD
ENDBRANCH  51  56
ENDBRANCH  32  34
ENDBRANCH  31  32
ENDBRANCH  30  31
ENDBRANCH   1  30
TORSDOF 18
