REMARK  10 active torsions:
REMARK  status: ('A' for Active; 'I' for Inactive)
REMARK    1  A    between atoms: O1_1  and  C1_2 
REMARK    2  A    between atoms: C1_2  and  C2_3 
REMARK    3  A    between atoms: C3_5  and  C4_6 
REMARK    4  A    between atoms: C4_6  and  O2_7 
REMARK    5  A    between atoms: C4_6  and  C5_8 
REMARK    6  A    between atoms: C5_8  and  C6_9 
REMARK    7  A    between atoms: C6_9  and  C7_10 
REMARK    8  A    between atoms: C7_10  and  C8_11 
REMARK    9  A    between atoms: C17_22  and  O5_23 
REMARK   10  A    between atoms: C18_24  and  O6_25 
ROOT
HETATM    1  C4  UNL     1       2.575  -0.397   1.108  1.00  0.00     0.154 C 
ENDROOT
BRANCH   1   2
HETATM    2  C3  UNL     1       3.696  -0.697   0.078  1.00  0.00     0.280 C 
HETATM    3  N1  UNL     1       4.348   0.512  -0.487  1.00  0.00     0.102 N 
HETATM    4  C2  UNL     1       5.734   0.541   0.043  1.00  0.00     0.275 C 
HETATM    5  H5  UNL     1       3.858   1.369  -0.237  1.00  0.00     0.317 HD
HETATM    6  C18 UNL     1       6.110  -0.933   0.156  1.00  0.00     0.184 C 
HETATM    7  C17 UNL     1       4.822  -1.551   0.699  1.00  0.00     0.184 C 
BRANCH   4   8
HETATM    8  C1  UNL     1       6.658   1.310  -0.909  1.00  0.00     0.202 C 
BRANCH   8   9
HETATM    9  O1  UNL     1       6.413   0.910  -2.260  1.00  0.00    -0.399 OA
HETATM   10  H1  UNL     1       5.444   0.781  -2.307  1.00  0.00     0.209 HD
ENDBRANCH   8   9
ENDBRANCH   4   8
BRANCH   6  11
HETATM   11  O6  UNL     1       7.194  -1.144   1.054  1.00  0.00    -0.391 OA
HETATM   12  H33 UNL     1       7.211  -2.102   1.241  1.00  0.00     0.210 HD
ENDBRANCH   6  11
BRANCH   7  13
HETATM   13  O5  UNL     1       4.739  -2.928   0.326  1.00  0.00    -0.391 OA
HETATM   14  H31 UNL     1       4.779  -2.979  -0.646  1.00  0.00     0.210 HD
ENDBRANCH   7  13
ENDBRANCH   1   2
BRANCH   1  15
HETATM   15  O2  UNL     1       3.107   0.349   2.211  1.00  0.00    -0.393 OA
HETATM   16  H8  UNL     1       3.353   1.233   1.891  1.00  0.00     0.210 HD
ENDBRANCH   1  15
BRANCH   1  17
HETATM   17  C5  UNL     1       1.365   0.376   0.556  1.00  0.00     0.034 C 
BRANCH  17  18
HETATM   18  C6  UNL     1       0.596  -0.383  -0.525  1.00  0.00     0.005 C 
BRANCH  18  19
HETATM   19  C7  UNL     1      -0.631   0.365  -1.058  1.00  0.00     0.032 C 
BRANCH  19  20
HETATM   20  C8  UNL     1      -1.933   0.129  -0.278  1.00  0.00     0.125 C 
HETATM   21  C9  UNL     1      -1.960   0.803   1.098  1.00  0.00     0.032 C 
HETATM   22  C10 UNL     1      -3.382   1.148   1.543  1.00  0.00     0.008 C 
HETATM   23  C11 UNL     1      -4.384   0.191   0.913  1.00  0.00     0.068 C 
HETATM   24  C12 UNL     1      -4.303   0.223  -0.636  1.00  0.00     0.164 C 
HETATM   25  C13 UNL     1      -5.296   1.230  -1.259  1.00  0.00     0.068 C 
HETATM   26  O3  UNL     1      -4.531  -1.078  -1.182  1.00  0.00    -0.355 OA
HETATM   27  O4  UNL     1      -3.001   0.672  -1.060  1.00  0.00    -0.350 OA
HETATM   28  C14 UNL     1      -6.567   0.581  -1.803  1.00  0.00     0.007 C 
HETATM   29  C15 UNL     1      -6.957  -0.631  -0.982  1.00  0.00     0.026 C 
HETATM   30  C16 UNL     1      -5.814  -1.639  -0.917  1.00  0.00     0.171 C 
ENDBRANCH  19  20
ENDBRANCH  18  19
ENDBRANCH  17  18
ENDBRANCH   1  17
TORSDOF 10
