REMARK  8 active torsions:
REMARK  status: ('A' for Active; 'I' for Inactive)
REMARK    1  A    between atoms: C12_12  and  O1_13 
REMARK    2  A    between atoms: C17_18  and  O2_19 
REMARK    3  A    between atoms: C18_20  and  C19_21 
REMARK    4  A    between atoms: C19_21  and  C21_23 
REMARK    5  A    between atoms: C21_23  and  C22_24 
REMARK    6  A    between atoms: C22_24  and  C23_25 
REMARK    7  A    between atoms: C24_26  and  C26_28 
REMARK    8  A    between atoms: C26_28  and  O3_29 
ROOT
HETATM    1  C1  UNL     1      -1.994   3.313   0.829  1.00  0.00     0.044 C 
HETATM    2  C2  UNL     1      -3.067   2.423   0.254  1.00  0.00    -0.074 C 
HETATM    3  C3  UNL     1      -2.915   1.150  -0.197  1.00  0.00    -0.044 C 
HETATM    4  C4  UNL     1      -1.621   0.465  -0.496  1.00  0.00    -0.048 C 
HETATM    5  C5  UNL     1      -1.564  -0.889  -0.644  1.00  0.00    -0.064 C 
HETATM    6  C6  UNL     1      -2.745  -1.801  -0.432  1.00  0.00     0.036 C 
HETATM    7  C7  UNL     1      -3.962  -1.090   0.134  1.00  0.00     0.014 C 
HETATM    8  C8  UNL     1      -4.154   0.285  -0.528  1.00  0.00     0.030 C 
HETATM    9  C9  UNL     1      -5.554   0.907  -0.173  1.00  0.00    -0.014 C 
HETATM   10  C10 UNL     1      -5.933   0.716   1.316  1.00  0.00     0.018 C 
HETATM   11  C11 UNL     1      -6.659   0.226  -1.013  1.00  0.00     0.018 C 
HETATM   12  C12 UNL     1      -5.496   2.404  -0.546  1.00  0.00     0.130 C 
HETATM   13  C13 UNL     1      -4.410   3.125   0.252  1.00  0.00     0.067 C 
HETATM   14  C14 UNL     1      -0.296  -1.567  -1.171  1.00  0.00    -0.010 C 
HETATM   15  C15 UNL     1      -0.505  -1.618  -2.721  1.00  0.00     0.021 C 
HETATM   16  C16 UNL     1       0.063  -2.993  -0.709  1.00  0.00     0.046 C 
HETATM   17  C17 UNL     1       1.573  -3.139  -1.026  1.00  0.00     0.124 C 
HETATM   18  C18 UNL     1       2.126  -1.696  -1.236  1.00  0.00     0.027 C 
HETATM   19  C27 UNL     1       0.984  -0.795  -0.679  1.00  0.00    -0.026 C 
HETATM   20  C28 UNL     1       1.057  -0.698   0.875  1.00  0.00     0.016 C 
HETATM   21  C29 UNL     1       0.907   0.619  -1.259  1.00  0.00     0.015 C 
HETATM   22  C30 UNL     1      -0.381   1.328  -0.782  1.00  0.00     0.040 C 
ENDROOT
BRANCH  18  23
HETATM   23  C19 UNL     1       3.626  -1.395  -0.926  1.00  0.00    -0.011 C 
HETATM   24  C20 UNL     1       4.498  -2.236  -1.882  1.00  0.00     0.010 C 
BRANCH  23  25
HETATM   25  C21 UNL     1       4.124  -1.569   0.529  1.00  0.00     0.008 C 
BRANCH  25  26
HETATM   26  C22 UNL     1       5.596  -1.206   0.785  1.00  0.00     0.028 C 
BRANCH  26  27
HETATM   27  C23 UNL     1       5.944   0.211   0.419  1.00  0.00    -0.022 C 
HETATM   28  C24 UNL     1       5.920   1.297   1.220  1.00  0.00    -0.064 C 
HETATM   29  C25 UNL     1       6.347   2.644   0.694  1.00  0.00     0.045 C 
BRANCH  28  30
HETATM   30  C26 UNL     1       5.490   1.294   2.662  1.00  0.00     0.197 C 
BRANCH  30  31
HETATM   31  O3  UNL     1       4.323   2.092   2.799  1.00  0.00    -0.397 OA
HETATM   32  H41 UNL     1       3.683   1.758   2.144  1.00  0.00     0.209 HD
ENDBRANCH  30  31
ENDBRANCH  28  30
ENDBRANCH  26  27
ENDBRANCH  25  26
ENDBRANCH  23  25
ENDBRANCH  18  23
BRANCH  17  33
HETATM   33  O2  UNL     1       2.208  -3.847   0.019  1.00  0.00    -0.395 OA
HETATM   34  H25 UNL     1       1.798  -4.728   0.072  1.00  0.00     0.210 HD
ENDBRANCH  17  33
BRANCH  12  35
HETATM   35  O1  UNL     1      -6.752   3.058  -0.354  1.00  0.00    -0.394 OA
HETATM   36  H16 UNL     1      -6.905   3.160   0.600  1.00  0.00     0.210 HD
ENDBRANCH  12  35
TORSDOF 8
