REMARK  13 active torsions:
REMARK  status: ('A' for Active; 'I' for Inactive)
REMARK    1  A    between atoms: C3_3  and  C4_4 
REMARK    2  A    between atoms: C4_4  and  N1_5 
REMARK    3  A    between atoms: N1_5  and  C5_6 
REMARK    4  A    between atoms: C5_6  and  C6_7 
REMARK    5  A    between atoms: C6_7  and  O1_9 
REMARK    6  A    between atoms: C8_10  and  C9_11 
REMARK    7  A    between atoms: C9_11  and  O2_12 
REMARK    8  A    between atoms: C9_11  and  C10_13 
REMARK    9  A    between atoms: C10_13  and  O3_15 
REMARK   10  A    between atoms: C10_13  and  C12_16 
REMARK   11  A    between atoms: C19_24  and  C20_25 
REMARK   12  A    between atoms: C42_50  and  C43_51 
REMARK   13  A    between atoms: C43_51  and  O8_52 
ROOT
HETATM    1  C12 UNL     1       0.837   0.700  -1.170  1.00  0.00     0.034 C 
HETATM    2  C13 UNL     1       0.007   1.742  -1.976  1.00  0.00     0.012 C 
HETATM    3  C14 UNL     1      -1.418   1.173  -2.101  1.00  0.00     0.044 C 
HETATM    4  C15 UNL     1      -1.507   0.117  -0.988  1.00  0.00     0.093 C 
HETATM    5  O4  UNL     1      -1.526   0.685   0.344  1.00  0.00    -0.363 OA
HETATM    6  C16 UNL     1      -2.186   1.912   0.622  1.00  0.00     0.263 C 
HETATM    7  C17 UNL     1      -3.529   1.706   1.171  1.00  0.00    -0.080 C 
HETATM    8  C18 UNL     1      -4.615   1.608   1.678  1.00  0.00    -0.093 C 
HETATM    9  C19 UNL     1      -5.935   1.510   2.345  1.00  0.00     0.121 C 
HETATM   10  C26 UNL     1      -6.210   0.108   2.946  1.00  0.00     0.190 C 
HETATM   11  O5  UNL     1      -6.540  -0.930   2.015  1.00  0.00    -0.384 OA
HETATM   12  C27 UNL     1      -5.434  -1.527   1.343  1.00  0.00     0.122 C 
HETATM   13  C28 UNL     1      -4.655  -2.486   2.250  1.00  0.00     0.033 C 
HETATM   14  C29 UNL     1      -3.906  -3.588   1.482  1.00  0.00     0.013 C 
HETATM   15  C30 UNL     1      -3.531  -3.204   0.019  1.00  0.00    -0.026 C 
HETATM   16  C31 UNL     1      -2.970  -4.484  -0.660  1.00  0.00     0.016 C 
HETATM   17  C32 UNL     1      -4.850  -2.849  -0.739  1.00  0.00     0.071 C 
HETATM   18  C33 UNL     1      -5.974  -2.270   0.132  1.00  0.00     0.045 C 
HETATM   19  C34 UNL     1      -4.640  -1.964  -1.948  1.00  0.00     0.154 C 
HETATM   20  O6  UNL     1      -5.376  -2.022  -2.931  1.00  0.00    -0.293 OA
HETATM   21  C35 UNL     1      -3.572  -0.951  -1.932  1.00  0.00     0.057 C 
HETATM   22  C36 UNL     1      -2.586  -0.960  -1.027  1.00  0.00    -0.036 C 
HETATM   23  C37 UNL     1      -2.446  -2.034   0.052  1.00  0.00     0.026 C 
HETATM   24  C38 UNL     1      -0.983  -2.572   0.139  1.00  0.00     0.011 C 
HETATM   25  C39 UNL     1       0.125  -1.509   0.056  1.00  0.00     0.014 C 
HETATM   26  C40 UNL     1      -0.088  -0.569  -1.153  1.00  0.00    -0.002 C 
HETATM   27  C41 UNL     1       0.037  -1.386  -2.467  1.00  0.00     0.019 C 
ENDROOT
BRANCH   1  28
HETATM   28  C10 UNL     1       2.368   0.626  -1.516  1.00  0.00     0.087 C 
HETATM   29  C11 UNL     1       2.685   0.532  -3.020  1.00  0.00     0.049 C 
BRANCH  28  30
HETATM   30  C9  UNL     1       3.090   1.880  -0.897  1.00  0.00     0.181 C 
BRANCH  30  31
HETATM   31  C8  UNL     1       4.629   1.909  -1.013  1.00  0.00     0.160 C 
HETATM   32  C3  UNL     1       5.488   0.831  -0.340  1.00  0.00     0.051 C 
HETATM   33  C2  UNL     1       6.869   1.519  -0.363  1.00  0.00     0.021 C 
HETATM   34  C1  UNL     1       7.647   1.185  -1.640  1.00  0.00     0.013 C 
HETATM   35  C42 UNL     1       6.546   3.020  -0.293  1.00  0.00     0.149 C 
HETATM   36  O7  UNL     1       5.111   3.154  -0.444  1.00  0.00    -0.375 OA
BRANCH  32  37
HETATM   37  C4  UNL     1       5.051   0.486   1.104  1.00  0.00     0.277 C 
BRANCH  37  38
HETATM   38  N1  UNL     1       5.489  -0.829   1.591  1.00  0.00     0.086 N 
HETATM   39  H8  UNL     1       5.132  -1.555   0.970  1.00  0.00     0.315 HD
BRANCH  38  40
HETATM   40  C5  UNL     1       6.926  -0.980   1.793  1.00  0.00     0.300 C 
BRANCH  40  41
HETATM   41  C6  UNL     1       7.279  -2.250   2.593  1.00  0.00     0.142 C 
HETATM   42  C7  UNL     1       6.772  -2.193   4.027  1.00  0.00     0.041 C 
BRANCH  41  43
HETATM   43  O1  UNL     1       8.698  -2.409   2.637  1.00  0.00    -0.394 OA
HETATM   44  H15 UNL     1       8.993  -2.628   1.737  1.00  0.00     0.210 HD
ENDBRANCH  41  43
ENDBRANCH  40  41
ENDBRANCH  38  40
ENDBRANCH  37  38
ENDBRANCH  32  37
BRANCH  35  45
HETATM   45  C43 UNL     1       6.955   3.680   1.026  1.00  0.00     0.196 C 
BRANCH  45  46
HETATM   46  O8  UNL     1       6.614   5.067   0.990  1.00  0.00    -0.398 OA
HETATM   47  H61 UNL     1       5.703   5.103   0.640  1.00  0.00     0.209 HD
ENDBRANCH  45  46
ENDBRANCH  35  45
ENDBRANCH  30  31
BRANCH  30  48
HETATM   48  O2  UNL     1       2.602   3.086  -1.518  1.00  0.00    -0.390 OA
HETATM   49  H18 UNL     1       3.195   3.795  -1.195  1.00  0.00     0.210 HD
ENDBRANCH  30  48
ENDBRANCH  28  30
BRANCH  28  50
HETATM   50  O3  UNL     1       2.917  -0.543  -0.897  1.00  0.00    -0.387 OA
HETATM   51  H22 UNL     1       2.668  -1.314  -1.434  1.00  0.00     0.210 HD
ENDBRANCH  28  50
ENDBRANCH   1  28
BRANCH   9  52
HETATM   52  C20 UNL     1      -7.071   2.041   1.483  1.00  0.00    -0.040 A 
HETATM   53  C21 UNL     1      -7.279   1.581   0.173  1.00  0.00     0.008 A 
HETATM   54  C22 UNL     1      -8.322   2.086  -0.606  1.00  0.00     0.001 A 
HETATM   55  C23 UNL     1      -9.173   3.059  -0.089  1.00  0.00     0.000 A 
HETATM   56  C24 UNL     1      -8.985   3.523   1.212  1.00  0.00     0.001 A 
HETATM   57  C25 UNL     1      -7.943   3.018   1.993  1.00  0.00     0.008 A 
ENDBRANCH   9  52
TORSDOF 13
