REMARK  5 active torsions:
REMARK  status: ('A' for Active; 'I' for Inactive)
REMARK    1  A    between atoms: C2_2  and  C25_28 
REMARK    2  A    between atoms: C3_3  and  C4_4 
REMARK    3  A    between atoms: C4_4  and  C6_6 
REMARK    4  A    between atoms: C20_20  and  O1_21 
REMARK    5  A    between atoms: C25_28  and  C27_30 
ROOT
HETATM    1  C6  UNL     1      -1.256   0.089  -0.377  1.00  0.00     0.001 C 
HETATM    2  C7  UNL     1      -1.189  -0.848  -1.620  1.00  0.00     0.006 C 
HETATM    3  C8  UNL     1       0.291  -1.207  -1.838  1.00  0.00     0.009 C 
HETATM    4  C9  UNL     1       0.999  -0.574  -0.644  1.00  0.00     0.036 C 
HETATM    5  C10 UNL     1       0.184   0.709  -0.338  1.00  0.00    -0.033 C 
HETATM    6  C11 UNL     1       0.334   1.829  -1.390  1.00  0.00     0.016 C 
HETATM    7  C12 UNL     1       0.653   1.213   1.042  1.00  0.00     0.010 C 
HETATM    8  C13 UNL     1       2.170   1.471   1.088  1.00  0.00     0.010 C 
HETATM    9  C14 UNL     1       3.002   0.242   0.670  1.00  0.00     0.039 C 
HETATM   10  C15 UNL     1       2.523  -0.428  -0.664  1.00  0.00     0.123 C 
HETATM   11  C16 UNL     1       3.148   0.187  -1.888  1.00  0.00     0.014 C 
HETATM   12  C17 UNL     1       4.490   0.141  -1.878  1.00  0.00     0.014 C 
HETATM   13  C18 UNL     1       5.079  -0.406  -0.590  1.00  0.00     0.124 C 
HETATM   14  C19 UNL     1       6.606  -0.535  -0.663  1.00  0.00     0.078 C 
HETATM   15  C20 UNL     1       7.273  -0.785   0.695  1.00  0.00     0.121 C 
HETATM   16  C21 UNL     1       6.297  -1.076   1.831  1.00  0.00     0.033 C 
HETATM   17  C22 UNL     1       5.219   0.002   1.970  1.00  0.00     0.015 C 
HETATM   18  C23 UNL     1       4.574   0.460   0.623  1.00  0.00     0.001 C 
HETATM   19  C24 UNL     1       4.959   1.950   0.415  1.00  0.00     0.019 C 
HETATM   20  O2  UNL     1       4.541  -1.746  -0.410  1.00  0.00    -0.223 OA
HETATM   21  O3  UNL     1       3.070  -1.778  -0.649  1.00  0.00    -0.224 OA
ENDROOT
BRANCH   1  22
HETATM   22  C4  UNL     1      -2.496   1.022  -0.410  1.00  0.00     0.009 C 
HETATM   23  C5  UNL     1      -2.596   1.969   0.791  1.00  0.00     0.014 C 
BRANCH  22  24
HETATM   24  C3  UNL     1      -3.854   0.353  -0.598  1.00  0.00    -0.019 C 
HETATM   25  C2  UNL     1      -4.387  -0.771  -0.070  1.00  0.00    -0.083 C 
HETATM   26  C1  UNL     1      -3.681  -1.640   0.938  1.00  0.00     0.043 C 
BRANCH  25  27
HETATM   27  C25 UNL     1      -5.797  -1.257  -0.455  1.00  0.00     0.013 C 
HETATM   28  C26 UNL     1      -6.045  -1.142  -1.975  1.00  0.00     0.015 C 
BRANCH  27  29
HETATM   29  C27 UNL     1      -6.923  -0.555   0.371  1.00  0.00    -0.015 C 
HETATM   30  C28 UNL     1      -8.326  -1.018  -0.042  1.00  0.00     0.010 C 
HETATM   31  C29 UNL     1      -6.766  -0.768   1.882  1.00  0.00     0.010 C 
ENDBRANCH  27  29
ENDBRANCH  25  27
ENDBRANCH  22  24
ENDBRANCH   1  22
BRANCH  15  32
HETATM   32  O1  UNL     1       8.053   0.371   1.021  1.00  0.00    -0.395 OA
HETATM   33  H28 UNL     1       8.399   0.256   1.925  1.00  0.00     0.210 HD
ENDBRANCH  15  32
TORSDOF 5
