REMARK  6 active torsions:
REMARK  status: ('A' for Active; 'I' for Inactive)
REMARK    1  A    between atoms: C2_2  and  N1_3 
REMARK    2  A    between atoms: N1_3  and  C3_4 
REMARK    3  A    between atoms: N1_3  and  C22_25 
REMARK    4  A    between atoms: C3_4  and  C4_5 
REMARK    5  A    between atoms: C5_6  and  C6_7 
REMARK    6  A    between atoms: C9_11  and  C10_12 
ROOT
HETATM    1  C6  UNL     1       0.166   1.296   1.328  1.00  0.00    -0.033 C 
HETATM    2  C7  UNL     1      -0.803   2.284   1.399  1.00  0.00     0.036 C 
HETATM    3  C8  UNL     1      -2.064   2.085   0.816  1.00  0.00     0.043 C 
HETATM    4 CL1  UNL     1      -3.079   3.502   0.822  1.00  0.00    -0.084 Cl
HETATM    5  C9  UNL     1      -2.444   0.860   0.187  1.00  0.00    -0.010 C 
HETATM    6  C20 UNL     1      -1.398  -0.076   0.042  1.00  0.00     0.043 C 
HETATM    7 CL2  UNL     1      -1.442  -1.488  -0.953  1.00  0.00    -0.084 Cl
HETATM    8  C21 UNL     1      -0.137   0.127   0.638  1.00  0.00     0.036 C 
ENDROOT
BRANCH   1   9
HETATM    9  C5  UNL     1       1.473   1.507   1.954  1.00  0.00     0.009 C 
HETATM   10  C4  UNL     1       2.659   1.471   1.324  1.00  0.00    -0.007 C 
BRANCH  10  11
HETATM   11  C3  UNL     1       2.920   1.282  -0.147  1.00  0.00     0.144 C 
BRANCH  11  12
HETATM   12  N1  UNL     1       3.363  -0.079  -0.479  1.00  0.00    -0.405 N 
BRANCH  12  13
HETATM   13  C2  UNL     1       3.154  -0.391  -1.897  1.00  0.00     0.113 C 
HETATM   14  C1  UNL     1       4.092   0.278  -2.893  1.00  0.00     0.026 C 
ENDBRANCH  12  13
BRANCH  12  15
HETATM   15  C22 UNL     1       4.622  -0.521   0.160  1.00  0.00     0.079 C 
HETATM   16  C23 UNL     1       5.847   0.399   0.001  1.00  0.00     0.025 C 
HETATM   17  C24 UNL     1       7.022  -0.024   0.895  1.00  0.00     0.002 C 
HETATM   18  C25 UNL     1       6.927  -1.456   1.416  1.00  0.00     0.000 C 
HETATM   19  C26 UNL     1       6.384  -2.402   0.357  1.00  0.00     0.002 C 
HETATM   20  C27 UNL     1       5.014  -1.978  -0.186  1.00  0.00     0.025 C 
ENDBRANCH  12  15
ENDBRANCH  11  12
ENDBRANCH  10  11
ENDBRANCH   1   9
BRANCH   5  21
HETATM   21  C10 UNL     1      -3.902   0.714  -0.297  1.00  0.00     0.030 C 
HETATM   22  C11 UNL     1      -4.393  -0.448  -1.220  1.00  0.00    -0.005 C 
HETATM   23  C12 UNL     1      -4.639  -1.770  -0.455  1.00  0.00     0.010 C 
HETATM   24  C16 UNL     1      -5.755  -0.023  -1.833  1.00  0.00     0.010 C 
HETATM   25  C13 UNL     1      -5.673  -1.574   0.656  1.00  0.00    -0.013 C 
HETATM   26  C14 UNL     1      -7.004  -1.125   0.040  1.00  0.00     0.009 C 
HETATM   27  C19 UNL     1      -5.140  -0.500   1.610  1.00  0.00     0.010 C 
HETATM   28  C15 UNL     1      -6.803   0.190  -0.727  1.00  0.00    -0.013 C 
HETATM   29  C17 UNL     1      -6.306   1.260   0.257  1.00  0.00     0.010 C 
HETATM   30  C18 UNL     1      -4.954   0.834   0.867  1.00  0.00    -0.005 C 
ENDBRANCH   5  21
TORSDOF 6
