REMARK  12 active torsions:
REMARK  status: ('A' for Active; 'I' for Inactive)
REMARK    1  A    between atoms: C2_2  and  C3_3 
REMARK    2  A    between atoms: C2_2  and  C5_6 
REMARK    3  A    between atoms: C3_3  and  C4_4 
REMARK    4  A    between atoms: C4_4  and  O1_5 
REMARK    5  A    between atoms: C5_6  and  C6_7 
REMARK    6  A    between atoms: C6_7  and  C7_8 
REMARK    7  A    between atoms: C7_8  and  C9_10 
REMARK    8  A    between atoms: C10_11  and  O2_12 
REMARK    9  A    between atoms: C11_13  and  O3_14 
REMARK   10  A    between atoms: C22_25  and  O4_26 
REMARK   11  A    between atoms: C25_29  and  O5_30 
REMARK   12  A    between atoms: C27_32  and  O6_33 
ROOT
HETATM    1  C9  UNL     1       1.731   0.228  -0.281  1.00  0.00     0.029 C 
HETATM    2  C10 UNL     1       1.636   1.748   0.045  1.00  0.00     0.152 C 
HETATM    3  C11 UNL     1       0.196   2.201  -0.297  1.00  0.00     0.155 C 
HETATM    4  C12 UNL     1      -0.601   0.910  -0.148  1.00  0.00     0.060 C 
HETATM    5  C13 UNL     1       0.315  -0.124  -0.863  1.00  0.00    -0.029 C 
HETATM    6  C14 UNL     1       0.438   0.069  -2.409  1.00  0.00     0.016 C 
HETATM    7  C15 UNL     1      -0.239  -1.538  -0.625  1.00  0.00     0.011 C 
HETATM    8  C16 UNL     1      -1.721  -1.651  -1.028  1.00  0.00     0.009 C 
HETATM    9  C17 UNL     1      -2.609  -0.586  -0.331  1.00  0.00     0.029 C 
HETATM   10  C18 UNL     1      -4.154  -0.808  -0.567  1.00  0.00    -0.031 C 
HETATM   11  C19 UNL     1      -4.511  -0.907  -2.070  1.00  0.00     0.016 C 
HETATM   12  C20 UNL     1      -4.551  -2.185   0.082  1.00  0.00     0.012 C 
HETATM   13  C21 UNL     1      -5.963  -2.189   0.652  1.00  0.00     0.032 C 
HETATM   14  C22 UNL     1      -6.090  -1.184   1.797  1.00  0.00     0.118 C 
HETATM   15  C23 UNL     1      -5.232   0.070   1.592  1.00  0.00     0.039 C 
HETATM   16  C24 UNL     1      -5.001   0.347   0.092  1.00  0.00     0.025 C 
HETATM   17  C25 UNL     1      -4.425   1.759  -0.115  1.00  0.00     0.126 C 
HETATM   18  C26 UNL     1      -2.939   1.868   0.220  1.00  0.00     0.071 C 
HETATM   19  C27 UNL     1      -2.085   0.868  -0.585  1.00  0.00     0.071 C 
ENDROOT
BRANCH   1  20
HETATM   20  C7  UNL     1       2.278  -0.633   0.900  1.00  0.00    -0.011 C 
HETATM   21  C8  UNL     1       1.517  -0.496   2.229  1.00  0.00     0.010 C 
BRANCH  20  22
HETATM   22  C6  UNL     1       3.779  -0.347   1.190  1.00  0.00     0.005 C 
BRANCH  22  23
HETATM   23  C5  UNL     1       4.719  -0.690   0.026  1.00  0.00     0.005 C 
BRANCH  23  24
HETATM   24  C2  UNL     1       6.214  -0.721   0.424  1.00  0.00    -0.017 C 
HETATM   25  C1  UNL     1       7.031  -1.246  -0.761  1.00  0.00     0.010 C 
BRANCH  24  26
HETATM   26  C3  UNL     1       6.697   0.663   0.917  1.00  0.00     0.030 C 
BRANCH  26  27
HETATM   27  C4  UNL     1       8.170   0.722   1.317  1.00  0.00     0.164 C 
BRANCH  27  28
HETATM   28  O1  UNL     1       8.992   0.842   0.165  1.00  0.00    -0.401 OA
HETATM   29  H9  UNL     1       9.913   0.888   0.473  1.00  0.00     0.209 HD
ENDBRANCH  27  28
ENDBRANCH  26  27
ENDBRANCH  24  26
ENDBRANCH  23  24
ENDBRANCH  22  23
ENDBRANCH  20  22
ENDBRANCH   1  20
BRANCH   2  30
HETATM   30  O2  UNL     1       2.583   2.485  -0.727  1.00  0.00    -0.393 OA
HETATM   31  H20 UNL     1       2.481   3.418  -0.467  1.00  0.00     0.210 HD
ENDBRANCH   2  30
BRANCH   3  32
HETATM   32  O3  UNL     1      -0.211   3.198   0.637  1.00  0.00    -0.392 OA
HETATM   33  H22 UNL     1      -0.553   3.946   0.112  1.00  0.00     0.210 HD
ENDBRANCH   3  32
BRANCH  19  34
HETATM   34  O6  UNL     1      -2.159   1.217  -1.963  1.00  0.00    -0.389 OA
HETATM   35  H48 UNL     1      -3.036   1.626  -2.121  1.00  0.00     0.210 HD
ENDBRANCH  19  34
BRANCH  17  36
HETATM   36  O5  UNL     1      -4.603   2.162  -1.478  1.00  0.00    -0.395 OA
HETATM   37  H45 UNL     1      -5.563   2.168  -1.654  1.00  0.00     0.210 HD
ENDBRANCH  17  36
BRANCH  14  38
HETATM   38  O4  UNL     1      -7.463  -0.814   1.902  1.00  0.00    -0.396 OA
HETATM   39  H40 UNL     1      -7.564  -0.287   2.714  1.00  0.00     0.210 HD
ENDBRANCH  14  38
TORSDOF 12
