REMARK  9 active torsions:
REMARK  status: ('A' for Active; 'I' for Inactive)
REMARK    1  A    between atoms: C2_2  and  O1_3 
REMARK    2  A    between atoms: O1_3  and  C3_4 
REMARK    3  A    between atoms: C3_4  and  C4_6 
REMARK    4  A    between atoms: C5_7  and  C6_8 
REMARK    5  A    between atoms: C22_26  and  C23_27 
REMARK    6  A    between atoms: C23_27  and  O5_28 
REMARK    7  A    between atoms: C28_34  and  C29_35 
REMARK    8  A    between atoms: C29_35  and  O7_36 
REMARK    9  A    between atoms: C37_46  and  O10_48 
ROOT
HETATM    1  C4  UNL     1      -0.987   3.192   0.163  1.00  0.00     0.165 C 
HETATM    2  C5  UNL     1      -0.114   2.825  -0.791  1.00  0.00     0.053 C 
HETATM    3  C7  UNL     1       0.123   1.372  -1.055  1.00  0.00    -0.002 C 
HETATM    4  C8  UNL     1       1.254   1.021  -1.748  1.00  0.00    -0.066 C 
HETATM    5  C9  UNL     1       1.392  -0.183  -2.662  1.00  0.00     0.042 C 
HETATM    6  C10 UNL     1       2.538  -0.068  -3.668  1.00  0.00     0.083 C 
HETATM    7  C11 UNL     1       3.846   0.109  -2.917  1.00  0.00     0.136 C 
HETATM    8  O4  UNL     1       4.860  -0.493  -3.270  1.00  0.00    -0.297 OA
HETATM    9  C12 UNL     1       3.845   1.087  -1.760  1.00  0.00     0.092 C 
HETATM   10  C13 UNL     1       2.519   1.888  -1.769  1.00  0.00     0.052 C 
HETATM   11  C14 UNL     1       4.273   0.613  -0.367  1.00  0.00    -0.039 A 
HETATM   12  C15 UNL     1       4.753   1.674   0.454  1.00  0.00     0.022 A 
HETATM   13  C16 UNL     1       5.223   1.458   1.758  1.00  0.00    -0.008 A 
HETATM   14  C17 UNL     1       5.229   0.160   2.243  1.00  0.00     0.042 A 
HETATM   15  C18 UNL     1       4.771  -0.917   1.481  1.00  0.00     0.038 A 
HETATM   16  C19 UNL     1       4.264  -0.696   0.174  1.00  0.00    -0.049 A 
HETATM   17  C20 UNL     1       3.809  -1.944  -0.557  1.00  0.00     0.040 C 
HETATM   18  C21 UNL     1       2.745  -2.817   0.135  1.00  0.00     0.013 C 
HETATM   19  C22 UNL     1       1.478  -2.061   0.610  1.00  0.00     0.034 C 
HETATM   20  C24 UNL     1       0.192  -2.601  -0.060  1.00  0.00     0.182 C 
HETATM   21  O6  UNL     1      -0.216  -1.777  -1.180  1.00  0.00    -0.349 OA
HETATM   22  C25 UNL     1      -1.230  -0.920  -0.839  1.00  0.00     0.092 C 
HETATM   23  C26 UNL     1      -2.487  -1.475  -0.609  1.00  0.00     0.021 C 
HETATM   24  C27 UNL     1      -3.449  -0.781   0.129  1.00  0.00     0.090 C 
HETATM   25  C28 UNL     1      -3.213   0.470   0.636  1.00  0.00     0.034 C 
HETATM   26  C30 UNL     1      -1.992   1.067   0.255  1.00  0.00     0.101 C 
HETATM   27  C31 UNL     1      -1.019   0.455  -0.603  1.00  0.00     0.044 C 
HETATM   28  O8  UNL     1      -1.752   2.285   0.859  1.00  0.00    -0.302 OA
HETATM   29  O9  UNL     1      -4.609  -1.509   0.333  1.00  0.00    -0.341 OA
HETATM   30  C32 UNL     1      -4.511  -2.450  -0.753  1.00  0.00     0.175 C 
HETATM   31  C33 UNL     1      -3.028  -2.842  -0.850  1.00  0.00     0.079 C 
HETATM   32  C34 UNL     1      -2.809  -3.572  -2.134  1.00  0.00    -0.019 C 
HETATM   33  C35 UNL     1      -3.789  -4.338  -2.648  1.00  0.00    -0.027 C 
HETATM   34  C36 UNL     1      -5.168  -4.497  -2.015  1.00  0.00     0.067 C 
HETATM   35  C37 UNL     1      -5.375  -3.717  -0.678  1.00  0.00     0.085 C 
HETATM   36  C38 UNL     1      -6.848  -3.372  -0.452  1.00  0.00     0.049 C 
HETATM   37  N1  UNL     1       5.746   0.206   3.517  1.00  0.00    -0.365 N 
HETATM   38  C39 UNL     1       6.056   1.496   3.855  1.00  0.00     0.089 A 
HETATM   39  C40 UNL     1       5.742   2.298   2.780  1.00  0.00     0.030 A 
HETATM   40  H39 UNL     1       5.873  -0.600   4.117  1.00  0.00     0.165 HD
ENDROOT
BRANCH   1  41
HETATM   41  C3  UNL     1      -1.327   4.602   0.458  1.00  0.00     0.318 C 
HETATM   42  O2  UNL     1      -2.415   5.097   0.214  1.00  0.00    -0.257 OA
BRANCH  41  43
HETATM   43  O1  UNL     1      -0.258   5.213   1.034  1.00  0.00    -0.316 OA
BRANCH  43  44
HETATM   44  C2  UNL     1      -0.477   6.572   1.449  1.00  0.00     0.175 C 
HETATM   45  C1  UNL     1      -1.249   6.617   2.757  1.00  0.00     0.034 C 
ENDBRANCH  43  44
ENDBRANCH  41  43
ENDBRANCH   1  41
BRANCH   2  46
HETATM   46  C6  UNL     1       0.302   3.909  -1.745  1.00  0.00     0.273 C 
HETATM   47  O3  UNL     1       0.548   3.710  -2.933  1.00  0.00    -0.301 OA
ENDBRANCH   2  46
BRANCH  25  48
HETATM   48  C29 UNL     1      -4.190   1.145   1.551  1.00  0.00     0.208 C 
BRANCH  48  49
HETATM   49  O7  UNL     1      -3.811   0.903   2.898  1.00  0.00    -0.396 OA
HETATM   50  H28 UNL     1      -3.957  -0.046   3.056  1.00  0.00     0.209 HD
ENDBRANCH  48  49
ENDBRANCH  25  48
BRANCH  19  51
HETATM   51  C23 UNL     1       1.356  -2.192   2.141  1.00  0.00     0.170 C 
BRANCH  51  52
HETATM   52  O5  UNL     1       0.262  -1.423   2.626  1.00  0.00    -0.400 OA
HETATM   53  H23 UNL     1       0.428  -0.491   2.389  1.00  0.00     0.209 HD
ENDBRANCH  51  52
ENDBRANCH  19  51
BRANCH  35  54
HETATM   54  O10 UNL     1      -4.955  -4.548   0.420  1.00  0.00    -0.387 OA
HETATM   55  H38 UNL     1      -5.614  -5.249   0.531  1.00  0.00     0.210 HD
ENDBRANCH  35  54
TORSDOF 9
