REMARK  11 active torsions:
REMARK  status: ('A' for Active; 'I' for Inactive)
REMARK    1  A    between atoms: C3_3  and  O1_4 
REMARK    2  A    between atoms: N1_14  and  O2_16 
REMARK    3  A    between atoms: O2_16  and  C13_17 
REMARK    4  A    between atoms: C13_17  and  C14_18 
REMARK       I    between atoms: C14_18  and  N2_20 
REMARK    5  A    between atoms: N2_20  and  C15_21 
REMARK    6  A    between atoms: C15_21  and  C16_22 
REMARK    7  A    between atoms: C15_21  and  C17_25 
REMARK    8  A    between atoms: C16_22  and  O5_24 
REMARK    9  A    between atoms: C17_25  and  O6_26 
REMARK   10  A    between atoms: C17_25  and  C18_27 
REMARK   11  A    between atoms: C22_31  and  N3_32 
ROOT
HETATM    1  C1  UNL     1      -7.188   2.992  -1.251  1.00  0.00     0.015 C 
HETATM    2  C2  UNL     1      -7.223   1.948  -0.662  1.00  0.00    -0.078 C 
HETATM    3  C3  UNL     1      -7.290   0.684   0.102  1.00  0.00     0.128 C 
HETATM    4  C4  UNL     1      -7.258   0.984   1.623  1.00  0.00     0.052 C 
HETATM    5  C5  UNL     1      -5.803   0.760   2.089  1.00  0.00     0.010 C 
HETATM    6  C6  UNL     1      -5.021   0.459   0.809  1.00  0.00     0.002 C 
HETATM    7  C7  UNL     1      -3.704  -0.324   0.925  1.00  0.00    -0.004 C 
HETATM    8  C8  UNL     1      -2.705   0.383   1.857  1.00  0.00     0.010 C 
HETATM    9  C9  UNL     1      -1.372  -0.362   1.939  1.00  0.00     0.035 C 
HETATM   10  C10 UNL     1      -0.808  -0.568   0.554  1.00  0.00    -0.069 C 
HETATM   11  C11 UNL     1       0.390  -0.045   0.235  1.00  0.00     0.030 C 
HETATM   12  C12 UNL     1       0.863  -0.055  -1.170  1.00  0.00     0.032 C 
HETATM   13  N1  UNL     1       2.141   0.083  -1.396  1.00  0.00    -0.271 N 
ATOM     14  H1  UNL     1       2.850   0.164  -0.667  1.00  0.00     0.194 HD
HETATM   15  C24 UNL     1      -0.214  -0.222  -2.222  1.00  0.00     0.060 C 
HETATM   16  C25 UNL     1      -1.031  -1.445  -1.833  1.00  0.00     0.020 C 
HETATM   17  C26 UNL     1      -1.720  -1.315  -0.437  1.00  0.00    -0.016 C 
HETATM   18  C27 UNL     1      -1.933  -2.769   0.056  1.00  0.00     0.020 C 
HETATM   19  C28 UNL     1      -3.083  -0.523  -0.505  1.00  0.00     0.002 C 
HETATM   20  C29 UNL     1      -4.122  -1.108  -1.501  1.00  0.00     0.007 C 
HETATM   21  C30 UNL     1      -5.461  -0.345  -1.507  1.00  0.00     0.014 C 
HETATM   22  C31 UNL     1      -6.059  -0.250  -0.090  1.00  0.00     0.003 C 
HETATM   23  C32 UNL     1      -6.429  -1.689   0.386  1.00  0.00     0.020 C 
ENDROOT
BRANCH   3  24
HETATM   24  O1  UNL     1      -8.500   0.024  -0.240  1.00  0.00    -0.377 OA
HETATM   25  H2  UNL     1      -9.211   0.684  -0.170  1.00  0.00     0.211 HD
ENDBRANCH   3  24
BRANCH  13  26
HETATM   26  O2  UNL     1       2.414   0.105  -2.774  1.00  0.00    -0.271 OA
BRANCH  26  27
HETATM   27  C13 UNL     1       3.642  -0.563  -3.040  1.00  0.00     0.303 C 
BRANCH  27  28
HETATM   28  C14 UNL     1       4.876   0.313  -2.856  1.00  0.00     0.244 C 
HETATM   29  O3  UNL     1       5.766   0.392  -3.702  1.00  0.00    -0.271 OA
HETATM   30  N2  UNL     1       4.952   0.940  -1.636  1.00  0.00    -0.342 N 
HETATM   31  H16 UNL     1       4.072   1.015  -1.119  1.00  0.00     0.163 HD
BRANCH  30  32
HETATM   32  C15 UNL     1       6.007   1.908  -1.330  1.00  0.00     0.216 C 
BRANCH  32  33
HETATM   33  C16 UNL     1       5.524   3.318  -1.652  1.00  0.00     0.166 C 
HETATM   34  O4  UNL     1       4.375   3.692  -1.834  1.00  0.00    -0.648 OA
BRANCH  33  35
HETATM   35  O5  UNL     1       6.530   4.218  -1.704  1.00  0.00    -0.775 OA
HETATM   36  H18 UNL     1       6.078   5.052  -1.961  1.00  0.00     0.167 HD
ENDBRANCH  33  35
ENDBRANCH  32  33
BRANCH  32  37
HETATM   37  C17 UNL     1       6.451   1.849   0.151  1.00  0.00     0.184 C 
BRANCH  37  38
HETATM   38  O6  UNL     1       5.316   2.102   0.997  1.00  0.00    -0.388 OA
HETATM   39  H20 UNL     1       5.417   3.005   1.348  1.00  0.00     0.210 HD
ENDBRANCH  37  38
BRANCH  37  40
HETATM   40  C18 UNL     1       7.094   0.527   0.564  1.00  0.00    -0.025 A 
HETATM   41  C19 UNL     1       8.075  -0.086  -0.238  1.00  0.00     0.010 A 
HETATM   42  C20 UNL     1       8.681  -1.288   0.140  1.00  0.00     0.003 A 
HETATM   43  C21 UNL     1       8.330  -1.906   1.336  1.00  0.00     0.036 A 
HETATM   44  C22 UNL     1       7.384  -1.293   2.163  1.00  0.00     0.103 A 
HETATM   45  C23 UNL     1       6.771  -0.089   1.788  1.00  0.00     0.045 A 
BRANCH  44  46
HETATM   46  N3  UNL     1       7.030  -1.915   3.440  1.00  0.00    -0.116 N 
HETATM   47  O7  UNL     1       6.559  -1.183   4.325  1.00  0.00    -0.532 OA
HETATM   48  O8  UNL     1       7.235  -3.133   3.562  1.00  0.00    -0.532 OA
ENDBRANCH  44  46
ENDBRANCH  37  40
ENDBRANCH  32  37
ENDBRANCH  30  32
ENDBRANCH  27  28
ENDBRANCH  26  27
ENDBRANCH  13  26
TORSDOF 11
