REMARK  10 active torsions:
REMARK  status: ('A' for Active; 'I' for Inactive)
REMARK    1  A    between atoms: O1_2  and  C2_3 
REMARK    2  A    between atoms: C7_9  and  C8_10 
REMARK    3  A    between atoms: C8_10  and  C9_11 
REMARK    4  A    between atoms: C9_11  and  N2_12 
REMARK    5  A    between atoms: N2_12  and  C10_13 
REMARK    6  A    between atoms: C20_24  and  C21_25 
REMARK    7  A    between atoms: C21_25  and  C23_27 
REMARK    8  A    between atoms: C27_31  and  C28_32 
REMARK    9  A    between atoms: C28_32  and  O3_33 
REMARK   10  A    between atoms: C37_45  and  O7_46 
ROOT
HETATM    1  C10 UNL     1       2.392   1.436  -0.723  1.00  0.00     0.259 C 
HETATM    2  C11 UNL     1       1.018   2.034  -0.395  1.00  0.00     0.117 C 
HETATM    3  C12 UNL     1       0.148   1.063   0.377  1.00  0.00     0.141 C 
HETATM    4  O2  UNL     1      -0.605   1.471   1.267  1.00  0.00    -0.297 OA
HETATM    5  C13 UNL     1       0.224  -0.425  -0.001  1.00  0.00     0.057 C 
HETATM    6  C14 UNL     1       1.037  -1.133   1.116  1.00  0.00     0.027 C 
HETATM    7  C15 UNL     1      -1.215  -1.057  -0.007  1.00  0.00     0.009 C 
HETATM    8  C16 UNL     1      -2.269  -0.287  -0.832  1.00  0.00     0.007 C 
HETATM    9  C17 UNL     1      -3.109  -1.150  -1.769  1.00  0.00     0.010 C 
HETATM   10  C18 UNL     1      -3.679  -2.444  -1.159  1.00  0.00    -0.036 C 
HETATM   11  C19 UNL     1      -4.109  -3.340  -2.349  1.00  0.00     0.016 C 
HETATM   12  C20 UNL     1      -4.869  -2.291  -0.134  1.00  0.00     0.000 C 
HETATM   13  C30 UNL     1      -4.197  -2.267   1.235  1.00  0.00     0.006 C 
HETATM   14  C31 UNL     1      -3.139  -3.346   1.100  1.00  0.00     0.006 C 
HETATM   15  C32 UNL     1      -2.578  -3.215  -0.332  1.00  0.00    -0.001 C 
HETATM   16  C33 UNL     1      -1.167  -2.567  -0.335  1.00  0.00    -0.002 C 
HETATM   17  C34 UNL     1      -0.381  -2.925  -1.620  1.00  0.00     0.040 C 
HETATM   18  C35 UNL     1       0.669  -1.940  -2.045  1.00  0.00     0.161 A 
HETATM   19  O6  UNL     1       0.082  -0.720  -2.493  1.00  0.00    -0.365 OA
HETATM   20  C36 UNL     1       0.927  -0.616  -1.334  1.00  0.00     0.130 A 
HETATM   21  C37 UNL     1       2.199   0.174  -1.616  1.00  0.00     0.190 C 
ENDROOT
BRANCH   1  22
HETATM   22  N2  UNL     1       3.157   1.255   0.530  1.00  0.00     0.091 N 
HETATM   23  H12 UNL     1       3.192   2.147   1.036  1.00  0.00     0.316 HD
BRANCH  22  24
HETATM   24  C9  UNL     1       4.527   0.754   0.344  1.00  0.00     0.275 C 
BRANCH  24  25
HETATM   25  C8  UNL     1       5.256   0.661   1.698  1.00  0.00     0.070 C 
BRANCH  25  26
HETATM   26  C7  UNL     1       6.548  -0.091   1.591  1.00  0.00    -0.029 A 
HETATM   27  C6  UNL     1       6.770  -1.389   2.004  1.00  0.00     0.096 A 
HETATM   28  N1  UNL     1       8.058  -1.738   1.682  1.00  0.00    -0.365 N 
HETATM   29  C5  UNL     1       8.686  -0.691   1.057  1.00  0.00     0.043 A 
HETATM   30  H6  UNL     1       8.481  -2.640   1.865  1.00  0.00     0.165 HD
HETATM   31  C4  UNL     1       9.982  -0.594   0.534  1.00  0.00     0.033 A 
HETATM   32  C38 UNL     1       7.770   0.367   1.009  1.00  0.00     0.001 A 
HETATM   33  C3  UNL     1      10.351   0.623  -0.054  1.00  0.00     0.039 A 
HETATM   34  C2  UNL     1       9.479   1.712  -0.087  1.00  0.00     0.069 A 
HETATM   35  C39 UNL     1       8.182   1.585   0.427  1.00  0.00     0.051 A 
BRANCH  34  36
HETATM   36  O1  UNL     1       9.980   2.837  -0.691  1.00  0.00    -0.356 OA
HETATM   37  C1  UNL     1       9.311   4.055  -0.405  1.00  0.00     0.210 C 
ENDBRANCH  34  36
ENDBRANCH  25  26
ENDBRANCH  24  25
ENDBRANCH  22  24
ENDBRANCH   1  22
BRANCH  21  38
HETATM   38  O7  UNL     1       2.177   0.654  -2.969  1.00  0.00    -0.390 OA
HETATM   39  H51 UNL     1       2.642   0.005  -3.530  1.00  0.00     0.210 HD
ENDBRANCH  21  38
BRANCH  12  40
HETATM   40  C21 UNL     1      -6.105  -1.343  -0.299  1.00  0.00     0.016 C 
HETATM   41  C22 UNL     1      -6.808  -1.621  -1.642  1.00  0.00     0.013 C 
BRANCH  40  42
HETATM   42  C23 UNL     1      -6.071   0.197  -0.059  1.00  0.00     0.140 C 
HETATM   43  C24 UNL     1      -5.646   0.675   1.326  1.00  0.00     0.067 C 
HETATM   44  C25 UNL     1      -5.767   2.179   1.366  1.00  0.00    -0.067 C 
HETATM   45  C26 UNL     1      -6.124   2.769   2.703  1.00  0.00     0.044 C 
HETATM   46  C27 UNL     1      -5.531   2.905   0.245  1.00  0.00     0.042 C 
HETATM   47  C29 UNL     1      -5.134   2.210  -1.014  1.00  0.00     0.292 C 
HETATM   48  O4  UNL     1      -4.687   2.820  -1.977  1.00  0.00    -0.260 OA
HETATM   49  O5  UNL     1      -5.298   0.862  -1.063  1.00  0.00    -0.311 OA
BRANCH  46  50
HETATM   50  C28 UNL     1      -5.550   4.403   0.162  1.00  0.00     0.209 C 
BRANCH  50  51
HETATM   51  O3  UNL     1      -4.738   4.968   1.194  1.00  0.00    -0.396 OA
HETATM   52  H40 UNL     1      -4.446   5.835   0.863  1.00  0.00     0.209 HD
ENDBRANCH  50  51
ENDBRANCH  46  50
ENDBRANCH  40  42
ENDBRANCH  12  40
TORSDOF 10
