REMARK  8 active torsions:
REMARK  status: ('A' for Active; 'I' for Inactive)
REMARK    1  A    between atoms: C4_4  and  C5_5 
REMARK    2  A    between atoms: C5_5  and  C6_6 
REMARK    3  A    between atoms: C6_6  and  C7_7 
REMARK    4  A    between atoms: C7_7  and  C9_9 
REMARK    5  A    between atoms: C21_21  and  C22_22 
REMARK    6  A    between atoms: C22_22  and  C23_23 
REMARK    7  A    between atoms: C23_23  and  C24_24 
REMARK    8  A    between atoms: C24_24  and  O1_25 
ROOT
HETATM    1  C9  UNL     1       2.033  -0.803  -0.949  1.00  0.00    -0.002 C 
HETATM    2  C10 UNL     1       1.958  -0.356  -2.446  1.00  0.00     0.006 C 
HETATM    3  C11 UNL     1       0.626   0.400  -2.642  1.00  0.00     0.011 C 
HETATM    4  C12 UNL     1      -0.195   0.072  -1.380  1.00  0.00    -0.032 C 
HETATM    5  C13 UNL     1      -0.793  -1.343  -1.650  1.00  0.00     0.016 C 
HETATM    6  C14 UNL     1      -1.302   1.113  -1.009  1.00  0.00     0.003 C 
HETATM    7  C15 UNL     1      -2.394   1.344  -2.078  1.00  0.00     0.010 C 
HETATM    8  C16 UNL     1      -3.574   0.367  -2.084  1.00  0.00     0.035 C 
HETATM    9  C17 UNL     1      -3.795  -0.330  -0.749  1.00  0.00    -0.073 C 
HETATM   10  C18 UNL     1      -4.212  -1.625  -0.704  1.00  0.00    -0.085 C 
HETATM   11  C19 UNL     1      -4.282  -2.498   0.522  1.00  0.00     0.043 C 
HETATM   12  C20 UNL     1      -4.659  -2.384  -1.938  1.00  0.00     0.043 C 
HETATM   13  C21 UNL     1      -3.468   0.641   0.398  1.00  0.00     0.023 C 
HETATM   14  C25 UNL     1      -1.898   0.926   0.458  1.00  0.00    -0.032 C 
HETATM   15  C26 UNL     1      -1.721   2.272   1.225  1.00  0.00     0.016 C 
HETATM   16  C27 UNL     1      -1.159  -0.176   1.273  1.00  0.00     0.011 C 
HETATM   17  C28 UNL     1       0.359  -0.375   1.063  1.00  0.00     0.011 C 
HETATM   18  C29 UNL     1       0.939   0.102  -0.283  1.00  0.00    -0.032 C 
HETATM   19  C30 UNL     1       1.595   1.504  -0.063  1.00  0.00     0.016 C 
ENDROOT
BRANCH   1  20
HETATM   20  C7  UNL     1       3.498  -0.800  -0.409  1.00  0.00    -0.014 C 
HETATM   21  C8  UNL     1       4.376  -1.727  -1.270  1.00  0.00     0.010 C 
BRANCH  20  22
HETATM   22  C6  UNL     1       3.571  -1.229   1.076  1.00  0.00     0.008 C 
BRANCH  22  23
HETATM   23  C5  UNL     1       4.969  -1.213   1.715  1.00  0.00     0.028 C 
BRANCH  23  24
HETATM   24  C4  UNL     1       5.581   0.162   1.734  1.00  0.00    -0.025 C 
HETATM   25  C2  UNL     1       6.767   0.557   1.232  1.00  0.00    -0.091 C 
HETATM   26  C1  UNL     1       7.764  -0.329   0.538  1.00  0.00     0.042 C 
HETATM   27  C3  UNL     1       7.198   1.998   1.339  1.00  0.00     0.042 C 
ENDBRANCH  23  24
ENDBRANCH  22  23
ENDBRANCH  20  22
ENDBRANCH   1  20
BRANCH  13  28
HETATM   28  C22 UNL     1      -4.150   0.402   1.775  1.00  0.00     0.012 C 
BRANCH  28  29
HETATM   29  C23 UNL     1      -5.691   0.388   1.754  1.00  0.00     0.027 C 
BRANCH  29  30
HETATM   30  C24 UNL     1      -6.324   1.776   1.825  1.00  0.00     0.164 C 
BRANCH  30  31
HETATM   31  O1  UNL     1      -6.093   2.505   0.631  1.00  0.00    -0.401 OA
HETATM   32  H42 UNL     1      -6.579   3.343   0.710  1.00  0.00     0.209 HD
ENDBRANCH  30  31
ENDBRANCH  29  30
ENDBRANCH  28  29
ENDBRANCH  13  28
TORSDOF 8
