REMARK  8 active torsions:
REMARK  status: ('A' for Active; 'I' for Inactive)
REMARK    1  A    between atoms: C2_2  and  C3_3 
REMARK    2  A    between atoms: C2_2  and  C27_30 
REMARK    3  A    between atoms: C3_3  and  C4_4 
REMARK    4  A    between atoms: C4_4  and  C5_5 
REMARK    5  A    between atoms: C5_5  and  C7_7 
REMARK    6  A    between atoms: C26_28  and  O3_29 
REMARK    7  A    between atoms: C27_30  and  C29_32 
REMARK    8  A    between atoms: C29_32  and  O5_34 
ROOT
HETATM    1  C7  UNL     1       1.543  -0.837   1.007  1.00  0.00    -0.002 C 
HETATM    2  C8  UNL     1       1.174  -1.017   2.503  1.00  0.00     0.006 C 
HETATM    3  C9  UNL     1      -0.332  -0.746   2.614  1.00  0.00     0.010 C 
HETATM    4  C10 UNL     1      -0.833  -0.808   1.170  1.00  0.00     0.027 C 
HETATM    5  C11 UNL     1      -2.219  -0.348   0.761  1.00  0.00    -0.036 C 
HETATM    6  C12 UNL     1      -2.484  -0.051  -0.538  1.00  0.00     0.002 C 
HETATM    7  C13 UNL     1      -1.333  -0.015  -1.530  1.00  0.00     0.157 C 
HETATM    8  O1  UNL     1      -1.522   0.303  -2.704  1.00  0.00    -0.293 OA
HETATM    9  C14 UNL     1       0.067  -0.406  -1.089  1.00  0.00     0.093 C 
HETATM   10  C15 UNL     1       0.308  -0.109   0.390  1.00  0.00    -0.026 C 
HETATM   11  C16 UNL     1       0.335   1.419   0.612  1.00  0.00     0.016 C 
HETATM   12  C17 UNL     1      -3.903   0.258  -1.068  1.00  0.00    -0.008 C 
HETATM   13  C18 UNL     1      -3.981   1.795  -1.258  1.00  0.00     0.021 C 
HETATM   14  C19 UNL     1      -4.194  -0.445  -2.436  1.00  0.00     0.022 C 
HETATM   15  C20 UNL     1      -5.637  -0.884  -2.677  1.00  0.00     0.080 C 
HETATM   16  C21 UNL     1      -6.622  -0.006  -1.955  1.00  0.00     0.131 C 
HETATM   17  O2  UNL     1      -7.587   0.492  -2.533  1.00  0.00    -0.298 OA
HETATM   18  C22 UNL     1      -6.421   0.161  -0.457  1.00  0.00     0.056 C 
HETATM   19  C23 UNL     1      -7.497  -0.648   0.267  1.00  0.00     0.018 C 
HETATM   20  C24 UNL     1      -4.985  -0.260  -0.055  1.00  0.00     0.012 C 
HETATM   21  C25 UNL     1      -4.653   0.179   1.370  1.00  0.00     0.042 C 
HETATM   22  C26 UNL     1      -3.294  -0.354   1.822  1.00  0.00     0.148 C 
ENDROOT
BRANCH   1  23
HETATM   23  C5  UNL     1       3.005  -0.352   0.774  1.00  0.00    -0.014 C 
HETATM   24  C6  UNL     1       3.359   1.006   1.389  1.00  0.00     0.010 C 
BRANCH  23  25
HETATM   25  C4  UNL     1       3.386  -0.419  -0.725  1.00  0.00     0.009 C 
BRANCH  25  26
HETATM   26  C3  UNL     1       4.895  -0.559  -1.013  1.00  0.00     0.034 C 
BRANCH  26  27
HETATM   27  C2  UNL     1       5.792   0.663  -0.898  1.00  0.00    -0.075 C 
HETATM   28  C1  UNL     1       5.379   1.898  -1.240  1.00  0.00     0.015 C 
BRANCH  27  29
HETATM   29  C27 UNL     1       7.231   0.445  -0.423  1.00  0.00     0.107 C 
HETATM   30  C28 UNL     1       7.311  -0.073   1.013  1.00  0.00     0.026 C 
BRANCH  29  31
HETATM   31  C29 UNL     1       8.027  -0.471  -1.352  1.00  0.00     0.147 C 
HETATM   32  O4  UNL     1       7.606  -1.267  -2.174  1.00  0.00    -0.650 OA
BRANCH  31  33
HETATM   33  O5  UNL     1       9.361  -0.342  -1.172  1.00  0.00    -0.776 OA
HETATM   34  H42 UNL     1       9.743  -0.973  -1.818  1.00  0.00     0.167 HD
ENDBRANCH  31  33
ENDBRANCH  29  31
ENDBRANCH  27  29
ENDBRANCH  26  27
ENDBRANCH  25  26
ENDBRANCH  23  25
ENDBRANCH   1  23
BRANCH  22  35
HETATM   35  O3  UNL     1      -2.883   0.460   2.913  1.00  0.00    -0.391 OA
HETATM   36  H37 UNL     1      -3.556   0.381   3.610  1.00  0.00     0.210 HD
ENDBRANCH  22  35
TORSDOF 8
