REMARK  10 active torsions:
REMARK  status: ('A' for Active; 'I' for Inactive)
REMARK    1  A    between atoms: C2_2  and  C4_4 
REMARK    2  A    between atoms: C7_7  and  C8_8 
REMARK    3  A    between atoms: C8_8  and  O2_10 
REMARK    4  A    between atoms: C21_23  and  O3_24 
REMARK    5  A    between atoms: O3_24  and  C22_25 
REMARK    6  A    between atoms: C24_28  and  O5_29 
REMARK    7  A    between atoms: C25_30  and  O6_31 
REMARK    8  A    between atoms: C26_32  and  O7_33 
REMARK    9  A    between atoms: C27_34  and  C29_36 
REMARK   10  A    between atoms: C29_36  and  O8_37 
ROOT
HETATM    1  C4  UNL     1      -5.872   0.046  -0.953  1.00  0.00     0.019 C 
HETATM    2  C5  UNL     1      -7.245  -0.265  -0.299  1.00  0.00     0.011 C 
HETATM    3  C6  UNL     1      -6.968  -0.618   1.173  1.00  0.00     0.021 C 
HETATM    4  C7  UNL     1      -5.513  -1.094   1.177  1.00  0.00     0.050 C 
HETATM    5  C9  UNL     1      -4.792  -1.005   2.533  1.00  0.00     0.022 C 
HETATM    6  C10 UNL     1      -3.278  -1.278   2.371  1.00  0.00     0.011 C 
HETATM    7  C11 UNL     1      -2.549  -0.376   1.308  1.00  0.00    -0.032 C 
HETATM    8  C12 UNL     1      -2.514   1.059   1.936  1.00  0.00     0.016 C 
HETATM    9  C13 UNL     1      -3.387  -0.372  -0.034  1.00  0.00     0.000 C 
HETATM   10  C14 UNL     1      -2.741   0.514  -1.101  1.00  0.00     0.006 C 
HETATM   11  C15 UNL     1      -1.306   0.084  -1.401  1.00  0.00     0.006 C 
HETATM   12  C16 UNL     1      -0.407   0.029  -0.142  1.00  0.00     0.003 C 
HETATM   13  C17 UNL     1       1.137  -0.146  -0.477  1.00  0.00    -0.035 C 
HETATM   14  C18 UNL     1       1.405  -1.331  -1.448  1.00  0.00     0.016 C 
HETATM   15  C19 UNL     1       1.577   1.138  -1.261  1.00  0.00     0.012 C 
HETATM   16  C20 UNL     1       3.071   1.391  -1.281  1.00  0.00     0.034 C 
HETATM   17  C21 UNL     1       3.771   1.364   0.083  1.00  0.00     0.135 C 
HETATM   18  C27 UNL     1       2.864   0.892   1.279  1.00  0.00     0.008 C 
HETATM   19  C28 UNL     1       3.824   0.520   2.454  1.00  0.00     0.020 C 
HETATM   20  C30 UNL     1       2.039  -0.370   0.807  1.00  0.00     0.007 C 
HETATM   21  C31 UNL     1       1.339  -1.163   1.933  1.00  0.00     0.007 C 
HETATM   22  C32 UNL     1      -0.115  -0.797   2.209  1.00  0.00     0.011 C 
HETATM   23  C33 UNL     1      -1.037  -0.893   0.970  1.00  0.00    -0.032 C 
HETATM   24  C34 UNL     1      -1.078  -2.385   0.527  1.00  0.00     0.016 C 
HETATM   25  C35 UNL     1      -4.875  -0.056   0.227  1.00  0.00     0.017 C 
ENDROOT
BRANCH  17  26
HETATM   26  O3  UNL     1       4.891   0.453  -0.019  1.00  0.00    -0.352 OA
BRANCH  26  27
HETATM   27  C22 UNL     1       6.069   1.015  -0.610  1.00  0.00     0.291 C 
HETATM   28  O4  UNL     1       5.934   1.225  -2.019  1.00  0.00    -0.356 OA
HETATM   29  C23 UNL     1       6.164   0.031  -2.770  1.00  0.00     0.205 C 
HETATM   30  C24 UNL     1       7.636  -0.384  -2.694  1.00  0.00     0.173 C 
HETATM   31  C25 UNL     1       8.278   0.101  -1.387  1.00  0.00     0.182 C 
HETATM   32  C26 UNL     1       7.247   0.070  -0.260  1.00  0.00     0.204 C 
BRANCH  30  33
HETATM   33  O5  UNL     1       7.729  -1.810  -2.789  1.00  0.00    -0.391 OA
HETATM   34  H37 UNL     1       8.600  -2.026  -2.392  1.00  0.00     0.210 HD
ENDBRANCH  30  33
BRANCH  31  35
HETATM   35  O6  UNL     1       9.400  -0.739  -1.065  1.00  0.00    -0.390 OA
HETATM   36  H39 UNL     1       9.634  -0.494  -0.144  1.00  0.00     0.210 HD
ENDBRANCH  31  35
BRANCH  32  37
HETATM   37  O7  UNL     1       7.885   0.450   0.976  1.00  0.00    -0.388 OA
HETATM   38  H41 UNL     1       7.170   0.477   1.642  1.00  0.00     0.210 HD
ENDBRANCH  32  37
ENDBRANCH  26  27
ENDBRANCH  17  26
BRANCH  18  39
HETATM   39  C29 UNL     1       1.965   2.037   1.811  1.00  0.00     0.176 C 
BRANCH  39  40
HETATM   40  O8  UNL     1       2.748   3.183   2.138  1.00  0.00    -0.400 OA
HETATM   41  H47 UNL     1       2.156   3.818   2.580  1.00  0.00     0.209 HD
ENDBRANCH  39  40
ENDBRANCH  18  39
BRANCH   1  42
HETATM   42  C2  UNL     1      -5.936   1.344  -1.749  1.00  0.00    -0.088 C 
HETATM   43  C1  UNL     1      -5.646   2.563  -1.269  1.00  0.00     0.014 C 
HETATM   44  C3  UNL     1      -6.373   1.182  -3.183  1.00  0.00     0.043 C 
ENDBRANCH   1  42
BRANCH   4  45
HETATM   45  C8  UNL     1      -5.539  -2.575   0.764  1.00  0.00     0.149 C 
HETATM   46  O1  UNL     1      -5.852  -3.504   1.496  1.00  0.00    -0.649 OA
BRANCH  45  47
HETATM   47  O2  UNL     1      -5.225  -2.831  -0.512  1.00  0.00    -0.776 OA
HETATM   48  H11 UNL     1      -5.296  -3.808  -0.589  1.00  0.00     0.167 HD
ENDBRANCH  45  47
ENDBRANCH   4  45
TORSDOF 10
