REMARK  19 active torsions:
REMARK  status: ('A' for Active; 'I' for Inactive)
REMARK    1  A    between atoms: C2_2  and  C3_3 
REMARK    2  A    between atoms: C3_3  and  C5_5 
REMARK    3  A    between atoms: C5_5  and  N1_6 
REMARK    4  A    between atoms: C5_5  and  C37_46 
REMARK       I    between atoms: N1_6  and  C6_7 
REMARK    5  A    between atoms: C6_7  and  C7_9 
REMARK    6  A    between atoms: C7_9  and  C8_10 
REMARK    7  A    between atoms: C8_10  and  C9_11 
REMARK    8  A    between atoms: C9_11  and  C10_12 
REMARK    9  A    between atoms: C10_12  and  C11_13 
REMARK   10  A    between atoms: C11_13  and  N2_14 
REMARK       I    between atoms: N2_14  and  C12_15 
REMARK   11  A    between atoms: C12_15  and  C13_17 
REMARK   12  A    between atoms: C13_17  and  C14_18 
REMARK   13  A    between atoms: C14_18  and  C15_19 
REMARK   14  A    between atoms: C15_19  and  O4_21 
REMARK   15  A    between atoms: O4_21  and  C16_22 
REMARK   16  A    between atoms: C16_22  and  C17_23 
REMARK   17  A    between atoms: C17_23  and  C18_25 
REMARK   18  A    between atoms: C18_25  and  O6_26 
REMARK   19  A    between atoms: C37_46  and  O9_48 
ROOT
HETATM    1  C15 UNL     1       0.257  -0.671  -1.069  1.00  0.00     0.259 C 
HETATM    2  O3  UNL     1       1.238   0.016  -0.825  1.00  0.00    -0.265 OA
ENDROOT
BRANCH   1   3
HETATM    3  C14 UNL     1       0.245  -2.176  -1.174  1.00  0.00     0.120 C 
BRANCH   3   4
HETATM    4  C13 UNL     1       1.612  -2.763  -0.849  1.00  0.00     0.112 C 
BRANCH   4   5
HETATM    5  C12 UNL     1       2.578  -2.624  -2.008  1.00  0.00     0.217 C 
HETATM    6  N2  UNL     1       3.883  -2.899  -1.646  1.00  0.00    -0.361 N 
HETATM    7  H22 UNL     1       4.105  -2.818  -0.664  1.00  0.00     0.162 HD
HETATM    8  O2  UNL     1       2.224  -2.356  -3.149  1.00  0.00    -0.274 OA
BRANCH   6   9
HETATM    9  C11 UNL     1       4.964  -2.711  -2.595  1.00  0.00     0.122 C 
BRANCH   9  10
HETATM   10  C10 UNL     1       6.243  -3.431  -2.169  1.00  0.00     0.020 C 
BRANCH  10  11
HETATM   11  C9  UNL     1       7.186  -2.603  -1.287  1.00  0.00     0.002 C 
BRANCH  11  12
HETATM   12  C8  UNL     1       6.615  -2.229   0.084  1.00  0.00     0.009 C 
BRANCH  12  13
HETATM   13  C7  UNL     1       7.657  -1.557   0.980  1.00  0.00     0.103 C 
BRANCH  13  14
HETATM   14  C6  UNL     1       8.016  -0.152   0.528  1.00  0.00     0.218 C 
HETATM   15  N1  UNL     1       9.123   0.350   1.175  1.00  0.00    -0.346 N 
HETATM   16  H11 UNL     1       9.368  -0.069   2.065  1.00  0.00     0.163 HD
HETATM   17  O1  UNL     1       7.386   0.471  -0.318  1.00  0.00    -0.274 OA
BRANCH  15  18
HETATM   18  C5  UNL     1       9.537   1.747   1.004  1.00  0.00     0.186 C 
BRANCH  18  19
HETATM   19  C3  UNL     1      11.010   1.858   0.538  1.00  0.00     0.014 C 
HETATM   20  C4  UNL     1      11.983   1.181   1.514  1.00  0.00     0.012 C 
BRANCH  19  21
HETATM   21  C2  UNL     1      11.162   1.292  -0.891  1.00  0.00     0.002 C 
HETATM   22  C1  UNL     1      12.508   1.606  -1.530  1.00  0.00     0.005 C 
ENDBRANCH  19  21
ENDBRANCH  18  19
BRANCH  18  23
HETATM   23  C37 UNL     1       9.311   2.548   2.294  1.00  0.00     0.163 C 
HETATM   24  O8  UNL     1       9.497   3.745   2.447  1.00  0.00    -0.648 OA
BRANCH  23  25
HETATM   25  O9  UNL     1       8.914   1.790   3.345  1.00  0.00    -0.775 OA
HETATM   26  H56 UNL     1       8.801   2.449   4.064  1.00  0.00     0.167 HD
ENDBRANCH  23  25
ENDBRANCH  18  23
ENDBRANCH  15  18
ENDBRANCH  13  14
ENDBRANCH  12  13
ENDBRANCH  11  12
ENDBRANCH  10  11
ENDBRANCH   9  10
ENDBRANCH   6   9
ENDBRANCH   4   5
ENDBRANCH   3   4
ENDBRANCH   1   3
BRANCH   1  27
HETATM   27  O4  UNL     1      -1.011  -0.196  -1.234  1.00  0.00    -0.314 OA
BRANCH  27  28
HETATM   28  C16 UNL     1      -1.107   1.224  -1.109  1.00  0.00     0.260 C 
BRANCH  28  29
HETATM   29  C17 UNL     1      -2.568   1.631  -0.994  1.00  0.00     0.185 C 
HETATM   30  O5  UNL     1      -3.060   2.416  -1.810  1.00  0.00    -0.292 OA
BRANCH  29  31
HETATM   31  C18 UNL     1      -3.376   1.071   0.217  1.00  0.00     0.128 C 
HETATM   32  C19 UNL     1      -3.843   2.262   1.076  1.00  0.00     0.047 C 
HETATM   33  C20 UNL     1      -5.322   2.495   0.741  1.00  0.00     0.009 C 
HETATM   34  C21 UNL     1      -5.672   1.527  -0.403  1.00  0.00     0.002 C 
HETATM   35  C22 UNL     1      -7.162   1.143  -0.599  1.00  0.00    -0.004 C 
HETATM   36  C35 UNL     1      -4.713   0.344  -0.162  1.00  0.00    -0.002 C 
HETATM   37  C23 UNL     1      -8.113   2.341  -0.383  1.00  0.00     0.010 C 
HETATM   38  C32 UNL     1      -7.603  -0.173   0.117  1.00  0.00     0.002 C 
HETATM   39  C24 UNL     1      -8.864   2.290   0.942  1.00  0.00     0.035 C 
HETATM   40  C25 UNL     1      -9.645   1.012   1.120  1.00  0.00    -0.068 C 
HETATM   41  C26 UNL     1     -10.723   1.000   1.925  1.00  0.00     0.053 C 
HETATM   42  C30 UNL     1      -9.156  -0.232   0.384  1.00  0.00    -0.016 C 
HETATM   43  C27 UNL     1     -11.512  -0.234   2.169  1.00  0.00     0.149 C 
HETATM   44  O7  UNL     1     -12.542  -0.168   2.837  1.00  0.00    -0.293 OA
HETATM   45  C28 UNL     1     -11.038  -1.532   1.560  1.00  0.00     0.084 C 
HETATM   46  C29 UNL     1      -9.548  -1.479   1.230  1.00  0.00     0.022 C 
HETATM   47  C31 UNL     1      -9.887  -0.345  -0.986  1.00  0.00     0.020 C 
HETATM   48  C33 UNL     1      -6.718  -0.446   1.341  1.00  0.00     0.007 C 
HETATM   49  C34 UNL     1      -5.223  -0.544   1.014  1.00  0.00     0.013 C 
HETATM   50  C36 UNL     1      -4.549  -0.535  -1.416  1.00  0.00     0.019 C 
BRANCH  31  51
HETATM   51  O6  UNL     1      -2.552   0.233   1.024  1.00  0.00    -0.381 OA
HETATM   52  H29 UNL     1      -2.398  -0.590   0.525  1.00  0.00     0.211 HD
ENDBRANCH  31  51
ENDBRANCH  29  31
ENDBRANCH  28  29
ENDBRANCH  27  28
ENDBRANCH   1  27
TORSDOF 19
