REMARK  4 active torsions:
REMARK  status: ('A' for Active; 'I' for Inactive)
REMARK    1  A    between atoms: C4_4  and  C5_5 
REMARK    2  A    between atoms: C5_5  and  C6_7 
REMARK    3  A    between atoms: C6_7  and  C7_8 
REMARK    4  A    between atoms: C7_8  and  C9_10 
ROOT
HETATM    1  C9  UNL     1       2.317  -2.082  -0.002  1.00  0.00    -0.002 C 
HETATM    2  C10 UNL     1       1.637  -3.485   0.061  1.00  0.00     0.006 C 
HETATM    3  C11 UNL     1       0.112  -3.263  -0.021  1.00  0.00     0.011 C 
HETATM    4  C12 UNL     1      -0.047  -1.806  -0.493  1.00  0.00    -0.032 C 
HETATM    5  C13 UNL     1       0.153  -1.842  -2.048  1.00  0.00     0.016 C 
HETATM    6  C14 UNL     1      -1.421  -1.144  -0.117  1.00  0.00     0.004 C 
HETATM    7  C15 UNL     1      -2.541  -1.447  -1.137  1.00  0.00     0.007 C 
HETATM    8  C16 UNL     1      -3.923  -0.892  -0.773  1.00  0.00     0.007 C 
HETATM    9  C17 UNL     1      -3.916   0.247   0.263  1.00  0.00     0.010 C 
HETATM   10  C18 UNL     1      -5.230   1.084   0.304  1.00  0.00     0.018 C 
HETATM   11  C19 UNL     1      -6.475   0.175   0.273  1.00  0.00     0.023 C 
HETATM   12  C20 UNL     1      -5.299   1.923   1.596  1.00  0.00     0.023 C 
HETATM   13  C21 UNL     1      -5.292   2.046  -0.887  1.00  0.00     0.135 C 
HETATM   14  O2  UNL     1      -6.357   2.539  -1.269  1.00  0.00    -0.297 OA
HETATM   15  C22 UNL     1      -4.007   2.370  -1.612  1.00  0.00     0.080 C 
HETATM   16  C23 UNL     1      -2.843   2.426  -0.641  1.00  0.00     0.018 C 
HETATM   17  C24 UNL     1      -2.657   1.117   0.101  1.00  0.00    -0.026 A 
HETATM   18  C25 UNL     1      -1.743   1.099   1.299  1.00  0.00     0.021 A 
HETATM   19  C26 UNL     1      -1.292   0.391   0.035  1.00  0.00    -0.027 A 
HETATM   20  C27 UNL     1      -0.063   1.012  -0.615  1.00  0.00     0.011 C 
HETATM   21  C28 UNL     1       1.269   0.332  -0.228  1.00  0.00     0.011 C 
HETATM   22  C29 UNL     1       1.131  -1.111   0.297  1.00  0.00    -0.032 C 
HETATM   23  C30 UNL     1       0.900  -1.065   1.832  1.00  0.00     0.016 C 
ENDROOT
BRANCH   1  24
HETATM   24  C7  UNL     1       3.706  -2.039   0.704  1.00  0.00    -0.007 C 
HETATM   25  C8  UNL     1       3.789  -2.473   2.170  1.00  0.00     0.011 C 
BRANCH  24  26
HETATM   26  C6  UNL     1       4.543  -0.778   0.383  1.00  0.00     0.087 C 
BRANCH  26  27
HETATM   27  C5  UNL     1       4.354   0.459   1.246  1.00  0.00     0.149 C 
HETATM   28  O1  UNL     1       4.120   0.405   2.452  1.00  0.00    -0.293 OA
BRANCH  27  29
HETATM   29  C4  UNL     1       4.445   1.819   0.633  1.00  0.00     0.052 C 
HETATM   30  C2  UNL     1       5.169   2.258  -0.414  1.00  0.00    -0.084 C 
HETATM   31  C1  UNL     1       5.029   3.690  -0.869  1.00  0.00     0.043 C 
HETATM   32  C3  UNL     1       6.181   1.468  -1.193  1.00  0.00     0.043 C 
ENDBRANCH  27  29
ENDBRANCH  26  27
ENDBRANCH  24  26
ENDBRANCH   1  24
TORSDOF 4
