REMARK  13 active torsions:
REMARK  status: ('A' for Active; 'I' for Inactive)
REMARK    1  A    between atoms: C2_2  and  C3_3 
REMARK    2  A    between atoms: C6_6  and  C7_7 
REMARK    3  A    between atoms: C7_7  and  C8_8 
REMARK    4  A    between atoms: C14_17  and  C15_18 
REMARK    5  A    between atoms: C15_18  and  O3_20 
REMARK    6  A    between atoms: C19_24  and  C20_25 
REMARK    7  A    between atoms: C20_25  and  C21_26 
REMARK    8  A    between atoms: C22_27  and  C23_28 
REMARK    9  A    between atoms: C27_32  and  C28_33 
REMARK   10  A    between atoms: C29_37  and  C30_38 
REMARK   11  A    between atoms: C30_38  and  C31_39 
REMARK   12  A    between atoms: C31_39  and  C32_40 
REMARK   13  A    between atoms: C32_40  and  O6_42 
ROOT
HETATM    1  C8  UNL     1      -2.721   0.171  -0.445  1.00  0.00     0.016 C 
HETATM    2  N1  UNL     1      -1.930  -0.799  -0.092  1.00  0.00    -0.362 N 
ATOM      3  H1  UNL     1      -2.203  -1.654   0.393  1.00  0.00     0.165 HD
HETATM    4  C9  UNL     1      -0.655  -0.461  -0.493  1.00  0.00     0.024 C 
HETATM    5  C10 UNL     1       0.291  -1.402  -0.639  1.00  0.00     0.014 A 
HETATM    6  C11 UNL     1       1.618  -1.227  -1.073  1.00  0.00     0.056 A 
HETATM    7  C12 UNL     1       2.312  -2.396  -1.168  1.00  0.00     0.046 A 
HETATM    8  C13 UNL     1       1.453  -3.493  -0.766  1.00  0.00     0.180 A 
HETATM    9  O1  UNL     1       1.786  -4.670  -0.739  1.00  0.00    -0.291 OA
HETATM   10  C14 UNL     1       0.066  -2.920  -0.373  1.00  0.00     0.197 A 
HETATM   11  C17 UNL     1       3.606  -2.108  -1.631  1.00  0.00    -0.023 A 
HETATM   12  C18 UNL     1       4.690  -3.084  -1.903  1.00  0.00     0.051 C 
HETATM   13  C19 UNL     1       3.651  -0.715  -1.772  1.00  0.00     0.022 A 
HETATM   14  N3  UNL     1       2.411  -0.195  -1.420  1.00  0.00    -0.357 N 
HETATM   15  C29 UNL     1      -0.572   1.021  -0.791  1.00  0.00     0.046 C 
HETATM   16  C34 UNL     1      -2.027   1.275  -1.219  1.00  0.00     0.041 C 
HETATM   17  C35 UNL     1      -2.542   2.694  -1.094  1.00  0.00     0.017 C 
HETATM   18  H27 UNL     1       2.190   0.790  -1.395  1.00  0.00     0.166 HD
ENDROOT
BRANCH  10  19
HETATM   19  C15 UNL     1      -1.006  -3.507  -1.255  1.00  0.00     0.274 C 
HETATM   20  O2  UNL     1      -1.050  -3.407  -2.477  1.00  0.00    -0.264 OA
BRANCH  19  21
HETATM   21  O3  UNL     1      -1.917  -4.181  -0.497  1.00  0.00    -0.326 OA
HETATM   22  C16 UNL     1      -2.915  -4.878  -1.246  1.00  0.00     0.213 C 
ENDBRANCH  19  21
ENDBRANCH  10  19
BRANCH  15  23
HETATM   23  C30 UNL     1       0.004   1.855   0.380  1.00  0.00     0.021 C 
BRANCH  23  24
HETATM   24  C31 UNL     1      -0.444   1.528   1.807  1.00  0.00     0.112 C 
BRANCH  24  25
HETATM   25  C32 UNL     1      -1.649   2.311   2.253  1.00  0.00     0.258 C 
HETATM   26  O5  UNL     1      -2.800   1.897   2.212  1.00  0.00    -0.265 OA
BRANCH  25  27
HETATM   27  O6  UNL     1      -1.275   3.552   2.671  1.00  0.00    -0.326 OA
HETATM   28  C33 UNL     1      -2.352   4.362   3.138  1.00  0.00     0.213 C 
ENDBRANCH  25  27
ENDBRANCH  24  25
ENDBRANCH  23  24
ENDBRANCH  15  23
BRANCH   1  29
HETATM   29  C7  UNL     1      -4.185   0.206  -0.209  1.00  0.00     0.055 C 
BRANCH  29  30
HETATM   30  C6  UNL     1      -4.876  -0.855   0.221  1.00  0.00     0.043 A 
HETATM   31  C4  UNL     1      -6.300  -0.973   0.481  1.00  0.00    -0.019 A 
HETATM   32  C3  UNL     1      -6.606  -2.219   0.909  1.00  0.00     0.039 A 
HETATM   33  C5  UNL     1      -7.222   0.183   0.265  1.00  0.00     0.052 C 
HETATM   34  C36 UNL     1      -5.304  -2.969   0.926  1.00  0.00     0.256 A 
HETATM   35  N4  UNL     1      -4.353  -2.075   0.503  1.00  0.00    -0.322 N 
HETATM   36  O7  UNL     1      -5.117  -4.131   1.234  1.00  0.00    -0.267 OA
HETATM   37  H40 UNL     1      -3.363  -2.291   0.437  1.00  0.00     0.169 HD
BRANCH  32  38
HETATM   38  C2  UNL     1      -7.899  -2.744   1.281  1.00  0.00     0.007 C 
HETATM   39  C1  UNL     1      -8.160  -3.990   1.695  1.00  0.00     0.012 C 
ENDBRANCH  32  38
ENDBRANCH  29  30
ENDBRANCH   1  29
BRANCH  13  40
HETATM   40  C20 UNL     1       4.771   0.177  -2.217  1.00  0.00     0.115 C 
BRANCH  40  41
HETATM   41  C21 UNL     1       4.964   1.356  -1.312  1.00  0.00     0.022 A 
HETATM   42  C22 UNL     1       5.400   1.434   0.003  1.00  0.00    -0.027 A 
HETATM   43  C25 UNL     1       5.412   2.825   0.359  1.00  0.00    -0.024 A 
HETATM   44  C26 UNL     1       5.825   3.404   1.673  1.00  0.00     0.051 C 
HETATM   45  C27 UNL     1       4.973   3.543  -0.747  1.00  0.00     0.077 A 
HETATM   46  N2  UNL     1       4.731   2.635  -1.751  1.00  0.00    -0.356 N 
HETATM   47  H26 UNL     1       4.427   2.874  -2.687  1.00  0.00     0.166 HD
BRANCH  42  48
HETATM   48  C23 UNL     1       5.798   0.281   0.880  1.00  0.00     0.036 C 
HETATM   49  C24 UNL     1       7.256  -0.108   0.690  1.00  0.00     0.010 C 
ENDBRANCH  42  48
BRANCH  45  50
HETATM   50  C28 UNL     1       4.791   4.970  -0.906  1.00  0.00     0.288 C 
HETATM   51  O4  UNL     1       4.958   5.814  -0.030  1.00  0.00    -0.300 OA
ENDBRANCH  45  50
ENDBRANCH  40  41
ENDBRANCH  13  40
TORSDOF 13
