REMARK  8 active torsions:
REMARK  status: ('A' for Active; 'I' for Inactive)
REMARK    1  A    between atoms: C4_4  and  C5_5 
REMARK    2  A    between atoms: C5_5  and  C6_6 
REMARK    3  A    between atoms: C6_6  and  C7_7 
REMARK    4  A    between atoms: C9_9  and  C10_10 
REMARK    5  A    between atoms: C11_11  and  C12_12 
REMARK    6  A    between atoms: C14_14  and  C15_15 
REMARK    7  A    between atoms: C24_25  and  C26_27 
REMARK    8  A    between atoms: C29_31  and  O3_33 
ROOT
HETATM    1  C15 UNL     1      -1.420   1.404  -0.740  1.00  0.00     0.149 C 
HETATM    2  C16 UNL     1      -2.316   1.221   0.480  1.00  0.00     0.054 C 
HETATM    3  C17 UNL     1      -3.751   1.086  -0.083  1.00  0.00     0.050 C 
HETATM    4  C18 UNL     1      -3.449   0.719  -1.567  1.00  0.00     0.272 C 
HETATM    5  O1  UNL     1      -4.163  -0.406  -2.052  1.00  0.00    -0.360 OA
HETATM    6  C19 UNL     1      -3.530  -1.657  -1.844  1.00  0.00     0.171 C 
HETATM    7  C20 UNL     1      -3.184  -1.928  -0.391  1.00  0.00     0.027 C 
HETATM    8  C21 UNL     1      -4.281  -1.488   0.568  1.00  0.00     0.012 C 
HETATM    9  C22 UNL     1      -4.587   0.030   0.737  1.00  0.00     0.032 C 
HETATM   10  C23 UNL     1      -6.125   0.255   0.690  1.00  0.00    -0.066 C 
HETATM   11  C24 UNL     1      -6.952  -0.166   1.685  1.00  0.00    -0.021 C 
HETATM   12  C25 UNL     1      -6.518  -0.854   2.957  1.00  0.00     0.052 C 
HETATM   13  C27 UNL     1      -6.572   0.998  -0.550  1.00  0.00     0.038 C 
HETATM   14  C28 UNL     1      -5.891   2.362  -0.702  1.00  0.00     0.042 C 
HETATM   15  C29 UNL     1      -4.509   2.469  -0.018  1.00  0.00     0.067 C 
HETATM   16  C30 UNL     1      -4.687   3.035   1.411  1.00  0.00     0.047 C 
HETATM   17  O4  UNL     1      -2.034   0.594  -1.736  1.00  0.00    -0.351 OA
ENDROOT
BRANCH   1  18
HETATM   18  C14 UNL     1       0.002   0.991  -0.460  1.00  0.00     0.011 C 
HETATM   19  C12 UNL     1       0.905   0.386  -1.263  1.00  0.00    -0.063 C 
HETATM   20  C13 UNL     1       0.660   0.084  -2.720  1.00  0.00     0.048 C 
BRANCH  19  21
HETATM   21  C11 UNL     1       2.211   0.034  -0.698  1.00  0.00     0.006 C 
HETATM   22  C10 UNL     1       3.181  -0.676  -1.299  1.00  0.00     0.001 C 
BRANCH  22  23
HETATM   23  C9  UNL     1       4.439  -0.979  -0.647  1.00  0.00     0.002 C 
HETATM   24  C7  UNL     1       5.470  -1.691  -1.148  1.00  0.00    -0.084 C 
HETATM   25  C8  UNL     1       5.516  -2.336  -2.509  1.00  0.00     0.043 C 
BRANCH  24  26
HETATM   26  C6  UNL     1       6.707  -1.921  -0.293  1.00  0.00     0.037 C 
BRANCH  26  27
HETATM   27  C5  UNL     1       7.920  -1.117  -0.774  1.00  0.00     0.031 C 
BRANCH  27  28
HETATM   28  C4  UNL     1       9.104  -1.307   0.137  1.00  0.00    -0.024 C 
HETATM   29  C2  UNL     1       9.603  -0.427   1.028  1.00  0.00    -0.091 C 
HETATM   30  C1  UNL     1       9.014   0.924   1.326  1.00  0.00     0.042 C 
HETATM   31  C3  UNL     1      10.835  -0.760   1.830  1.00  0.00     0.042 C 
ENDBRANCH  27  28
ENDBRANCH  26  27
ENDBRANCH  24  26
ENDBRANCH  22  23
ENDBRANCH  19  21
ENDBRANCH   1  18
BRANCH  15  32
HETATM   32  O3  UNL     1      -3.749   3.463  -0.722  1.00  0.00    -0.389 OA
HETATM   33  H44 UNL     1      -4.231   4.308  -0.679  1.00  0.00     0.210 HD
ENDBRANCH  15  32
BRANCH  11  34
HETATM   34  C26 UNL     1      -8.444   0.004   1.627  1.00  0.00     0.265 C 
HETATM   35  O2  UNL     1      -9.184  -0.313   2.553  1.00  0.00    -0.302 OA
ENDBRANCH  11  34
TORSDOF 8
