REMARK  8 active torsions:
REMARK  status: ('A' for Active; 'I' for Inactive)
REMARK    1  A    between atoms: C2_2  and  C30_35 
REMARK    2  A    between atoms: C3_3  and  C4_4 
REMARK    3  A    between atoms: C4_4  and  O1_5 
REMARK    4  A    between atoms: C4_4  and  C5_6 
REMARK    5  A    between atoms: C5_6  and  C6_7 
REMARK    6  A    between atoms: C6_7  and  C8_9 
REMARK    7  A    between atoms: C29_33  and  O5_34 
REMARK    8  A    between atoms: C30_35  and  O7_37 
ROOT
HETATM    1  C8  UNL     1       1.572  -1.998  -0.394  1.00  0.00     0.006 C 
HETATM    2  C9  UNL     1       0.885  -3.322   0.024  1.00  0.00     0.085 C 
HETATM    3  C10 UNL     1      -0.581  -2.946   0.090  1.00  0.00     0.140 C 
HETATM    4  O2  UNL     1      -1.474  -3.750   0.338  1.00  0.00    -0.297 OA
HETATM    5  C11 UNL     1      -0.804  -1.472  -0.275  1.00  0.00     0.051 C 
HETATM    6  C12 UNL     1      -1.100  -1.525  -1.805  1.00  0.00     0.029 C 
HETATM    7  C13 UNL     1      -1.891  -0.610   0.341  1.00  0.00    -0.024 C 
HETATM    8  C14 UNL     1      -1.812   0.744   0.231  1.00  0.00     0.003 C 
HETATM    9  C15 UNL     1      -0.515   1.351  -0.295  1.00  0.00     0.157 C 
HETATM   10  O3  UNL     1      -0.450   2.545  -0.592  1.00  0.00    -0.293 OA
HETATM   11  C16 UNL     1       0.730   0.484  -0.484  1.00  0.00     0.094 C 
HETATM   12  C17 UNL     1       0.596  -0.903   0.144  1.00  0.00    -0.015 C 
HETATM   13  C18 UNL     1       0.736  -0.746   1.689  1.00  0.00     0.018 C 
HETATM   14  C19 UNL     1      -2.961   1.701   0.623  1.00  0.00    -0.008 C 
HETATM   15  C20 UNL     1      -2.546   2.382   1.954  1.00  0.00     0.021 C 
HETATM   16  C21 UNL     1      -3.195   2.824  -0.440  1.00  0.00     0.022 C 
HETATM   17  C22 UNL     1      -4.626   3.333  -0.496  1.00  0.00     0.080 C 
HETATM   18  C23 UNL     1      -5.567   2.220  -0.897  1.00  0.00     0.135 C 
HETATM   19  O4  UNL     1      -6.567   2.470  -1.573  1.00  0.00    -0.297 OA
HETATM   20  C24 UNL     1      -5.232   0.796  -0.419  1.00  0.00     0.018 C 
HETATM   21  C25 UNL     1      -4.625   0.052  -1.617  1.00  0.00     0.023 C 
HETATM   22  C26 UNL     1      -6.568   0.107  -0.062  1.00  0.00     0.023 C 
HETATM   23  C27 UNL     1      -4.320   0.927   0.854  1.00  0.00     0.016 C 
HETATM   24  C28 UNL     1      -4.069  -0.367   1.635  1.00  0.00     0.043 C 
HETATM   25  C29 UNL     1      -3.057  -1.308   0.993  1.00  0.00     0.149 C 
ENDROOT
BRANCH   1  26
HETATM   26  C6  UNL     1       3.103  -1.981  -0.111  1.00  0.00    -0.011 C 
HETATM   27  C7  UNL     1       3.532  -2.179   1.348  1.00  0.00     0.010 C 
BRANCH  26  28
HETATM   28  C5  UNL     1       3.781  -0.736  -0.743  1.00  0.00     0.040 C 
BRANCH  28  29
HETATM   29  C4  UNL     1       5.281  -0.914  -1.040  1.00  0.00     0.142 C 
BRANCH  29  30
HETATM   30  C3  UNL     1       5.797   0.241  -1.862  1.00  0.00     0.018 C 
HETATM   31  C2  UNL     1       6.698   1.204  -1.568  1.00  0.00     0.010 C 
HETATM   32  C1  UNL     1       7.438   1.330  -0.265  1.00  0.00     0.055 C 
BRANCH  31  33
HETATM   33  C30 UNL     1       7.031   2.245  -2.579  1.00  0.00     0.171 C 
HETATM   34  O6  UNL     1       7.934   3.060  -2.488  1.00  0.00    -0.646 OA
BRANCH  33  35
HETATM   35  O7  UNL     1       6.227   2.239  -3.656  1.00  0.00    -0.773 OA
HETATM   36  H42 UNL     1       6.571   2.983  -4.195  1.00  0.00     0.167 HD
ENDBRANCH  33  35
ENDBRANCH  31  33
ENDBRANCH  29  30
BRANCH  29  37
HETATM   37  O1  UNL     1       5.991  -1.049   0.175  1.00  0.00    -0.392 OA
HETATM   38  H6  UNL     1       6.835  -1.488  -0.039  1.00  0.00     0.210 HD
ENDBRANCH  29  37
ENDBRANCH  28  29
ENDBRANCH  26  28
ENDBRANCH   1  26
BRANCH  25  39
HETATM   39  O5  UNL     1      -2.562  -2.120   2.056  1.00  0.00    -0.391 OA
HETATM   40  H41 UNL     1      -2.439  -3.017   1.679  1.00  0.00     0.210 HD
ENDBRANCH  25  39
TORSDOF 8
