REMARK  6 active torsions:
REMARK  status: ('A' for Active; 'I' for Inactive)
REMARK    1  A    between atoms: C2_2  and  C30_31 
REMARK    2  A    between atoms: C3_3  and  C4_4 
REMARK    3  A    between atoms: C4_4  and  C5_5 
REMARK    4  A    between atoms: C5_5  and  C6_6 
REMARK    5  A    between atoms: C6_6  and  C8_8 
REMARK    6  A    between atoms: C30_31  and  O3_33 
ROOT
HETATM    1  C8  UNL     1       1.839  -1.943   0.996  1.00  0.00    -0.002 C 
HETATM    2  C9  UNL     1       1.655  -1.336   2.412  1.00  0.00     0.007 C 
HETATM    3  C10 UNL     1       0.352  -0.535   2.386  1.00  0.00     0.015 C 
HETATM    4  C11 UNL     1       0.233  -0.025   0.931  1.00  0.00    -0.013 C 
HETATM    5  C12 UNL     1       1.230   1.159   0.788  1.00  0.00     0.021 C 
HETATM    6  C13 UNL     1      -1.206   0.398   0.540  1.00  0.00    -0.070 C 
HETATM    7  C14 UNL     1      -1.523   1.604   0.031  1.00  0.00    -0.022 C 
HETATM    8  C15 UNL     1      -2.868   2.001  -0.489  1.00  0.00     0.034 C 
HETATM    9  C16 UNL     1      -3.874   0.840  -0.707  1.00  0.00     0.013 C 
HETATM   10  C17 UNL     1      -5.337   1.362  -0.967  1.00  0.00     0.018 C 
HETATM   11  C18 UNL     1      -6.067   0.448  -1.979  1.00  0.00     0.023 C 
HETATM   12  C19 UNL     1      -5.393   2.784  -1.571  1.00  0.00     0.023 C 
HETATM   13  C20 UNL     1      -6.141   1.399   0.340  1.00  0.00     0.135 C 
HETATM   14  O1  UNL     1      -7.375   1.451   0.338  1.00  0.00    -0.297 OA
HETATM   15  C21 UNL     1      -5.385   1.503   1.646  1.00  0.00     0.080 C 
HETATM   16  C22 UNL     1      -4.201   0.546   1.787  1.00  0.00     0.017 C 
HETATM   17  C23 UNL     1      -3.766  -0.175   0.476  1.00  0.00    -0.031 C 
HETATM   18  C24 UNL     1      -4.690  -1.407   0.310  1.00  0.00     0.016 C 
HETATM   19  C25 UNL     1      -2.274  -0.686   0.635  1.00  0.00     0.024 C 
HETATM   20  C26 UNL     1      -1.840  -1.784  -0.353  1.00  0.00     0.010 C 
HETATM   21  C27 UNL     1      -0.472  -2.349   0.045  1.00  0.00     0.011 C 
HETATM   22  C28 UNL     1       0.697  -1.294   0.109  1.00  0.00    -0.029 C 
HETATM   23  C29 UNL     1       1.050  -0.964  -1.347  1.00  0.00     0.016 C 
ENDROOT
BRANCH   1  24
HETATM   24  C6  UNL     1       3.336  -2.121   0.573  1.00  0.00    -0.014 C 
HETATM   25  C7  UNL     1       3.516  -2.906  -0.731  1.00  0.00     0.010 C 
BRANCH  24  26
HETATM   26  C5  UNL     1       4.344  -0.949   0.703  1.00  0.00     0.008 C 
BRANCH  26  27
HETATM   27  C4  UNL     1       4.516  -0.001  -0.486  1.00  0.00     0.028 C 
BRANCH  27  28
HETATM   28  C3  UNL     1       5.552   1.052  -0.188  1.00  0.00    -0.013 C 
HETATM   29  C2  UNL     1       6.784   1.168  -0.723  1.00  0.00     0.008 C 
HETATM   30  C1  UNL     1       7.410   0.222  -1.702  1.00  0.00     0.055 C 
BRANCH  29  31
HETATM   31  C30 UNL     1       7.587   2.339  -0.281  1.00  0.00     0.171 C 
HETATM   32  O2  UNL     1       7.293   3.141   0.588  1.00  0.00    -0.646 OA
BRANCH  31  33
HETATM   33  O3  UNL     1       8.736   2.458  -0.970  1.00  0.00    -0.773 OA
HETATM   34  H46 UNL     1       9.147   3.259  -0.584  1.00  0.00     0.167 HD
ENDBRANCH  31  33
ENDBRANCH  29  31
ENDBRANCH  27  28
ENDBRANCH  26  27
ENDBRANCH  24  26
ENDBRANCH   1  24
TORSDOF 6
