REMARK  14 active torsions:
REMARK  status: ('A' for Active; 'I' for Inactive)
REMARK    1  A    between atoms: C2_2  and  C30_34 
REMARK    2  A    between atoms: C3_3  and  C4_4 
REMARK    3  A    between atoms: C4_4  and  C5_5 
REMARK    4  A    between atoms: C5_5  and  C6_6 
REMARK    5  A    between atoms: C6_6  and  C8_8 
REMARK    6  A    between atoms: C16_16  and  C17_17 
REMARK    7  A    between atoms: C17_17  and  O1_19 
REMARK    8  A    between atoms: C17_17  and  C19_20 
REMARK    9  A    between atoms: C19_20  and  O2_21 
REMARK   10  A    between atoms: C20_22  and  C21_23 
REMARK   11  A    between atoms: C21_23  and  C22_24 
REMARK   12  A    between atoms: C22_24  and  C23_25 
REMARK   13  A    between atoms: C23_25  and  O4_27 
REMARK   14  A    between atoms: C30_34  and  O5_35 
ROOT
HETATM    1  C8  UNL     1       2.039  -1.894  -0.363  1.00  0.00    -0.002 C 
HETATM    2  C9  UNL     1       1.451  -3.229  -0.832  1.00  0.00     0.006 C 
HETATM    3  C10 UNL     1      -0.042  -2.989  -0.713  1.00  0.00     0.011 C 
HETATM    4  C11 UNL     1      -0.219  -2.316   0.675  1.00  0.00    -0.032 C 
HETATM    5  C12 UNL     1      -0.393  -3.473   1.699  1.00  0.00     0.016 C 
HETATM    6  C13 UNL     1      -1.529  -1.460   0.673  1.00  0.00     0.004 C 
HETATM    7  C14 UNL     1      -1.942  -0.923   2.093  1.00  0.00     0.007 C 
HETATM    8  C15 UNL     1      -2.914   0.294   2.173  1.00  0.00     0.009 C 
HETATM    9  C16 UNL     1      -2.930   1.236   0.928  1.00  0.00     0.031 C 
HETATM   10  C20 UNL     1      -2.951   0.305  -0.291  1.00  0.00    -0.025 A 
HETATM   11  C24 UNL     1      -2.151   0.136  -1.539  1.00  0.00     0.021 A 
HETATM   12  C25 UNL     1      -1.464  -0.279  -0.277  1.00  0.00    -0.027 A 
HETATM   13  C26 UNL     1      -0.137   0.487  -0.248  1.00  0.00     0.011 C 
HETATM   14  C27 UNL     1       0.841   0.052   0.833  1.00  0.00     0.011 C 
HETATM   15  C28 UNL     1       1.131  -1.475   0.870  1.00  0.00    -0.032 C 
HETATM   16  C29 UNL     1       1.799  -1.749   2.230  1.00  0.00     0.016 C 
ENDROOT
BRANCH   1  17
HETATM   17  C6  UNL     1       3.598  -1.919  -0.321  1.00  0.00    -0.014 C 
HETATM   18  C7  UNL     1       4.236  -2.944   0.625  1.00  0.00     0.010 C 
BRANCH  17  19
HETATM   19  C5  UNL     1       4.263  -0.541  -0.103  1.00  0.00     0.008 C 
BRANCH  19  20
HETATM   20  C4  UNL     1       4.006   0.457  -1.239  1.00  0.00     0.028 C 
BRANCH  20  21
HETATM   21  C3  UNL     1       4.718   1.757  -0.983  1.00  0.00    -0.022 C 
HETATM   22  C2  UNL     1       5.790   2.263  -1.627  1.00  0.00    -0.064 C 
HETATM   23  C1  UNL     1       6.532   1.582  -2.746  1.00  0.00     0.045 C 
BRANCH  22  24
HETATM   24  C30 UNL     1       6.369   3.596  -1.222  1.00  0.00     0.197 C 
BRANCH  24  25
HETATM   25  O5  UNL     1       6.129   4.536  -2.258  1.00  0.00    -0.397 OA
HETATM   26  H50 UNL     1       5.170   4.519  -2.424  1.00  0.00     0.209 HD
ENDBRANCH  24  25
ENDBRANCH  22  24
ENDBRANCH  20  21
ENDBRANCH  19  20
ENDBRANCH  17  19
ENDBRANCH   1  17
BRANCH  10  27
HETATM   27  C21 UNL     1      -4.233  -0.569  -0.420  1.00  0.00     0.021 C 
BRANCH  27  28
HETATM   28  C22 UNL     1      -5.217  -0.057  -1.479  1.00  0.00     0.111 C 
BRANCH  28  29
HETATM   29  C23 UNL     1      -6.436  -0.934  -1.555  1.00  0.00     0.139 C 
HETATM   30  O3  UNL     1      -6.588  -2.047  -1.081  1.00  0.00    -0.650 OA
BRANCH  29  31
HETATM   31  O4  UNL     1      -7.420  -0.362  -2.278  1.00  0.00    -0.776 OA
HETATM   32  H38 UNL     1      -8.143  -1.022  -2.266  1.00  0.00     0.167 HD
ENDBRANCH  29  31
ENDBRANCH  28  29
ENDBRANCH  27  28
ENDBRANCH  10  27
BRANCH   9  33
HETATM   33  C17 UNL     1      -4.016   2.353   0.972  1.00  0.00     0.080 C 
HETATM   34  C18 UNL     1      -3.922   3.230  -0.289  1.00  0.00     0.048 C 
BRANCH  33  35
HETATM   35  O1  UNL     1      -5.328   1.783   1.042  1.00  0.00    -0.388 OA
HETATM   36  H30 UNL     1      -5.980   2.504   0.989  1.00  0.00     0.210 HD
ENDBRANCH  33  35
BRANCH  33  37
HETATM   37  C19 UNL     1      -3.848   3.255   2.225  1.00  0.00     0.201 C 
BRANCH  37  38
HETATM   38  O2  UNL     1      -2.564   3.855   2.325  1.00  0.00    -0.398 OA
HETATM   39  H33 UNL     1      -2.511   4.567   1.666  1.00  0.00     0.209 HD
ENDBRANCH  37  38
ENDBRANCH  33  37
ENDBRANCH   9  33
TORSDOF 14
