REMARK  14 active torsions:
REMARK  status: ('A' for Active; 'I' for Inactive)
REMARK    1  A    between atoms: O1_2  and  C2_3 
REMARK    2  A    between atoms: C8_9  and  O2_10 
REMARK    3  A    between atoms: O2_10  and  C9_11 
REMARK    4  A    between atoms: C10_13  and  C11_14 
REMARK    5  A    between atoms: C11_14  and  O4_15 
REMARK    6  A    between atoms: C12_16  and  O5_17 
REMARK    7  A    between atoms: C13_18  and  O6_19 
REMARK    8  A    between atoms: C14_20  and  O7_21 
REMARK    9  A    between atoms: C18_25  and  C19_26 
REMARK   10  A    between atoms: C24_32  and  C25_33 
REMARK   11  A    between atoms: C25_33  and  C27_35 
REMARK   12  A    between atoms: C27_35  and  C28_36 
REMARK   13  A    between atoms: C29_37  and  C30_38 
REMARK   14  A    between atoms: C30_38  and  O9_41 
ROOT
HETATM    1  C2  UNL     1      -0.543   3.119  -0.741  1.00  0.00     0.149 C 
HETATM    2  C3  UNL     1      -1.857   2.733  -0.140  1.00  0.00     0.009 C 
HETATM    3  C4  UNL     1      -2.480   1.548  -0.289  1.00  0.00    -0.066 C 
HETATM    4  C5  UNL     1      -1.878   0.446  -1.149  1.00  0.00     0.031 C 
HETATM    5  C6  UNL     1      -2.951  -0.239  -2.043  1.00  0.00     0.013 C 
HETATM    6  C7  UNL     1      -4.338  -0.382  -1.419  1.00  0.00     0.034 C 
HETATM    7  C8  UNL     1      -4.333  -0.193   0.095  1.00  0.00     0.136 C 
HETATM    8  C15 UNL     1      -3.784   1.224   0.479  1.00  0.00     0.002 C 
HETATM    9  C16 UNL     1      -3.500   1.210   1.999  1.00  0.00     0.022 C 
HETATM   10  C17 UNL     1      -4.848   2.319   0.211  1.00  0.00     0.022 C 
HETATM   11  C18 UNL     1      -0.570   0.851  -1.948  1.00  0.00     0.027 C 
HETATM   12  C20 UNL     1       0.215  -0.442  -2.343  1.00  0.00     0.018 C 
HETATM   13  C21 UNL     1       1.237  -0.957  -1.313  1.00  0.00     0.011 C 
HETATM   14  C22 UNL     1       2.192   0.159  -0.866  1.00  0.00    -0.032 C 
HETATM   15  C23 UNL     1       2.980   0.660  -2.122  1.00  0.00     0.016 C 
HETATM   16  C24 UNL     1       3.236  -0.179   0.248  1.00  0.00    -0.002 C 
HETATM   17  C34 UNL     1       3.565   1.234   0.819  1.00  0.00     0.006 C 
HETATM   18  C35 UNL     1       2.446   2.193   0.369  1.00  0.00     0.011 C 
HETATM   19  C36 UNL     1       1.321   1.280  -0.156  1.00  0.00    -0.029 C 
HETATM   20  C37 UNL     1       0.562   0.795   1.119  1.00  0.00     0.016 C 
HETATM   21  C38 UNL     1       0.330   1.916  -1.196  1.00  0.00     0.043 C 
ENDROOT
BRANCH   7  22
HETATM   22  O2  UNL     1      -5.672  -0.363   0.594  1.00  0.00    -0.352 OA
BRANCH  22  23
HETATM   23  C9  UNL     1      -6.062  -1.728   0.755  1.00  0.00     0.292 C 
HETATM   24  O3  UNL     1      -7.154  -2.038  -0.110  1.00  0.00    -0.348 OA
HETATM   25  C10 UNL     1      -8.389  -1.341   0.152  1.00  0.00     0.179 C 
HETATM   26  C12 UNL     1      -8.529  -0.817   1.590  1.00  0.00     0.180 C 
HETATM   27  C13 UNL     1      -7.897  -1.832   2.536  1.00  0.00     0.183 C 
HETATM   28  C14 UNL     1      -6.403  -2.013   2.238  1.00  0.00     0.204 C 
BRANCH  25  29
HETATM   29  C11 UNL     1      -8.617  -0.248  -0.907  1.00  0.00     0.198 C 
BRANCH  29  30
HETATM   30  O4  UNL     1      -7.724   0.854  -0.762  1.00  0.00    -0.398 OA
HETATM   31  H16 UNL     1      -6.877   0.483  -0.450  1.00  0.00     0.209 HD
ENDBRANCH  29  30
ENDBRANCH  25  29
BRANCH  26  32
HETATM   32  O5  UNL     1      -9.913  -0.659   1.922  1.00  0.00    -0.390 OA
HETATM   33  H18 UNL     1      -9.925  -0.515   2.892  1.00  0.00     0.210 HD
ENDBRANCH  26  32
BRANCH  27  34
HETATM   34  O6  UNL     1      -8.093  -1.404   3.895  1.00  0.00    -0.390 OA
HETATM   35  H20 UNL     1      -7.667  -2.079   4.454  1.00  0.00     0.210 HD
ENDBRANCH  27  34
BRANCH  28  36
HETATM   36  O7  UNL     1      -6.045  -3.363   2.605  1.00  0.00    -0.388 OA
HETATM   37  H22 UNL     1      -6.488  -3.965   1.978  1.00  0.00     0.210 HD
ENDBRANCH  28  36
ENDBRANCH  22  23
ENDBRANCH   7  22
BRANCH  11  38
HETATM   38  C19 UNL     1      -0.991   1.566  -3.249  1.00  0.00     0.241 C 
HETATM   39  O8  UNL     1      -0.333   1.580  -4.285  1.00  0.00    -0.306 OA
ENDBRANCH  11  38
BRANCH   1  40
HETATM   40  O1  UNL     1       0.126   3.945   0.207  1.00  0.00    -0.386 OA
HETATM   41  C1  UNL     1       0.746   5.078  -0.389  1.00  0.00     0.202 C 
ENDBRANCH   1  40
BRANCH  16  42
HETATM   42  C25 UNL     1       4.534  -0.976  -0.101  1.00  0.00    -0.010 C 
HETATM   43  C26 UNL     1       4.220  -2.378  -0.638  1.00  0.00     0.010 C 
BRANCH  42  44
HETATM   44  C27 UNL     1       5.462  -1.079   1.141  1.00  0.00     0.031 C 
BRANCH  44  45
HETATM   45  C28 UNL     1       6.792  -1.735   0.874  1.00  0.00    -0.027 C 
HETATM   46  C29 UNL     1       7.800  -1.121   0.231  1.00  0.00     0.006 C 
BRANCH  46  47
HETATM   47  C30 UNL     1       9.179  -1.675  -0.076  1.00  0.00     0.070 C 
HETATM   48  C31 UNL     1       9.520  -3.010   0.605  1.00  0.00     0.050 C 
HETATM   49  C32 UNL     1       9.274  -1.875  -1.598  1.00  0.00     0.050 C 
BRANCH  47  50
HETATM   50  O9  UNL     1      10.158  -0.665   0.233  1.00  0.00    -0.382 OA
HETATM   51  C33 UNL     1      10.369  -0.399   1.614  1.00  0.00     0.202 C 
ENDBRANCH  47  50
ENDBRANCH  46  47
ENDBRANCH  44  45
ENDBRANCH  42  44
ENDBRANCH  16  42
TORSDOF 14
