REMARK  14 active torsions:
REMARK  status: ('A' for Active; 'I' for Inactive)
REMARK    1  A    between atoms: C5_5  and  C6_6 
REMARK    2  A    between atoms: C6_6  and  C8_8 
REMARK    3  A    between atoms: C8_8  and  O1_9 
REMARK    4  A    between atoms: O1_9  and  C9_10 
REMARK    5  A    between atoms: C17_20  and  O4_21 
REMARK    6  A    between atoms: C19_23  and  O5_24 
REMARK    7  A    between atoms: O5_24  and  C20_25 
REMARK    8  A    between atoms: C20_25  and  C21_27 
REMARK    9  A    between atoms: C21_27  and  C22_28 
REMARK   10  A    between atoms: C21_27  and  O7_30 
REMARK   11  A    between atoms: O7_30  and  C24_31 
REMARK   12  A    between atoms: C24_31  and  C25_33 
REMARK   13  A    between atoms: C25_33  and  C26_34 
REMARK   14  A    between atoms: C28_36  and  O9_38 
ROOT
HETATM    1  C1  UNL     1      -5.138  -3.606  -0.009  1.00  0.00     0.015 C 
HETATM    2  C2  UNL     1      -4.606  -2.454  -0.450  1.00  0.00    -0.082 C 
HETATM    3  C3  UNL     1      -5.442  -1.224  -0.636  1.00  0.00     0.034 C 
HETATM    4  C4  UNL     1      -4.814  -0.087   0.155  1.00  0.00     0.010 C 
HETATM    5  C5  UNL     1      -3.392   0.288  -0.322  1.00  0.00    -0.001 C 
HETATM    6  C11 UNL     1      -2.656  -0.841  -1.105  1.00  0.00     0.033 C 
HETATM    7  C12 UNL     1      -1.170  -1.042  -0.773  1.00  0.00     0.163 C 
HETATM    8  O3  UNL     1      -1.260  -1.685   0.495  1.00  0.00    -0.376 OA
HETATM    9  C13 UNL     1      -2.144  -2.794   0.311  1.00  0.00     0.134 C 
HETATM   10  C14 UNL     1      -1.287  -4.006  -0.141  1.00  0.00     0.068 C 
HETATM   11  C15 UNL     1       0.021  -4.226   0.629  1.00  0.00    -0.058 C 
HETATM   12  C16 UNL     1       0.214  -5.414   1.237  1.00  0.00     0.017 C 
HETATM   13  C17 UNL     1       1.045  -3.072   0.706  1.00  0.00     0.149 C 
HETATM   14  C18 UNL     1       1.421  -2.382  -0.632  1.00  0.00     0.072 C 
HETATM   15  C19 UNL     1       1.405  -0.816  -0.617  1.00  0.00     0.171 C 
HETATM   16  C28 UNL     1      -0.006  -0.040  -0.728  1.00  0.00     0.107 C 
HETATM   17  C29 UNL     1      -0.125   1.005   0.392  1.00  0.00     0.051 C 
HETATM   18  C30 UNL     1      -3.141  -2.302  -0.780  1.00  0.00     0.050 C 
ENDROOT
BRANCH  15  19
HETATM   19  O5  UNL     1       2.151  -0.354   0.541  1.00  0.00    -0.311 OA
BRANCH  19  20
HETATM   20  C20 UNL     1       3.510  -0.362   0.443  1.00  0.00     0.289 C 
HETATM   21  O6  UNL     1       4.138  -0.724  -0.546  1.00  0.00    -0.262 OA
BRANCH  20  22
HETATM   22  C21 UNL     1       4.146   0.152   1.740  1.00  0.00     0.231 C 
BRANCH  22  23
HETATM   23  C22 UNL     1       4.192  -0.949   2.807  1.00  0.00     0.038 C 
HETATM   24  C23 UNL     1       2.915  -1.033   3.629  1.00  0.00     0.008 C 
ENDBRANCH  22  23
BRANCH  22  25
HETATM   25  O7  UNL     1       5.513   0.525   1.468  1.00  0.00    -0.306 OA
BRANCH  25  26
HETATM   26  C24 UNL     1       5.651   1.678   0.753  1.00  0.00     0.259 C 
HETATM   27  O8  UNL     1       4.728   2.422   0.452  1.00  0.00    -0.265 OA
BRANCH  26  28
HETATM   28  C25 UNL     1       7.106   1.881   0.399  1.00  0.00     0.111 C 
BRANCH  28  29
HETATM   29  C26 UNL     1       7.382   3.221  -0.281  1.00  0.00     0.005 C 
HETATM   30  C27 UNL     1       6.916   3.258  -1.730  1.00  0.00     0.005 C 
ENDBRANCH  28  29
ENDBRANCH  26  28
ENDBRANCH  25  26
ENDBRANCH  22  25
ENDBRANCH  20  22
ENDBRANCH  19  20
ENDBRANCH  15  19
BRANCH  16  31
HETATM   31  O9  UNL     1      -0.007   0.642  -2.000  1.00  0.00    -0.385 OA
HETATM   32  H45 UNL     1      -0.118   1.599  -1.854  1.00  0.00     0.210 HD
ENDBRANCH  16  31
BRANCH  13  33
HETATM   33  O4  UNL     1       2.267  -3.557   1.286  1.00  0.00    -0.391 OA
HETATM   34  H25 UNL     1       2.608  -4.239   0.683  1.00  0.00     0.210 HD
ENDBRANCH  13  33
BRANCH   5  35
HETATM   35  C6  UNL     1      -3.379   1.624  -1.136  1.00  0.00     0.010 C 
HETATM   36  C7  UNL     1      -4.326   1.630  -2.347  1.00  0.00     0.012 C 
BRANCH  35  37
HETATM   37  C8  UNL     1      -3.676   2.847  -0.243  1.00  0.00     0.183 C 
BRANCH  37  38
HETATM   38  O1  UNL     1      -3.267   4.030  -0.956  1.00  0.00    -0.321 OA
BRANCH  38  39
HETATM   39  C9  UNL     1      -4.146   5.068  -0.982  1.00  0.00     0.254 C 
HETATM   40  C10 UNL     1      -3.575   6.190  -1.794  1.00  0.00     0.126 C 
HETATM   41  O2  UNL     1      -5.231   5.105  -0.422  1.00  0.00    -0.266 OA
ENDBRANCH  38  39
ENDBRANCH  37  38
ENDBRANCH  35  37
ENDBRANCH   5  35
TORSDOF 14
