REMARK  6 active torsions:
REMARK  status: ('A' for Active; 'I' for Inactive)
REMARK    1  A    between atoms: C2_2  and  C30_31 
REMARK    2  A    between atoms: C3_3  and  C4_4 
REMARK    3  A    between atoms: C4_4  and  C5_5 
REMARK    4  A    between atoms: C5_5  and  C6_6 
REMARK    5  A    between atoms: C6_6  and  C8_8 
REMARK    6  A    between atoms: C30_31  and  O3_33 
ROOT
HETATM    1  C8  UNL     1       2.164  -0.167   0.535  1.00  0.00    -0.002 C 
HETATM    2  C9  UNL     1       2.242   1.202   1.283  1.00  0.00     0.007 C 
HETATM    3  C10 UNL     1       0.808   1.777   1.344  1.00  0.00     0.015 C 
HETATM    4  C11 UNL     1       0.004   0.912   0.358  1.00  0.00    -0.013 C 
HETATM    5  C12 UNL     1       0.298   1.490  -1.073  1.00  0.00     0.021 C 
HETATM    6  C13 UNL     1      -1.526   0.877   0.476  1.00  0.00    -0.070 C 
HETATM    7  C14 UNL     1      -2.222   2.019   0.586  1.00  0.00    -0.022 C 
HETATM    8  C15 UNL     1      -3.690   2.126   0.347  1.00  0.00     0.034 C 
HETATM    9  C16 UNL     1      -4.258   0.965  -0.514  1.00  0.00     0.013 C 
HETATM   10  C17 UNL     1      -5.818   1.085  -0.723  1.00  0.00     0.018 C 
HETATM   11  C18 UNL     1      -6.189   0.670  -2.166  1.00  0.00     0.023 C 
HETATM   12  C19 UNL     1      -6.380   2.508  -0.528  1.00  0.00     0.023 C 
HETATM   13  C20 UNL     1      -6.561   0.190   0.277  1.00  0.00     0.135 C 
HETATM   14  O1  UNL     1      -7.692  -0.244   0.051  1.00  0.00    -0.297 OA
HETATM   15  C21 UNL     1      -5.899  -0.066   1.610  1.00  0.00     0.080 C 
HETATM   16  C22 UNL     1      -4.456  -0.556   1.497  1.00  0.00     0.017 C 
HETATM   17  C23 UNL     1      -3.799  -0.413   0.084  1.00  0.00    -0.031 C 
HETATM   18  C24 UNL     1      -4.274  -1.622  -0.760  1.00  0.00     0.016 C 
HETATM   19  C25 UNL     1      -2.213  -0.478   0.258  1.00  0.00     0.024 C 
HETATM   20  C26 UNL     1      -1.413  -1.281  -0.797  1.00  0.00     0.010 C 
HETATM   21  C27 UNL     1       0.089  -1.477  -0.448  1.00  0.00     0.011 C 
HETATM   22  C28 UNL     1       0.637  -0.500   0.619  1.00  0.00    -0.029 C 
HETATM   23  C29 UNL     1       0.359  -1.055   2.056  1.00  0.00     0.016 C 
ENDROOT
BRANCH   1  24
HETATM   24  C6  UNL     1       3.206  -1.197   1.058  1.00  0.00    -0.014 C 
HETATM   25  C7  UNL     1       3.121  -2.539   0.324  1.00  0.00     0.010 C 
BRANCH  24  26
HETATM   26  C5  UNL     1       4.661  -0.660   1.018  1.00  0.00     0.008 C 
BRANCH  26  27
HETATM   27  C4  UNL     1       5.187  -0.288  -0.374  1.00  0.00     0.028 C 
BRANCH  27  28
HETATM   28  C3  UNL     1       6.619   0.170  -0.294  1.00  0.00    -0.013 C 
HETATM   29  C2  UNL     1       7.693  -0.343  -0.929  1.00  0.00     0.008 C 
HETATM   30  C1  UNL     1       7.695  -1.504  -1.880  1.00  0.00     0.055 C 
BRANCH  29  31
HETATM   31  C30 UNL     1       8.997   0.320  -0.658  1.00  0.00     0.171 C 
HETATM   32  O2  UNL     1       9.191   1.280   0.067  1.00  0.00    -0.646 OA
BRANCH  31  33
HETATM   33  O3  UNL     1      10.012  -0.258  -1.320  1.00  0.00    -0.773 OA
HETATM   34  H46 UNL     1      10.789   0.274  -1.051  1.00  0.00     0.167 HD
ENDBRANCH  31  33
ENDBRANCH  29  31
ENDBRANCH  27  28
ENDBRANCH  26  27
ENDBRANCH  24  26
ENDBRANCH   1  24
TORSDOF 6
