REMARK  7 active torsions:
REMARK  status: ('A' for Active; 'I' for Inactive)
REMARK    1  A    between atoms: C2_2  and  C4_4 
REMARK    2  A    between atoms: C4_4  and  O2_6 
REMARK    3  A    between atoms: O2_6  and  C5_7 
REMARK    4  A    between atoms: C5_7  and  C6_8 
REMARK    5  A    between atoms: C6_8  and  C7_10 
REMARK    6  A    between atoms: C8_12  and  C9_13 
REMARK    7  A    between atoms: C29_35  and  O7_36 
ROOT
HETATM    1  C7  UNL     1      -1.003  -0.789   0.737  1.00  0.00     0.160 C 
HETATM    2  O4  UNL     1      -1.416   0.076  -0.322  1.00  0.00    -0.339 OA
HETATM    3  C8  UNL     1      -2.329   1.011   0.261  1.00  0.00     0.266 C 
HETATM    4  O5  UNL     1      -2.057   1.136   1.652  1.00  0.00    -0.352 OA
HETATM    5  C15 UNL     1      -1.191   0.059   2.007  1.00  0.00     0.168 C 
HETATM    6  C16 UNL     1       0.195   0.618   2.388  1.00  0.00     0.041 C 
HETATM    7  C17 UNL     1       1.049   0.335   1.155  1.00  0.00     0.004 C 
HETATM    8  C18 UNL     1       2.577   0.417   1.274  1.00  0.00    -0.001 C 
HETATM    9  C19 UNL     1       3.001   1.787   1.836  1.00  0.00     0.010 C 
HETATM   10  C20 UNL     1       4.513   1.975   1.834  1.00  0.00     0.036 C 
HETATM   11  C21 UNL     1       5.062   1.729   0.452  1.00  0.00    -0.064 A 
HETATM   12  C22 UNL     1       5.709   2.707  -0.206  1.00  0.00     0.058 A 
HETATM   13  C23 UNL     1       6.208   2.520  -1.584  1.00  0.00     0.172 A 
HETATM   14  O6  UNL     1       6.796   3.415  -2.177  1.00  0.00    -0.289 OA
HETATM   15  C24 UNL     1       5.960   1.213  -2.219  1.00  0.00     0.052 A 
HETATM   16  C25 UNL     1       5.312   0.240  -1.567  1.00  0.00    -0.009 A 
HETATM   17  C26 UNL     1       4.768   0.345  -0.145  1.00  0.00     0.004 A 
HETATM   18  C27 UNL     1       5.529  -0.713   0.686  1.00  0.00     0.025 C 
HETATM   19  C28 UNL     1       3.201   0.166  -0.144  1.00  0.00     0.035 C 
HETATM   20  C29 UNL     1       2.663  -1.145  -0.791  1.00  0.00     0.124 C 
HETATM   21  C30 UNL     1       1.122  -1.272  -0.740  1.00  0.00     0.045 C 
HETATM   22  C31 UNL     1       0.535  -1.043   0.670  1.00  0.00     0.004 C 
HETATM   23  C32 UNL     1       0.919  -2.207   1.623  1.00  0.00     0.019 C 
ENDROOT
BRANCH   1  24
HETATM   24  C6  UNL     1      -1.862  -2.063   0.749  1.00  0.00     0.188 C 
HETATM   25  O3  UNL     1      -2.162  -2.637   1.800  1.00  0.00    -0.292 OA
BRANCH  24  26
HETATM   26  C5  UNL     1      -2.260  -2.639  -0.611  1.00  0.00     0.260 C 
BRANCH  26  27
HETATM   27  O2  UNL     1      -3.255  -3.658  -0.494  1.00  0.00    -0.314 OA
BRANCH  27  28
HETATM   28  C4  UNL     1      -4.491  -3.184  -0.166  1.00  0.00     0.262 C 
HETATM   29  O1  UNL     1      -4.785  -1.994  -0.118  1.00  0.00    -0.265 OA
BRANCH  28  30
HETATM   30  C2  UNL     1      -5.483  -4.307   0.065  1.00  0.00     0.077 C 
HETATM   31  C1  UNL     1      -4.880  -5.448   0.880  1.00  0.00     0.020 C 
HETATM   32  C3  UNL     1      -6.022  -4.797  -1.273  1.00  0.00     0.020 C 
ENDBRANCH  28  30
ENDBRANCH  27  28
ENDBRANCH  26  27
ENDBRANCH  24  26
ENDBRANCH   1  24
BRANCH   3  33
HETATM   33  C9  UNL     1      -2.180   2.369  -0.437  1.00  0.00     0.041 C 
HETATM   34  C10 UNL     1      -2.414   2.247  -1.956  1.00  0.00     0.009 C 
HETATM   35  C11 UNL     1      -2.829   3.562  -2.621  1.00  0.00     0.001 C 
HETATM   36  C12 UNL     1      -2.291   4.771  -1.872  1.00  0.00     0.000 C 
HETATM   37  C13 UNL     1      -2.820   4.825  -0.438  1.00  0.00     0.001 C 
HETATM   38  C14 UNL     1      -3.087   3.445   0.171  1.00  0.00     0.009 C 
ENDBRANCH   3  33
BRANCH  20  39
HETATM   39  O7  UNL     1       3.251  -2.290  -0.191  1.00  0.00    -0.395 OA
HETATM   40  H39 UNL     1       2.936  -3.079  -0.668  1.00  0.00     0.210 HD
ENDBRANCH  20  39
TORSDOF 7
