REMARK  8 active torsions:
REMARK  status: ('A' for Active; 'I' for Inactive)
REMARK    1  A    between atoms: C2_2  and  C33_38 
REMARK    2  A    between atoms: C3_3  and  C4_4 
REMARK    3  A    between atoms: C4_4  and  O1_5 
REMARK    4  A    between atoms: C4_4  and  C5_6 
REMARK    5  A    between atoms: C5_6  and  C6_7 
REMARK    6  A    between atoms: C15_17  and  O3_18 
REMARK    7  A    between atoms: C28_32  and  O5_33 
REMARK    8  A    between atoms: C33_38  and  O7_40 
ROOT
HETATM    1  C6  UNL     1       3.034   1.359  -0.693  1.00  0.00    -0.007 C 
HETATM    2  C7  UNL     1       2.936   1.537  -2.226  1.00  0.00     0.005 C 
HETATM    3  C8  UNL     1       2.813   0.266  -3.074  1.00  0.00     0.000 C 
HETATM    4  C9  UNL     1       1.413  -0.018  -3.621  1.00  0.00     0.001 C 
HETATM    5  C10 UNL     1       0.405  -0.512  -2.579  1.00  0.00     0.013 C 
HETATM    6  C11 UNL     1      -0.148   0.609  -1.676  1.00  0.00     0.070 C 
HETATM    7  C12 UNL     1      -1.684   0.534  -1.623  1.00  0.00     0.161 C 
HETATM    8  O2  UNL     1      -2.304   0.592  -2.687  1.00  0.00    -0.292 OA
HETATM    9  C13 UNL     1      -2.426   0.439  -0.299  1.00  0.00     0.003 C 
HETATM   10  C14 UNL     1      -1.730   0.090   0.820  1.00  0.00    -0.029 C 
HETATM   11  C15 UNL     1      -2.458   0.036   2.145  1.00  0.00     0.149 C 
HETATM   12  C16 UNL     1      -3.851  -0.553   1.984  1.00  0.00     0.043 C 
HETATM   13  C17 UNL     1      -4.731   0.062   0.879  1.00  0.00     0.016 C 
HETATM   14  C18 UNL     1      -5.761  -0.999   0.333  1.00  0.00     0.018 C 
HETATM   15  C19 UNL     1      -5.103  -2.210  -0.357  1.00  0.00     0.023 C 
HETATM   16  C20 UNL     1      -6.643  -1.528   1.490  1.00  0.00     0.023 C 
HETATM   17  C21 UNL     1      -6.710  -0.332  -0.674  1.00  0.00     0.135 C 
HETATM   18  O4  UNL     1      -7.850  -0.751  -0.881  1.00  0.00    -0.297 OA
HETATM   19  C22 UNL     1      -6.215   0.889  -1.402  1.00  0.00     0.080 C 
HETATM   20  C23 UNL     1      -4.706   0.819  -1.572  1.00  0.00     0.022 C 
HETATM   21  C24 UNL     1      -3.920   0.861  -0.225  1.00  0.00    -0.008 C 
HETATM   22  C25 UNL     1      -3.881   2.365   0.195  1.00  0.00     0.021 C 
HETATM   23  C26 UNL     1      -0.229  -0.231   0.752  1.00  0.00     0.017 C 
HETATM   24  C27 UNL     1      -0.167  -1.740   0.378  1.00  0.00     0.023 C 
HETATM   25  C28 UNL     1       0.678   0.013   2.003  1.00  0.00     0.132 C 
HETATM   26  C29 UNL     1       2.094   0.265   1.456  1.00  0.00     0.038 C 
HETATM   27  C30 UNL     1       1.972   0.408  -0.082  1.00  0.00     0.002 C 
HETATM   28  C31 UNL     1       0.460   0.762  -0.268  1.00  0.00    -0.016 C 
HETATM   29  C32 UNL     1       0.242   2.269   0.143  1.00  0.00     0.018 C 
ENDROOT
BRANCH   1  30
HETATM   30  C5  UNL     1       4.503   1.082  -0.238  1.00  0.00     0.040 C 
BRANCH  30  31
HETATM   31  C4  UNL     1       5.196  -0.195  -0.731  1.00  0.00     0.142 C 
BRANCH  31  32
HETATM   32  C3  UNL     1       6.622  -0.268  -0.246  1.00  0.00     0.018 C 
HETATM   33  C2  UNL     1       7.109  -0.797   0.898  1.00  0.00     0.010 C 
HETATM   34  C1  UNL     1       6.287  -1.372   2.015  1.00  0.00     0.055 C 
BRANCH  33  35
HETATM   35  C33 UNL     1       8.573  -0.815   1.158  1.00  0.00     0.171 C 
HETATM   36  O6  UNL     1       9.110  -1.293   2.142  1.00  0.00    -0.646 OA
BRANCH  35  37
HETATM   37  O7  UNL     1       9.309  -0.252   0.185  1.00  0.00    -0.773 OA
HETATM   38  H48 UNL     1      10.227  -0.353   0.510  1.00  0.00     0.167 HD
ENDBRANCH  35  37
ENDBRANCH  33  35
ENDBRANCH  31  32
BRANCH  31  39
HETATM   39  O1  UNL     1       4.483  -1.353  -0.338  1.00  0.00    -0.392 OA
HETATM   40  H6  UNL     1       5.016  -2.123  -0.598  1.00  0.00     0.210 HD
ENDBRANCH  31  39
ENDBRANCH  30  31
ENDBRANCH   1  30
BRANCH  25  41
HETATM   41  O5  UNL     1       0.736  -1.075   2.914  1.00  0.00    -0.394 OA
HETATM   42  H41 UNL     1      -0.201  -1.268   3.133  1.00  0.00     0.210 HD
ENDBRANCH  25  41
BRANCH  11  43
HETATM   43  O3  UNL     1      -1.790  -0.806   3.080  1.00  0.00    -0.391 OA
HETATM   44  H20 UNL     1      -2.299  -0.767   3.911  1.00  0.00     0.210 HD
ENDBRANCH  11  43
TORSDOF 8
