REMARK  11 active torsions:
REMARK  status: ('A' for Active; 'I' for Inactive)
REMARK    1  A    between atoms: C2_2  and  O2_4 
REMARK    2  A    between atoms: O2_4  and  C3_5 
REMARK    3  A    between atoms: C4_6  and  O3_7 
REMARK    4  A    between atoms: O3_7  and  C5_8 
REMARK    5  A    between atoms: C15_18  and  C16_19 
REMARK    6  A    between atoms: C20_23  and  C21_24 
REMARK    7  A    between atoms: C21_24  and  O4_27 
REMARK    8  A    between atoms: C24_29  and  O6_30 
REMARK    9  A    between atoms: C30_36  and  O7_37 
REMARK   10  A    between atoms: C36_44  and  O9_45 
REMARK   11  A    between atoms: C37_46  and  O10_47 
ROOT
HETATM    1  C5  UNL     1       3.582  -1.706   0.227  1.00  0.00     0.133 C 
HETATM    2  C6  UNL     1       2.553  -1.758   1.361  1.00  0.00     0.034 C 
HETATM    3  C7  UNL     1       2.045  -0.363   1.688  1.00  0.00     0.013 C 
HETATM    4  C8  UNL     1       1.440   0.322   0.474  1.00  0.00    -0.025 A 
HETATM    5  C9  UNL     1       0.696   1.593   0.809  1.00  0.00     0.021 A 
HETATM    6  C10 UNL     1      -0.084   0.413   0.248  1.00  0.00    -0.027 A 
HETATM    7  C11 UNL     1      -1.052  -0.266   1.207  1.00  0.00     0.011 C 
HETATM    8  C12 UNL     1      -2.506   0.233   1.096  1.00  0.00     0.011 C 
HETATM    9  C13 UNL     1      -2.808   1.039  -0.180  1.00  0.00    -0.028 C 
HETATM   10  C14 UNL     1      -2.358   2.517   0.024  1.00  0.00     0.016 C 
HETATM   11  C15 UNL     1      -4.305   0.998  -0.661  1.00  0.00     0.057 C 
HETATM   12  C24 UNL     1      -4.191   1.358  -2.174  1.00  0.00     0.126 C 
HETATM   13  C25 UNL     1      -2.696   1.176  -2.565  1.00  0.00     0.042 C 
HETATM   14  C26 UNL     1      -2.079   0.366  -1.406  1.00  0.00    -0.029 C 
HETATM   15  C27 UNL     1      -2.498  -1.132  -1.659  1.00  0.00     0.016 C 
HETATM   16  C28 UNL     1      -0.518   0.339  -1.229  1.00  0.00     0.006 C 
HETATM   17  C29 UNL     1       0.280   1.264  -2.144  1.00  0.00     0.038 C 
HETATM   18  C30 UNL     1       1.809   1.231  -1.922  1.00  0.00     0.124 C 
HETATM   19  C31 UNL     1       2.387   0.353  -0.759  1.00  0.00     0.034 C 
HETATM   20  C32 UNL     1       2.987  -1.081  -1.087  1.00  0.00    -0.015 C 
HETATM   21  C33 UNL     1       4.139  -1.007  -2.124  1.00  0.00     0.018 C 
HETATM   22  C34 UNL     1       1.945  -2.054  -1.673  1.00  0.00     0.018 C 
ENDROOT
BRANCH   1  23
HETATM   23  O3  UNL     1       4.675  -0.903   0.707  1.00  0.00    -0.352 OA
BRANCH  23  24
HETATM   24  C4  UNL     1       5.951  -1.539   0.634  1.00  0.00     0.292 C 
HETATM   25  C3  UNL     1       7.033  -0.465   0.885  1.00  0.00     0.218 C 
HETATM   26  C37 UNL     1       8.331  -1.172   1.268  1.00  0.00     0.183 C 
HETATM   27  C36 UNL     1       8.130  -1.996   2.551  1.00  0.00     0.173 C 
HETATM   28  C35 UNL     1       6.655  -2.372   2.762  1.00  0.00     0.205 C 
HETATM   29  O8  UNL     1       6.019  -2.664   1.523  1.00  0.00    -0.356 OA
BRANCH  25  30
HETATM   30  O2  UNL     1       7.225   0.291  -0.334  1.00  0.00    -0.309 OA
BRANCH  30  31
HETATM   31  C2  UNL     1       6.893   1.610  -0.283  1.00  0.00     0.255 C 
HETATM   32  C1  UNL     1       7.126   2.253  -1.614  1.00  0.00     0.126 C 
HETATM   33  O1  UNL     1       6.495   2.216   0.700  1.00  0.00    -0.266 OA
ENDBRANCH  30  31
ENDBRANCH  25  30
BRANCH  26  34
HETATM   34  O10 UNL     1       9.395  -0.229   1.478  1.00  0.00    -0.390 OA
HETATM   35  H60 UNL     1      10.209  -0.760   1.579  1.00  0.00     0.210 HD
ENDBRANCH  26  34
BRANCH  27  36
HETATM   36  O9  UNL     1       8.968  -3.156   2.437  1.00  0.00    -0.391 OA
HETATM   37  H58 UNL     1       8.692  -3.798   3.113  1.00  0.00     0.210 HD
ENDBRANCH  27  36
ENDBRANCH  23  24
ENDBRANCH   1  23
BRANCH  18  38
HETATM   38  O7  UNL     1       2.465   1.025  -3.169  1.00  0.00    -0.395 OA
HETATM   39  H47 UNL     1       1.989   0.329  -3.655  1.00  0.00     0.210 HD
ENDBRANCH  18  38
BRANCH  11  40
HETATM   40  C16 UNL     1      -5.464   1.626   0.166  1.00  0.00     0.065 C 
HETATM   41  C17 UNL     1      -5.296   3.079   0.612  1.00  0.00     0.046 C 
HETATM   42  C18 UNL     1      -6.816   1.468  -0.548  1.00  0.00     0.041 C 
HETATM   43  C19 UNL     1      -7.787   1.198   0.575  1.00  0.00     0.038 C 
HETATM   44  C20 UNL     1      -6.953   0.426   1.587  1.00  0.00     0.156 C 
HETATM   45  O5  UNL     1      -5.588   0.849   1.389  1.00  0.00    -0.372 OA
BRANCH  44  46
HETATM   46  C21 UNL     1      -7.070  -1.126   1.485  1.00  0.00     0.076 C 
HETATM   47  C22 UNL     1      -8.457  -1.596   1.936  1.00  0.00     0.048 C 
HETATM   48  C23 UNL     1      -5.996  -1.816   2.337  1.00  0.00     0.048 C 
BRANCH  46  49
HETATM   49  O4  UNL     1      -6.890  -1.554   0.127  1.00  0.00    -0.388 OA
HETATM   50  H35 UNL     1      -6.838  -2.525   0.127  1.00  0.00     0.210 HD
ENDBRANCH  46  49
ENDBRANCH  44  46
ENDBRANCH  11  40
BRANCH  12  51
HETATM   51  O6  UNL     1      -4.580   2.684  -2.476  1.00  0.00    -0.395 OA
HETATM   52  H37 UNL     1      -5.512   2.663  -2.746  1.00  0.00     0.210 HD
ENDBRANCH  12  51
TORSDOF 11
