REMARK  13 active torsions:
REMARK  status: ('A' for Active; 'I' for Inactive)
REMARK    1  A    between atoms: C19_21  and  O3_22 
REMARK    2  A    between atoms: C19_21  and  C20_23 
REMARK    3  A    between atoms: C20_23  and  C21_25 
REMARK    4  A    between atoms: C21_25  and  O5_26 
REMARK    5  A    between atoms: O5_26  and  C22_27 
REMARK    6  A    between atoms: C22_27  and  C23_29 
REMARK    7  A    between atoms: C23_29  and  C24_30 
REMARK    8  A    between atoms: C24_30  and  C25_31 
REMARK       I    between atoms: C25_31  and  N1_33 
REMARK    9  A    between atoms: N1_33  and  C26_34 
REMARK   10  A    between atoms: C26_34  and  C27_35 
REMARK   11  A    between atoms: C26_34  and  C34_42 
REMARK   12  A    between atoms: C27_35  and  C28_36 
REMARK   13  A    between atoms: C34_42  and  O9_44 
ROOT
HETATM    1  C20 UNL     1       0.079   0.469  -2.182  1.00  0.00     0.185 C 
HETATM    2  O4  UNL     1      -0.176   1.175  -3.166  1.00  0.00    -0.292 OA
ENDROOT
BRANCH   1   3
HETATM    3  C19 UNL     1      -1.037  -0.428  -1.618  1.00  0.00     0.128 C 
HETATM    4  C14 UNL     1      -2.175   0.359  -0.903  1.00  0.00     0.005 C 
HETATM    5  C13 UNL     1      -3.127   1.161  -1.799  1.00  0.00     0.091 C 
HETATM    6  C15 UNL     1      -1.584   1.304   0.179  1.00  0.00     0.019 C 
HETATM    7  C16 UNL     1      -2.984  -0.827  -0.315  1.00  0.00     0.002 C 
HETATM    8  C12 UNL     1      -4.322   1.615  -0.971  1.00  0.00     0.133 C 
HETATM    9  C11 UNL     1      -5.123   0.509  -0.255  1.00  0.00     0.072 C 
HETATM   10  O2  UNL     1      -4.615   2.809  -0.917  1.00  0.00    -0.297 OA
HETATM   11  C2  UNL     1      -6.371   0.998   0.567  1.00  0.00    -0.009 C 
HETATM   12  C10 UNL     1      -4.154  -0.383   0.576  1.00  0.00     0.003 C 
HETATM   13  C1  UNL     1      -6.000   2.021   1.666  1.00  0.00     0.021 C 
HETATM   14  C3  UNL     1      -7.397   1.633  -0.419  1.00  0.00     0.022 C 
HETATM   15  C7  UNL     1      -7.014  -0.214   1.265  1.00  0.00    -0.067 C 
HETATM   16  C4  UNL     1      -8.790   1.808   0.169  1.00  0.00     0.084 C 
HETATM   17  C5  UNL     1      -9.310   0.493   0.681  1.00  0.00     0.149 C 
HETATM   18  O1  UNL     1     -10.506   0.212   0.689  1.00  0.00    -0.293 OA
HETATM   19  C6  UNL     1      -8.338  -0.454   1.272  1.00  0.00     0.053 C 
HETATM   20  C8  UNL     1      -6.087  -1.150   2.003  1.00  0.00     0.035 C 
HETATM   21  C9  UNL     1      -4.914  -1.592   1.139  1.00  0.00     0.010 C 
HETATM   22  C17 UNL     1      -1.915  -1.729   0.293  1.00  0.00     0.009 C 
HETATM   23  C18 UNL     1      -0.663  -1.511  -0.584  1.00  0.00     0.047 C 
BRANCH   3  24
HETATM   24  O3  UNL     1      -1.579  -1.119  -2.761  1.00  0.00    -0.381 OA
HETATM   25  H25 UNL     1      -1.607  -0.468  -3.492  1.00  0.00     0.211 HD
ENDBRANCH   3  24
ENDBRANCH   1   3
BRANCH   1  26
HETATM   26  C21 UNL     1       1.441   0.545  -1.495  1.00  0.00     0.260 C 
BRANCH  26  27
HETATM   27  O5  UNL     1       2.102  -0.686  -1.225  1.00  0.00    -0.314 OA
BRANCH  27  28
HETATM   28  C22 UNL     1       2.557  -1.353  -2.320  1.00  0.00     0.259 C 
HETATM   29  O6  UNL     1       2.345  -1.009  -3.474  1.00  0.00    -0.265 OA
BRANCH  28  30
HETATM   30  C23 UNL     1       3.270  -2.635  -1.949  1.00  0.00     0.120 C 
BRANCH  30  31
HETATM   31  C24 UNL     1       3.857  -2.655  -0.541  1.00  0.00     0.112 C 
BRANCH  31  32
HETATM   32  C25 UNL     1       4.933  -1.605  -0.356  1.00  0.00     0.218 C 
HETATM   33  O7  UNL     1       5.354  -0.901  -1.265  1.00  0.00    -0.274 OA
HETATM   34  N1  UNL     1       5.398  -1.524   0.933  1.00  0.00    -0.346 N 
HETATM   35  H32 UNL     1       4.908  -2.000   1.685  1.00  0.00     0.163 HD
BRANCH  34  36
HETATM   36  C26 UNL     1       6.362  -0.491   1.346  1.00  0.00     0.186 C 
BRANCH  36  37
HETATM   37  C27 UNL     1       7.794  -0.865   0.933  1.00  0.00     0.074 C 
BRANCH  37  38
HETATM   38  C28 UNL     1       8.614   0.338   0.531  1.00  0.00    -0.056 A 
HETATM   39  C29 UNL     1       9.448   0.984   1.452  1.00  0.00     0.007 A 
HETATM   40  C30 UNL     1      10.188   2.105   1.070  1.00  0.00     0.001 A 
HETATM   41  C31 UNL     1      10.102   2.589  -0.235  1.00  0.00     0.000 A 
HETATM   42  C32 UNL     1       9.271   1.957  -1.156  1.00  0.00     0.001 A 
HETATM   43  C33 UNL     1       8.528   0.838  -0.777  1.00  0.00     0.007 A 
ENDBRANCH  37  38
ENDBRANCH  36  37
BRANCH  36  44
HETATM   44  C34 UNL     1       6.286  -0.315   2.870  1.00  0.00     0.163 C 
HETATM   45  O8  UNL     1       6.960   0.424   3.567  1.00  0.00    -0.648 OA
BRANCH  44  46
HETATM   46  O9  UNL     1       5.348  -1.103   3.455  1.00  0.00    -0.775 OA
HETATM   47  H41 UNL     1       5.435  -0.880   4.407  1.00  0.00     0.167 HD
ENDBRANCH  44  46
ENDBRANCH  36  44
ENDBRANCH  34  36
ENDBRANCH  31  32
ENDBRANCH  30  31
ENDBRANCH  28  30
ENDBRANCH  27  28
ENDBRANCH  26  27
ENDBRANCH   1  26
TORSDOF 13
