REMARK  11 active torsions:
REMARK  status: ('A' for Active; 'I' for Inactive)
REMARK    1  A    between atoms: C3_4  and  O2_5 
REMARK    2  A    between atoms: O2_5  and  C4_6 
REMARK    3  A    between atoms: C7_9  and  C8_10 
REMARK    4  A    between atoms: N1_11  and  C9_13 
REMARK    5  A    between atoms: C9_13  and  C10_14 
REMARK    6  A    between atoms: C10_14  and  C11_15 
REMARK    7  A    between atoms: C22_26  and  C23_27 
REMARK    8  A    between atoms: C29_35  and  O5_36 
REMARK    9  A    between atoms: C33_40  and  O6_41 
REMARK   10  A    between atoms: C36_44  and  O7_45 
REMARK   11  A    between atoms: C37_46  and  O8_47 
ROOT
HETATM    1  C4  UNL     1       3.383  -0.324  -0.756  1.00  0.00     0.127 C 
HETATM    2  C5  UNL     1       2.847   0.427   0.457  1.00  0.00     0.033 C 
HETATM    3  C6  UNL     1       1.474  -0.104   0.856  1.00  0.00     0.021 C 
HETATM    4  C7  UNL     1       0.401  -0.073  -0.278  1.00  0.00     0.026 C 
HETATM    5  C17 UNL     1      -0.801  -0.982   0.218  1.00  0.00     0.009 C 
HETATM    6  C18 UNL     1      -1.730  -0.345   1.270  1.00  0.00     0.007 C 
HETATM    7  C19 UNL     1      -3.115  -0.008   0.728  1.00  0.00     0.013 C 
HETATM    8  C20 UNL     1      -3.891  -1.176   0.030  1.00  0.00    -0.005 C 
HETATM    9  C21 UNL     1      -4.769  -0.501  -1.051  1.00  0.00     0.019 C 
HETATM   10  C22 UNL     1      -4.752  -1.982   1.065  1.00  0.00     0.028 C 
HETATM   11  C27 UNL     1      -3.777  -3.019   1.634  1.00  0.00     0.013 C 
HETATM   12  C28 UNL     1      -2.797  -3.361   0.516  1.00  0.00     0.040 C 
HETATM   13  C29 UNL     1      -2.911  -2.250  -0.552  1.00  0.00     0.070 C 
HETATM   14  C30 UNL     1      -1.557  -1.624  -0.960  1.00  0.00     0.026 C 
HETATM   15  C31 UNL     1      -0.611  -2.603  -1.695  1.00  0.00     0.011 C 
HETATM   16  C32 UNL     1       0.859  -2.137  -1.710  1.00  0.00     0.039 C 
HETATM   17  C33 UNL     1       0.985  -0.601  -1.647  1.00  0.00     0.073 C 
HETATM   18  C34 UNL     1       2.421  -0.124  -1.920  1.00  0.00     0.071 C 
ENDROOT
BRANCH   1  19
HETATM   19  O2  UNL     1       4.645   0.211  -1.162  1.00  0.00    -0.356 OA
BRANCH  19  20
HETATM   20  C3  UNL     1       5.767  -0.483  -0.614  1.00  0.00     0.263 C 
HETATM   21  O1  UNL     1       5.858  -0.292   0.793  1.00  0.00    -0.354 OA
HETATM   22  C2  UNL     1       6.857  -1.119   1.414  1.00  0.00     0.151 C 
HETATM   23  C1  UNL     1       6.196  -2.390   1.937  1.00  0.00     0.042 C 
HETATM   24  C37 UNL     1       8.084  -1.377   0.504  1.00  0.00     0.175 C 
HETATM   25  C36 UNL     1       8.282  -0.186  -0.444  1.00  0.00     0.154 C 
HETATM   26  C35 UNL     1       7.025   0.092  -1.271  1.00  0.00     0.095 C 
BRANCH  24  27
HETATM   27  O8  UNL     1       7.905  -2.565  -0.275  1.00  0.00    -0.390 OA
HETATM   28  H51 UNL     1       8.761  -2.766  -0.695  1.00  0.00     0.210 HD
ENDBRANCH  24  27
BRANCH  25  29
HETATM   29  O7  UNL     1       8.660   0.977   0.295  1.00  0.00    -0.393 OA
HETATM   30  H49 UNL     1       7.854   1.340   0.714  1.00  0.00     0.210 HD
ENDBRANCH  25  29
ENDBRANCH  19  20
ENDBRANCH   1  19
BRANCH  17  31
HETATM   31  O6  UNL     1       0.201  -0.109  -2.755  1.00  0.00    -0.389 OA
HETATM   32  H43 UNL     1       0.640  -0.383  -3.581  1.00  0.00     0.210 HD
ENDBRANCH  17  31
BRANCH   4  33
HETATM   33  C8  UNL     1      -0.123   1.351  -0.512  1.00  0.00     0.068 C 
HETATM   34  N1  UNL     1       0.225   2.343   0.234  1.00  0.00    -0.401 N 
ATOM     35  H1  UNL     1       0.879   2.241   1.010  1.00  0.00     0.158 HD
BRANCH  34  36
HETATM   36  C9  UNL     1      -0.388   3.630  -0.115  1.00  0.00     0.123 C 
BRANCH  36  37
HETATM   37  C10 UNL     1      -1.317   4.061   1.021  1.00  0.00     0.058 C 
BRANCH  37  38
HETATM   38  C11 UNL     1      -1.966   5.394   0.744  1.00  0.00    -0.057 A 
HETATM   39  C12 UNL     1      -3.230   5.460   0.143  1.00  0.00     0.007 A 
HETATM   40  C13 UNL     1      -3.821   6.696  -0.124  1.00  0.00     0.001 A 
HETATM   41  C14 UNL     1      -3.153   7.875   0.202  1.00  0.00     0.000 A 
HETATM   42  C15 UNL     1      -1.892   7.820   0.792  1.00  0.00     0.001 A 
HETATM   43  C16 UNL     1      -1.300   6.586   1.062  1.00  0.00     0.007 A 
ENDBRANCH  37  38
ENDBRANCH  36  37
ENDBRANCH  34  36
ENDBRANCH   4  33
BRANCH  13  44
HETATM   44  O5  UNL     1      -3.488  -2.877  -1.705  1.00  0.00    -0.389 OA
HETATM   45  H37 UNL     1      -3.440  -2.255  -2.452  1.00  0.00     0.210 HD
ENDBRANCH  13  44
BRANCH  10  46
HETATM   46  C23 UNL     1      -6.018  -2.618   0.542  1.00  0.00    -0.045 A 
HETATM   47  C24 UNL     1      -6.187  -3.778  -0.095  1.00  0.00     0.087 A 
HETATM   48  C25 UNL     1      -7.615  -3.921  -0.366  1.00  0.00     0.283 A 
HETATM   49  O3  UNL     1      -8.127  -4.865  -0.939  1.00  0.00    -0.260 OA
HETATM   50  O4  UNL     1      -8.273  -2.839   0.128  1.00  0.00    -0.314 OA
HETATM   51  C26 UNL     1      -7.331  -1.957   0.738  1.00  0.00     0.213 A 
ENDBRANCH  10  46
TORSDOF 11
