REMARK  11 active torsions:
REMARK  status: ('A' for Active; 'I' for Inactive)
REMARK    1  A    between atoms: C3_4  and  O2_5 
REMARK    2  A    between atoms: O2_5  and  C4_6 
REMARK    3  A    between atoms: C7_9  and  C8_10 
REMARK    4  A    between atoms: N1_11  and  C9_13 
REMARK    5  A    between atoms: C9_13  and  C10_14 
REMARK    6  A    between atoms: C10_14  and  O3_15 
REMARK    7  A    between atoms: C16_21  and  C17_22 
REMARK    8  A    between atoms: C23_30  and  O6_31 
REMARK    9  A    between atoms: C27_35  and  O7_36 
REMARK   10  A    between atoms: C30_39  and  O8_40 
REMARK   11  A    between atoms: C31_41  and  O9_42 
ROOT
HETATM    1  C4  UNL     1       1.665   0.344   1.672  1.00  0.00     0.127 C 
HETATM    2  C5  UNL     1       1.390   1.164   0.415  1.00  0.00     0.033 C 
HETATM    3  C6  UNL     1       1.292   0.273  -0.820  1.00  0.00     0.021 C 
HETATM    4  C7  UNL     1       0.196  -0.837  -0.725  1.00  0.00     0.026 C 
HETATM    5  C11 UNL     1      -1.254  -0.229  -0.768  1.00  0.00     0.009 C 
HETATM    6  C12 UNL     1      -1.594   0.536  -2.045  1.00  0.00     0.007 C 
HETATM    7  C13 UNL     1      -2.841   1.400  -1.869  1.00  0.00     0.013 C 
HETATM    8  C14 UNL     1      -3.973   0.794  -1.003  1.00  0.00    -0.005 C 
HETATM    9  C15 UNL     1      -5.308   1.167  -1.710  1.00  0.00     0.019 C 
HETATM   10  C16 UNL     1      -3.982   1.298   0.481  1.00  0.00     0.028 C 
HETATM   11  C21 UNL     1      -4.831   0.257   1.237  1.00  0.00     0.013 C 
HETATM   12  C22 UNL     1      -4.849  -0.998   0.359  1.00  0.00     0.040 C 
HETATM   13  C23 UNL     1      -3.840  -0.750  -0.779  1.00  0.00     0.070 C 
HETATM   14  C24 UNL     1      -2.371  -1.287  -0.531  1.00  0.00     0.026 C 
HETATM   15  C25 UNL     1      -2.135  -2.025   0.795  1.00  0.00     0.011 C 
HETATM   16  C26 UNL     1      -0.738  -2.634   0.887  1.00  0.00     0.039 C 
HETATM   17  C27 UNL     1       0.406  -1.645   0.606  1.00  0.00     0.073 C 
HETATM   18  C28 UNL     1       0.556  -0.705   1.841  1.00  0.00     0.071 C 
ENDROOT
BRANCH   1  19
HETATM   19  O2  UNL     1       2.903  -0.375   1.619  1.00  0.00    -0.356 OA
BRANCH  19  20
HETATM   20  C3  UNL     1       4.077   0.439   1.610  1.00  0.00     0.263 C 
HETATM   21  O1  UNL     1       4.399   0.760   0.259  1.00  0.00    -0.354 OA
HETATM   22  C2  UNL     1       5.567   1.578   0.153  1.00  0.00     0.151 C 
HETATM   23  C1  UNL     1       5.724   1.941  -1.321  1.00  0.00     0.042 C 
HETATM   24  C31 UNL     1       6.797   0.823   0.687  1.00  0.00     0.175 C 
HETATM   25  C30 UNL     1       6.528   0.341   2.121  1.00  0.00     0.154 C 
HETATM   26  C29 UNL     1       5.202  -0.394   2.220  1.00  0.00     0.095 C 
BRANCH  24  27
HETATM   27  O9  UNL     1       7.961   1.652   0.716  1.00  0.00    -0.390 OA
HETATM   28  H47 UNL     1       8.206   1.844  -0.205  1.00  0.00     0.210 HD
ENDBRANCH  24  27
BRANCH  25  29
HETATM   29  O8  UNL     1       6.506   1.469   3.007  1.00  0.00    -0.393 OA
HETATM   30  H45 UNL     1       7.321   1.972   2.787  1.00  0.00     0.210 HD
ENDBRANCH  25  29
ENDBRANCH  19  20
ENDBRANCH   1  19
BRANCH  17  31
HETATM   31  O7  UNL     1       1.602  -2.440   0.514  1.00  0.00    -0.389 OA
HETATM   32  H39 UNL     1       2.361  -1.872   0.767  1.00  0.00     0.210 HD
ENDBRANCH  17  31
BRANCH   4  33
HETATM   33  C8  UNL     1       0.438  -1.702  -1.972  1.00  0.00     0.068 C 
HETATM   34  N1  UNL     1      -0.040  -2.893  -2.103  1.00  0.00    -0.399 N 
ATOM     35  H1  UNL     1      -0.644  -3.325  -1.404  1.00  0.00     0.158 HD
BRANCH  34  36
HETATM   36  C9  UNL     1       0.356  -3.576  -3.340  1.00  0.00     0.144 C 
BRANCH  36  37
HETATM   37  C10 UNL     1       0.671  -5.031  -2.984  1.00  0.00     0.183 C 
BRANCH  37  38
HETATM   38  O3  UNL     1       1.772  -5.068  -2.076  1.00  0.00    -0.399 OA
HETATM   39  H16 UNL     1       1.509  -4.479  -1.336  1.00  0.00     0.209 HD
ENDBRANCH  37  38
ENDBRANCH  36  37
ENDBRANCH  34  36
ENDBRANCH   4  33
BRANCH  13  40
HETATM   40  O6  UNL     1      -4.327  -1.424  -1.947  1.00  0.00    -0.389 OA
HETATM   41  H33 UNL     1      -4.301  -2.383  -1.776  1.00  0.00     0.210 HD
ENDBRANCH  13  40
BRANCH  10  42
HETATM   42  C17 UNL     1      -4.338   2.733   0.754  1.00  0.00    -0.045 A 
HETATM   43  C18 UNL     1      -3.459   3.718   0.941  1.00  0.00     0.087 A 
HETATM   44  C19 UNL     1      -4.216   4.939   1.206  1.00  0.00     0.283 A 
HETATM   45  O4  UNL     1      -3.721   6.029   1.429  1.00  0.00    -0.260 OA
HETATM   46  O5  UNL     1      -5.543   4.653   1.172  1.00  0.00    -0.314 OA
HETATM   47  C20 UNL     1      -5.717   3.257   0.919  1.00  0.00     0.213 A 
ENDBRANCH  10  42
TORSDOF 11
