REMARK  8 active torsions:
REMARK  status: ('A' for Active; 'I' for Inactive)
REMARK    1  A    between atoms: C2_2  and  C3_3 
REMARK    2  A    between atoms: C2_2  and  C27_30 
REMARK    3  A    between atoms: C3_3  and  C4_4 
REMARK    4  A    between atoms: C4_4  and  C5_5 
REMARK    5  A    between atoms: C5_5  and  C7_7 
REMARK    6  A    between atoms: C26_28  and  O3_29 
REMARK    7  A    between atoms: C27_30  and  C29_32 
REMARK    8  A    between atoms: C29_32  and  O5_34 
ROOT
HETATM    1  C7  UNL     1       1.495  -0.785   1.184  1.00  0.00    -0.002 C 
HETATM    2  C8  UNL     1       1.085  -0.776   2.680  1.00  0.00     0.006 C 
HETATM    3  C9  UNL     1      -0.415  -0.458   2.718  1.00  0.00     0.010 C 
HETATM    4  C10 UNL     1      -0.880  -0.664   1.274  1.00  0.00     0.027 C 
HETATM    5  C11 UNL     1      -2.241  -0.212   0.779  1.00  0.00    -0.036 C 
HETATM    6  C12 UNL     1      -2.462  -0.042  -0.551  1.00  0.00     0.002 C 
HETATM    7  C13 UNL     1      -1.284  -0.137  -1.506  1.00  0.00     0.157 C 
HETATM    8  O1  UNL     1      -1.429   0.076  -2.710  1.00  0.00    -0.293 OA
HETATM    9  C14 UNL     1       0.088  -0.533  -0.988  1.00  0.00     0.093 C 
HETATM   10  C15 UNL     1       0.304  -0.088   0.457  1.00  0.00    -0.026 C 
HETATM   11  C16 UNL     1       0.379   1.454   0.517  1.00  0.00     0.016 C 
HETATM   12  C17 UNL     1      -3.857   0.248  -1.151  1.00  0.00    -0.008 C 
HETATM   13  C18 UNL     1      -3.889   1.761  -1.491  1.00  0.00     0.021 C 
HETATM   14  C19 UNL     1      -4.127  -0.578  -2.454  1.00  0.00     0.022 C 
HETATM   15  C20 UNL     1      -5.575  -1.003  -2.696  1.00  0.00     0.080 C 
HETATM   16  C21 UNL     1      -6.556  -0.037  -2.091  1.00  0.00     0.131 C 
HETATM   17  O2  UNL     1      -7.488   0.429  -2.744  1.00  0.00    -0.298 OA
HETATM   18  C22 UNL     1      -6.393   0.267  -0.610  1.00  0.00     0.056 C 
HETATM   19  C23 UNL     1      -7.508  -0.448   0.153  1.00  0.00     0.018 C 
HETATM   20  C24 UNL     1      -4.980  -0.144  -0.126  1.00  0.00     0.012 C 
HETATM   21  C25 UNL     1      -4.678   0.424   1.259  1.00  0.00     0.042 C 
HETATM   22  C26 UNL     1      -3.345  -0.090   1.802  1.00  0.00     0.148 C 
ENDROOT
BRANCH   1  23
HETATM   23  C5  UNL     1       2.980  -0.386   0.938  1.00  0.00    -0.014 C 
HETATM   24  C6  UNL     1       3.378   1.019   1.398  1.00  0.00     0.010 C 
BRANCH  23  25
HETATM   25  C4  UNL     1       3.399  -0.652  -0.529  1.00  0.00     0.009 C 
BRANCH  25  26
HETATM   26  C3  UNL     1       4.916  -0.821  -0.751  1.00  0.00     0.034 C 
BRANCH  26  27
HETATM   27  C2  UNL     1       5.799   0.413  -0.850  1.00  0.00    -0.075 C 
HETATM   28  C1  UNL     1       5.369   1.588  -1.346  1.00  0.00     0.015 C 
BRANCH  27  29
HETATM   29  C27 UNL     1       7.256   0.269  -0.410  1.00  0.00     0.107 C 
HETATM   30  C28 UNL     1       7.415  -0.006   1.085  1.00  0.00     0.026 C 
BRANCH  29  31
HETATM   31  C29 UNL     1       7.962  -0.814  -1.215  1.00  0.00     0.147 C 
HETATM   32  O4  UNL     1       7.798  -2.021  -1.128  1.00  0.00    -0.650 OA
BRANCH  31  33
HETATM   33  O5  UNL     1       8.849  -0.314  -2.101  1.00  0.00    -0.776 OA
HETATM   34  H42 UNL     1       9.200  -1.108  -2.555  1.00  0.00     0.167 HD
ENDBRANCH  31  33
ENDBRANCH  29  31
ENDBRANCH  27  29
ENDBRANCH  26  27
ENDBRANCH  25  26
ENDBRANCH  23  25
ENDBRANCH   1  23
BRANCH  22  35
HETATM   35  O3  UNL     1      -2.947   0.820   2.820  1.00  0.00    -0.391 OA
HETATM   36  H37 UNL     1      -3.621   0.792   3.519  1.00  0.00     0.210 HD
ENDBRANCH  22  35
TORSDOF 8
