REMARK  13 active torsions:
REMARK  status: ('A' for Active; 'I' for Inactive)
REMARK    1  A    between atoms: C4_4  and  C5_5 
REMARK    2  A    between atoms: C5_5  and  C6_6 
REMARK    3  A    between atoms: C6_6  and  C7_7 
REMARK    4  A    between atoms: C9_9  and  C10_10 
REMARK    5  A    between atoms: C11_11  and  C12_12 
REMARK    6  A    between atoms: C14_14  and  C15_15 
REMARK    7  A    between atoms: C18_18  and  O1_19 
REMARK    8  A    between atoms: C19_21  and  C20_22 
REMARK    9  A    between atoms: C20_22  and  C21_23 
REMARK   10  A    between atoms: C21_23  and  C22_24 
REMARK   11  A    between atoms: C22_24  and  O3_25 
REMARK   12  A    between atoms: C24_27  and  C26_29 
REMARK   13  A    between atoms: C29_33  and  O5_35 
ROOT
HETATM    1  C15 UNL     1      -1.751  -0.140  -1.814  1.00  0.00     0.149 C 
HETATM    2  C16 UNL     1      -2.687  -0.767  -0.769  1.00  0.00     0.054 C 
HETATM    3  C17 UNL     1      -3.588   0.388  -0.245  1.00  0.00     0.050 C 
HETATM    4  C18 UNL     1      -3.395   1.400  -1.384  1.00  0.00     0.270 C 
HETATM    5  O2  UNL     1      -2.040   1.259  -1.801  1.00  0.00    -0.351 OA
HETATM    6  C19 UNL     1      -5.074  -0.136  -0.095  1.00  0.00     0.032 C 
HETATM    7  C23 UNL     1      -5.127  -1.169   1.049  1.00  0.00    -0.066 C 
HETATM    8  C24 UNL     1      -5.542  -2.457   0.935  1.00  0.00    -0.021 C 
HETATM    9  C25 UNL     1      -5.493  -3.449   2.068  1.00  0.00     0.052 C 
HETATM   10  C27 UNL     1      -4.660  -0.587   2.371  1.00  0.00     0.038 C 
HETATM   11  C28 UNL     1      -3.237  -0.052   2.279  1.00  0.00     0.042 C 
HETATM   12  C29 UNL     1      -3.034   0.957   1.126  1.00  0.00     0.067 C 
HETATM   13  C30 UNL     1      -1.557   1.386   1.136  1.00  0.00     0.047 C 
ENDROOT
BRANCH   4  14
HETATM   14  O1  UNL     1      -4.178   1.091  -2.526  1.00  0.00    -0.370 OA
HETATM   15  H26 UNL     1      -3.982   1.813  -3.148  1.00  0.00     0.212 HD
ENDBRANCH   4  14
BRANCH   6  16
HETATM   16  C20 UNL     1      -6.222   0.888   0.138  1.00  0.00     0.012 C 
BRANCH  16  17
HETATM   17  C21 UNL     1      -6.782   1.633  -1.080  1.00  0.00     0.027 C 
BRANCH  17  18
HETATM   18  C22 UNL     1      -7.344   0.740  -2.183  1.00  0.00     0.164 C 
BRANCH  18  19
HETATM   19  O3  UNL     1      -8.301  -0.162  -1.644  1.00  0.00    -0.401 OA
HETATM   20  H34 UNL     1      -8.675  -0.659  -2.393  1.00  0.00     0.209 HD
ENDBRANCH  18  19
ENDBRANCH  17  18
ENDBRANCH  16  17
ENDBRANCH   6  16
BRANCH  12  21
HETATM   21  O5  UNL     1      -3.772   2.147   1.449  1.00  0.00    -0.389 OA
HETATM   22  H46 UNL     1      -3.443   2.494   2.298  1.00  0.00     0.210 HD
ENDBRANCH  12  21
BRANCH   1  23
HETATM   23  C14 UNL     1      -0.294  -0.444  -1.573  1.00  0.00     0.011 C 
HETATM   24  C12 UNL     1       0.803   0.327  -1.742  1.00  0.00    -0.063 C 
HETATM   25  C13 UNL     1       0.775   1.709  -2.343  1.00  0.00     0.048 C 
BRANCH  24  26
HETATM   26  C11 UNL     1       2.107  -0.227  -1.362  1.00  0.00     0.006 C 
HETATM   27  C10 UNL     1       3.276   0.435  -1.322  1.00  0.00     0.001 C 
BRANCH  27  28
HETATM   28  C9  UNL     1       4.520  -0.200  -0.939  1.00  0.00     0.002 C 
HETATM   29  C7  UNL     1       5.744   0.366  -0.901  1.00  0.00    -0.084 C 
HETATM   30  C8  UNL     1       6.065   1.787  -1.287  1.00  0.00     0.043 C 
BRANCH  29  31
HETATM   31  C6  UNL     1       6.947  -0.465  -0.480  1.00  0.00     0.037 C 
BRANCH  31  32
HETATM   32  C5  UNL     1       7.528  -0.035   0.871  1.00  0.00     0.031 C 
BRANCH  32  33
HETATM   33  C4  UNL     1       8.659  -0.935   1.293  1.00  0.00    -0.024 C 
HETATM   34  C2  UNL     1       9.981  -0.697   1.188  1.00  0.00    -0.091 C 
HETATM   35  C1  UNL     1      10.592   0.532   0.571  1.00  0.00     0.042 C 
HETATM   36  C3  UNL     1      10.985  -1.702   1.689  1.00  0.00     0.042 C 
ENDBRANCH  32  33
ENDBRANCH  31  32
ENDBRANCH  29  31
ENDBRANCH  27  28
ENDBRANCH  24  26
ENDBRANCH   1  23
BRANCH   8  37
HETATM   37  C26 UNL     1      -6.105  -2.999  -0.341  1.00  0.00     0.265 C 
HETATM   38  O4  UNL     1      -6.225  -4.200  -0.562  1.00  0.00    -0.302 OA
ENDBRANCH   8  37
TORSDOF 13
