REMARK  9 active torsions:
REMARK  status: ('A' for Active; 'I' for Inactive)
REMARK    1  A    between atoms: C1_2  and  C2_3 
REMARK       I    between atoms: C1_2  and  N1_6 
REMARK    2  A    between atoms: N1_6  and  C3_7 
REMARK    3  A    between atoms: N1_6  and  C5_10 
REMARK    4  A    between atoms: C3_7  and  C4_8 
REMARK    5  A    between atoms: C4_8  and  O2_9 
REMARK    6  A    between atoms: C5_10  and  C6_11 
REMARK    7  A    between atoms: C9_14  and  O3_15 
REMARK    8  A    between atoms: O3_15  and  C10_16 
REMARK    9  A    between atoms: C13_19  and  N2_20 
ROOT
HETATM    1  C6  UNL     1      -1.026   0.456   0.699  1.00  0.00    -0.040 A 
HETATM    2  C7  UNL     1      -0.182   0.603  -0.412  1.00  0.00     0.011 A 
HETATM    3  C8  UNL     1       0.996  -0.141  -0.512  1.00  0.00     0.038 A 
HETATM    4  C9  UNL     1       1.345  -1.027   0.508  1.00  0.00     0.076 A 
HETATM    5  C16 UNL     1       0.505  -1.201   1.606  1.00  0.00     0.038 A 
HETATM    6  C17 UNL     1      -0.672  -0.457   1.705  1.00  0.00     0.011 A 
ENDROOT
BRANCH   1   7
HETATM    7  C5  UNL     1      -2.311   1.245   0.805  1.00  0.00     0.164 C 
BRANCH   7   8
HETATM    8  N1  UNL     1      -3.484   0.427   0.479  1.00  0.00    -0.344 N 
HETATM    9  C1  UNL     1      -4.217  -0.119   1.543  1.00  0.00     0.253 C 
HETATM   10  O1  UNL     1      -3.922   0.170   2.708  1.00  0.00    -0.270 OA
BRANCH   9  11
HETATM   11  C2  UNL     1      -5.378  -1.077   1.228  1.00  0.00     0.270 C 
HETATM   12 CL1  UNL     1      -6.824  -0.123   0.834  1.00  0.00    -0.098 Cl
HETATM   13 CL2  UNL     1      -5.717  -2.138   2.621  1.00  0.00    -0.098 Cl
ENDBRANCH   9  11
BRANCH   8  14
HETATM   14  C3  UNL     1      -3.799   0.262  -0.947  1.00  0.00     0.152 C 
BRANCH  14  15
HETATM   15  C4  UNL     1      -4.482   1.489  -1.560  1.00  0.00     0.184 C 
BRANCH  15  16
HETATM   16  O2  UNL     1      -4.836   1.204  -2.907  1.00  0.00    -0.399 OA
HETATM   17  H6  UNL     1      -5.319   1.979  -3.247  1.00  0.00     0.209 HD
ENDBRANCH  15  16
ENDBRANCH  14  15
ENDBRANCH   8  14
ENDBRANCH   7   8
ENDBRANCH   1   7
BRANCH   4  18
HETATM   18  O3  UNL     1       2.475  -1.811   0.449  1.00  0.00    -0.311 OA
BRANCH  18  19
HETATM   19  C10 UNL     1       3.668  -1.176   0.187  1.00  0.00     0.076 A 
HETATM   20  C11 UNL     1       4.058   0.001   0.834  1.00  0.00     0.040 A 
HETATM   21  C12 UNL     1       5.300   0.574   0.550  1.00  0.00     0.039 A 
HETATM   22  C13 UNL     1       6.153  -0.047  -0.374  1.00  0.00     0.103 A 
HETATM   23  C14 UNL     1       5.773  -1.239  -1.007  1.00  0.00     0.039 A 
HETATM   24  C15 UNL     1       4.529  -1.804  -0.716  1.00  0.00     0.040 A 
BRANCH  22  25
HETATM   25  N2  UNL     1       7.459   0.553  -0.676  1.00  0.00    -0.116 N 
HETATM   26  O4  UNL     1       7.756   1.608  -0.098  1.00  0.00    -0.532 OA
HETATM   27  O5  UNL     1       8.185  -0.030  -1.494  1.00  0.00    -0.532 OA
ENDBRANCH  22  25
ENDBRANCH  18  19
ENDBRANCH   4  18
TORSDOF 9
