REMARK  19 active torsions:
REMARK  status: ('A' for Active; 'I' for Inactive)
REMARK    1  A    between atoms: O1_2  and  C2_3 
REMARK    2  A    between atoms: C2_3  and  C3_4 
REMARK    3  A    between atoms: C2_3  and  C28_36 
REMARK    4  A    between atoms: C3_4  and  C4_5 
REMARK    5  A    between atoms: C4_5  and  C6_7 
REMARK    6  A    between atoms: C6_7  and  O2_8 
REMARK    7  A    between atoms: C6_7  and  C7_9 
REMARK    8  A    between atoms: C8_10  and  C9_11 
REMARK    9  A    between atoms: C10_12  and  C11_13 
REMARK   10  A    between atoms: C11_13  and  N1_14 
REMARK       I    between atoms: N1_14  and  C12_15 
REMARK   11  A    between atoms: C12_15  and  C13_17 
REMARK   12  A    between atoms: C13_17  and  C16_20 
REMARK   13  A    between atoms: C16_20  and  O4_21 
REMARK   14  A    between atoms: C16_20  and  C17_22 
REMARK   15  A    between atoms: C19_24  and  C20_25 
REMARK   16  A    between atoms: C21_26  and  C22_27 
REMARK   17  A    between atoms: C23_28  and  C24_29 
REMARK   18  A    between atoms: C26_31  and  N2_33 
REMARK   19  A    between atoms: C28_36  and  O7_37 
ROOT
HETATM    1  C9  UNL     1      -0.955  -0.856   1.159  1.00  0.00    -0.003 C 
HETATM    2  C10 UNL     1       0.125  -0.281   1.712  1.00  0.00    -0.007 C 
ENDROOT
BRANCH   1   3
HETATM    3  C8  UNL     1      -1.933  -0.111   0.403  1.00  0.00    -0.002 C 
HETATM    4  C7  UNL     1      -3.084  -0.646  -0.032  1.00  0.00     0.005 C 
BRANCH   4   5
HETATM    5  C6  UNL     1      -4.112   0.116  -0.816  1.00  0.00     0.144 C 
BRANCH   5   6
HETATM    6  C4  UNL     1      -5.431   0.382  -0.046  1.00  0.00     0.016 C 
HETATM    7  C5  UNL     1      -5.177   1.188   1.237  1.00  0.00     0.013 C 
BRANCH   6   8
HETATM    8  C3  UNL     1      -6.436   1.123  -0.972  1.00  0.00     0.042 C 
BRANCH   8   9
HETATM    9  C2  UNL     1      -7.909   1.110  -0.486  1.00  0.00     0.159 C 
BRANCH   9  10
HETATM   10  O1  UNL     1      -8.553   2.300  -0.961  1.00  0.00    -0.388 OA
HETATM   11  C1  UNL     1      -8.342   3.435  -0.128  1.00  0.00     0.202 C 
ENDBRANCH   9  10
BRANCH   9  12
HETATM   12  C28 UNL     1      -8.724  -0.137  -0.997  1.00  0.00     0.133 C 
HETATM   13  C29 UNL     1      -9.051  -0.053  -2.526  1.00  0.00     0.114 C 
HETATM   14  C30 UNL     1      -9.241  -1.401  -3.220  1.00  0.00     0.023 C 
HETATM   15  C31 UNL     1     -10.363   0.699  -2.574  1.00  0.00     0.227 C 
HETATM   16  O8  UNL     1     -10.786   1.317  -3.536  1.00  0.00    -0.273 OA
HETATM   17  N3  UNL     1     -11.006   0.502  -1.363  1.00  0.00    -0.332 N 
HETATM   18  C32 UNL     1     -12.151   1.311  -1.006  1.00  0.00     0.154 C 
HETATM   19  C33 UNL     1     -10.134  -0.182  -0.345  1.00  0.00     0.183 A 
HETATM   20  C34 UNL     1     -10.298   0.266   1.139  1.00  0.00     0.294 A 
HETATM   21  C35 UNL     1     -10.795  -1.494   0.212  1.00  0.00     0.169 A 
HETATM   22  O9  UNL     1     -10.071   1.240   1.820  1.00  0.00    -0.262 OA
HETATM   23  O10 UNL     1     -10.939  -0.868   1.522  1.00  0.00    -0.311 OA
HETATM   24  C36 UNL     1     -10.093  -2.830   0.377  1.00  0.00     0.043 C 
BRANCH  12  25
HETATM   25  O7  UNL     1      -7.999  -1.334  -0.703  1.00  0.00    -0.383 OA
HETATM   26  H42 UNL     1      -7.234  -1.394  -1.310  1.00  0.00     0.210 HD
ENDBRANCH  12  25
ENDBRANCH   9  12
ENDBRANCH   8   9
ENDBRANCH   6   8
ENDBRANCH   5   6
BRANCH   5  27
HETATM   27  O2  UNL     1      -4.411  -0.692  -1.958  1.00  0.00    -0.391 OA
HETATM   28  H12 UNL     1      -3.592  -0.710  -2.490  1.00  0.00     0.210 HD
ENDBRANCH   5  27
ENDBRANCH   4   5
ENDBRANCH   1   3
BRANCH   2  29
HETATM   29  C11 UNL     1       1.134  -1.014   2.534  1.00  0.00     0.149 C 
BRANCH  29  30
HETATM   30  N1  UNL     1       2.432  -0.777   1.960  1.00  0.00    -0.357 N 
HETATM   31  C12 UNL     1       3.305   0.161   2.463  1.00  0.00     0.228 C 
HETATM   32  O3  UNL     1       2.998   0.903   3.392  1.00  0.00    -0.273 OA
HETATM   33  H19 UNL     1       2.795  -1.451   1.289  1.00  0.00     0.162 HD
BRANCH  31  34
HETATM   34  C13 UNL     1       4.684   0.225   1.758  1.00  0.00     0.063 C 
HETATM   35  C14 UNL     1       5.530   1.286   2.493  1.00  0.00     0.028 C 
HETATM   36  C15 UNL     1       4.433   0.697   0.314  1.00  0.00     0.028 C 
BRANCH  34  37
HETATM   37  C16 UNL     1       5.324  -1.196   1.876  1.00  0.00     0.164 C 
BRANCH  37  38
HETATM   38  O4  UNL     1       4.676  -2.098   0.962  1.00  0.00    -0.390 OA
HETATM   39  H27 UNL     1       5.351  -2.420   0.336  1.00  0.00     0.210 HD
ENDBRANCH  37  38
BRANCH  37  40
HETATM   40  C17 UNL     1       6.833  -1.426   1.743  1.00  0.00    -0.054 C 
HETATM   41  C18 UNL     1       7.326  -2.504   2.684  1.00  0.00     0.046 C 
HETATM   42  C19 UNL     1       7.623  -0.767   0.870  1.00  0.00     0.005 C 
BRANCH  42  43
HETATM   43  C20 UNL     1       9.057  -0.906   0.708  1.00  0.00     0.000 C 
HETATM   44  C21 UNL     1       9.754  -0.220  -0.211  1.00  0.00     0.000 C 
BRANCH  44  45
HETATM   45  C22 UNL     1      11.191  -0.347  -0.359  1.00  0.00     0.001 C 
HETATM   46  C23 UNL     1      11.891   0.327  -1.287  1.00  0.00     0.009 C 
BRANCH  46  47
HETATM   47  C24 UNL     1      13.343   0.247  -1.523  1.00  0.00    -0.034 C 
HETATM   48  C25 UNL     1      14.079  -0.834  -0.749  1.00  0.00     0.050 C 
HETATM   49  C26 UNL     1      13.945   1.081  -2.404  1.00  0.00     0.082 C 
HETATM   50  C27 UNL     1      13.414   2.185  -3.258  1.00  0.00     0.075 C 
BRANCH  49  51
HETATM   51  N2  UNL     1      15.385   0.970  -2.555  1.00  0.00    -0.120 N 
HETATM   52  O5  UNL     1      15.797   0.480  -3.613  1.00  0.00    -0.532 OA
HETATM   53  O6  UNL     1      16.085   1.404  -1.633  1.00  0.00    -0.532 OA
ENDBRANCH  49  51
ENDBRANCH  46  47
ENDBRANCH  44  45
ENDBRANCH  42  43
ENDBRANCH  37  40
ENDBRANCH  34  37
ENDBRANCH  31  34
ENDBRANCH  29  30
ENDBRANCH   2  29
TORSDOF 19
