REMARK  13 active torsions:
REMARK  status: ('A' for Active; 'I' for Inactive)
REMARK    1  A    between atoms: C14_15  and  O2_16 
REMARK    2  A    between atoms: C14_15  and  C15_17 
REMARK    3  A    between atoms: C15_17  and  C16_19 
REMARK    4  A    between atoms: C16_19  and  O4_20 
REMARK    5  A    between atoms: O4_20  and  C17_21 
REMARK    6  A    between atoms: C17_21  and  C18_23 
REMARK    7  A    between atoms: C18_23  and  C19_24 
REMARK    8  A    between atoms: C19_24  and  C20_25 
REMARK       I    between atoms: C20_25  and  N1_27 
REMARK    9  A    between atoms: N1_27  and  C21_28 
REMARK   10  A    between atoms: C21_28  and  C22_29 
REMARK   11  A    between atoms: C22_29  and  C23_30 
REMARK   12  A    between atoms: C26_33  and  O7_34 
REMARK   13  A    between atoms: C27_35  and  O8_36 
ROOT
HETATM    1  C15 UNL     1      -0.198   1.474  -0.688  1.00  0.00     0.185 C 
HETATM    2  O3  UNL     1      -0.323   2.113   0.362  1.00  0.00    -0.292 OA
ENDROOT
BRANCH   1   3
HETATM    3  C14 UNL     1      -0.933   0.121  -0.912  1.00  0.00     0.128 C 
HETATM    4  C13 UNL     1      -0.789  -0.747   0.356  1.00  0.00     0.047 C 
HETATM    5  C12 UNL     1      -2.112  -0.634   1.117  1.00  0.00     0.009 C 
HETATM    6  C11 UNL     1      -2.960   0.411   0.368  1.00  0.00     0.002 C 
HETATM    7  C10 UNL     1      -4.467   0.235   0.635  1.00  0.00     0.003 C 
HETATM    8  C29 UNL     1      -2.481   0.279  -1.090  1.00  0.00     0.005 C 
HETATM    9  C9  UNL     1      -5.211   1.587   0.632  1.00  0.00     0.010 C 
HETATM   10  C33 UNL     1      -5.192  -0.855  -0.218  1.00  0.00     0.072 C 
HETATM   11  C8  UNL     1      -6.647   1.461   1.167  1.00  0.00     0.035 C 
HETATM   12  C7  UNL     1      -7.149   0.040   1.062  1.00  0.00    -0.067 C 
HETATM   13  C2  UNL     1      -6.765  -0.686  -0.230  1.00  0.00    -0.009 C 
HETATM   14  C6  UNL     1      -7.779  -0.541   2.097  1.00  0.00     0.053 C 
HETATM   15  C1  UNL     1      -7.302   0.150  -1.426  1.00  0.00     0.021 C 
HETATM   16  C3  UNL     1      -7.485  -2.063  -0.315  1.00  0.00     0.022 C 
HETATM   17  C4  UNL     1      -7.504  -2.836   0.995  1.00  0.00     0.084 C 
HETATM   18  C5  UNL     1      -8.080  -1.991   2.103  1.00  0.00     0.149 C 
HETATM   19  O1  UNL     1      -8.700  -2.475   3.046  1.00  0.00    -0.293 OA
HETATM   20  C32 UNL     1      -4.580  -1.056  -1.607  1.00  0.00     0.133 C 
HETATM   21  C31 UNL     1      -3.078  -0.985  -1.738  1.00  0.00     0.091 C 
HETATM   22  O9  UNL     1      -5.244  -1.426  -2.577  1.00  0.00    -0.297 OA
HETATM   23  C30 UNL     1      -2.853   1.496  -1.952  1.00  0.00     0.019 C 
BRANCH   3  24
HETATM   24  O2  UNL     1      -0.379  -0.577  -2.021  1.00  0.00    -0.381 OA
HETATM   25  H19 UNL     1       0.474  -0.965  -1.745  1.00  0.00     0.211 HD
ENDBRANCH   3  24
ENDBRANCH   1   3
BRANCH   1  26
HETATM   26  C16 UNL     1       0.658   2.008  -1.841  1.00  0.00     0.260 C 
BRANCH  26  27
HETATM   27  O4  UNL     1       1.566   3.028  -1.420  1.00  0.00    -0.314 OA
BRANCH  27  28
HETATM   28  C17 UNL     1       2.549   2.567  -0.592  1.00  0.00     0.259 C 
HETATM   29  O5  UNL     1       2.702   1.392  -0.284  1.00  0.00    -0.265 OA
BRANCH  28  30
HETATM   30  C18 UNL     1       3.392   3.722  -0.112  1.00  0.00     0.120 C 
BRANCH  30  31
HETATM   31  C19 UNL     1       4.326   3.289   1.010  1.00  0.00     0.112 C 
BRANCH  31  32
HETATM   32  C20 UNL     1       5.509   2.498   0.488  1.00  0.00     0.218 C 
HETATM   33  O6  UNL     1       5.833   2.468  -0.693  1.00  0.00    -0.274 OA
HETATM   34  N1  UNL     1       6.211   1.862   1.489  1.00  0.00    -0.361 N 
HETATM   35  H26 UNL     1       5.824   1.840   2.424  1.00  0.00     0.162 HD
BRANCH  34  36
HETATM   36  C21 UNL     1       7.344   1.003   1.197  1.00  0.00     0.127 C 
BRANCH  36  37
HETATM   37  C22 UNL     1       6.905  -0.391   0.745  1.00  0.00     0.058 C 
BRANCH  37  38
HETATM   38  C23 UNL     1       8.086  -1.299   0.508  1.00  0.00    -0.054 A 
HETATM   39  C24 UNL     1       8.675  -1.380  -0.766  1.00  0.00     0.010 A 
HETATM   40  C25 UNL     1       9.783  -2.204  -0.991  1.00  0.00     0.040 A 
HETATM   41  C26 UNL     1      10.303  -2.943   0.065  1.00  0.00     0.098 A 
HETATM   42  C27 UNL     1       9.727  -2.862   1.331  1.00  0.00     0.099 A 
HETATM   43  C28 UNL     1       8.627  -2.048   1.563  1.00  0.00     0.046 A 
BRANCH  41  44
HETATM   44  O7  UNL     1      11.383  -3.767  -0.091  1.00  0.00    -0.358 OA
HETATM   45  H33 UNL     1      11.660  -3.724  -1.023  1.00  0.00     0.217 HD
ENDBRANCH  41  44
BRANCH  42  46
HETATM   46  O8  UNL     1      10.248  -3.587   2.365  1.00  0.00    -0.358 OA
HETATM   47  H34 UNL     1      10.998  -4.072   1.966  1.00  0.00     0.217 HD
ENDBRANCH  42  46
ENDBRANCH  37  38
ENDBRANCH  36  37
ENDBRANCH  34  36
ENDBRANCH  31  32
ENDBRANCH  30  31
ENDBRANCH  28  30
ENDBRANCH  27  28
ENDBRANCH  26  27
ENDBRANCH   1  26
TORSDOF 13
