REMARK  13 active torsions:
REMARK  status: ('A' for Active; 'I' for Inactive)
REMARK    1  A    between atoms: O1_2  and  C2_3 
REMARK    2  A    between atoms: C12_14  and  C13_15 
REMARK    3  A    between atoms: C13_15  and  C15_17 
REMARK    4  A    between atoms: C15_17  and  C16_18 
REMARK    5  A    between atoms: C17_19  and  C18_20 
REMARK    6  A    between atoms: C18_20  and  O3_23 
REMARK    7  A    between atoms: C29_32  and  O4_33 
REMARK    8  A    between atoms: O4_33  and  C30_34 
REMARK    9  A    between atoms: C31_36  and  C32_37 
REMARK   10  A    between atoms: C32_37  and  O6_38 
REMARK   11  A    between atoms: C33_39  and  O7_40 
REMARK   12  A    between atoms: C34_41  and  O8_42 
REMARK   13  A    between atoms: C35_43  and  O9_44 
ROOT
HETATM    1  C2  UNL     1      -1.679   1.782   0.558  1.00  0.00     0.270 C 
HETATM    2  O2  UNL     1      -2.628   1.511   1.610  1.00  0.00    -0.344 OA
HETATM    3  C3  UNL     1      -2.342   0.199   2.141  1.00  0.00     0.095 C 
HETATM    4  C4  UNL     1      -1.334   0.468   3.253  1.00  0.00     0.008 C 
HETATM    5  C5  UNL     1      -0.037   0.689   2.993  1.00  0.00    -0.021 C 
HETATM    6  C6  UNL     1       0.489   0.756   1.575  1.00  0.00     0.030 C 
HETATM    7  C7  UNL     1      -0.671   0.577   0.499  1.00  0.00     0.024 C 
HETATM    8  C8  UNL     1      -0.106   0.451  -0.942  1.00  0.00     0.016 C 
HETATM    9  C9  UNL     1       1.175  -0.383  -1.126  1.00  0.00     0.011 C 
HETATM   10  C10 UNL     1       2.273   0.030  -0.131  1.00  0.00    -0.032 C 
HETATM   11  C11 UNL     1       2.677   1.509  -0.436  1.00  0.00     0.016 C 
HETATM   12  C12 UNL     1       3.575  -0.831  -0.075  1.00  0.00    -0.002 C 
HETATM   13  C22 UNL     1       4.118  -0.508   1.355  1.00  0.00     0.006 C 
HETATM   14  C23 UNL     1       2.958   0.100   2.170  1.00  0.00     0.011 C 
HETATM   15  C24 UNL     1       1.706  -0.194   1.325  1.00  0.00    -0.029 C 
HETATM   16  C25 UNL     1       1.338  -1.683   1.640  1.00  0.00     0.016 C 
HETATM   17  C26 UNL     1      -1.649  -0.533   0.963  1.00  0.00     0.039 C 
HETATM   18  C27 UNL     1      -2.619  -1.025  -0.124  1.00  0.00     0.011 C 
HETATM   19  C28 UNL     1      -3.780  -1.810   0.464  1.00  0.00     0.033 C 
HETATM   20  C29 UNL     1      -4.558  -0.965   1.478  1.00  0.00     0.136 C 
HETATM   21  C36 UNL     1      -3.641  -0.516   2.666  1.00  0.00     0.014 C 
HETATM   22  C37 UNL     1      -4.467   0.423   3.583  1.00  0.00     0.021 C 
HETATM   23  C38 UNL     1      -3.281  -1.776   3.498  1.00  0.00     0.021 C 
ENDROOT
BRANCH  20  24
HETATM   24  O4  UNL     1      -5.127   0.195   0.850  1.00  0.00    -0.352 OA
BRANCH  24  25
HETATM   25  C30 UNL     1      -6.375  -0.046   0.188  1.00  0.00     0.292 C 
HETATM   26  O5  UNL     1      -6.165  -0.644  -1.087  1.00  0.00    -0.348 OA
HETATM   27  C31 UNL     1      -7.407  -0.959  -1.729  1.00  0.00     0.179 C 
HETATM   28  C33 UNL     1      -8.201   0.328  -2.022  1.00  0.00     0.180 C 
HETATM   29  C34 UNL     1      -8.372   1.169  -0.755  1.00  0.00     0.183 C 
HETATM   30  C35 UNL     1      -7.053   1.326   0.002  1.00  0.00     0.204 C 
BRANCH  27  31
HETATM   31  C32 UNL     1      -7.112  -1.719  -3.030  1.00  0.00     0.198 C 
BRANCH  31  32
HETATM   32  O6  UNL     1      -8.290  -2.270  -3.601  1.00  0.00    -0.398 OA
HETATM   33  H50 UNL     1      -8.984  -1.576  -3.558  1.00  0.00     0.209 HD
ENDBRANCH  31  32
ENDBRANCH  27  31
BRANCH  28  34
HETATM   34  O7  UNL     1      -9.489  -0.002  -2.559  1.00  0.00    -0.390 OA
HETATM   35  H52 UNL     1     -10.076  -0.083  -1.777  1.00  0.00     0.210 HD
ENDBRANCH  28  34
BRANCH  29  36
HETATM   36  O8  UNL     1      -9.346   0.526   0.091  1.00  0.00    -0.390 OA
HETATM   37  H54 UNL     1      -9.310   1.027   0.934  1.00  0.00     0.210 HD
ENDBRANCH  29  36
BRANCH  30  38
HETATM   38  O9  UNL     1      -7.320   1.943   1.271  1.00  0.00    -0.388 OA
HETATM   39  H56 UNL     1      -6.442   2.040   1.697  1.00  0.00     0.210 HD
ENDBRANCH  30  38
ENDBRANCH  24  25
ENDBRANCH  20  24
BRANCH   1  40
HETATM   40  O1  UNL     1      -1.007   3.025   0.731  1.00  0.00    -0.365 OA
HETATM   41  C1  UNL     1      -1.910   4.119   0.718  1.00  0.00     0.204 C 
ENDBRANCH   1  40
BRANCH  12  42
HETATM   42  C13 UNL     1       4.677  -0.657  -1.161  1.00  0.00    -0.010 C 
HETATM   43  C14 UNL     1       4.148  -0.923  -2.575  1.00  0.00     0.010 C 
BRANCH  42  44
HETATM   44  C15 UNL     1       5.879  -1.593  -0.863  1.00  0.00     0.031 C 
BRANCH  44  45
HETATM   45  C16 UNL     1       7.090  -1.291  -1.707  1.00  0.00    -0.027 C 
HETATM   46  C17 UNL     1       8.070  -0.463  -1.307  1.00  0.00     0.006 C 
BRANCH  46  47
HETATM   47  C18 UNL     1       9.322  -0.048  -2.060  1.00  0.00     0.070 C 
HETATM   48  C19 UNL     1      10.559  -0.255  -1.171  1.00  0.00     0.050 C 
HETATM   49  C20 UNL     1       9.539  -0.840  -3.360  1.00  0.00     0.050 C 
BRANCH  47  50
HETATM   50  O3  UNL     1       9.184   1.319  -2.486  1.00  0.00    -0.382 OA
HETATM   51  C21 UNL     1       9.209   2.323  -1.486  1.00  0.00     0.202 C 
ENDBRANCH  47  50
ENDBRANCH  46  47
ENDBRANCH  44  45
ENDBRANCH  42  44
ENDBRANCH  12  42
TORSDOF 13
