REMARK  5 active torsions:
REMARK  status: ('A' for Active; 'I' for Inactive)
REMARK    1  A    between atoms: C2_2  and  C4_4 
REMARK    2  A    between atoms: C10_11  and  O2_12 
REMARK    3  A    between atoms: C13_15  and  O3_16 
REMARK    4  A    between atoms: C33_39  and  O6_40 
REMARK    5  A    between atoms: C38_46  and  O8_47 
ROOT
HETATM    1  C4  UNL     1      -6.262   0.369  -1.197  1.00  0.00     0.181 C 
HETATM    2  O1  UNL     1      -5.395  -0.771  -1.200  1.00  0.00    -0.370 OA
HETATM    3  C5  UNL     1      -4.597  -0.935  -0.004  1.00  0.00     0.163 C 
HETATM    4  C6  UNL     1      -3.529  -1.953  -0.414  1.00  0.00     0.036 C 
HETATM    5  C7  UNL     1      -2.355  -2.063   0.554  1.00  0.00     0.016 C 
HETATM    6  C8  UNL     1      -1.690  -0.686   0.878  1.00  0.00     0.008 C 
HETATM    7  C9  UNL     1      -1.213  -0.061  -0.475  1.00  0.00     0.020 C 
HETATM    8  C10 UNL     1      -2.811   0.225   1.489  1.00  0.00     0.103 C 
HETATM    9  C11 UNL     1      -2.232   1.571   1.957  1.00  0.00     0.047 C 
HETATM   10  C12 UNL     1      -1.129   1.396   2.999  1.00  0.00     0.073 C 
HETATM   11  C13 UNL     1       0.068   0.561   2.502  1.00  0.00     0.180 C 
HETATM   12  O4  UNL     1       0.710   1.356   1.494  1.00  0.00    -0.320 OA
HETATM   13  C15 UNL     1       1.907   0.789   0.913  1.00  0.00     0.302 C 
HETATM   14  O5  UNL     1       2.014   1.412  -0.369  1.00  0.00    -0.346 OA
HETATM   15  C16 UNL     1       3.245   2.045  -0.730  1.00  0.00     0.064 C 
HETATM   16  C17 UNL     1       3.757   3.034   0.323  1.00  0.00     0.046 C 
HETATM   17  C18 UNL     1       2.884   2.875  -1.981  1.00  0.00     0.046 C 
HETATM   18  C19 UNL     1       4.258   0.978  -1.172  1.00  0.00     0.060 C 
HETATM   19  C20 UNL     1       5.707   1.376  -1.536  1.00  0.00     0.023 C 
HETATM   20  C21 UNL     1       6.205   0.010  -1.009  1.00  0.00     0.054 C 
HETATM   21  C22 UNL     1       6.433  -1.133  -1.956  1.00  0.00    -0.078 C 
HETATM   22  C23 UNL     1       6.940  -0.923  -3.182  1.00  0.00     0.015 C 
HETATM   23  C24 UNL     1       6.135  -2.519  -1.417  1.00  0.00     0.073 C 
HETATM   24  C25 UNL     1       4.751  -2.651  -0.817  1.00  0.00    -0.044 A 
HETATM   25  C26 UNL     1       4.117  -3.896  -0.775  1.00  0.00     0.010 A 
HETATM   26  C27 UNL     1       2.847  -4.037  -0.214  1.00  0.00     0.031 A 
HETATM   27  C28 UNL     1       2.220  -2.888   0.278  1.00  0.00     0.044 A 
HETATM   28  N1  UNL     1       0.985  -2.753   0.874  1.00  0.00    -0.357 N 
HETATM   29  C29 UNL     1       0.761  -1.444   1.187  1.00  0.00     0.036 A 
HETATM   30  C30 UNL     1       1.846  -0.703   0.765  1.00  0.00     0.033 A 
HETATM   31  C31 UNL     1       2.813  -1.622   0.245  1.00  0.00     0.013 A 
HETATM   32  C32 UNL     1       4.133  -1.507  -0.260  1.00  0.00    -0.003 A 
HETATM   33  C33 UNL     1       4.845  -0.097  -0.187  1.00  0.00     0.100 C 
HETATM   34  C34 UNL     1      -0.449  -0.860   1.911  1.00  0.00     0.066 C 
HETATM   35  C35 UNL     1      -0.764  -1.796   3.117  1.00  0.00     0.029 C 
HETATM   36  C36 UNL     1      -4.005   0.366   0.531  1.00  0.00     0.147 A 
HETATM   37  O7  UNL     1      -5.021   1.226   1.137  1.00  0.00    -0.360 OA
HETATM   38  C37 UNL     1      -4.448   1.677  -0.087  1.00  0.00     0.194 A 
HETATM   39  C38 UNL     1      -5.370   1.643  -1.261  1.00  0.00     0.183 C 
HETATM   40  H40 UNL     1       0.356  -3.521   1.063  1.00  0.00     0.166 HD
ENDROOT
BRANCH   1  41
HETATM   41  C2  UNL     1      -7.242   0.269  -2.366  1.00  0.00    -0.062 C 
HETATM   42  C1  UNL     1      -7.199  -0.693  -3.306  1.00  0.00     0.016 C 
HETATM   43  C3  UNL     1      -8.327   1.313  -2.399  1.00  0.00     0.045 C 
ENDBRANCH   1  41
BRANCH  39  44
HETATM   44  O8  UNL     1      -4.545   1.672  -2.431  1.00  0.00    -0.390 OA
HETATM   45  H47 UNL     1      -4.942   1.051  -3.073  1.00  0.00     0.210 HD
ENDBRANCH  39  44
BRANCH   8  46
HETATM   46  O2  UNL     1      -3.348  -0.404   2.664  1.00  0.00    -0.386 OA
HETATM   47  H15 UNL     1      -4.103   0.147   2.948  1.00  0.00     0.210 HD
ENDBRANCH   8  46
BRANCH  11  48
HETATM   48  O3  UNL     1       0.974   0.317   3.602  1.00  0.00    -0.359 OA
HETATM   49  C14 UNL     1       1.465   1.465   4.275  1.00  0.00     0.205 C 
ENDBRANCH  11  48
BRANCH  33  50
HETATM   50  O6  UNL     1       5.033   0.332   1.189  1.00  0.00    -0.384 OA
HETATM   51  H41 UNL     1       5.316  -0.476   1.655  1.00  0.00     0.211 HD
ENDBRANCH  33  50
TORSDOF 5
