REMARK  12 active torsions:
REMARK  status: ('A' for Active; 'I' for Inactive)
REMARK    1  A    between atoms: C2_2  and  C31_37 
REMARK    2  A    between atoms: C3_3  and  C4_4 
REMARK    3  A    between atoms: C4_4  and  O1_5 
REMARK    4  A    between atoms: C4_4  and  C5_6 
REMARK    5  A    between atoms: C5_6  and  C6_7 
REMARK    6  A    between atoms: C6_7  and  C8_9 
REMARK    7  A    between atoms: C10_11  and  O2_12 
REMARK    8  A    between atoms: C11_13  and  C12_14 
REMARK    9  A    between atoms: C12_14  and  C13_15 
REMARK   10  A    between atoms: C13_15  and  O3_16 
REMARK   11  A    between atoms: C30_35  and  O6_36 
REMARK   12  A    between atoms: C31_37  and  O8_39 
ROOT
HETATM    1  C8  UNL     1       2.117   0.058   1.053  1.00  0.00     0.001 C 
HETATM    2  C9  UNL     1       2.049   1.599   0.929  1.00  0.00     0.038 C 
HETATM    3  C10 UNL     1       0.562   1.956   0.696  1.00  0.00     0.132 C 
HETATM    4  C11 UNL     1      -0.240   0.688   1.129  1.00  0.00     0.022 C 
HETATM    5  C14 UNL     1      -1.624   0.418   0.529  1.00  0.00    -0.029 C 
HETATM    6  C15 UNL     1      -2.099  -0.850   0.423  1.00  0.00     0.002 C 
HETATM    7  C16 UNL     1      -1.232  -1.969   0.972  1.00  0.00     0.157 C 
HETATM    8  O4  UNL     1      -1.741  -3.013   1.376  1.00  0.00    -0.293 OA
HETATM    9  C17 UNL     1       0.286  -1.799   1.029  1.00  0.00     0.094 C 
HETATM   10  C18 UNL     1       0.729  -0.420   0.524  1.00  0.00    -0.019 C 
HETATM   11  C19 UNL     1       0.728  -0.486  -1.036  1.00  0.00     0.017 C 
HETATM   12  C20 UNL     1      -3.498  -1.182  -0.159  1.00  0.00    -0.008 C 
HETATM   13  C21 UNL     1      -3.461  -2.529  -0.936  1.00  0.00     0.021 C 
HETATM   14  C22 UNL     1      -4.420  -1.339   1.080  1.00  0.00     0.022 C 
HETATM   15  C23 UNL     1      -5.895  -1.348   0.768  1.00  0.00     0.080 C 
HETATM   16  C24 UNL     1      -6.223  -0.027   0.137  1.00  0.00     0.135 C 
HETATM   17  O5  UNL     1      -7.021   0.737   0.681  1.00  0.00    -0.297 OA
HETATM   18  C25 UNL     1      -5.566   0.270  -1.212  1.00  0.00     0.018 C 
HETATM   19  C26 UNL     1      -5.887   1.732  -1.594  1.00  0.00     0.023 C 
HETATM   20  C27 UNL     1      -6.312  -0.603  -2.255  1.00  0.00     0.023 C 
HETATM   21  C28 UNL     1      -4.015  -0.083  -1.217  1.00  0.00     0.016 C 
HETATM   22  C29 UNL     1      -3.040   1.115  -1.357  1.00  0.00     0.043 C 
HETATM   23  C30 UNL     1      -2.406   1.566  -0.053  1.00  0.00     0.149 C 
ENDROOT
BRANCH   1  24
HETATM   24  C6  UNL     1       3.414  -0.633   0.522  1.00  0.00    -0.011 C 
HETATM   25  C7  UNL     1       4.476  -0.593   1.637  1.00  0.00     0.010 C 
BRANCH  24  26
HETATM   26  C5  UNL     1       3.993  -0.028  -0.786  1.00  0.00     0.040 C 
BRANCH  26  27
HETATM   27  C4  UNL     1       4.965  -0.905  -1.601  1.00  0.00     0.142 C 
BRANCH  27  28
HETATM   28  C3  UNL     1       6.360  -0.968  -1.062  1.00  0.00     0.018 C 
HETATM   29  C2  UNL     1       7.365  -0.106  -1.321  1.00  0.00     0.010 C 
HETATM   30  C1  UNL     1       7.266   1.118  -2.179  1.00  0.00     0.055 C 
BRANCH  29  31
HETATM   31  C31 UNL     1       8.672  -0.393  -0.676  1.00  0.00     0.171 C 
HETATM   32  O7  UNL     1       8.911  -1.266   0.140  1.00  0.00    -0.646 OA
BRANCH  31  33
HETATM   33  O8  UNL     1       9.635   0.450  -1.085  1.00  0.00    -0.773 OA
HETATM   34  H46 UNL     1      10.424   0.148  -0.587  1.00  0.00     0.167 HD
ENDBRANCH  31  33
ENDBRANCH  29  31
ENDBRANCH  27  28
BRANCH  27  35
HETATM   35  O1  UNL     1       4.484  -2.240  -1.692  1.00  0.00    -0.392 OA
HETATM   36  H6  UNL     1       3.650  -2.218  -2.190  1.00  0.00     0.210 HD
ENDBRANCH  27  35
ENDBRANCH  26  27
ENDBRANCH  24  26
ENDBRANCH   1  24
BRANCH   3  37
HETATM   37  O2  UNL     1       0.205   3.124   1.409  1.00  0.00    -0.394 OA
HETATM   38  H17 UNL     1       0.833   3.829   1.169  1.00  0.00     0.210 HD
ENDBRANCH   3  37
BRANCH   4  39
HETATM   39  C12 UNL     1      -0.332   0.652   2.707  1.00  0.00     0.043 C 
BRANCH  39  40
HETATM   40  C13 UNL     1      -1.440   1.469   3.367  1.00  0.00     0.165 C 
BRANCH  40  41
HETATM   41  O3  UNL     1      -1.224   1.450   4.777  1.00  0.00    -0.401 OA
HETATM   42  H22 UNL     1      -1.937   1.974   5.176  1.00  0.00     0.209 HD
ENDBRANCH  40  41
ENDBRANCH  39  40
ENDBRANCH   4  39
BRANCH  23  43
HETATM   43  O6  UNL     1      -3.413   2.033   0.822  1.00  0.00    -0.391 OA
HETATM   44  H45 UNL     1      -3.539   1.408   1.548  1.00  0.00     0.210 HD
ENDBRANCH  23  43
TORSDOF 12
