REMARK  12 active torsions:
REMARK  status: ('A' for Active; 'I' for Inactive)
REMARK    1  A    between atoms: O1_2  and  C2_3 
REMARK    2  A    between atoms: C2_3  and  C3_4 
REMARK    3  A    between atoms: C2_3  and  C7_8 
REMARK    4  A    between atoms: C7_8  and  C8_9 
REMARK    5  A    between atoms: C8_9  and  C10_11 
REMARK    6  A    between atoms: C28_30  and  O3_31 
REMARK    7  A    between atoms: O3_31  and  C29_32 
REMARK    8  A    between atoms: C30_34  and  C31_35 
REMARK    9  A    between atoms: C31_35  and  O5_36 
REMARK   10  A    between atoms: C32_37  and  O6_38 
REMARK   11  A    between atoms: C33_39  and  O7_40 
REMARK   12  A    between atoms: C34_41  and  O8_42 
ROOT
HETATM    1  C10 UNL     1       3.936  -1.288  -0.116  1.00  0.00    -0.002 C 
HETATM    2  C11 UNL     1       4.231  -1.780   1.340  1.00  0.00     0.006 C 
HETATM    3  C12 UNL     1       2.928  -2.388   1.902  1.00  0.00     0.011 C 
HETATM    4  C13 UNL     1       2.048  -2.609   0.659  1.00  0.00    -0.029 C 
HETATM    5  C14 UNL     1       2.599  -3.936   0.012  1.00  0.00     0.016 C 
HETATM    6  C15 UNL     1       0.506  -2.820   0.866  1.00  0.00     0.028 C 
HETATM    7  C16 UNL     1      -0.162  -2.379   2.139  1.00  0.00    -0.021 C 
HETATM    8  C17 UNL     1      -1.472  -2.072   2.155  1.00  0.00     0.008 C 
HETATM    9  C18 UNL     1      -2.315  -1.954   0.887  1.00  0.00     0.092 C 
HETATM   10  O2  UNL     1      -2.506  -3.320   0.420  1.00  0.00    -0.374 OA
HETATM   11  C19 UNL     1      -1.426  -3.636  -0.512  1.00  0.00     0.179 C 
HETATM   12  C20 UNL     1      -0.376  -2.475  -0.402  1.00  0.00    -0.004 C 
HETATM   13  C21 UNL     1       0.450  -2.298  -1.684  1.00  0.00     0.014 C 
HETATM   14  C22 UNL     1       1.728  -1.435  -1.569  1.00  0.00     0.011 C 
HETATM   15  C23 UNL     1       2.365  -1.321  -0.164  1.00  0.00    -0.032 C 
HETATM   16  C24 UNL     1       1.865  -0.035   0.550  1.00  0.00     0.016 C 
HETATM   17  C25 UNL     1      -1.469  -1.389  -0.262  1.00  0.00     0.036 C 
HETATM   18  C26 UNL     1      -1.308   0.111  -0.146  1.00  0.00     0.011 C 
HETATM   19  C27 UNL     1      -2.682   0.771  -0.375  1.00  0.00     0.033 C 
HETATM   20  C28 UNL     1      -3.885  -0.182  -0.151  1.00  0.00     0.136 C 
HETATM   21  C35 UNL     1      -3.673  -1.142   1.073  1.00  0.00     0.014 C 
HETATM   22  C36 UNL     1      -4.874  -2.111   1.162  1.00  0.00     0.021 C 
HETATM   23  C37 UNL     1      -3.712  -0.276   2.365  1.00  0.00     0.021 C 
ENDROOT
BRANCH  20  24
HETATM   24  O3  UNL     1      -5.060   0.613   0.051  1.00  0.00    -0.352 OA
BRANCH  24  25
HETATM   25  C29 UNL     1      -5.684   1.075  -1.149  1.00  0.00     0.292 C 
HETATM   26  O4  UNL     1      -5.803   2.497  -1.087  1.00  0.00    -0.348 OA
HETATM   27  C30 UNL     1      -6.926   3.004  -0.350  1.00  0.00     0.179 C 
HETATM   28  C32 UNL     1      -8.273   2.492  -0.910  1.00  0.00     0.180 C 
HETATM   29  C33 UNL     1      -8.109   1.281  -1.835  1.00  0.00     0.183 C 
HETATM   30  C34 UNL     1      -7.031   0.335  -1.323  1.00  0.00     0.204 C 
BRANCH  27  31
HETATM   31  C31 UNL     1      -6.791   2.724   1.160  1.00  0.00     0.198 C 
BRANCH  31  32
HETATM   32  O5  UNL     1      -5.509   3.136   1.624  1.00  0.00    -0.398 OA
HETATM   33  H48 UNL     1      -4.869   2.669   1.048  1.00  0.00     0.209 HD
ENDBRANCH  31  32
ENDBRANCH  27  31
BRANCH  28  34
HETATM   34  O6  UNL     1      -8.913   3.531  -1.676  1.00  0.00    -0.390 OA
HETATM   35  H50 UNL     1      -9.842   3.262  -1.819  1.00  0.00     0.210 HD
ENDBRANCH  28  34
BRANCH  29  36
HETATM   36  O7  UNL     1      -7.761   1.687  -3.177  1.00  0.00    -0.390 OA
HETATM   37  H52 UNL     1      -7.976   2.642  -3.234  1.00  0.00     0.210 HD
ENDBRANCH  29  36
BRANCH  30  38
HETATM   38  O8  UNL     1      -6.888  -0.753  -2.250  1.00  0.00    -0.388 OA
HETATM   39  H54 UNL     1      -6.950  -0.342  -3.138  1.00  0.00     0.210 HD
ENDBRANCH  30  38
ENDBRANCH  24  25
ENDBRANCH  20  24
BRANCH   1  40
HETATM   40  C8  UNL     1       4.700   0.034  -0.461  1.00  0.00    -0.011 C 
HETATM   41  C9  UNL     1       4.338   0.547  -1.857  1.00  0.00     0.010 C 
BRANCH  40  42
HETATM   42  C7  UNL     1       6.239  -0.185  -0.340  1.00  0.00     0.040 C 
BRANCH  42  43
HETATM   43  C2  UNL     1       7.123   1.087  -0.272  1.00  0.00     0.144 C 
BRANCH  43  44
HETATM   44  O1  UNL     1       6.539   2.039   0.614  1.00  0.00    -0.387 OA
HETATM   45  C1  UNL     1       6.858   1.808   1.980  1.00  0.00     0.202 C 
ENDBRANCH  43  44
BRANCH  43  46
HETATM   46  C3  UNL     1       7.384   1.699  -1.633  1.00  0.00     0.007 C 
HETATM   47  C4  UNL     1       7.490   2.993  -2.002  1.00  0.00    -0.089 C 
HETATM   48  C5  UNL     1       7.447   4.162  -1.058  1.00  0.00     0.042 C 
HETATM   49  C6  UNL     1       7.670   3.367  -3.449  1.00  0.00     0.042 C 
ENDBRANCH  43  46
ENDBRANCH  42  43
ENDBRANCH  40  42
ENDBRANCH   1  40
TORSDOF 12
