REMARK  10 active torsions:
REMARK  status: ('A' for Active; 'I' for Inactive)
REMARK    1  A    between atoms: C4_4  and  C5_5 
REMARK    2  A    between atoms: C5_5  and  O2_7 
REMARK    3  A    between atoms: O2_7  and  C6_8 
REMARK    4  A    between atoms: C6_8  and  C7_9 
REMARK    5  A    between atoms: C7_9  and  N1_10 
REMARK    6  A    between atoms: C20_24  and  O4_25 
REMARK    7  A    between atoms: O4_25  and  C21_26 
REMARK    8  A    between atoms: C21_26  and  C22_28 
REMARK    9  A    between atoms: C22_28  and  C23_29 
REMARK   10  A    between atoms: C23_29  and  O6_32 
ROOT
HETATM    1  C1  UNL     1       2.472   2.729  -0.713  1.00  0.00     0.015 C 
HETATM    2  C2  UNL     1       2.427   1.424  -1.524  1.00  0.00     0.022 C 
HETATM    3  C3  UNL     1       3.340   0.379  -0.885  1.00  0.00    -0.070 C 
HETATM    4  C4  UNL     1       4.676   0.482  -1.053  1.00  0.00     0.085 C 
HETATM    5  C10 UNL     1       2.646  -0.745  -0.146  1.00  0.00     0.035 C 
HETATM    6  C11 UNL     1       1.345  -0.325   0.553  1.00  0.00     0.010 C 
HETATM    7  C12 UNL     1       0.371   0.520  -0.309  1.00  0.00     0.006 C 
HETATM    8  C13 UNL     1       1.004   0.840  -1.686  1.00  0.00     0.068 C 
HETATM    9  C14 UNL     1       0.096   1.715  -2.540  1.00  0.00     0.132 C 
HETATM   10  O3  UNL     1       0.526   2.639  -3.230  1.00  0.00    -0.298 OA
HETATM   11  C15 UNL     1      -1.363   1.310  -2.618  1.00  0.00     0.085 C 
HETATM   12  C16 UNL     1      -1.918   1.080  -1.204  1.00  0.00     0.011 C 
HETATM   13  C17 UNL     1      -3.487   0.983  -1.097  1.00  0.00    -0.016 C 
HETATM   14  C18 UNL     1      -4.075  -0.149  -1.964  1.00  0.00     0.018 C 
HETATM   15  C19 UNL     1      -4.108   2.300  -1.645  1.00  0.00     0.018 C 
HETATM   16  C20 UNL     1      -3.920   0.882   0.414  1.00  0.00     0.140 C 
HETATM   17  C26 UNL     1      -2.739   0.773   1.388  1.00  0.00     0.034 C 
HETATM   18  C27 UNL     1      -1.738  -0.293   0.961  1.00  0.00     0.012 C 
HETATM   19  C28 UNL     1      -1.103  -0.041  -0.440  1.00  0.00    -0.035 C 
HETATM   20  C29 UNL     1      -1.059  -1.403  -1.179  1.00  0.00     0.016 C 
ENDROOT
BRANCH   4  21
HETATM   21  C5  UNL     1       5.710  -0.471  -0.579  1.00  0.00     0.283 C 
HETATM   22  O1  UNL     1       5.513  -1.568  -0.091  1.00  0.00    -0.260 OA
BRANCH  21  23
HETATM   23  O2  UNL     1       6.918   0.104  -0.808  1.00  0.00    -0.316 OA
BRANCH  23  24
HETATM   24  C6  UNL     1       8.069  -0.684  -0.449  1.00  0.00     0.209 C 
BRANCH  24  25
HETATM   25  C7  UNL     1       8.432  -0.456   1.027  1.00  0.00     0.298 C 
BRANCH  25  26
HETATM   26  N1  UNL     1       9.647  -1.167   1.467  1.00  0.00     0.082 N 
HETATM   27  C8  UNL     1       9.750  -1.126   2.930  1.00  0.00     0.309 C 
HETATM   28  C9  UNL     1      10.861  -0.599   0.874  1.00  0.00     0.309 C 
ENDBRANCH  25  26
ENDBRANCH  24  25
ENDBRANCH  23  24
ENDBRANCH  21  23
ENDBRANCH   4  21
BRANCH  16  29
HETATM   29  O4  UNL     1      -4.766  -0.267   0.658  1.00  0.00    -0.315 OA
BRANCH  29  30
HETATM   30  C21 UNL     1      -6.115  -0.054   0.616  1.00  0.00     0.262 C 
HETATM   31  O5  UNL     1      -6.642   1.018   0.366  1.00  0.00    -0.265 OA
BRANCH  30  32
HETATM   32  C22 UNL     1      -6.834  -1.366   0.848  1.00  0.00     0.148 C 
BRANCH  32  33
HETATM   33  C23 UNL     1      -8.219  -1.242   1.504  1.00  0.00     0.059 C 
HETATM   34  C24 UNL     1      -8.773  -2.646   1.779  1.00  0.00     0.045 C 
HETATM   35  C25 UNL     1      -8.182  -0.451   2.814  1.00  0.00     0.045 C 
BRANCH  33  36
HETATM   36  O6  UNL     1      -9.148  -0.602   0.629  1.00  0.00    -0.390 OA
HETATM   37  H40 UNL     1      -9.152  -1.066  -0.226  1.00  0.00     0.210 HD
ENDBRANCH  33  36
ENDBRANCH  32  33
ENDBRANCH  30  32
ENDBRANCH  29  30
ENDBRANCH  16  29
TORSDOF 10
