REMARK  11 active torsions:
REMARK  status: ('A' for Active; 'I' for Inactive)
REMARK    1  A    between atoms: C2_2  and  O2_4 
REMARK    2  A    between atoms: O2_4  and  C3_5 
REMARK    3  A    between atoms: C4_6  and  O3_7 
REMARK    4  A    between atoms: O3_7  and  C5_8 
REMARK    5  A    between atoms: C15_18  and  C16_19 
REMARK    6  A    between atoms: C20_23  and  C21_24 
REMARK    7  A    between atoms: C21_24  and  O4_27 
REMARK    8  A    between atoms: C24_29  and  O6_30 
REMARK    9  A    between atoms: C30_36  and  O7_37 
REMARK   10  A    between atoms: C36_44  and  O9_45 
REMARK   11  A    between atoms: C37_46  and  O10_47 
ROOT
HETATM    1  C5  UNL     1       3.916  -1.959  -1.465  1.00  0.00     0.133 C 
HETATM    2  C6  UNL     1       2.841  -3.059  -1.417  1.00  0.00     0.034 C 
HETATM    3  C7  UNL     1       1.429  -2.578  -1.773  1.00  0.00     0.013 C 
HETATM    4  C8  UNL     1       1.278  -1.086  -1.550  1.00  0.00    -0.025 A 
HETATM    5  C9  UNL     1       1.081  -0.666  -0.122  1.00  0.00     0.021 A 
HETATM    6  C10 UNL     1      -0.073  -0.456  -1.100  1.00  0.00    -0.027 A 
HETATM    7  C11 UNL     1      -1.265  -1.403  -0.889  1.00  0.00     0.011 C 
HETATM    8  C12 UNL     1      -2.687  -0.841  -0.876  1.00  0.00     0.011 C 
HETATM    9  C13 UNL     1      -2.761   0.629  -0.475  1.00  0.00    -0.028 C 
HETATM   10  C14 UNL     1      -2.299   0.752   0.999  1.00  0.00     0.016 C 
HETATM   11  C15 UNL     1      -4.150   1.358  -0.690  1.00  0.00     0.057 C 
HETATM   12  C24 UNL     1      -3.702   2.848  -0.882  1.00  0.00     0.126 C 
HETATM   13  C25 UNL     1      -2.196   2.846  -1.163  1.00  0.00     0.042 C 
HETATM   14  C26 UNL     1      -1.851   1.391  -1.514  1.00  0.00    -0.029 C 
HETATM   15  C27 UNL     1      -2.245   1.146  -3.008  1.00  0.00     0.016 C 
HETATM   16  C28 UNL     1      -0.342   1.050  -1.322  1.00  0.00     0.006 C 
HETATM   17  C29 UNL     1       0.553   1.628  -2.436  1.00  0.00     0.038 C 
HETATM   18  C30 UNL     1       2.028   1.237  -2.336  1.00  0.00     0.124 C 
HETATM   19  C31 UNL     1       2.188  -0.290  -2.511  1.00  0.00     0.034 C 
HETATM   20  C32 UNL     1       3.669  -0.875  -2.562  1.00  0.00    -0.015 C 
HETATM   21  C33 UNL     1       4.768   0.199  -2.438  1.00  0.00     0.018 C 
HETATM   22  C34 UNL     1       3.894  -1.540  -3.949  1.00  0.00     0.018 C 
ENDROOT
BRANCH   1  23
HETATM   23  O3  UNL     1       3.961  -1.330  -0.170  1.00  0.00    -0.352 OA
BRANCH  23  24
HETATM   24  C4  UNL     1       5.232  -1.442   0.478  1.00  0.00     0.292 C 
HETATM   25  C3  UNL     1       5.264  -0.461   1.671  1.00  0.00     0.218 C 
HETATM   26  C37 UNL     1       6.471  -0.780   2.559  1.00  0.00     0.183 C 
HETATM   27  C36 UNL     1       6.506  -2.270   2.960  1.00  0.00     0.173 C 
HETATM   28  C35 UNL     1       5.435  -3.079   2.222  1.00  0.00     0.205 C 
HETATM   29  O8  UNL     1       5.485  -2.806   0.824  1.00  0.00    -0.356 OA
BRANCH  25  30
HETATM   30  O2  UNL     1       5.420   0.887   1.158  1.00  0.00    -0.309 OA
BRANCH  30  31
HETATM   31  C2  UNL     1       4.403   1.755   1.398  1.00  0.00     0.255 C 
HETATM   32  C1  UNL     1       4.706   3.080   0.771  1.00  0.00     0.126 C 
HETATM   33  O1  UNL     1       3.376   1.513   2.018  1.00  0.00    -0.266 OA
ENDBRANCH  30  31
ENDBRANCH  25  30
BRANCH  26  34
HETATM   34  O10 UNL     1       6.415   0.024   3.752  1.00  0.00    -0.390 OA
HETATM   35  H60 UNL     1       7.265  -0.089   4.200  1.00  0.00     0.210 HD
ENDBRANCH  26  34
BRANCH  27  36
HETATM   36  O9  UNL     1       7.827  -2.759   2.657  1.00  0.00    -0.391 OA
HETATM   37  H58 UNL     1       7.760  -3.724   2.496  1.00  0.00     0.210 HD
ENDBRANCH  27  36
ENDBRANCH  23  24
ENDBRANCH   1  23
BRANCH  18  38
HETATM   38  O7  UNL     1       2.701   1.944  -3.383  1.00  0.00    -0.395 OA
HETATM   39  H47 UNL     1       2.300   1.692  -4.230  1.00  0.00     0.210 HD
ENDBRANCH  18  38
BRANCH  11  40
HETATM   40  C16 UNL     1      -5.386   1.138   0.234  1.00  0.00     0.065 C 
HETATM   41  C17 UNL     1      -6.493   2.182  -0.087  1.00  0.00     0.046 C 
HETATM   42  C18 UNL     1      -6.001  -0.257   0.081  1.00  0.00     0.041 C 
HETATM   43  C19 UNL     1      -6.726  -0.474   1.391  1.00  0.00     0.038 C 
HETATM   44  C20 UNL     1      -6.021   0.457   2.384  1.00  0.00     0.156 C 
HETATM   45  O5  UNL     1      -5.053   1.222   1.626  1.00  0.00    -0.372 OA
BRANCH  44  46
HETATM   46  C21 UNL     1      -5.358  -0.239   3.610  1.00  0.00     0.076 C 
HETATM   47  C22 UNL     1      -6.389  -1.001   4.449  1.00  0.00     0.048 C 
HETATM   48  C23 UNL     1      -4.647   0.804   4.491  1.00  0.00     0.048 C 
BRANCH  46  49
HETATM   49  O4  UNL     1      -4.349  -1.188   3.226  1.00  0.00    -0.388 OA
HETATM   50  H35 UNL     1      -4.629  -1.622   2.405  1.00  0.00     0.210 HD
ENDBRANCH  46  49
ENDBRANCH  44  46
ENDBRANCH  11  40
BRANCH  12  51
HETATM   51  O6  UNL     1      -3.956   3.702   0.221  1.00  0.00    -0.395 OA
HETATM   52  H37 UNL     1      -3.901   3.174   1.041  1.00  0.00     0.210 HD
ENDBRANCH  12  51
TORSDOF 11
