REMARK  11 active torsions:
REMARK  status: ('A' for Active; 'I' for Inactive)
REMARK    1  A    between atoms: C2_2  and  C4_4 
REMARK    2  A    between atoms: C5_5  and  C6_6 
REMARK    3  A    between atoms: C6_6  and  C7_7 
REMARK    4  A    between atoms: C7_7  and  C9_9 
REMARK    5  A    between atoms: C27_28  and  O2_29 
REMARK    6  A    between atoms: O2_29  and  C28_30 
REMARK    7  A    between atoms: C29_32  and  C30_33 
REMARK    8  A    between atoms: C30_33  and  O4_34 
REMARK    9  A    between atoms: C31_35  and  O5_36 
REMARK   10  A    between atoms: C32_37  and  O6_38 
REMARK   11  A    between atoms: C33_39  and  O7_40 
ROOT
HETATM    1  C9  UNL     1       4.388  -0.303  -0.548  1.00  0.00    -0.002 C 
HETATM    2  C10 UNL     1       4.478   0.906  -1.533  1.00  0.00     0.006 C 
HETATM    3  C11 UNL     1       3.250   1.808  -1.279  1.00  0.00     0.011 C 
HETATM    4  C12 UNL     1       2.685   1.317   0.061  1.00  0.00    -0.029 C 
HETATM    5  C13 UNL     1       3.612   1.971   1.167  1.00  0.00     0.016 C 
HETATM    6  C14 UNL     1       1.231   1.748   0.460  1.00  0.00     0.028 C 
HETATM    7  C15 UNL     1       0.397   2.600  -0.469  1.00  0.00    -0.021 C 
HETATM    8  C16 UNL     1      -0.919   2.755  -0.218  1.00  0.00     0.008 C 
HETATM    9  C17 UNL     1      -1.620   1.938   0.872  1.00  0.00     0.092 C 
HETATM   10  O1  UNL     1      -1.096   2.406   2.141  1.00  0.00    -0.374 OA
HETATM   11  C18 UNL     1      -0.083   1.463   2.574  1.00  0.00     0.179 C 
HETATM   12  C19 UNL     1       0.379   0.703   1.293  1.00  0.00    -0.004 C 
HETATM   13  C20 UNL     1       1.061  -0.639   1.664  1.00  0.00     0.014 C 
HETATM   14  C21 UNL     1       2.540  -0.853   1.283  1.00  0.00     0.011 C 
HETATM   15  C22 UNL     1       2.893  -0.234  -0.075  1.00  0.00    -0.032 C 
HETATM   16  C23 UNL     1       2.035  -0.917  -1.166  1.00  0.00     0.016 C 
HETATM   17  C24 UNL     1      -1.074   0.506   0.751  1.00  0.00     0.036 C 
HETATM   18  C25 UNL     1      -1.382  -0.086  -0.633  1.00  0.00     0.011 C 
HETATM   19  C26 UNL     1      -2.775   0.324  -1.139  1.00  0.00     0.033 C 
HETATM   20  C27 UNL     1      -3.726   0.723  -0.006  1.00  0.00     0.136 C 
HETATM   21  C34 UNL     1      -3.194   1.927   0.860  1.00  0.00     0.014 C 
HETATM   22  C35 UNL     1      -3.778   3.278   0.383  1.00  0.00     0.021 C 
HETATM   23  C36 UNL     1      -3.743   1.728   2.301  1.00  0.00     0.021 C 
ENDROOT
BRANCH  20  24
HETATM   24  O2  UNL     1      -4.992   1.050  -0.586  1.00  0.00    -0.352 OA
BRANCH  24  25
HETATM   25  C28 UNL     1      -6.050   0.170  -0.187  1.00  0.00     0.292 C 
HETATM   26  O3  UNL     1      -5.911  -1.084  -0.858  1.00  0.00    -0.348 OA
HETATM   27  C29 UNL     1      -6.826  -2.081  -0.352  1.00  0.00     0.179 C 
HETATM   28  C31 UNL     1      -8.237  -1.506  -0.091  1.00  0.00     0.180 C 
HETATM   29  C32 UNL     1      -8.455  -0.225  -0.908  1.00  0.00     0.183 C 
HETATM   30  C33 UNL     1      -7.393   0.833  -0.567  1.00  0.00     0.204 C 
BRANCH  27  31
HETATM   31  C30 UNL     1      -6.865  -3.222  -1.381  1.00  0.00     0.198 C 
BRANCH  31  32
HETATM   32  O4  UNL     1      -7.627  -2.847  -2.530  1.00  0.00    -0.398 OA
HETATM   33  H44 UNL     1      -7.358  -3.445  -3.255  1.00  0.00     0.209 HD
ENDBRANCH  31  32
ENDBRANCH  27  31
BRANCH  28  34
HETATM   34  O5  UNL     1      -8.349  -1.200   1.313  1.00  0.00    -0.390 OA
HETATM   35  H46 UNL     1      -8.942  -0.423   1.386  1.00  0.00     0.210 HD
ENDBRANCH  28  34
BRANCH  29  36
HETATM   36  O6  UNL     1      -9.759   0.327  -0.628  1.00  0.00    -0.390 OA
HETATM   37  H48 UNL     1     -10.401  -0.224  -1.115  1.00  0.00     0.210 HD
ENDBRANCH  29  36
BRANCH  30  38
HETATM   38  O7  UNL     1      -7.868   1.659   0.516  1.00  0.00    -0.388 OA
HETATM   39  H50 UNL     1      -8.802   1.854   0.295  1.00  0.00     0.210 HD
ENDBRANCH  30  38
ENDBRANCH  24  25
ENDBRANCH  20  24
BRANCH   1  40
HETATM   40  C7  UNL     1       4.953  -1.609  -1.185  1.00  0.00    -0.010 C 
HETATM   41  C8  UNL     1       4.901  -2.800  -0.220  1.00  0.00     0.010 C 
BRANCH  40  42
HETATM   42  C6  UNL     1       6.400  -1.450  -1.728  1.00  0.00     0.031 C 
BRANCH  42  43
HETATM   43  C5  UNL     1       7.429  -1.070  -0.695  1.00  0.00    -0.026 C 
HETATM   44  C4  UNL     1       8.398  -1.898  -0.275  1.00  0.00     0.002 C 
BRANCH  44  45
HETATM   45  C2  UNL     1       9.425  -1.585   0.711  1.00  0.00    -0.072 C 
HETATM   46  C1  UNL     1      10.329  -2.517   1.052  1.00  0.00     0.018 C 
HETATM   47  C3  UNL     1       9.457  -0.216   1.336  1.00  0.00     0.047 C 
ENDBRANCH  44  45
ENDBRANCH  42  43
ENDBRANCH  40  42
ENDBRANCH   1  40
TORSDOF 11
