REMARK  13 active torsions:
REMARK  status: ('A' for Active; 'I' for Inactive)
REMARK    1  A    between atoms: O1_2  and  C2_3 
REMARK    2  A    between atoms: C2_3  and  C3_4 
REMARK    3  A    between atoms: C2_3  and  C33_42 
REMARK    4  A    between atoms: C3_4  and  C5_6 
REMARK    5  A    between atoms: C8_10  and  O3_11 
REMARK    6  A    between atoms: C12_15  and  C14_17 
REMARK    7  A    between atoms: C17_20  and  C19_22 
REMARK    8  A    between atoms: C20_24  and  C21_25 
REMARK    9  A    between atoms: C22_27  and  O6_28 
REMARK   10  A    between atoms: C22_27  and  C23_29 
REMARK   11  A    between atoms: C23_29  and  O7_30 
REMARK   12  A    between atoms: C33_42  and  C35_44 
REMARK   13  A    between atoms: C35_44  and  O11_46 
ROOT
HETATM    1  C5  UNL     1       4.248  -0.766  -0.679  1.00  0.00     0.137 C 
HETATM    2  O2  UNL     1       3.699  -0.056   0.445  1.00  0.00    -0.349 OA
HETATM    3  C6  UNL     1       3.619   1.361   0.365  1.00  0.00     0.167 C 
HETATM    4  C7  UNL     1       4.994   1.977   0.097  1.00  0.00     0.100 C 
HETATM    5  C8  UNL     1       5.833   1.200  -0.914  1.00  0.00     0.129 C 
HETATM    6  C9  UNL     1       5.026   0.138  -1.657  1.00  0.00     0.040 C 
HETATM    7  C10 UNL     1       5.822  -0.571  -2.746  1.00  0.00     0.015 C 
HETATM    8  C11 UNL     1       2.507   1.791  -0.615  1.00  0.00     0.082 C 
HETATM    9  C12 UNL     1       1.534   2.629   0.220  1.00  0.00     0.009 C 
HETATM   10  C13 UNL     1       1.939   4.117   0.168  1.00  0.00     0.020 C 
HETATM   11  C32 UNL     1       1.797   2.058   1.608  1.00  0.00     0.183 C 
HETATM   12  O9  UNL     1       3.211   1.855   1.661  1.00  0.00    -0.354 OA
ENDROOT
BRANCH   9  13
HETATM   13  C14 UNL     1       0.057   2.465  -0.178  1.00  0.00     0.133 C 
HETATM   14  C15 UNL     1      -0.303   2.865  -1.600  1.00  0.00     0.036 C 
HETATM   15  C16 UNL     1      -1.613   2.133  -1.793  1.00  0.00     0.043 C 
HETATM   16  C17 UNL     1      -1.401   0.822  -1.019  1.00  0.00     0.084 C 
HETATM   17  C18 UNL     1      -0.884  -0.273  -1.958  1.00  0.00     0.049 C 
HETATM   18  O8  UNL     1      -0.350   1.091  -0.067  1.00  0.00    -0.372 OA
BRANCH  16  19
HETATM   19  C19 UNL     1      -2.678   0.409  -0.254  1.00  0.00     0.160 C 
HETATM   20  O4  UNL     1      -3.798   0.197  -1.146  1.00  0.00    -0.375 OA
HETATM   21  C20 UNL     1      -4.632  -0.832  -0.586  1.00  0.00     0.152 C 
HETATM   22  C29 UNL     1      -4.077  -1.142   0.802  1.00  0.00     0.041 C 
HETATM   23  C30 UNL     1      -2.600  -0.852   0.612  1.00  0.00     0.016 C 
HETATM   24  C31 UNL     1      -1.853  -0.695   1.926  1.00  0.00     0.012 C 
BRANCH  21  25
HETATM   25  C21 UNL     1      -6.148  -0.517  -0.616  1.00  0.00     0.158 C 
HETATM   26  O5  UNL     1      -6.781  -1.589   0.103  1.00  0.00    -0.345 OA
HETATM   27  C22 UNL     1      -8.205  -1.563   0.163  1.00  0.00     0.187 C 
HETATM   28  C24 UNL     1      -8.655  -0.267   0.854  1.00  0.00     0.046 C 
HETATM   29  C25 UNL     1     -10.166  -0.133   1.048  1.00  0.00     0.015 C 
HETATM   30  C26 UNL     1      -8.089   0.947   0.117  1.00  0.00     0.016 C 
HETATM   31  C27 UNL     1      -6.558   0.857  -0.027  1.00  0.00     0.014 C 
HETATM   32  C28 UNL     1      -6.090   2.048  -0.869  1.00  0.00     0.012 C 
BRANCH  27  33
HETATM   33  O6  UNL     1      -8.564  -2.660   1.014  1.00  0.00    -0.363 OA
HETATM   34  H34 UNL     1      -7.861  -2.666   1.687  1.00  0.00     0.213 HD
ENDBRANCH  27  33
BRANCH  27  35
HETATM   35  C23 UNL     1      -8.830  -1.877  -1.217  1.00  0.00     0.232 C 
BRANCH  35  36
HETATM   36  O7  UNL     1     -10.213  -2.212  -1.117  1.00  0.00    -0.396 OA
HETATM   37  H37 UNL     1     -10.271  -2.809  -0.342  1.00  0.00     0.209 HD
ENDBRANCH  35  36
ENDBRANCH  27  35
ENDBRANCH  21  25
ENDBRANCH  16  19
ENDBRANCH   9  13
BRANCH   1  38
HETATM   38  C3  UNL     1       4.855  -2.094  -0.111  1.00  0.00     0.041 C 
HETATM   39  C4  UNL     1       5.037  -3.201  -1.150  1.00  0.00     0.015 C 
BRANCH  38  40
HETATM   40  C2  UNL     1       5.978  -2.055   0.986  1.00  0.00     0.141 C 
BRANCH  40  41
HETATM   41  O1  UNL     1       6.171  -0.745   1.527  1.00  0.00    -0.389 OA
HETATM   42  C1  UNL     1       5.540  -0.566   2.791  1.00  0.00     0.202 C 
ENDBRANCH  40  41
BRANCH  40  43
HETATM   43  C33 UNL     1       7.345  -2.722   0.700  1.00  0.00     0.109 C 
HETATM   44  C34 UNL     1       8.208  -2.807   1.968  1.00  0.00     0.024 C 
BRANCH  43  45
HETATM   45  C35 UNL     1       8.165  -2.093  -0.395  1.00  0.00     0.145 C 
HETATM   46  O10 UNL     1       8.448  -2.621  -1.462  1.00  0.00    -0.650 OA
BRANCH  45  47
HETATM   47  O11 UNL     1       8.655  -0.877  -0.111  1.00  0.00    -0.776 OA
HETATM   48  H60 UNL     1       9.163  -0.620  -0.907  1.00  0.00     0.167 HD
ENDBRANCH  45  47
ENDBRANCH  43  45
ENDBRANCH  40  43
ENDBRANCH  38  40
ENDBRANCH   1  38
BRANCH   5  49
HETATM   49  O3  UNL     1       6.394   2.125  -1.852  1.00  0.00    -0.395 OA
HETATM   50  H13 UNL     1       6.995   2.702  -1.350  1.00  0.00     0.210 HD
ENDBRANCH   5  49
TORSDOF 13
