REMARK  4 active torsions:
REMARK  status: ('A' for Active; 'I' for Inactive)
REMARK    1  A    between atoms: C2_2  and  C4_4 
REMARK    2  A    between atoms: C4_4  and  O1_5 
REMARK    3  A    between atoms: C8_10  and  O2_11 
REMARK    4  A    between atoms: C21_27  and  O6_28 
ROOT
HETATM    1  C4  UNL     1      -2.751  -0.165   0.032  1.00  0.00     0.106 C 
HETATM    2  C5  UNL     1      -2.231   1.293   0.086  1.00  0.00     0.126 C 
HETATM    3 CL1  UNL     1      -2.830   2.303  -1.281  1.00  0.00    -0.121 Cl
HETATM    4  C6  UNL     1      -0.679   1.392   0.289  1.00  0.00     0.041 C 
HETATM    5  C7  UNL     1      -0.347   2.902   0.401  1.00  0.00     0.015 C 
HETATM    6  C8  UNL     1       0.152   0.570  -0.782  1.00  0.00     0.107 C 
HETATM    7  C9  UNL     1      -0.504  -0.833  -0.958  1.00  0.00     0.148 A 
HETATM    8  O3  UNL     1       0.133  -1.672  -1.944  1.00  0.00    -0.363 OA
HETATM    9  C10 UNL     1       0.236  -2.110  -0.586  1.00  0.00     0.164 A 
HETATM   10  C11 UNL     1       1.622  -2.110  -0.053  1.00  0.00     0.045 C 
HETATM   11  C12 UNL     1       1.986  -0.751   0.548  1.00  0.00     0.031 C 
HETATM   12  C13 UNL     1       3.382  -0.749   1.114  1.00  0.00    -0.038 A 
HETATM   13  C14 UNL     1       4.218   0.281   1.012  1.00  0.00     0.022 A 
HETATM   14  C15 UNL     1       3.924   1.584   0.376  1.00  0.00     0.046 C 
HETATM   15  C16 UNL     1       2.407   1.702   0.123  1.00  0.00     0.018 C 
HETATM   16  C17 UNL     1       1.745   0.421  -0.487  1.00  0.00    -0.002 C 
HETATM   17  C18 UNL     1       2.513   0.169  -1.832  1.00  0.00     0.019 C 
HETATM   18  C19 UNL     1       5.446  -0.077   1.716  1.00  0.00     0.289 A 
HETATM   19  O4  UNL     1       6.431   0.628   1.829  1.00  0.00    -0.260 OA
HETATM   20  O5  UNL     1       5.298  -1.329   2.233  1.00  0.00    -0.313 OA
HETATM   21  C20 UNL     1       4.002  -1.835   1.897  1.00  0.00     0.214 A 
HETATM   22  C21 UNL     1      -2.008  -0.934  -1.082  1.00  0.00     0.194 C 
ENDROOT
BRANCH   1  23
HETATM   23  C2  UNL     1      -4.314  -0.276  -0.135  1.00  0.00     0.016 C 
HETATM   24  C1  UNL     1      -5.108   0.505   0.926  1.00  0.00     0.012 C 
HETATM   25  C3  UNL     1      -4.814  -1.731  -0.112  1.00  0.00     0.012 C 
ENDBRANCH   1  23
BRANCH   1  26
HETATM   26  O1  UNL     1      -2.385  -0.809   1.281  1.00  0.00    -0.385 OA
HETATM   27  H8  UNL     1      -2.887  -0.390   2.002  1.00  0.00     0.210 HD
ENDBRANCH   1  26
BRANCH  22  28
HETATM   28  O6  UNL     1      -2.386  -0.549  -2.400  1.00  0.00    -0.389 OA
HETATM   29  H29 UNL     1      -1.953  -1.184  -3.001  1.00  0.00     0.210 HD
ENDBRANCH  22  28
BRANCH   6  30
HETATM   30  O2  UNL     1       0.036   1.292  -2.016  1.00  0.00    -0.385 OA
HETATM   31  H14 UNL     1      -0.334   0.684  -2.691  1.00  0.00     0.210 HD
ENDBRANCH   6  30
TORSDOF 4
