REMARK  9 active torsions:
REMARK  status: ('A' for Active; 'I' for Inactive)
REMARK    1  A    between atoms: C3_3  and  O1_4 
REMARK    2  A    between atoms: N1_14  and  O2_16 
REMARK    3  A    between atoms: O2_16  and  C13_17 
REMARK    4  A    between atoms: C13_17  and  C14_18 
REMARK       I    between atoms: C14_18  and  N2_20 
REMARK    5  A    between atoms: N2_20  and  C15_21 
REMARK    6  A    between atoms: C15_21  and  C16_22 
REMARK    7  A    between atoms: C15_21  and  C18_26 
REMARK    8  A    between atoms: C16_22  and  C17_23 
REMARK    9  A    between atoms: C17_23  and  O5_25 
ROOT
HETATM    1  C1  UNL     1      -8.983  -2.196   1.290  1.00  0.00     0.015 C 
HETATM    2  C2  UNL     1      -8.573  -1.314   0.583  1.00  0.00    -0.078 C 
HETATM    3  C3  UNL     1      -8.091  -0.241  -0.299  1.00  0.00     0.128 C 
HETATM    4  C4  UNL     1      -7.226  -0.800  -1.425  1.00  0.00     0.052 C 
HETATM    5  C5  UNL     1      -6.489   0.422  -1.950  1.00  0.00     0.010 C 
HETATM    6  C6  UNL     1      -6.195   1.313  -0.722  1.00  0.00     0.002 C 
HETATM    7  C7  UNL     1      -4.693   1.251  -0.346  1.00  0.00    -0.004 C 
HETATM    8  C8  UNL     1      -4.257   2.432   0.556  1.00  0.00     0.010 C 
HETATM    9  C9  UNL     1      -3.079   2.102   1.476  1.00  0.00     0.035 C 
HETATM   10  C10 UNL     1      -2.137   1.159   0.778  1.00  0.00    -0.069 C 
HETATM   11  C11 UNL     1      -0.920   1.571   0.384  1.00  0.00     0.030 C 
HETATM   12  C12 UNL     1      -0.020   0.702  -0.417  1.00  0.00     0.032 C 
HETATM   13  N1  UNL     1       1.176   1.150  -0.681  1.00  0.00    -0.271 N 
ATOM     14  H1  UNL     1       1.518   2.070  -0.403  1.00  0.00     0.194 HD
HETATM   15  C25 UNL     1      -0.537  -0.649  -0.875  1.00  0.00     0.060 C 
HETATM   16  C26 UNL     1      -2.063  -0.711  -0.869  1.00  0.00     0.020 C 
HETATM   17  C27 UNL     1      -2.712  -0.218   0.458  1.00  0.00    -0.016 C 
HETATM   18  C28 UNL     1      -2.330  -1.203   1.585  1.00  0.00     0.020 C 
HETATM   19  C29 UNL     1      -4.283  -0.127   0.231  1.00  0.00     0.002 C 
HETATM   20  C30 UNL     1      -5.188  -0.538   1.413  1.00  0.00     0.007 C 
HETATM   21  C31 UNL     1      -6.414   0.341   1.650  1.00  0.00     0.014 C 
HETATM   22  C32 UNL     1      -7.186   0.843   0.401  1.00  0.00     0.003 C 
HETATM   23  C33 UNL     1      -8.049   2.041   0.875  1.00  0.00     0.020 C 
ENDROOT
BRANCH   3  24
HETATM   24  O1  UNL     1      -9.249   0.347  -0.904  1.00  0.00    -0.377 OA
HETATM   25  H2  UNL     1      -8.965   1.066  -1.486  1.00  0.00     0.211 HD
ENDBRANCH   3  24
BRANCH  13  26
HETATM   26  O2  UNL     1       1.933   0.210  -1.395  1.00  0.00    -0.271 OA
BRANCH  26  27
HETATM   27  C13 UNL     1       3.008   0.876  -2.051  1.00  0.00     0.303 C 
BRANCH  27  28
HETATM   28  C14 UNL     1       4.226  -0.035  -2.131  1.00  0.00     0.244 C 
HETATM   29  O3  UNL     1       4.983  -0.044  -3.098  1.00  0.00    -0.271 OA
HETATM   30  N2  UNL     1       4.442  -0.787  -0.996  1.00  0.00    -0.354 N 
HETATM   31  H16 UNL     1       3.752  -0.717  -0.248  1.00  0.00     0.162 HD
BRANCH  30  32
HETATM   32  C15 UNL     1       5.578  -1.688  -0.813  1.00  0.00     0.098 C 
BRANCH  32  33
HETATM   33  C16 UNL     1       5.079  -3.041  -0.281  1.00  0.00     0.135 C 
BRANCH  33  34
HETATM   34  C17 UNL     1       4.630  -2.997   1.152  1.00  0.00     0.141 C 
HETATM   35  O4  UNL     1       5.111  -3.634   2.073  1.00  0.00    -0.650 OA
BRANCH  34  36
HETATM   36  O5  UNL     1       3.580  -2.179   1.360  1.00  0.00    -0.776 OA
HETATM   37  H20 UNL     1       3.393  -2.279   2.319  1.00  0.00     0.167 HD
ENDBRANCH  34  36
ENDBRANCH  33  34
ENDBRANCH  32  33
BRANCH  32  38
HETATM   38  C18 UNL     1       6.686  -1.028   0.052  1.00  0.00     0.014 C 
HETATM   39  C19 UNL     1       7.864  -1.988   0.319  1.00  0.00     0.033 C 
HETATM   40  C20 UNL     1       9.198  -1.267   0.492  1.00  0.00     0.169 C 
HETATM   41  O6  UNL     1       9.004  -0.016   1.138  1.00  0.00    -0.381 OA
HETATM   42  C21 UNL     1       8.283   0.940   0.346  1.00  0.00     0.054 C 
HETATM   43  C22 UNL     1       7.590   1.875   1.347  1.00  0.00     0.045 C 
HETATM   44  C23 UNL     1       9.282   1.758  -0.480  1.00  0.00     0.045 C 
HETATM   45  C24 UNL     1       7.237   0.267  -0.574  1.00  0.00     0.044 C 
ENDBRANCH  32  38
ENDBRANCH  30  32
ENDBRANCH  27  28
ENDBRANCH  26  27
ENDBRANCH  13  26
TORSDOF 9
