REMARK  9 active torsions:
REMARK  status: ('A' for Active; 'I' for Inactive)
REMARK    1  A    between atoms: C3_3  and  O1_4 
REMARK    2  A    between atoms: N1_14  and  O2_16 
REMARK    3  A    between atoms: O2_16  and  C13_17 
REMARK    4  A    between atoms: C13_17  and  C14_18 
REMARK       I    between atoms: C14_18  and  N2_20 
REMARK    5  A    between atoms: N2_20  and  C15_21 
REMARK    6  A    between atoms: C15_21  and  C16_22 
REMARK    7  A    between atoms: C15_21  and  C18_26 
REMARK    8  A    between atoms: C16_22  and  C17_23 
REMARK    9  A    between atoms: C17_23  and  O5_25 
ROOT
HETATM    1  C1  UNL     1     -10.243  -1.307  -2.158  1.00  0.00     0.015 C 
HETATM    2  C2  UNL     1      -9.619  -0.410  -1.656  1.00  0.00    -0.078 C 
HETATM    3  C3  UNL     1      -8.868   0.681  -1.016  1.00  0.00     0.128 C 
HETATM    4  C4  UNL     1      -8.113   1.554  -2.027  1.00  0.00     0.052 C 
HETATM    5  C5  UNL     1      -6.874   2.081  -1.285  1.00  0.00     0.010 C 
HETATM    6  C6  UNL     1      -6.931   1.493   0.137  1.00  0.00     0.002 C 
HETATM    7  C7  UNL     1      -5.572   1.285   0.838  1.00  0.00    -0.004 C 
HETATM    8  C8  UNL     1      -4.764   2.589   0.878  1.00  0.00     0.010 C 
HETATM    9  C9  UNL     1      -3.496   2.414   1.700  1.00  0.00     0.035 C 
HETATM   10  C10 UNL     1      -2.639   1.282   1.186  1.00  0.00    -0.069 C 
HETATM   11  C11 UNL     1      -1.320   1.479   1.019  1.00  0.00     0.030 C 
HETATM   12  C12 UNL     1      -0.395   0.379   0.647  1.00  0.00     0.032 C 
HETATM   13  N1  UNL     1       0.879   0.649   0.607  1.00  0.00    -0.271 N 
ATOM     14  H1  UNL     1       1.279   1.561   0.827  1.00  0.00     0.194 HD
HETATM   15  C25 UNL     1      -0.979  -1.000   0.421  1.00  0.00     0.060 C 
HETATM   16  C26 UNL     1      -2.441  -0.932   0.006  1.00  0.00     0.020 C 
HETATM   17  C27 UNL     1      -3.333  -0.060   0.938  1.00  0.00    -0.016 C 
HETATM   18  C28 UNL     1      -3.489  -0.763   2.305  1.00  0.00     0.020 C 
HETATM   19  C29 UNL     1      -4.727   0.146   0.218  1.00  0.00     0.002 C 
HETATM   20  C30 UNL     1      -5.569  -1.144   0.134  1.00  0.00     0.007 C 
HETATM   21  C31 UNL     1      -6.886  -0.934  -0.616  1.00  0.00     0.014 C 
HETATM   22  C32 UNL     1      -7.765   0.199  -0.025  1.00  0.00     0.003 C 
HETATM   23  C33 UNL     1      -8.360  -0.248   1.325  1.00  0.00     0.020 C 
ENDROOT
BRANCH   3  24
HETATM   24  O1  UNL     1      -9.800   1.527  -0.334  1.00  0.00    -0.377 OA
HETATM   25  H2  UNL     1     -10.531   1.697  -0.952  1.00  0.00     0.211 HD
ENDBRANCH   3  24
BRANCH  13  26
HETATM   26  O2  UNL     1       1.633  -0.471   0.224  1.00  0.00    -0.271 OA
BRANCH  26  27
HETATM   27  C13 UNL     1       2.994  -0.264   0.573  1.00  0.00     0.303 C 
BRANCH  27  28
HETATM   28  C14 UNL     1       3.951  -0.815  -0.484  1.00  0.00     0.244 C 
HETATM   29  O3  UNL     1       3.603  -1.202  -1.595  1.00  0.00    -0.271 OA
HETATM   30  N2  UNL     1       5.277  -0.827  -0.069  1.00  0.00    -0.354 N 
HETATM   31  H16 UNL     1       5.420  -0.846   0.935  1.00  0.00     0.162 HD
BRANCH  30  32
HETATM   32  C15 UNL     1       6.315  -1.448  -0.889  1.00  0.00     0.098 C 
BRANCH  32  33
HETATM   33  C16 UNL     1       6.214  -2.983  -0.921  1.00  0.00     0.135 C 
BRANCH  33  34
HETATM   34  C17 UNL     1       6.368  -3.697   0.390  1.00  0.00     0.141 C 
HETATM   35  O4  UNL     1       7.086  -4.664   0.590  1.00  0.00    -0.650 OA
BRANCH  34  36
HETATM   36  O5  UNL     1       5.588  -3.228   1.379  1.00  0.00    -0.776 OA
HETATM   37  H20 UNL     1       5.743  -3.863   2.111  1.00  0.00     0.167 HD
ENDBRANCH  34  36
ENDBRANCH  33  34
ENDBRANCH  32  33
BRANCH  32  38
HETATM   38  C18 UNL     1       7.739  -0.905  -0.571  1.00  0.00     0.014 C 
HETATM   39  C19 UNL     1       8.220  -1.122   0.870  1.00  0.00     0.033 C 
HETATM   40  C20 UNL     1       9.591  -0.495   1.095  1.00  0.00     0.169 C 
HETATM   41  O6  UNL     1       9.592   0.889   0.765  1.00  0.00    -0.381 OA
HETATM   42  C21 UNL     1       9.219   1.196  -0.585  1.00  0.00     0.054 C 
HETATM   43  C22 UNL     1       9.140   2.728  -0.659  1.00  0.00     0.045 C 
HETATM   44  C23 UNL     1      10.298   0.725  -1.572  1.00  0.00     0.045 C 
HETATM   45  C24 UNL     1       7.835   0.600  -0.903  1.00  0.00     0.044 C 
ENDBRANCH  32  38
ENDBRANCH  30  32
ENDBRANCH  27  28
ENDBRANCH  26  27
ENDBRANCH  13  26
TORSDOF 9
