REMARK  14 active torsions:
REMARK  status: ('A' for Active; 'I' for Inactive)
REMARK    1  A    between atoms: C19_21  and  O3_22 
REMARK    2  A    between atoms: C19_21  and  C20_23 
REMARK    3  A    between atoms: C20_23  and  C21_25 
REMARK    4  A    between atoms: C21_25  and  O5_26 
REMARK    5  A    between atoms: O5_26  and  C22_27 
REMARK    6  A    between atoms: C22_27  and  C23_29 
REMARK    7  A    between atoms: C23_29  and  C24_30 
REMARK    8  A    between atoms: C24_30  and  C25_31 
REMARK       I    between atoms: C25_31  and  N1_33 
REMARK    9  A    between atoms: N1_33  and  C26_34 
REMARK   10  A    between atoms: C26_34  and  C27_35 
REMARK   11  A    between atoms: C26_34  and  C30_40 
REMARK   12  A    between atoms: C27_35  and  C28_36 
REMARK   13  A    between atoms: C28_36  and  C29_37 
REMARK       I    between atoms: C29_37  and  N2_38 
REMARK   14  A    between atoms: C30_40  and  O10_42 
ROOT
HETATM    1  C20 UNL     1       0.009   3.158  -1.975  1.00  0.00     0.185 C 
HETATM    2  O4  UNL     1      -0.293   4.006  -2.820  1.00  0.00    -0.292 OA
ENDROOT
BRANCH   1   3
HETATM    3  C19 UNL     1      -0.900   2.860  -0.747  1.00  0.00     0.128 C 
HETATM    4  C14 UNL     1      -1.878   1.655  -0.942  1.00  0.00     0.005 C 
HETATM    5  C13 UNL     1      -1.317   0.264  -0.621  1.00  0.00     0.091 C 
HETATM    6  C15 UNL     1      -2.457   1.644  -2.383  1.00  0.00     0.019 C 
HETATM    7  C16 UNL     1      -2.937   1.978   0.145  1.00  0.00     0.002 C 
HETATM    8  C12 UNL     1      -2.445  -0.758  -0.556  1.00  0.00     0.133 C 
HETATM    9  C11 UNL     1      -3.618  -0.439   0.395  1.00  0.00     0.072 C 
HETATM   10  O2  UNL     1      -2.342  -1.809  -1.185  1.00  0.00    -0.297 OA
HETATM   11  C2  UNL     1      -4.773  -1.506   0.429  1.00  0.00    -0.009 C 
HETATM   12  C10 UNL     1      -4.130   1.009   0.140  1.00  0.00     0.003 C 
HETATM   13  C1  UNL     1      -5.416  -1.725  -0.960  1.00  0.00     0.021 C 
HETATM   14  C3  UNL     1      -4.195  -2.855   0.956  1.00  0.00     0.022 C 
HETATM   15  C7  UNL     1      -5.877  -1.011   1.382  1.00  0.00    -0.067 C 
HETATM   16  C4  UNL     1      -5.259  -3.846   1.409  1.00  0.00     0.084 C 
HETATM   17  C5  UNL     1      -6.137  -3.220   2.458  1.00  0.00     0.149 C 
HETATM   18  O1  UNL     1      -6.642  -3.867   3.372  1.00  0.00    -0.293 OA
HETATM   19  C6  UNL     1      -6.456  -1.781   2.322  1.00  0.00     0.053 C 
HETATM   20  C8  UNL     1      -6.335   0.419   1.213  1.00  0.00     0.035 C 
HETATM   21  C9  UNL     1      -5.165   1.394   1.205  1.00  0.00     0.010 C 
HETATM   22  C17 UNL     1      -3.224   3.456  -0.070  1.00  0.00     0.009 C 
HETATM   23  C18 UNL     1      -1.861   4.055  -0.461  1.00  0.00     0.047 C 
BRANCH   3  24
HETATM   24  O3  UNL     1      -0.149   2.681   0.459  1.00  0.00    -0.381 OA
HETATM   25  H25 UNL     1       0.528   2.000   0.299  1.00  0.00     0.211 HD
ENDBRANCH   3  24
ENDBRANCH   1   3
BRANCH   1  26
HETATM   26  C21 UNL     1       1.218   2.252  -2.208  1.00  0.00     0.260 C 
BRANCH  26  27
HETATM   27  O5  UNL     1       1.950   1.913  -1.030  1.00  0.00    -0.314 OA
BRANCH  27  28
HETATM   28  C22 UNL     1       2.902   2.826  -0.678  1.00  0.00     0.259 C 
HETATM   29  O6  UNL     1       3.058   3.907  -1.223  1.00  0.00    -0.265 OA
BRANCH  28  30
HETATM   30  C23 UNL     1       3.659   2.391   0.557  1.00  0.00     0.120 C 
BRANCH  30  31
HETATM   31  C24 UNL     1       3.870   0.884   0.667  1.00  0.00     0.112 C 
BRANCH  31  32
HETATM   32  C25 UNL     1       4.754   0.353  -0.444  1.00  0.00     0.218 C 
HETATM   33  O7  UNL     1       5.190   1.050  -1.351  1.00  0.00    -0.274 OA
HETATM   34  N1  UNL     1       5.012  -0.991  -0.336  1.00  0.00    -0.347 N 
HETATM   35  H32 UNL     1       4.475  -1.563   0.308  1.00  0.00     0.163 HD
BRANCH  34  36
HETATM   36  C26 UNL     1       5.807  -1.714  -1.333  1.00  0.00     0.182 C 
BRANCH  36  37
HETATM   37  C27 UNL     1       7.312  -1.529  -1.104  1.00  0.00     0.045 C 
BRANCH  37  38
HETATM   38  C28 UNL     1       7.795  -2.050   0.253  1.00  0.00     0.105 C 
BRANCH  38  39
HETATM   39  C29 UNL     1       9.275  -1.805   0.457  1.00  0.00     0.215 C 
HETATM   40  N2  UNL     1       9.741  -2.203   1.677  1.00  0.00    -0.370 N 
HETATM   41  H38 UNL     1       9.215  -2.819   2.281  1.00  0.00     0.159 HD
HETATM   42  H39 UNL     1      10.739  -2.124   1.831  1.00  0.00     0.159 HD
HETATM   43  O8  UNL     1      10.022  -1.300  -0.369  1.00  0.00    -0.274 OA
ENDBRANCH  38  39
ENDBRANCH  37  38
ENDBRANCH  36  37
BRANCH  36  44
HETATM   44  C30 UNL     1       5.430  -3.200  -1.346  1.00  0.00     0.163 C 
HETATM   45  O9  UNL     1       5.906  -4.069  -2.059  1.00  0.00    -0.648 OA
BRANCH  44  46
HETATM   46  O10 UNL     1       4.483  -3.524  -0.432  1.00  0.00    -0.775 OA
HETATM   47  H40 UNL     1       4.342  -4.484  -0.583  1.00  0.00     0.167 HD
ENDBRANCH  44  46
ENDBRANCH  36  44
ENDBRANCH  34  36
ENDBRANCH  31  32
ENDBRANCH  30  31
ENDBRANCH  28  30
ENDBRANCH  27  28
ENDBRANCH  26  27
ENDBRANCH   1  26
TORSDOF 14
