REMARK  10 active torsions:
REMARK  status: ('A' for Active; 'I' for Inactive)
REMARK    1  A    between atoms: O1_2  and  C2_3 
REMARK    2  A    between atoms: C2_3  and  C3_5 
REMARK    3  A    between atoms: C3_5  and  C4_6 
REMARK    4  A    between atoms: C3_5  and  N1_13 
REMARK    5  A    between atoms: C4_6  and  C5_7 
REMARK       I    between atoms: N1_13  and  C11_14 
REMARK    6  A    between atoms: C11_14  and  C12_16 
REMARK    7  A    between atoms: C12_16  and  O4_17 
REMARK    8  A    between atoms: O4_17  and  N2_18 
REMARK    9  A    between atoms: C27_34  and  O5_35 
REMARK   10  A    between atoms: C27_34  and  C28_36 
ROOT
HETATM    1  N2  UNL     1       2.109   1.941  -0.022  1.00  0.00    -0.271 N 
ATOM      2  H2  UNL     1       2.535   2.641  -0.630  1.00  0.00     0.194 HD
HETATM    3  C13 UNL     1       1.015   1.295  -0.301  1.00  0.00     0.032 C 
HETATM    4  C14 UNL     1       0.403   0.223   0.536  1.00  0.00     0.030 C 
HETATM    5  C15 UNL     1      -0.808  -0.299   0.258  1.00  0.00    -0.069 C 
HETATM    6  C16 UNL     1      -1.434  -1.224   1.284  1.00  0.00     0.035 C 
HETATM    7  C17 UNL     1      -2.590  -2.070   0.764  1.00  0.00     0.010 C 
HETATM    8  C18 UNL     1      -3.638  -1.280  -0.045  1.00  0.00    -0.004 C 
HETATM    9  C19 UNL     1      -3.144   0.145  -0.448  1.00  0.00     0.002 C 
HETATM   10  C20 UNL     1      -4.170   0.820  -1.385  1.00  0.00     0.007 C 
HETATM   11  C21 UNL     1      -5.578   0.880  -0.748  1.00  0.00     0.013 C 
HETATM   12  C22 UNL     1      -6.080  -0.502  -0.280  1.00  0.00    -0.002 C 
HETATM   13  C23 UNL     1      -6.382  -1.375  -1.530  1.00  0.00     0.019 C 
HETATM   14  C24 UNL     1      -4.993  -1.111   0.655  1.00  0.00     0.002 C 
HETATM   15  C25 UNL     1      -5.684  -2.329   1.255  1.00  0.00     0.009 C 
HETATM   16  C26 UNL     1      -7.153  -1.890   1.423  1.00  0.00     0.047 C 
HETATM   17  C27 UNL     1      -7.301  -0.522   0.694  1.00  0.00     0.125 C 
HETATM   18  C30 UNL     1      -1.660   0.129  -0.942  1.00  0.00    -0.016 C 
HETATM   19  C31 UNL     1      -1.456  -0.853  -2.121  1.00  0.00     0.020 C 
HETATM   20  C32 UNL     1      -1.218   1.546  -1.399  1.00  0.00     0.020 C 
HETATM   21  C33 UNL     1       0.294   1.674  -1.577  1.00  0.00     0.060 C 
ENDROOT
BRANCH   1  22
HETATM   22  O4  UNL     1       2.628   1.552   1.222  1.00  0.00    -0.271 OA
BRANCH  22  23
HETATM   23  C12 UNL     1       3.543   2.538   1.697  1.00  0.00     0.303 C 
BRANCH  23  24
HETATM   24  C11 UNL     1       4.944   1.951   1.693  1.00  0.00     0.244 C 
HETATM   25  N1  UNL     1       5.284   1.329   0.505  1.00  0.00    -0.345 N 
HETATM   26  H12 UNL     1       4.479   1.049  -0.053  1.00  0.00     0.163 HD
HETATM   27  O3  UNL     1       5.707   2.045   2.650  1.00  0.00    -0.271 OA
BRANCH  25  28
HETATM   28  C3  UNL     1       6.493   0.499   0.395  1.00  0.00     0.188 C 
BRANCH  28  29
HETATM   29  C2  UNL     1       6.341  -0.847   1.133  1.00  0.00     0.281 C 
HETATM   30  O2  UNL     1       7.263  -1.601   1.421  1.00  0.00    -0.263 OA
BRANCH  29  31
HETATM   31  O1  UNL     1       5.020  -1.146   1.337  1.00  0.00    -0.325 OA
HETATM   32  C1  UNL     1       4.797  -2.390   2.003  1.00  0.00     0.213 C 
ENDBRANCH  29  31
ENDBRANCH  28  29
BRANCH  28  33
HETATM   33  C4  UNL     1       7.778   1.240   0.813  1.00  0.00     0.074 C 
BRANCH  33  34
HETATM   34  C5  UNL     1       8.932   0.981  -0.131  1.00  0.00    -0.056 A 
HETATM   35  C6  UNL     1       9.088   1.765  -1.284  1.00  0.00     0.007 A 
HETATM   36  C7  UNL     1      10.152   1.532  -2.158  1.00  0.00     0.001 A 
HETATM   37  C8  UNL     1      11.065   0.515  -1.893  1.00  0.00     0.000 A 
HETATM   38  C9  UNL     1      10.912  -0.274  -0.756  1.00  0.00     0.001 A 
HETATM   39  C10 UNL     1       9.848  -0.046   0.120  1.00  0.00     0.007 A 
ENDBRANCH  33  34
ENDBRANCH  28  33
ENDBRANCH  25  28
ENDBRANCH  23  24
ENDBRANCH  22  23
ENDBRANCH   1  22
BRANCH  17  40
HETATM   40  O5  UNL     1      -7.156   0.513   1.676  1.00  0.00    -0.381 OA
HETATM   41  H34 UNL     1      -7.796   0.341   2.389  1.00  0.00     0.211 HD
ENDBRANCH  17  40
BRANCH  17  42
HETATM   42  C28 UNL     1      -8.678  -0.373   0.005  1.00  0.00     0.158 C 
HETATM   43  C29 UNL     1      -9.099   1.010  -0.427  1.00  0.00     0.094 C 
HETATM   44  O6  UNL     1      -9.415  -1.338  -0.212  1.00  0.00    -0.295 OA
ENDBRANCH  17  42
TORSDOF 10
