REMARK  9 active torsions:
REMARK  status: ('A' for Active; 'I' for Inactive)
REMARK    1  A    between atoms: C7_8  and  O1_9 
REMARK    2  A    between atoms: O1_9  and  C8_10 
REMARK    3  A    between atoms: C8_10  and  C9_11 
REMARK       I    between atoms: C9_11  and  N1_13 
REMARK    4  A    between atoms: N1_13  and  N2_14 
REMARK    5  A    between atoms: C10_16  and  C11_17 
REMARK    6  A    between atoms: C14_20  and  O3_21 
REMARK    7  A    between atoms: C16_23  and  O4_24 
REMARK    8  A    between atoms: C25_33  and  C26_34 
REMARK    9  A    between atoms: C32_42  and  O7_43 
ROOT
HETATM    1  C11 UNL     1      -0.112  -1.183   0.930  1.00  0.00     0.028 C 
HETATM    2  C12 UNL     1       0.424  -0.936   2.372  1.00  0.00     0.021 C 
HETATM    3  C13 UNL     1       1.807  -1.565   2.610  1.00  0.00     0.033 C 
HETATM    4  C14 UNL     1       1.901  -3.040   2.219  1.00  0.00     0.121 C 
HETATM    5  C15 UNL     1       1.217  -3.372   0.883  1.00  0.00     0.070 C 
HETATM    6  C16 UNL     1      -0.177  -2.726   0.711  1.00  0.00     0.073 C 
HETATM    7  C17 UNL     1      -0.801  -3.115  -0.638  1.00  0.00     0.039 C 
HETATM    8  C18 UNL     1      -2.163  -2.459  -0.880  1.00  0.00     0.011 C 
HETATM    9  C19 UNL     1      -2.206  -0.937  -0.605  1.00  0.00     0.026 C 
HETATM   10  C20 UNL     1      -1.536  -0.547   0.744  1.00  0.00     0.009 C 
HETATM   11  C21 UNL     1      -1.550   0.982   0.974  1.00  0.00     0.007 C 
HETATM   12  C22 UNL     1      -2.389   1.765  -0.030  1.00  0.00     0.013 C 
HETATM   13  C23 UNL     1      -3.777   1.164  -0.326  1.00  0.00    -0.005 C 
HETATM   14  C24 UNL     1      -4.401   2.013  -1.466  1.00  0.00     0.019 C 
HETATM   15  C25 UNL     1      -4.719   1.151   0.929  1.00  0.00     0.028 C 
HETATM   16  C30 UNL     1      -5.649  -0.034   0.638  1.00  0.00     0.013 C 
HETATM   17  C31 UNL     1      -4.686  -1.106   0.160  1.00  0.00     0.040 C 
HETATM   18  C32 UNL     1      -3.657  -0.364  -0.724  1.00  0.00     0.070 C 
ENDROOT
BRANCH   1  19
HETATM   19  C10 UNL     1       0.879  -0.487  -0.023  1.00  0.00     0.093 C 
HETATM   20  N2  UNL     1       0.928  -0.735  -1.294  1.00  0.00    -0.312 N 
ATOM     21  H2  UNL     1       0.261  -1.363  -1.742  1.00  0.00     0.185 HD
BRANCH  20  22
HETATM   22  N1  UNL     1       1.922  -0.112  -2.008  1.00  0.00    -0.269 N 
HETATM   23  C9  UNL     1       3.263  -0.166  -1.604  1.00  0.00     0.260 C 
HETATM   24  O2  UNL     1       3.641  -0.540  -0.495  1.00  0.00    -0.269 OA
HETATM   25  H9  UNL     1       1.753  -0.145  -3.011  1.00  0.00     0.190 HD
BRANCH  23  26
HETATM   26  C8  UNL     1       4.218   0.317  -2.704  1.00  0.00     0.280 C 
BRANCH  26  27
HETATM   27  O1  UNL     1       5.576  -0.051  -2.533  1.00  0.00    -0.342 OA
BRANCH  27  28
HETATM   28  C7  UNL     1       6.406   0.796  -1.852  1.00  0.00     0.075 A 
HETATM   29  C2  UNL     1       7.785   0.574  -2.034  1.00  0.00    -0.027 A 
HETATM   30  C1  UNL     1       8.274  -0.521  -2.943  1.00  0.00     0.051 C 
HETATM   31  C3  UNL     1       8.713   1.400  -1.380  1.00  0.00     0.033 A 
HETATM   32  C4  UNL     1       8.273   2.424  -0.547  1.00  0.00     0.034 A 
HETATM   33 CL1  UNL     1       9.417   3.440   0.240  1.00  0.00    -0.084 Cl
HETATM   34  C5  UNL     1       6.911   2.633  -0.350  1.00  0.00     0.026 A 
HETATM   35  C6  UNL     1       5.979   1.817  -0.998  1.00  0.00     0.039 A 
ENDBRANCH  27  28
ENDBRANCH  26  27
ENDBRANCH  23  26
ENDBRANCH  20  22
ENDBRANCH   1  19
BRANCH   6  36
HETATM   36  O4  UNL     1      -1.014  -3.313   1.730  1.00  0.00    -0.389 OA
HETATM   37  H19 UNL     1      -1.948  -3.134   1.552  1.00  0.00     0.210 HD
ENDBRANCH   6  36
BRANCH   4  38
HETATM   38  O3  UNL     1       1.354  -3.846   3.261  1.00  0.00    -0.395 OA
HETATM   39  H16 UNL     1       1.848  -3.656   4.075  1.00  0.00     0.210 HD
ENDBRANCH   4  38
BRANCH  18  40
HETATM   40  O7  UNL     1      -4.072  -0.526  -2.088  1.00  0.00    -0.389 OA
HETATM   41  H41 UNL     1      -4.181  -1.472  -2.279  1.00  0.00     0.210 HD
ENDBRANCH  18  40
BRANCH  15  42
HETATM   42  C26 UNL     1      -5.438   2.421   1.299  1.00  0.00    -0.045 A 
HETATM   43  C27 UNL     1      -6.742   2.687   1.217  1.00  0.00     0.087 A 
HETATM   44  C28 UNL     1      -6.951   4.032   1.750  1.00  0.00     0.283 A 
HETATM   45  O5  UNL     1      -8.028   4.596   1.812  1.00  0.00    -0.260 OA
HETATM   46  O6  UNL     1      -5.760   4.533   2.166  1.00  0.00    -0.314 OA
HETATM   47  C29 UNL     1      -4.731   3.581   1.896  1.00  0.00     0.213 A 
ENDBRANCH  15  42
TORSDOF 9
