REMARK  7 active torsions:
REMARK  status: ('A' for Active; 'I' for Inactive)
REMARK    1  A    between atoms: C2_2  and  C4_4 
REMARK    2  A    between atoms: C4_4  and  C6_6 
REMARK    3  A    between atoms: C7_7  and  C8_8 
REMARK    4  A    between atoms: C8_8  and  O1_10 
REMARK    5  A    between atoms: C8_8  and  C10_11 
REMARK    6  A    between atoms: C15_16  and  O2_17 
REMARK    7  A    between atoms: C26_29  and  O4_30 
ROOT
HETATM    1  C10 UNL     1      -1.217  -2.054   0.416  1.00  0.00     0.034 C 
HETATM    2  C11 UNL     1      -0.571  -3.468   0.268  1.00  0.00     0.009 C 
HETATM    3  C12 UNL     1       0.942  -3.251   0.126  1.00  0.00     0.006 C 
HETATM    4  C13 UNL     1       1.131  -1.763   0.394  1.00  0.00     0.003 C 
HETATM    5  C14 UNL     1       2.453  -1.114  -0.050  1.00  0.00     0.024 C 
HETATM    6  C15 UNL     1       3.685  -1.855   0.505  1.00  0.00     0.123 C 
HETATM    7  C16 UNL     1       4.991  -1.133   0.177  1.00  0.00     0.038 C 
HETATM    8  C17 UNL     1       4.976   0.346   0.596  1.00  0.00     0.003 C 
HETATM    9  C18 UNL     1       6.326   0.998   0.256  1.00  0.00     0.083 C 
HETATM   10  C19 UNL     1       6.271   2.502   0.397  1.00  0.00     0.127 C 
HETATM   11  O3  UNL     1       7.179   3.216  -0.026  1.00  0.00    -0.298 OA
HETATM   12  C20 UNL     1       5.102   3.079   1.152  1.00  0.00     0.079 C 
HETATM   13  C21 UNL     1       3.757   2.570   0.633  1.00  0.00     0.017 C 
HETATM   14  C22 UNL     1       3.766   1.138   0.007  1.00  0.00    -0.035 C 
HETATM   15  C23 UNL     1       3.899   1.288  -1.533  1.00  0.00     0.016 C 
HETATM   16  C24 UNL     1       2.433   0.385   0.382  1.00  0.00     0.003 C 
HETATM   17  C25 UNL     1       1.147   1.097  -0.109  1.00  0.00     0.038 C 
HETATM   18  C26 UNL     1      -0.154   0.359   0.267  1.00  0.00     0.127 C 
HETATM   19  C27 UNL     1      -0.141  -1.107  -0.217  1.00  0.00    -0.007 C 
HETATM   20  C28 UNL     1      -0.155  -1.165  -1.765  1.00  0.00     0.019 C 
ENDROOT
BRANCH   1  21
HETATM   21  C8  UNL     1      -2.737  -2.022   0.052  1.00  0.00     0.076 C 
HETATM   22  C9  UNL     1      -3.068  -2.302  -1.419  1.00  0.00     0.051 C 
BRANCH  21  23
HETATM   23  C7  UNL     1      -3.428  -0.777   0.586  1.00  0.00     0.007 C 
HETATM   24  C6  UNL     1      -4.616  -0.288   0.188  1.00  0.00    -0.023 C 
BRANCH  24  25
HETATM   25  C4  UNL     1      -5.263   0.949   0.773  1.00  0.00     0.007 C 
HETATM   26  C5  UNL     1      -6.529   0.541   1.534  1.00  0.00     0.014 C 
BRANCH  25  27
HETATM   27  C2  UNL     1      -5.551   2.062  -0.274  1.00  0.00    -0.015 C 
HETATM   28  C1  UNL     1      -4.258   2.595  -0.900  1.00  0.00     0.010 C 
HETATM   29  C3  UNL     1      -6.526   1.651  -1.383  1.00  0.00     0.010 C 
ENDBRANCH  25  27
ENDBRANCH  24  25
ENDBRANCH  21  23
BRANCH  21  30
HETATM   30  O1  UNL     1      -3.328  -3.120   0.781  1.00  0.00    -0.386 OA
HETATM   31  H17 UNL     1      -3.556  -2.797   1.669  1.00  0.00     0.211 HD
ENDBRANCH  21  30
ENDBRANCH   1  21
BRANCH  18  32
HETATM   32  O4  UNL     1      -1.243   1.065  -0.310  1.00  0.00    -0.395 OA
HETATM   33  H43 UNL     1      -1.232   1.975   0.032  1.00  0.00     0.210 HD
ENDBRANCH  18  32
BRANCH   6  34
HETATM   34  O2  UNL     1       3.591  -2.054   1.913  1.00  0.00    -0.395 OA
HETATM   35  H26 UNL     1       3.526  -1.194   2.357  1.00  0.00     0.210 HD
ENDBRANCH   6  34
TORSDOF 7
