REMARK  10 active torsions:
REMARK  status: ('A' for Active; 'I' for Inactive)
REMARK    1  A    between atoms: O1_2  and  C2_3 
REMARK    2  A    between atoms: C11_15  and  O3_16 
REMARK    3  A    between atoms: O3_16  and  C12_17 
REMARK    4  A    between atoms: C12_17  and  C13_19 
REMARK    5  A    between atoms: C13_19  and  C14_20 
REMARK    6  A    between atoms: C14_20  and  C16_22 
REMARK    7  A    between atoms: C16_22  and  O5_23 
REMARK    8  A    between atoms: C24_32  and  O7_33 
REMARK    9  A    between atoms: C25_36  and  O8_37 
REMARK   10  A    between atoms: C26_39  and  O10_40 
ROOT
HETATM    1  C2  UNL     1      -2.011   5.664  -0.327  1.00  0.00     0.092 A 
HETATM    2  C3  UNL     1      -2.747   4.885  -1.226  1.00  0.00     0.046 A 
HETATM    3  C4  UNL     1      -2.520   3.507  -1.337  1.00  0.00    -0.049 A 
HETATM    4  C5  UNL     1      -1.541   2.910  -0.526  1.00  0.00     0.039 A 
HETATM    5  C6  UNL     1      -0.810   3.653   0.417  1.00  0.00     0.061 A 
HETATM    6  C7  UNL     1      -1.038   5.047   0.489  1.00  0.00     0.094 A 
HETATM    7 CL1  UNL     1      -0.032   6.075   1.479  1.00  0.00    -0.079 Cl
HETATM    8  N1  UNL     1       0.101   2.956   1.290  1.00  0.00    -0.321 N 
HETATM    9  C8  UNL     1      -0.013   3.229   2.722  1.00  0.00     0.159 C 
HETATM   10  C9  UNL     1       0.981   1.982   0.781  1.00  0.00     0.226 C 
HETATM   11  O2  UNL     1       1.071   1.714  -0.418  1.00  0.00    -0.273 OA
HETATM   12  C10 UNL     1       1.930   1.346   1.795  1.00  0.00     0.139 C 
HETATM   13  C11 UNL     1       2.604   0.051   1.316  1.00  0.00     0.177 C 
HETATM   14  C17 UNL     1       1.613  -1.075   0.997  1.00  0.00     0.111 A 
HETATM   15  C18 UNL     1       1.571  -1.591  -0.410  1.00  0.00     0.051 C 
HETATM   16  O6  UNL     1       0.306  -0.930   1.598  1.00  0.00    -0.366 OA
HETATM   17  C19 UNL     1       1.135  -1.915   2.196  1.00  0.00     0.165 A 
HETATM   18  C20 UNL     1       0.648  -3.341   2.214  1.00  0.00     0.043 C 
HETATM   19  C21 UNL     1       1.887  -4.255   2.307  1.00  0.00     0.015 C 
HETATM   20  C22 UNL     1      -0.311  -3.870   1.123  1.00  0.00     0.143 C 
HETATM   21  C23 UNL     1      -1.583  -3.057   0.912  1.00  0.00     0.097 C 
HETATM   22  C24 UNL     1      -2.478  -3.815  -0.073  1.00  0.00     0.166 C 
HETATM   23  N2  UNL     1      -2.810  -5.129   0.482  1.00  0.00    -0.316 N 
ATOM     24  H2  UNL     1      -3.716  -5.571   0.328  1.00  0.00     0.166 HD
HETATM   25  C25 UNL     1      -1.891  -5.683   1.170  1.00  0.00     0.260 C 
HETATM   26  O9  UNL     1      -0.690  -5.211   1.532  1.00  0.00    -0.311 OA
HETATM   27  C26 UNL     1      -3.836  -3.047  -0.344  1.00  0.00     0.199 C 
HETATM   28  C28 UNL     1      -3.631  -1.607  -0.772  1.00  0.00     0.010 C 
HETATM   29  C29 UNL     1      -3.770  -1.117  -2.014  1.00  0.00    -0.001 C 
HETATM   30  C30 UNL     1      -3.401   0.228  -2.386  1.00  0.00     0.002 C 
HETATM   31  C31 UNL     1      -3.848   1.388  -1.866  1.00  0.00    -0.080 C 
HETATM   32  C32 UNL     1      -4.924   1.506  -0.820  1.00  0.00     0.043 C 
HETATM   33  C33 UNL     1      -3.283   2.702  -2.372  1.00  0.00     0.072 C 
ENDROOT
BRANCH  13  34
HETATM   34  O3  UNL     1       3.484   0.281   0.198  1.00  0.00    -0.312 OA
BRANCH  34  35
HETATM   35  C12 UNL     1       4.690   0.840   0.470  1.00  0.00     0.259 C 
HETATM   36  O4  UNL     1       5.093   1.135   1.587  1.00  0.00    -0.265 OA
BRANCH  35  37
HETATM   37  C13 UNL     1       5.466   1.056  -0.806  1.00  0.00     0.117 C 
BRANCH  37  38
HETATM   38  C14 UNL     1       6.909   0.537  -0.693  1.00  0.00     0.014 C 
HETATM   39  C15 UNL     1       6.940  -0.989  -0.582  1.00  0.00     0.012 C 
BRANCH  38  40
HETATM   40  C16 UNL     1       7.740   0.987  -1.899  1.00  0.00     0.168 C 
BRANCH  40  41
HETATM   41  O5  UNL     1       7.818   2.404  -1.955  1.00  0.00    -0.400 OA
HETATM   42  H20 UNL     1       8.261   2.708  -1.143  1.00  0.00     0.209 HD
ENDBRANCH  40  41
ENDBRANCH  38  40
ENDBRANCH  37  38
ENDBRANCH  35  37
ENDBRANCH  34  35
ENDBRANCH  13  34
BRANCH   1  43
HETATM   43  O1  UNL     1      -2.174   7.020  -0.180  1.00  0.00    -0.354 OA
HETATM   44  C1  UNL     1      -3.055   7.687  -1.073  1.00  0.00     0.210 C 
ENDBRANCH   1  43
BRANCH  22  45
HETATM   45  O7  UNL     1      -1.790  -3.929  -1.323  1.00  0.00    -0.368 OA
HETATM   46  H32 UNL     1      -2.497  -4.181  -1.950  1.00  0.00     0.212 HD
ENDBRANCH  22  45
BRANCH  25  47
HETATM   47  O8  UNL     1      -2.098  -6.904   1.672  1.00  0.00    -0.327 OA
HETATM   48  H33 UNL     1      -2.969  -7.192   1.358  1.00  0.00     0.221 HD
ENDBRANCH  25  47
BRANCH  27  49
HETATM   49  O10 UNL     1      -4.523  -3.746  -1.409  1.00  0.00    -0.382 OA
HETATM   50  C27 UNL     1      -5.778  -4.263  -0.991  1.00  0.00     0.202 C 
ENDBRANCH  27  49
TORSDOF 10
