REMARK  10 active torsions:
REMARK  status: ('A' for Active; 'I' for Inactive)
REMARK       I    between atoms: N1_2  and  C2_3 
REMARK    1  A    between atoms: C2_3  and  C3_5 
REMARK    2  A    between atoms: C3_5  and  C4_6 
REMARK    3  A    between atoms: C3_5  and  N3_16 
REMARK    4  A    between atoms: C4_6  and  C5_7 
REMARK       I    between atoms: N3_16  and  C13_17 
REMARK    5  A    between atoms: C13_17  and  C14_19 
REMARK    6  A    between atoms: C14_19  and  C15_20 
REMARK    7  A    between atoms: C14_19  and  C17_25 
REMARK    8  A    between atoms: C15_20  and  C16_21 
REMARK       I    between atoms: C16_21  and  N4_23 
REMARK    9  A    between atoms: N4_23  and  O4_24 
REMARK   10  A    between atoms: C17_25  and  C18_26 
ROOT
HETATM    1  C3  UNL     1       0.894  -1.999   1.201  1.00  0.00     0.180 C 
ENDROOT
BRANCH   1   2
HETATM    2  C2  UNL     1       0.332  -2.150   2.632  1.00  0.00     0.240 C 
HETATM    3  N1  UNL     1      -1.012  -2.459   2.674  1.00  0.00    -0.364 N 
HETATM    4  C1  UNL     1      -1.735  -2.555   3.912  1.00  0.00     0.149 C 
HETATM    5  H4  UNL     1      -1.532  -2.468   1.796  1.00  0.00     0.161 HD
HETATM    6  O1  UNL     1       1.023  -2.030   3.643  1.00  0.00    -0.271 OA
ENDBRANCH   1   2
BRANCH   1   7
HETATM    7  C4  UNL     1       2.426  -1.866   1.244  1.00  0.00     0.075 C 
BRANCH   7   8
HETATM    8  C5  UNL     1       3.032  -1.700  -0.118  1.00  0.00    -0.028 A 
HETATM    9  C6  UNL     1       3.178  -2.690  -1.076  1.00  0.00     0.096 A 
HETATM   10  N2  UNL     1       3.749  -2.130  -2.186  1.00  0.00    -0.365 N 
HETATM   11  C7  UNL     1       3.976  -0.787  -1.979  1.00  0.00     0.042 A 
HETATM   12  H9  UNL     1       3.964  -2.624  -3.044  1.00  0.00     0.165 HD
HETATM   13  C8  UNL     1       4.529   0.175  -2.833  1.00  0.00     0.030 A 
HETATM   14  C12 UNL     1       3.541  -0.489  -0.687  1.00  0.00    -0.002 A 
HETATM   15  C9  UNL     1       4.639   1.484  -2.352  1.00  0.00     0.002 A 
HETATM   16  C10 UNL     1       4.212   1.815  -1.069  1.00  0.00     0.001 A 
HETATM   17  C11 UNL     1       3.660   0.840  -0.227  1.00  0.00     0.014 A 
ENDBRANCH   7   8
ENDBRANCH   1   7
BRANCH   1  18
HETATM   18  N3  UNL     1       0.267  -0.844   0.544  1.00  0.00    -0.347 N 
HETATM   19  C13 UNL     1      -0.951  -0.917  -0.077  1.00  0.00     0.223 C 
HETATM   20  O2  UNL     1      -1.633  -1.938  -0.051  1.00  0.00    -0.273 OA
HETATM   21  H14 UNL     1       0.847  -0.010   0.421  1.00  0.00     0.163 HD
BRANCH  19  22
HETATM   22  C14 UNL     1      -1.370   0.350  -0.826  1.00  0.00     0.087 C 
BRANCH  22  23
HETATM   23  C15 UNL     1      -2.679   0.076  -1.586  1.00  0.00     0.119 C 
BRANCH  23  24
HETATM   24  C16 UNL     1      -3.884  -0.193  -0.703  1.00  0.00     0.241 C 
HETATM   25  O3  UNL     1      -4.030   0.240   0.437  1.00  0.00    -0.271 OA
HETATM   26  N4  UNL     1      -4.869  -0.930  -1.328  1.00  0.00    -0.237 N 
HETATM   27  H18 UNL     1      -4.610  -1.644  -2.003  1.00  0.00     0.197 HD
BRANCH  26  28
HETATM   28  O4  UNL     1      -5.955  -1.275  -0.481  1.00  0.00    -0.287 OA
HETATM   29  H19 UNL     1      -5.719  -0.822   0.359  1.00  0.00     0.244 HD
ENDBRANCH  26  28
ENDBRANCH  23  24
ENDBRANCH  22  23
BRANCH  22  30
HETATM   30  C17 UNL     1      -1.378   1.584   0.102  1.00  0.00     0.018 C 
BRANCH  30  31
HETATM   31  C18 UNL     1      -1.859   2.904  -0.538  1.00  0.00    -0.022 C 
HETATM   32  C19 UNL     1      -0.967   3.329  -1.708  1.00  0.00     0.009 C 
HETATM   33  C20 UNL     1      -1.880   4.010   0.523  1.00  0.00     0.009 C 
ENDBRANCH  30  31
ENDBRANCH  22  30
ENDBRANCH  19  22
ENDBRANCH   1  18
TORSDOF 10
