REMARK  12 active torsions:
REMARK  status: ('A' for Active; 'I' for Inactive)
REMARK    1  A    between atoms: C4_5  and  O2_6 
REMARK    2  A    between atoms: C8_11  and  O4_12 
REMARK    3  A    between atoms: O4_12  and  C9_13 
REMARK    4  A    between atoms: C9_13  and  C10_15 
REMARK    5  A    between atoms: C10_15  and  O6_16 
REMARK    6  A    between atoms: C10_15  and  C11_17 
REMARK    7  A    between atoms: C10_15  and  C12_19 
REMARK    8  A    between atoms: C11_17  and  O7_18 
REMARK    9  A    between atoms: C12_19  and  C13_20 
REMARK   10  A    between atoms: C13_20  and  C15_22 
REMARK   11  A    between atoms: C15_22  and  C16_23 
REMARK   12  A    between atoms: C16_23  and  C18_25 
ROOT
HETATM    1  C1  UNL     1      -7.209  -0.586  -0.817  1.00  0.00     0.017 C 
HETATM    2  C2  UNL     1      -5.944  -0.964  -1.045  1.00  0.00    -0.056 C 
HETATM    3  C3  UNL     1      -5.486  -1.927  -2.078  1.00  0.00     0.205 C 
HETATM    4  O1  UNL     1      -4.372  -2.608  -1.504  1.00  0.00    -0.348 OA
HETATM    5  C4  UNL     1      -3.771  -1.771  -0.496  1.00  0.00     0.201 C 
HETATM    6  C6  UNL     1      -2.397  -1.364  -0.962  1.00  0.00     0.223 A 
HETATM    7  O3  UNL     1      -2.385  -0.460  -2.073  1.00  0.00    -0.360 OA
HETATM    8  C7  UNL     1      -1.874   0.052  -0.814  1.00  0.00     0.127 A 
HETATM    9  C8  UNL     1      -0.403   0.358  -0.933  1.00  0.00     0.170 C 
HETATM   10  C20 UNL     1      -0.174   1.702  -1.644  1.00  0.00     0.036 C 
HETATM   11  C21 UNL     1      -1.458   2.505  -1.878  1.00  0.00     0.007 C 
HETATM   12  C22 UNL     1      -2.368   2.552  -0.636  1.00  0.00    -0.007 C 
HETATM   13  C23 UNL     1      -1.717   3.451   0.428  1.00  0.00     0.011 C 
HETATM   14  C24 UNL     1      -2.775   1.101  -0.157  1.00  0.00    -0.003 C 
HETATM   15  C25 UNL     1      -2.717   0.953   1.380  1.00  0.00     0.019 C 
HETATM   16  C26 UNL     1      -4.243   0.824  -0.606  1.00  0.00     0.027 C 
HETATM   17  C27 UNL     1      -4.745  -0.585  -0.228  1.00  0.00     0.082 C 
ENDROOT
BRANCH   9  18
HETATM   18  O4  UNL     1       0.212   0.424   0.368  1.00  0.00    -0.310 OA
BRANCH  18  19
HETATM   19  C9  UNL     1       0.741  -0.734   0.838  1.00  0.00     0.296 C 
HETATM   20  O5  UNL     1       0.627  -1.835   0.302  1.00  0.00    -0.262 OA
BRANCH  19  21
HETATM   21  C10 UNL     1       1.541  -0.548   2.138  1.00  0.00     0.166 C 
BRANCH  21  22
HETATM   22  O6  UNL     1       2.361  -1.720   2.340  1.00  0.00    -0.377 OA
HETATM   23  H10 UNL     1       1.922  -2.453   1.860  1.00  0.00     0.211 HD
ENDBRANCH  21  22
BRANCH  21  24
HETATM   24  C11 UNL     1       0.552  -0.527   3.324  1.00  0.00     0.212 C 
BRANCH  24  25
HETATM   25  O7  UNL     1      -0.014   0.752   3.590  1.00  0.00    -0.397 OA
HETATM   26  H13 UNL     1       0.626   1.247   4.132  1.00  0.00     0.209 HD
ENDBRANCH  24  25
ENDBRANCH  21  24
BRANCH  21  27
HETATM   27  C12 UNL     1       2.466   0.688   2.109  1.00  0.00     0.055 C 
BRANCH  27  28
HETATM   28  C13 UNL     1       3.395   0.867   0.874  1.00  0.00    -0.015 C 
HETATM   29  C14 UNL     1       4.185   2.171   1.056  1.00  0.00     0.010 C 
BRANCH  28  30
HETATM   30  C15 UNL     1       4.329  -0.337   0.630  1.00  0.00     0.008 C 
BRANCH  30  31
HETATM   31  C16 UNL     1       5.366  -0.190  -0.511  1.00  0.00    -0.019 C 
HETATM   32  C17 UNL     1       4.687   0.072  -1.859  1.00  0.00     0.010 C 
BRANCH  31  33
HETATM   33  C18 UNL     1       6.238  -1.465  -0.557  1.00  0.00    -0.000 C 
HETATM   34  C19 UNL     1       7.412  -1.374  -1.521  1.00  0.00     0.005 C 
ENDBRANCH  31  33
ENDBRANCH  30  31
ENDBRANCH  28  30
ENDBRANCH  27  28
ENDBRANCH  21  27
ENDBRANCH  19  21
ENDBRANCH  18  19
ENDBRANCH   9  18
BRANCH   5  35
HETATM   35  O2  UNL     1      -3.650  -2.479   0.754  1.00  0.00    -0.357 OA
HETATM   36  C5  UNL     1      -3.310  -3.852   0.627  1.00  0.00     0.205 C 
ENDBRANCH   5  35
TORSDOF 12
