REMARK  10 active torsions:
REMARK  status: ('A' for Active; 'I' for Inactive)
REMARK    1  A    between atoms: C7_7  and  C9_9 
REMARK    2  A    between atoms: C9_9  and  C10_10 
REMARK    3  A    between atoms: C10_10  and  O1_11 
REMARK    4  A    between atoms: C10_10  and  C13_15 
REMARK    5  A    between atoms: O1_11  and  C11_12 
REMARK    6  A    between atoms: C13_15  and  C16_19 
REMARK    7  A    between atoms: C14_16  and  C15_17 
REMARK    8  A    between atoms: C15_17  and  O3_18 
REMARK    9  A    between atoms: C16_19  and  O4_20 
REMARK   10  A    between atoms: O4_20  and  C17_21 
ROOT
HETATM    1  C9  UNL     1       0.497   1.276  -0.361  1.00  0.00     0.047 C 
ENDROOT
BRANCH   1   2
HETATM    2  C7  UNL     1      -0.824   1.098   0.515  1.00  0.00    -0.034 C 
HETATM    3  C6  UNL     1      -1.766  -0.048  -0.080  1.00  0.00     0.006 C 
HETATM    4  C5  UNL     1      -1.327  -1.503   0.237  1.00  0.00     0.007 C 
HETATM    5  C23 UNL     1      -3.324   0.049   0.201  1.00  0.00    -0.017 C 
HETATM    6  C4  UNL     1      -2.193  -2.571  -0.448  1.00  0.00     0.005 C 
HETATM    7  C3  UNL     1      -3.218  -1.994  -1.418  1.00  0.00     0.034 C 
HETATM    8  C2  UNL     1      -4.059  -0.921  -0.761  1.00  0.00    -0.081 C 
HETATM    9  C1  UNL     1      -5.381  -0.874  -1.013  1.00  0.00     0.015 C 
HETATM   10  C22 UNL     1      -3.805   1.495  -0.022  1.00  0.00     0.014 C 
HETATM   11  C24 UNL     1      -3.725  -0.389   1.635  1.00  0.00     0.020 C 
HETATM   12  C21 UNL     1      -3.022   2.500   0.805  1.00  0.00     0.006 C 
HETATM   13  C19 UNL     1      -1.548   2.512   0.401  1.00  0.00    -0.010 C 
HETATM   14  C20 UNL     1      -0.860   3.663   1.158  1.00  0.00     0.011 C 
HETATM   15  C8  UNL     1      -0.440   0.824   1.982  1.00  0.00     0.016 C 
ENDBRANCH   1   2
BRANCH   1  16
HETATM   16  C10 UNL     1       1.460   0.113  -0.702  1.00  0.00     0.163 C 
BRANCH  16  17
HETATM   17  O1  UNL     1       2.456   0.614  -1.631  1.00  0.00    -0.312 OA
BRANCH  17  18
HETATM   18  C11 UNL     1       2.121   0.572  -2.950  1.00  0.00     0.255 C 
HETATM   19  C12 UNL     1       3.279   1.018  -3.789  1.00  0.00     0.126 C 
HETATM   20  O2  UNL     1       1.026   0.262  -3.400  1.00  0.00    -0.266 OA
ENDBRANCH  17  18
ENDBRANCH  16  17
BRANCH  16  21
HETATM   21  C13 UNL     1       2.281  -0.506   0.421  1.00  0.00    -0.028 C 
HETATM   22  C14 UNL     1       2.753   0.198   1.474  1.00  0.00     0.006 C 
BRANCH  22  23
HETATM   23  C15 UNL     1       3.558  -0.321   2.624  1.00  0.00     0.192 C 
BRANCH  23  24
HETATM   24  O3  UNL     1       2.830  -0.084   3.820  1.00  0.00    -0.397 OA
HETATM   25  H22 UNL     1       2.689   0.875   3.889  1.00  0.00     0.209 HD
ENDBRANCH  23  24
ENDBRANCH  22  23
BRANCH  21  26
HETATM   26  C16 UNL     1       2.579  -1.980   0.231  1.00  0.00     0.215 C 
BRANCH  26  27
HETATM   27  O4  UNL     1       3.995  -2.183   0.111  1.00  0.00    -0.317 OA
BRANCH  27  28
HETATM   28  C17 UNL     1       4.490  -2.205  -1.154  1.00  0.00     0.255 C 
HETATM   29  C18 UNL     1       5.973  -2.419  -1.116  1.00  0.00     0.126 C 
HETATM   30  O5  UNL     1       3.842  -2.090  -2.185  1.00  0.00    -0.266 OA
ENDBRANCH  27  28
ENDBRANCH  26  27
ENDBRANCH  21  26
ENDBRANCH  16  21
ENDBRANCH   1  16
TORSDOF 10
