REMARK  12 active torsions:
REMARK  status: ('A' for Active; 'I' for Inactive)
REMARK    1  A    between atoms: O1_2  and  C2_3 
REMARK    2  A    between atoms: C2_3  and  C5_6 
REMARK    3  A    between atoms: C6_7  and  C7_8 
REMARK    4  A    between atoms: C7_8  and  C8_9 
REMARK    5  A    between atoms: C8_9  and  C10_11 
REMARK    6  A    between atoms: C28_30  and  O3_31 
REMARK    7  A    between atoms: O3_31  and  C29_32 
REMARK    8  A    between atoms: C30_34  and  C31_35 
REMARK    9  A    between atoms: C31_35  and  O5_36 
REMARK   10  A    between atoms: C32_37  and  O6_38 
REMARK   11  A    between atoms: C33_39  and  O7_40 
REMARK   12  A    between atoms: C34_41  and  O8_42 
ROOT
HETATM    1  C10 UNL     1      -3.402   0.215  -0.796  1.00  0.00    -0.002 C 
HETATM    2  C11 UNL     1      -3.426   1.709  -1.255  1.00  0.00     0.006 C 
HETATM    3  C12 UNL     1      -2.232   2.425  -0.595  1.00  0.00     0.011 C 
HETATM    4  C13 UNL     1      -1.337   1.286  -0.070  1.00  0.00    -0.029 C 
HETATM    5  C14 UNL     1      -0.507   0.789  -1.302  1.00  0.00     0.016 C 
HETATM    6  C15 UNL     1      -0.396   1.675   1.115  1.00  0.00     0.028 C 
HETATM    7  C16 UNL     1       0.634   2.730   0.739  1.00  0.00    -0.021 C 
HETATM    8  C17 UNL     1       1.941   2.583   1.033  1.00  0.00     0.008 C 
HETATM    9  C18 UNL     1       2.445   1.350   1.777  1.00  0.00     0.092 C 
HETATM   10  O2  UNL     1       1.931   1.538   3.117  1.00  0.00    -0.374 OA
HETATM   11  C19 UNL     1       0.708   0.804   3.241  1.00  0.00     0.179 C 
HETATM   12  C20 UNL     1       0.261   0.400   1.816  1.00  0.00    -0.004 C 
HETATM   13  C21 UNL     1      -0.692  -0.820   1.930  1.00  0.00     0.014 C 
HETATM   14  C22 UNL     1      -1.702  -1.042   0.797  1.00  0.00     0.011 C 
HETATM   15  C23 UNL     1      -2.429   0.262   0.427  1.00  0.00    -0.032 C 
HETATM   16  C24 UNL     1      -3.230   0.756   1.679  1.00  0.00     0.016 C 
HETATM   17  C25 UNL     1       1.654   0.147   1.186  1.00  0.00     0.036 C 
HETATM   18  C26 UNL     1       2.321  -1.197   1.460  1.00  0.00     0.011 C 
HETATM   19  C27 UNL     1       3.742  -1.246   0.887  1.00  0.00     0.033 C 
HETATM   20  C28 UNL     1       4.404   0.131   0.720  1.00  0.00     0.136 C 
HETATM   21  C35 UNL     1       4.004   1.118   1.850  1.00  0.00     0.014 C 
HETATM   22  C36 UNL     1       4.442   0.562   3.236  1.00  0.00     0.021 C 
HETATM   23  C37 UNL     1       4.810   2.427   1.675  1.00  0.00     0.021 C 
ENDROOT
BRANCH  20  24
HETATM   24  O3  UNL     1       5.822  -0.040   0.717  1.00  0.00    -0.352 OA
BRANCH  24  25
HETATM   25  C29 UNL     1       6.395  -0.337  -0.557  1.00  0.00     0.292 C 
HETATM   26  O4  UNL     1       7.055  -1.597  -0.463  1.00  0.00    -0.348 OA
HETATM   27  C30 UNL     1       7.639  -2.027  -1.706  1.00  0.00     0.179 C 
HETATM   28  C32 UNL     1       8.420  -0.901  -2.417  1.00  0.00     0.180 C 
HETATM   29  C33 UNL     1       8.719   0.233  -1.433  1.00  0.00     0.183 C 
HETATM   30  C34 UNL     1       7.402   0.799  -0.868  1.00  0.00     0.204 C 
BRANCH  27  31
HETATM   31  C31 UNL     1       8.559  -3.204  -1.362  1.00  0.00     0.198 C 
BRANCH  31  32
HETATM   32  O5  UNL     1       9.152  -3.750  -2.530  1.00  0.00    -0.398 OA
HETATM   33  H48 UNL     1       9.706  -4.499  -2.248  1.00  0.00     0.209 HD
ENDBRANCH  31  32
ENDBRANCH  27  31
BRANCH  28  34
HETATM   34  O6  UNL     1       7.613  -0.342  -3.481  1.00  0.00    -0.390 OA
HETATM   35  H50 UNL     1       8.253   0.174  -4.012  1.00  0.00     0.210 HD
ENDBRANCH  28  34
BRANCH  29  36
HETATM   36  O7  UNL     1       9.453   1.265  -2.125  1.00  0.00    -0.390 OA
HETATM   37  H52 UNL     1       8.967   2.100  -1.971  1.00  0.00     0.210 HD
ENDBRANCH  29  36
BRANCH  30  38
HETATM   38  O8  UNL     1       6.834   1.727  -1.827  1.00  0.00    -0.388 OA
HETATM   39  H54 UNL     1       6.768   1.226  -2.668  1.00  0.00     0.210 HD
ENDBRANCH  30  38
ENDBRANCH  24  25
ENDBRANCH  20  24
BRANCH   1  40
HETATM   40  C8  UNL     1      -4.843  -0.349  -0.601  1.00  0.00    -0.010 C 
HETATM   41  C9  UNL     1      -4.844  -1.803  -0.105  1.00  0.00     0.010 C 
BRANCH  40  42
HETATM   42  C7  UNL     1      -5.667  -0.272  -1.916  1.00  0.00     0.031 C 
BRANCH  42  43
HETATM   43  C6  UNL     1      -7.173  -0.410  -1.828  1.00  0.00    -0.027 C 
HETATM   44  C5  UNL     1      -7.931  -0.288  -0.725  1.00  0.00     0.006 C 
BRANCH  44  45
HETATM   45  C2  UNL     1      -9.442  -0.382  -0.611  1.00  0.00     0.070 C 
HETATM   46  C3  UNL     1     -10.180  -0.868  -1.871  1.00  0.00     0.050 C 
HETATM   47  C4  UNL     1      -9.960   1.024  -0.251  1.00  0.00     0.050 C 
BRANCH  45  48
HETATM   48  O1  UNL     1      -9.760  -1.197   0.531  1.00  0.00    -0.382 OA
HETATM   49  C1  UNL     1      -9.545  -2.595   0.376  1.00  0.00     0.202 C 
ENDBRANCH  45  48
ENDBRANCH  44  45
ENDBRANCH  42  43
ENDBRANCH  40  42
ENDBRANCH   1  40
TORSDOF 12
