REMARK  10 active torsions:
REMARK  status: ('A' for Active; 'I' for Inactive)
REMARK    1  A    between atoms: C12_14  and  C13_15 
REMARK    2  A    between atoms: C13_15  and  C15_17 
REMARK    3  A    between atoms: C15_17  and  C16_18 
REMARK    4  A    between atoms: C16_18  and  C17_19 
REMARK    5  A    between atoms: C18_20  and  C20_22 
REMARK    6  A    between atoms: C20_22  and  O3_23 
REMARK    7  A    between atoms: C26_29  and  C27_30 
REMARK    8  A    between atoms: C27_30  and  C28_31 
REMARK    9  A    between atoms: C28_31  and  C29_32 
REMARK   10  A    between atoms: C29_32  and  O5_34 
ROOT
HETATM    1  C1  UNL     1      -6.411  -2.164   0.873  1.00  0.00     0.025 C 
HETATM    2  C2  UNL     1      -5.244  -2.662   0.445  1.00  0.00     0.015 C 
HETATM    3  C3  UNL     1      -4.913  -4.094   0.609  1.00  0.00     0.289 C 
HETATM    4  O1  UNL     1      -5.660  -4.969   1.005  1.00  0.00    -0.260 OA
HETATM    5  O2  UNL     1      -3.624  -4.271   0.219  1.00  0.00    -0.311 OA
HETATM    6  C4  UNL     1      -2.983  -3.001  -0.009  1.00  0.00     0.142 C 
HETATM    7  C5  UNL     1      -2.053  -2.726   1.164  1.00  0.00     0.039 C 
HETATM    8  C6  UNL     1      -1.426  -1.325   1.202  1.00  0.00     0.006 C 
HETATM    9  C7  UNL     1      -2.433  -0.195   0.884  1.00  0.00    -0.027 A 
HETATM   10  C8  UNL     1      -1.815   1.216   0.837  1.00  0.00     0.011 C 
HETATM   11  C9  UNL     1      -0.446   1.324   0.147  1.00  0.00     0.011 C 
HETATM   12  C10 UNL     1       0.532   0.262   0.672  1.00  0.00    -0.032 C 
HETATM   13  C11 UNL     1       0.801   0.521   2.188  1.00  0.00     0.016 C 
HETATM   14  C12 UNL     1       1.913   0.138  -0.055  1.00  0.00    -0.002 C 
HETATM   15  C21 UNL     1       2.298  -1.351   0.217  1.00  0.00     0.006 C 
HETATM   16  C22 UNL     1       1.038  -2.084   0.713  1.00  0.00     0.011 C 
HETATM   17  C23 UNL     1      -0.123  -1.146   0.359  1.00  0.00    -0.032 C 
HETATM   18  C24 UNL     1      -0.435  -1.367  -1.156  1.00  0.00     0.016 C 
HETATM   19  C25 UNL     1      -3.740  -0.215   1.638  1.00  0.00     0.022 A 
HETATM   20  C26 UNL     1      -3.770  -0.537   0.153  1.00  0.00    -0.021 A 
HETATM   21  C31 UNL     1      -4.096  -1.988  -0.233  1.00  0.00     0.063 C 
ENDROOT
BRANCH  14  22
HETATM   22  C13 UNL     1       3.082   1.113   0.294  1.00  0.00    -0.014 C 
HETATM   23  C14 UNL     1       2.699   2.580   0.065  1.00  0.00     0.010 C 
BRANCH  22  24
HETATM   24  C15 UNL     1       4.344   0.758  -0.542  1.00  0.00     0.008 C 
BRANCH  24  25
HETATM   25  C16 UNL     1       5.606   1.520  -0.118  1.00  0.00     0.028 C 
BRANCH  25  26
HETATM   26  C17 UNL     1       6.820   0.992  -0.834  1.00  0.00    -0.022 C 
HETATM   27  C18 UNL     1       7.804   0.220  -0.328  1.00  0.00    -0.064 C 
HETATM   28  C19 UNL     1       7.832  -0.315   1.079  1.00  0.00     0.045 C 
BRANCH  27  29
HETATM   29  C20 UNL     1       8.972  -0.198  -1.182  1.00  0.00     0.197 C 
BRANCH  29  30
HETATM   30  O3  UNL     1      10.166   0.301  -0.599  1.00  0.00    -0.397 OA
HETATM   31  H29 UNL     1      10.894   0.028  -1.181  1.00  0.00     0.209 HD
ENDBRANCH  29  30
ENDBRANCH  27  29
ENDBRANCH  25  26
ENDBRANCH  24  25
ENDBRANCH  22  24
ENDBRANCH  14  22
BRANCH  20  32
HETATM   32  C27 UNL     1      -4.315   0.479  -0.866  1.00  0.00     0.021 C 
BRANCH  32  33
HETATM   33  C28 UNL     1      -5.261   1.536  -0.299  1.00  0.00     0.112 C 
BRANCH  33  34
HETATM   34  C29 UNL     1      -5.831   2.405  -1.394  1.00  0.00     0.258 C 
HETATM   35  O4  UNL     1      -5.418   2.458  -2.544  1.00  0.00    -0.265 OA
BRANCH  34  36
HETATM   36  O5  UNL     1      -6.865   3.143  -0.897  1.00  0.00    -0.326 OA
HETATM   37  C30 UNL     1      -7.471   4.013  -1.853  1.00  0.00     0.213 C 
ENDBRANCH  34  36
ENDBRANCH  33  34
ENDBRANCH  32  33
ENDBRANCH  20  32
TORSDOF 10
