REMARK  8 active torsions:
REMARK  status: ('A' for Active; 'I' for Inactive)
REMARK    1  A    between atoms: C3_3  and  C5_5 
REMARK       I    between atoms: C5_5  and  N1_7 
REMARK    2  A    between atoms: N1_7  and  C6_8 
REMARK    3  A    between atoms: C7_9  and  O2_10 
REMARK    4  A    between atoms: O2_10  and  C8_11 
REMARK    5  A    between atoms: C22_27  and  C23_28 
REMARK    6  A    between atoms: C23_28  and  N2_30 
REMARK    7  A    between atoms: C29_35  and  O5_36 
REMARK    8  A    between atoms: O5_36  and  C30_37 
ROOT
HETATM    1  C6  UNL     1      -3.222  -0.458   0.991  1.00  0.00     0.144 C 
HETATM    2  C7  UNL     1      -2.692   0.725   0.144  1.00  0.00     0.162 C 
HETATM    3  C10 UNL     1      -1.177   0.902   0.384  1.00  0.00     0.026 C 
HETATM    4  C11 UNL     1      -0.608   2.138  -0.327  1.00  0.00     0.008 C 
HETATM    5  C12 UNL     1       0.819   2.430   0.137  1.00  0.00     0.006 C 
HETATM    6  C13 UNL     1       1.745   1.218  -0.024  1.00  0.00    -0.005 C 
HETATM    7  C14 UNL     1       1.140  -0.055   0.660  1.00  0.00    -0.001 C 
HETATM    8  C15 UNL     1       2.122  -1.262   0.655  1.00  0.00     0.007 C 
HETATM    9  C16 UNL     1       3.553  -0.916   1.121  1.00  0.00     0.013 C 
HETATM   10  C17 UNL     1       4.114   0.289   0.363  1.00  0.00    -0.004 C 
HETATM   11  C18 UNL     1       4.303  -0.059  -1.136  1.00  0.00     0.019 C 
HETATM   12  C19 UNL     1       3.117   1.470   0.598  1.00  0.00     0.004 C 
HETATM   13  C20 UNL     1       3.937   2.719   0.236  1.00  0.00     0.041 C 
HETATM   14  C21 UNL     1       5.311   2.366   0.760  1.00  0.00     0.160 A 
HETATM   15  O4  UNL     1       5.325   1.744   2.045  1.00  0.00    -0.366 OA
HETATM   16  C22 UNL     1       5.426   0.865   0.902  1.00  0.00     0.125 A 
HETATM   17  C26 UNL     1      -0.311  -0.378   0.120  1.00  0.00    -0.032 C 
HETATM   18  C27 UNL     1      -0.234  -0.772  -1.377  1.00  0.00     0.016 C 
HETATM   19  C28 UNL     1      -0.928  -1.560   0.929  1.00  0.00     0.044 C 
HETATM   20  C29 UNL     1      -2.445  -1.769   0.759  1.00  0.00     0.158 C 
ENDROOT
BRANCH   1  21
HETATM   21  N1  UNL     1      -4.655  -0.657   0.764  1.00  0.00    -0.347 N 
HETATM   22  C5  UNL     1      -5.594   0.096   1.422  1.00  0.00     0.247 C 
HETATM   23  O1  UNL     1      -5.318   0.838   2.358  1.00  0.00    -0.268 OA
HETATM   24  H8  UNL     1      -4.910  -1.185  -0.058  1.00  0.00     0.163 HD
BRANCH  22  25
HETATM   25  C3  UNL     1      -6.993  -0.049   0.904  1.00  0.00     0.002 C 
HETATM   26  C2  UNL     1      -7.975   0.112   1.813  1.00  0.00    -0.019 C 
HETATM   27  C1  UNL     1      -9.449   0.028   1.584  1.00  0.00     0.036 C 
HETATM   28  C4  UNL     1      -7.192  -0.279  -0.562  1.00  0.00     0.054 C 
ENDBRANCH  22  25
ENDBRANCH   1  21
BRANCH   2  29
HETATM   29  O2  UNL     1      -2.978   0.481  -1.249  1.00  0.00    -0.314 OA
BRANCH  29  30
HETATM   30  C8  UNL     1      -3.486   1.509  -1.977  1.00  0.00     0.255 C 
HETATM   31  C9  UNL     1      -3.745   1.050  -3.379  1.00  0.00     0.126 C 
HETATM   32  O3  UNL     1      -3.705   2.640  -1.573  1.00  0.00    -0.266 OA
ENDBRANCH  29  30
ENDBRANCH   2  29
BRANCH  20  33
HETATM   33  O5  UNL     1      -2.764  -2.288  -0.551  1.00  0.00    -0.314 OA
BRANCH  33  34
HETATM   34  C30 UNL     1      -2.591  -3.625  -0.731  1.00  0.00     0.255 C 
HETATM   35  C31 UNL     1      -2.926  -4.003  -2.142  1.00  0.00     0.126 C 
HETATM   36  O6  UNL     1      -2.185  -4.411   0.111  1.00  0.00    -0.266 OA
ENDBRANCH  33  34
ENDBRANCH  20  33
BRANCH  16  37
HETATM   37  C23 UNL     1       6.735   0.107   0.781  1.00  0.00     0.253 C 
HETATM   38  C24 UNL     1       7.635   0.273   2.011  1.00  0.00     0.046 C 
BRANCH  37  39
HETATM   39  N2  UNL     1       7.409   0.551  -0.450  1.00  0.00     0.086 N 
HETATM   40  C25 UNL     1       8.419  -0.388  -0.914  1.00  0.00     0.307 C 
HETATM   41  H36 UNL     1       7.843   1.459  -0.286  1.00  0.00     0.316 HD
ENDBRANCH  37  39
ENDBRANCH  16  37
TORSDOF 8
