REMARK  6 active torsions:
REMARK  status: ('A' for Active; 'I' for Inactive)
REMARK    1  A    between atoms: O1_1  and  C1_2 
REMARK    2  A    between atoms: C1_2  and  C2_3 
REMARK    3  A    between atoms: C3_9  and  C4_10 
REMARK    4  A    between atoms: C8_14  and  C9_15 
REMARK    5  A    between atoms: C13_19  and  C14_20 
REMARK    6  A    between atoms: C14_20  and  N4_21 
ROOT
HETATM    1  C4  UNL     1       5.912   0.358  -0.213  1.00  0.00    -0.004 A 
HETATM    2  C5  UNL     1       4.863   0.243   0.706  1.00  0.00     0.015 A 
HETATM    3  C6  UNL     1       3.533   0.506   0.336  1.00  0.00     0.017 A 
HETATM    4  C7  UNL     1       3.247   0.900  -0.985  1.00  0.00     0.022 A 
HETATM    5  C8  UNL     1       2.102   1.249  -1.751  1.00  0.00     0.087 A 
HETATM    6  N6  UNL     1       2.412   1.563  -3.017  1.00  0.00    -0.297 N 
ATOM      7  H6  UNL     1       1.784   1.846  -3.769  1.00  0.00     0.187 HD
HETATM    8  N7  UNL     1       3.745   1.416  -3.060  1.00  0.00    -0.299 N 
HETATM    9  C23 UNL     1       4.307   1.020  -1.878  1.00  0.00     0.061 A 
HETATM   10  C24 UNL     1       5.640   0.763  -1.531  1.00  0.00     0.045 A 
HETATM   11  H24 UNL     1       4.222   1.603  -3.934  1.00  0.00     0.187 HD
ENDROOT
BRANCH   5  12
HETATM   12  C9  UNL     1       0.611   1.307  -1.313  1.00  0.00     0.062 A 
HETATM   13  C10 UNL     1       0.033   1.038  -0.095  1.00  0.00     0.045 A 
HETATM   14  C11 UNL     1      -1.371   1.244  -0.230  1.00  0.00    -0.007 A 
HETATM   15  C12 UNL     1      -2.466   1.132   0.649  1.00  0.00     0.022 A 
HETATM   16  C22 UNL     1      -1.608   1.639  -1.546  1.00  0.00     0.043 A 
HETATM   17  C13 UNL     1      -3.769   1.409   0.193  1.00  0.00    -0.029 A 
HETATM   18  C20 UNL     1      -3.957   1.810  -1.137  1.00  0.00     0.011 A 
HETATM   19  C21 UNL     1      -2.886   1.931  -2.030  1.00  0.00     0.031 A 
HETATM   20  N5  UNL     1      -0.388   1.668  -2.179  1.00  0.00    -0.354 N 
HETATM   21  H23 UNL     1      -0.222   1.917  -3.144  1.00  0.00     0.166 HD
BRANCH  17  22
HETATM   22  C14 UNL     1      -4.949   1.291   1.138  1.00  0.00     0.311 C 
BRANCH  22  23
HETATM   23  N4  UNL     1      -5.683   0.021   1.128  1.00  0.00     0.092 N 
HETATM   24  C15 UNL     1      -4.937  -1.109   1.689  1.00  0.00     0.272 C 
HETATM   25  C16 UNL     1      -5.533  -2.478   1.326  1.00  0.00     0.030 C 
HETATM   26  C17 UNL     1      -7.043  -2.403   1.154  1.00  0.00     0.003 C 
HETATM   27  C18 UNL     1      -7.426  -1.361   0.100  1.00  0.00     0.030 C 
HETATM   28  C19 UNL     1      -6.341  -0.301  -0.131  1.00  0.00     0.272 C 
ENDBRANCH  22  23
ENDBRANCH  17  22
ENDBRANCH   5  12
BRANCH   1  29
HETATM   29  C3  UNL     1       7.296   0.090   0.179  1.00  0.00     0.086 A 
HETATM   30  C2  UNL     1       7.845  -0.924   1.022  1.00  0.00     0.079 A 
HETATM   31  N1  UNL     1       9.176  -0.760   1.112  1.00  0.00    -0.286 N 
HETATM   32  N2  UNL     1       9.371   0.294   0.311  1.00  0.00    -0.242 N 
ATOM     33  H1  UNL     1       9.857  -1.297   1.649  1.00  0.00     0.188 HD
HETATM   34  N3  UNL     1       8.308   0.852  -0.277  1.00  0.00    -0.284 N 
HETATM   35  H4  UNL     1      10.305   0.664   0.154  1.00  0.00     0.208 HD
ATOM     36  H3  UNL     1       8.273   1.651  -0.910  1.00  0.00     0.188 HD
BRANCH  30  37
HETATM   37  C1  UNL     1       7.175  -2.039   1.745  1.00  0.00     0.225 C 
BRANCH  37  38
HETATM   38  O1  UNL     1       6.275  -2.770   0.915  1.00  0.00    -0.395 OA
HETATM   39  H1  UNL     1       6.018  -3.563   1.413  1.00  0.00     0.209 HD
ENDBRANCH  37  38
ENDBRANCH  30  37
ENDBRANCH   1  29
TORSDOF 6
