REMARK  12 active torsions:
REMARK  status: ('A' for Active; 'I' for Inactive)
REMARK    1  A    between atoms: C2_2  and  O1_3 
REMARK    2  A    between atoms: O1_3  and  C3_4 
REMARK    3  A    between atoms: C3_4  and  C4_6 
REMARK    4  A    between atoms: C6_8  and  N1_9 
REMARK       I    between atoms: N1_9  and  C7_10 
REMARK    5  A    between atoms: C7_10  and  C8_12 
REMARK    6  A    between atoms: C14_19  and  O4_20 
REMARK    7  A    between atoms: O4_20  and  C15_21 
REMARK    8  A    between atoms: C15_21  and  C16_22 
REMARK    9  A    between atoms: C16_22  and  O5_23 
REMARK   10  A    between atoms: C16_22  and  C17_24 
REMARK   11  A    between atoms: C17_24  and  N2_25 
REMARK   12  A    between atoms: N2_25  and  C18_26 
ROOT
HETATM    1  C4  UNL     1       1.573  -0.213   0.956  1.00  0.00     0.074 A 
HETATM    2  C5  UNL     1       2.854  -0.716   0.677  1.00  0.00     0.050 A 
HETATM    3  C6  UNL     1       3.301  -0.791  -0.638  1.00  0.00     0.036 A 
HETATM    4  C12 UNL     1       2.444  -0.363  -1.659  1.00  0.00     0.032 A 
HETATM    5  C13 UNL     1       1.164   0.138  -1.374  1.00  0.00     0.040 A 
HETATM    6  C14 UNL     1       0.710   0.218  -0.060  1.00  0.00     0.085 A 
ENDROOT
BRANCH   6   7
HETATM    7  O4  UNL     1      -0.508   0.689   0.332  1.00  0.00    -0.348 OA
BRANCH   7   8
HETATM    8  C15 UNL     1      -1.438   1.220  -0.625  1.00  0.00     0.209 C 
BRANCH   8   9
HETATM    9  C16 UNL     1      -2.411   0.128  -1.096  1.00  0.00     0.170 C 
BRANCH   9  10
HETATM   10  O5  UNL     1      -1.739  -0.771  -1.999  1.00  0.00    -0.392 OA
HETATM   11  H16 UNL     1      -1.622  -1.611  -1.502  1.00  0.00     0.210 HD
ENDBRANCH   9  10
BRANCH   9  12
HETATM   12  C17 UNL     1      -3.629   0.705  -1.853  1.00  0.00     0.304 C 
BRANCH  12  13
HETATM   13  N2  UNL     1      -4.446   1.649  -1.083  1.00  0.00     0.094 N 
HETATM   14  H19 UNL     1      -4.752   2.394  -1.713  1.00  0.00     0.317 HD
BRANCH  13  15
HETATM   15  C18 UNL     1      -5.645   1.101  -0.409  1.00  0.00     0.147 C 
HETATM   16  C19 UNL     1      -6.737   0.745  -1.437  1.00  0.00     0.048 C 
HETATM   17  C20 UNL     1      -6.174   2.238   0.491  1.00  0.00     0.048 C 
HETATM   18  C21 UNL     1      -5.346  -0.119   0.479  1.00  0.00     0.048 C 
ENDBRANCH  13  15
ENDBRANCH  12  13
ENDBRANCH   9  12
ENDBRANCH   8   9
ENDBRANCH   7   8
ENDBRANCH   6   7
BRANCH   1  19
HETATM   19  C3  UNL     1       1.145  -0.171   2.365  1.00  0.00     0.296 C 
HETATM   20  O2  UNL     1       0.274  -0.874   2.850  1.00  0.00    -0.259 OA
BRANCH  19  21
HETATM   21  O1  UNL     1       1.906   0.761   2.990  1.00  0.00    -0.318 OA
BRANCH  21  22
HETATM   22  C2  UNL     1       1.662   0.927   4.392  1.00  0.00     0.174 C 
HETATM   23  C1  UNL     1       0.526   1.908   4.618  1.00  0.00     0.034 C 
ENDBRANCH  21  22
ENDBRANCH  19  21
ENDBRANCH   1  19
BRANCH   3  24
HETATM   24  N1  UNL     1       4.563  -1.288  -1.025  1.00  0.00    -0.322 N 
HETATM   25  C7  UNL     1       5.602  -1.708  -0.199  1.00  0.00     0.263 C 
HETATM   26  O3  UNL     1       5.568  -1.645   1.027  1.00  0.00    -0.267 OA
HETATM   27  H7  UNL     1       4.753  -1.279  -2.017  1.00  0.00     0.169 HD
BRANCH  25  28
HETATM   28  C8  UNL     1       6.765  -2.217  -0.930  1.00  0.00     0.072 A 
HETATM   29  C9  UNL     1       6.868  -2.722  -2.218  1.00  0.00     0.025 A 
HETATM   30  C10 UNL     1       8.203  -3.107  -2.552  1.00  0.00     0.009 A 
HETATM   31  C11 UNL     1       9.076  -2.898  -1.510  1.00  0.00     0.050 A 
HETATM   32  S1  UNL     1       8.291  -2.252  -0.137  1.00  0.00    -0.097 SA
ENDBRANCH  25  28
ENDBRANCH   3  24
TORSDOF 12
