REMARK  10 active torsions:
REMARK  status: ('A' for Active; 'I' for Inactive)
REMARK    1  A    between atoms: O1_2  and  C2_3 
REMARK    2  A    between atoms: C2_3  and  C3_4 
REMARK    3  A    between atoms: C2_3  and  C26_35 
REMARK    4  A    between atoms: C3_4  and  C4_5 
REMARK    5  A    between atoms: C4_5  and  C5_6 
REMARK    6  A    between atoms: C5_6  and  C7_8 
REMARK    7  A    between atoms: C13_17  and  C14_18 
REMARK    8  A    between atoms: C14_18  and  O5_19 
REMARK    9  A    between atoms: C17_24  and  O8_25 
REMARK   10  A    between atoms: C30_39  and  O10_40 
ROOT
HETATM    1  C7  UNL     1       0.422  -0.133   1.129  1.00  0.00     0.135 C 
HETATM    2  O2  UNL     1      -0.307  -1.346   0.920  1.00  0.00    -0.348 OA
HETATM    3  C8  UNL     1      -1.747  -1.234   0.922  1.00  0.00     0.177 C 
HETATM    4  C9  UNL     1      -2.192  -0.624   2.266  1.00  0.00     0.102 C 
HETATM    5  C10 UNL     1      -1.412   0.641   2.643  1.00  0.00     0.143 C 
HETATM    6  O3  UNL     1      -1.757   1.719   1.748  1.00  0.00    -0.315 OA
HETATM    7  C11 UNL     1      -2.596   2.687   2.197  1.00  0.00     0.261 C 
HETATM    8  O4  UNL     1      -3.102   2.744   3.309  1.00  0.00    -0.265 OA
HETATM    9  C12 UNL     1      -2.848   3.695   1.108  1.00  0.00     0.145 C 
HETATM   10  C13 UNL     1      -4.106   3.354   0.315  1.00  0.00     0.164 C 
HETATM   11  O6  UNL     1      -3.995   2.045  -0.293  1.00  0.00    -0.313 OA
HETATM   12  C15 UNL     1      -3.251   1.941  -1.429  1.00  0.00     0.264 C 
HETATM   13  O7  UNL     1      -2.703   2.887  -1.987  1.00  0.00    -0.265 OA
HETATM   14  C16 UNL     1      -3.287   0.540  -1.995  1.00  0.00     0.179 C 
HETATM   15  C17 UNL     1      -3.212  -0.574  -0.931  1.00  0.00     0.177 C 
HETATM   16  O9  UNL     1      -2.070  -0.329  -0.138  1.00  0.00    -0.318 OA
HETATM   17  C18 UNL     1      -3.075  -1.948  -1.642  1.00  0.00     0.045 C 
HETATM   18  C19 UNL     1      -4.413  -2.512  -2.136  1.00  0.00     0.015 C 
HETATM   19  C20 UNL     1      -2.306  -2.994  -0.811  1.00  0.00     0.024 C 
HETATM   20  C21 UNL     1      -2.270  -2.717   0.704  1.00  0.00     0.010 C 
HETATM   21  C22 UNL     1      -1.298  -3.754   1.342  1.00  0.00     0.020 C 
HETATM   22  C23 UNL     1      -3.639  -3.042   1.342  1.00  0.00     0.020 C 
HETATM   23  C24 UNL     1       0.103   0.392   2.540  1.00  0.00     0.041 C 
HETATM   24  C25 UNL     1       0.889   1.654   2.896  1.00  0.00     0.015 C 
ENDROOT
BRANCH   1  25
HETATM   25  C5  UNL     1       1.923  -0.434   0.849  1.00  0.00     0.011 C 
HETATM   26  C6  UNL     1       2.502  -1.465   1.828  1.00  0.00     0.012 C 
BRANCH  25  27
HETATM   27  C4  UNL     1       2.085  -0.915  -0.617  1.00  0.00     0.009 C 
BRANCH  27  28
HETATM   28  C3  UNL     1       3.528  -1.080  -1.123  1.00  0.00     0.037 C 
BRANCH  28  29
HETATM   29  C2  UNL     1       4.313   0.243  -1.211  1.00  0.00     0.153 C 
BRANCH  29  30
HETATM   30  O1  UNL     1       3.747   1.031  -2.268  1.00  0.00    -0.386 OA
HETATM   31  C1  UNL     1       3.498   2.375  -1.880  1.00  0.00     0.202 C 
ENDBRANCH  29  30
BRANCH  29  32
HETATM   32  C26 UNL     1       5.790   0.044  -1.510  1.00  0.00    -0.027 A 
HETATM   33  C27 UNL     1       6.242  -0.882  -2.467  1.00  0.00     0.010 A 
HETATM   34  C28 UNL     1       7.608  -1.049  -2.714  1.00  0.00     0.003 A 
HETATM   35  C29 UNL     1       8.542  -0.283  -2.020  1.00  0.00     0.036 A 
HETATM   36  C30 UNL     1       8.104   0.654  -1.093  1.00  0.00     0.066 A 
HETATM   37  C31 UNL     1       6.744   0.824  -0.832  1.00  0.00     0.046 A 
BRANCH  36  38
HETATM   38  O10 UNL     1       9.048   1.399  -0.448  1.00  0.00    -0.361 OA
HETATM   39  H45 UNL     1       8.596   2.074   0.084  1.00  0.00     0.217 HD
ENDBRANCH  36  38
ENDBRANCH  29  32
ENDBRANCH  28  29
ENDBRANCH  27  28
ENDBRANCH  25  27
ENDBRANCH   1  25
BRANCH  15  40
HETATM   40  O8  UNL     1      -4.392  -0.556  -0.147  1.00  0.00    -0.364 OA
HETATM   41  H25 UNL     1      -4.623   0.378   0.030  1.00  0.00     0.213 HD
ENDBRANCH  15  40
BRANCH  10  42
HETATM   42  C14 UNL     1      -5.370   3.343   1.189  1.00  0.00     0.197 C 
BRANCH  42  43
HETATM   43  O5  UNL     1      -6.536   3.222   0.369  1.00  0.00    -0.398 OA
HETATM   44  H22 UNL     1      -6.649   4.060  -0.114  1.00  0.00     0.209 HD
ENDBRANCH  42  43
ENDBRANCH  10  42
TORSDOF 10
