REMARK  6 active torsions:
REMARK  status: ('A' for Active; 'I' for Inactive)
REMARK    1  A    between atoms: C2_2  and  O2_4 
REMARK    2  A    between atoms: O2_4  and  C3_5 
REMARK    3  A    between atoms: C13_15  and  C14_16 
REMARK    4  A    between atoms: C14_16  and  C16_18 
REMARK    5  A    between atoms: C16_18  and  C17_19 
REMARK    6  A    between atoms: C17_19  and  C18_20 
ROOT
HETATM    1  C3  UNL     1       4.856   0.420  -2.075  1.00  0.00     0.132 C 
HETATM    2  C4  UNL     1       3.643   1.308  -2.371  1.00  0.00     0.033 C 
HETATM    3  C5  UNL     1       2.370   0.773  -1.717  1.00  0.00     0.013 C 
HETATM    4  C6  UNL     1       2.584   0.579  -0.224  1.00  0.00    -0.028 A 
HETATM    5  C7  UNL     1       2.363   1.777   0.664  1.00  0.00     0.021 A 
HETATM    6  C8  UNL     1       1.395   0.603   0.754  1.00  0.00    -0.027 A 
HETATM    7  C9  UNL     1      -0.003   0.901   0.243  1.00  0.00     0.011 C 
HETATM    8  C10 UNL     1      -0.922   1.222   1.408  1.00  0.00     0.011 C 
HETATM    9  C11 UNL     1      -1.157   0.051   2.388  1.00  0.00    -0.032 C 
HETATM   10  C12 UNL     1      -1.402   0.704   3.771  1.00  0.00     0.016 C 
HETATM   11  C13 UNL     1      -2.335  -0.917   2.011  1.00  0.00    -0.002 C 
HETATM   12  C22 UNL     1      -1.728  -1.905   1.009  1.00  0.00     0.006 C 
HETATM   13  C23 UNL     1      -0.254  -2.042   1.367  1.00  0.00     0.011 C 
HETATM   14  C24 UNL     1       0.090  -0.941   2.412  1.00  0.00    -0.032 C 
HETATM   15  C25 UNL     1       0.223  -1.658   3.788  1.00  0.00     0.016 C 
HETATM   16  C26 UNL     1       1.451  -0.217   2.071  1.00  0.00     0.004 C 
HETATM   17  C27 UNL     1       2.645  -1.202   2.118  1.00  0.00     0.006 C 
HETATM   18  C28 UNL     1       3.939  -0.645   1.542  1.00  0.00     0.006 C 
HETATM   19  C29 UNL     1       3.755  -0.352   0.056  1.00  0.00    -0.003 C 
HETATM   20  C30 UNL     1       5.034   0.223  -0.563  1.00  0.00     0.038 C 
ENDROOT
BRANCH  11  21
HETATM   21  C14 UNL     1      -3.768  -0.443   1.603  1.00  0.00    -0.014 C 
HETATM   22  C15 UNL     1      -4.407   0.458   2.665  1.00  0.00     0.010 C 
BRANCH  21  23
HETATM   23  C16 UNL     1      -3.951   0.159   0.189  1.00  0.00     0.008 C 
BRANCH  23  24
HETATM   24  C17 UNL     1      -5.419   0.171  -0.267  1.00  0.00     0.028 C 
BRANCH  24  25
HETATM   25  C18 UNL     1      -5.545   0.675  -1.680  1.00  0.00    -0.025 C 
HETATM   26  C19 UNL     1      -5.801  -0.046  -2.789  1.00  0.00    -0.091 C 
HETATM   27  C20 UNL     1      -5.959  -1.542  -2.827  1.00  0.00     0.042 C 
HETATM   28  C21 UNL     1      -5.944   0.629  -4.128  1.00  0.00     0.042 C 
ENDBRANCH  24  25
ENDBRANCH  23  24
ENDBRANCH  21  23
ENDBRANCH  11  21
BRANCH   1  29
HETATM   29  O2  UNL     1       6.011   1.077  -2.632  1.00  0.00    -0.316 OA
BRANCH  29  30
HETATM   30  C2  UNL     1       7.085   0.284  -2.895  1.00  0.00     0.255 C 
HETATM   31  C1  UNL     1       8.186   1.102  -3.497  1.00  0.00     0.126 C 
HETATM   32  O1  UNL     1       7.153  -0.918  -2.689  1.00  0.00    -0.266 OA
ENDBRANCH  29  30
ENDBRANCH   1  29
TORSDOF 6
