REMARK  8 active torsions:
REMARK  status: ('A' for Active; 'I' for Inactive)
REMARK    1  A    between atoms: C3_3  and  C4_4 
REMARK    2  A    between atoms: C4_4  and  O1_5 
REMARK    3  A    between atoms: C6_9  and  C7_10 
REMARK    4  A    between atoms: C7_10  and  O4_12 
REMARK    5  A    between atoms: C7_10  and  C9_13 
REMARK    6  A    between atoms: C12_16  and  O5_17 
REMARK    7  A    between atoms: C15_20  and  O6_21 
REMARK    8  A    between atoms: C16_22  and  O7_23 
ROOT
HETATM    1  C9  UNL     1       1.629  -0.158  -0.042  1.00  0.00     0.033 C 
HETATM    2  C10 UNL     1       1.571  -1.096  -1.292  1.00  0.00     0.011 C 
HETATM    3  C11 UNL     1       0.089  -1.350  -1.624  1.00  0.00     0.039 C 
HETATM    4  C12 UNL     1      -0.653  -0.329  -0.771  1.00  0.00     0.070 C 
HETATM    5  C13 UNL     1      -2.157  -0.568  -0.524  1.00  0.00     0.028 C 
HETATM    6  C14 UNL     1      -2.940  -0.671  -1.843  1.00  0.00     0.043 C 
HETATM    7  C15 UNL     1      -4.433  -0.902  -1.616  1.00  0.00     0.154 C 
HETATM    8  C16 UNL     1      -5.037   0.193  -0.698  1.00  0.00     0.098 C 
HETATM    9  C17 UNL     1      -6.560  -0.008  -0.540  1.00  0.00     0.042 C 
HETATM   10  C18 UNL     1      -7.186   0.854   0.559  1.00  0.00     0.010 C 
HETATM   11  C19 UNL     1      -6.302   2.002   1.007  1.00  0.00     0.079 C 
HETATM   12  C20 UNL     1      -4.930   1.513   1.436  1.00  0.00     0.138 C 
HETATM   13  O8  UNL     1      -4.381   2.064   2.393  1.00  0.00    -0.297 OA
HETATM   14  C21 UNL     1      -4.295   0.313   0.684  1.00  0.00     0.054 C 
HETATM   15  C22 UNL     1      -4.515  -0.908   1.607  1.00  0.00     0.027 C 
HETATM   16  C23 UNL     1      -2.751   0.547   0.410  1.00  0.00     0.011 C 
HETATM   17  C24 UNL     1      -1.867   0.718   1.679  1.00  0.00     0.007 C 
HETATM   18  C25 UNL     1      -0.350   0.835   1.414  1.00  0.00     0.013 C 
HETATM   19  C26 UNL     1       0.182  -0.323   0.550  1.00  0.00    -0.006 C 
HETATM   20  C27 UNL     1       0.066  -1.645   1.357  1.00  0.00     0.019 C 
ENDROOT
BRANCH   1  21
HETATM   21  C7  UNL     1       2.917  -0.366   0.839  1.00  0.00     0.085 C 
HETATM   22  C8  UNL     1       2.840   0.454   2.135  1.00  0.00     0.049 C 
BRANCH  21  23
HETATM   23  C6  UNL     1       4.209   0.040   0.021  1.00  0.00     0.170 C 
HETATM   24  O3  UNL     1       4.386  -0.870  -1.086  1.00  0.00    -0.309 OA
HETATM   25  C5  UNL     1       5.456  -0.754  -1.908  1.00  0.00     0.292 C 
HETATM   26  C3  UNL     1       6.613   0.037  -1.399  1.00  0.00     0.042 C 
HETATM   27  O2  UNL     1       5.485  -1.324  -2.991  1.00  0.00    -0.260 OA
HETATM   28  C2  UNL     1       6.677   0.356  -0.087  1.00  0.00    -0.067 C 
HETATM   29  C1  UNL     1       7.847   1.021   0.586  1.00  0.00     0.044 C 
HETATM   30  C28 UNL     1       5.513   0.054   0.824  1.00  0.00     0.070 C 
BRANCH  26  31
HETATM   31  C4  UNL     1       7.693   0.302  -2.410  1.00  0.00     0.209 C 
BRANCH  31  32
HETATM   32  O1  UNL     1       7.686   1.679  -2.780  1.00  0.00    -0.396 OA
HETATM   33  H6  UNL     1       7.706   2.207  -1.965  1.00  0.00     0.209 HD
ENDBRANCH  31  32
ENDBRANCH  26  31
ENDBRANCH  21  23
BRANCH  21  34
HETATM   34  O4  UNL     1       2.992  -1.744   1.227  1.00  0.00    -0.387 OA
HETATM   35  H11 UNL     1       3.817  -1.901   1.715  1.00  0.00     0.210 HD
ENDBRANCH  21  34
ENDBRANCH   1  21
BRANCH   4  36
HETATM   36  O5  UNL     1      -0.500   0.912  -1.494  1.00  0.00    -0.389 OA
HETATM   37  H17 UNL     1      -0.892   1.638  -0.985  1.00  0.00     0.210 HD
ENDBRANCH   4  36
BRANCH   7  38
HETATM   38  O6  UNL     1      -4.625  -2.214  -1.098  1.00  0.00    -0.392 OA
HETATM   39  H22 UNL     1      -5.460  -2.563  -1.456  1.00  0.00     0.210 HD
ENDBRANCH   7  38
BRANCH   8  40
HETATM   40  O7  UNL     1      -4.861   1.450  -1.397  1.00  0.00    -0.386 OA
HETATM   41  H23 UNL     1      -5.242   1.372  -2.290  1.00  0.00     0.210 HD
ENDBRANCH   8  40
TORSDOF 8
