REMARK  9 active torsions:
REMARK  status: ('A' for Active; 'I' for Inactive)
REMARK    1  A    between atoms: C12_14  and  C13_15 
REMARK    2  A    between atoms: C13_15  and  C15_17 
REMARK    3  A    between atoms: C15_17  and  C16_18 
REMARK    4  A    between atoms: C16_18  and  C17_19 
REMARK    5  A    between atoms: C18_20  and  C20_22 
REMARK    6  A    between atoms: C26_29  and  C27_30 
REMARK    7  A    between atoms: C27_30  and  C28_31 
REMARK    8  A    between atoms: C28_31  and  C29_32 
REMARK    9  A    between atoms: C29_32  and  O5_34 
ROOT
HETATM    1  C1  UNL     1      -6.626  -0.908  -1.139  1.00  0.00     0.025 C 
HETATM    2  C2  UNL     1      -5.435  -0.342  -1.370  1.00  0.00     0.015 C 
HETATM    3  C3  UNL     1      -4.671  -0.685  -2.589  1.00  0.00     0.289 C 
HETATM    4  O1  UNL     1      -4.854  -1.645  -3.316  1.00  0.00    -0.260 OA
HETATM    5  O2  UNL     1      -3.719   0.266  -2.760  1.00  0.00    -0.311 OA
HETATM    6  C4  UNL     1      -3.880   1.306  -1.784  1.00  0.00     0.142 C 
HETATM    7  C5  UNL     1      -2.511   1.833  -1.388  1.00  0.00     0.039 C 
HETATM    8  C6  UNL     1      -1.663   0.727  -0.742  1.00  0.00     0.006 C 
HETATM    9  C7  UNL     1      -2.327   0.260   0.571  1.00  0.00    -0.027 A 
HETATM   10  C8  UNL     1      -1.503   0.472   1.847  1.00  0.00     0.011 C 
HETATM   11  C9  UNL     1       0.003   0.154   1.758  1.00  0.00     0.011 C 
HETATM   12  C10 UNL     1       0.559   0.053   0.330  1.00  0.00    -0.032 C 
HETATM   13  C11 UNL     1       0.358  -1.410  -0.169  1.00  0.00     0.016 C 
HETATM   14  C12 UNL     1       2.061   0.447   0.135  1.00  0.00    -0.002 C 
HETATM   15  C21 UNL     1       2.111   0.844  -1.370  1.00  0.00     0.006 C 
HETATM   16  C22 UNL     1       0.666   1.079  -1.842  1.00  0.00     0.011 C 
HETATM   17  C23 UNL     1      -0.171   1.131  -0.550  1.00  0.00    -0.032 C 
HETATM   18  C24 UNL     1      -0.049   2.596  -0.016  1.00  0.00     0.016 C 
HETATM   19  C25 UNL     1      -3.155  -1.010   0.562  1.00  0.00     0.022 A 
HETATM   20  C26 UNL     1      -3.895   0.307   0.621  1.00  0.00    -0.021 A 
HETATM   21  C30 UNL     1      -4.705   0.736  -0.631  1.00  0.00     0.063 C 
ENDROOT
BRANCH  14  22
HETATM   22  C13 UNL     1       3.193  -0.556   0.520  1.00  0.00    -0.014 C 
HETATM   23  C14 UNL     1       3.123  -0.955   1.999  1.00  0.00     0.010 C 
BRANCH  22  24
HETATM   24  C15 UNL     1       4.584   0.058   0.198  1.00  0.00     0.008 C 
BRANCH  24  25
HETATM   25  C16 UNL     1       5.762  -0.899   0.421  1.00  0.00     0.028 C 
BRANCH  25  26
HETATM   26  C17 UNL     1       7.047  -0.282  -0.066  1.00  0.00    -0.017 C 
HETATM   27  C18 UNL     1       7.822  -0.710  -1.080  1.00  0.00    -0.028 C 
HETATM   28  C19 UNL     1       7.606  -1.905  -1.955  1.00  0.00     0.051 C 
BRANCH  27  29
HETATM   29  C20 UNL     1       9.044   0.093  -1.379  1.00  0.00     0.265 C 
HETATM   30  O3  UNL     1       9.817  -0.187  -2.287  1.00  0.00    -0.302 OA
ENDBRANCH  27  29
ENDBRANCH  25  26
ENDBRANCH  24  25
ENDBRANCH  22  24
ENDBRANCH  14  22
BRANCH  20  31
HETATM   31  C27 UNL     1      -4.510   0.781   1.948  1.00  0.00     0.021 C 
BRANCH  31  32
HETATM   32  C28 UNL     1      -5.910   0.270   2.263  1.00  0.00     0.111 C 
BRANCH  32  33
HETATM   33  C29 UNL     1      -5.933  -1.196   2.597  1.00  0.00     0.139 C 
HETATM   34  O4  UNL     1      -5.086  -1.825   3.207  1.00  0.00    -0.650 OA
BRANCH  33  35
HETATM   35  O5  UNL     1      -7.076  -1.790   2.198  1.00  0.00    -0.776 OA
HETATM   36  H41 UNL     1      -6.974  -2.724   2.484  1.00  0.00     0.167 HD
ENDBRANCH  33  35
ENDBRANCH  32  33
ENDBRANCH  31  32
ENDBRANCH  20  31
TORSDOF 9
