REMARK  10 active torsions:
REMARK  status: ('A' for Active; 'I' for Inactive)
REMARK    1  A    between atoms: C19_21  and  O3_22 
REMARK    2  A    between atoms: C19_21  and  C20_23 
REMARK    3  A    between atoms: C20_23  and  C21_25 
REMARK    4  A    between atoms: C21_25  and  O5_26 
REMARK    5  A    between atoms: O5_26  and  C22_27 
REMARK    6  A    between atoms: C22_27  and  C23_29 
REMARK    7  A    between atoms: C23_29  and  C24_30 
REMARK    8  A    between atoms: C24_30  and  C25_31 
REMARK       I    between atoms: C25_31  and  N1_33 
REMARK    9  A    between atoms: N1_33  and  C26_34 
REMARK   10  A    between atoms: C26_34  and  C27_35 
ROOT
HETATM    1  C1  UNL     1      -6.230   0.226  -1.359  1.00  0.00     0.021 C 
HETATM    2  C2  UNL     1      -5.933   0.284   0.156  1.00  0.00    -0.009 C 
HETATM    3  C3  UNL     1      -6.750  -0.818   0.897  1.00  0.00     0.022 C 
HETATM    4  C4  UNL     1      -8.243  -0.532   0.972  1.00  0.00     0.084 C 
HETATM    5  C5  UNL     1      -8.489   0.811   1.605  1.00  0.00     0.149 C 
HETATM    6  O1  UNL     1      -9.503   1.060   2.253  1.00  0.00    -0.293 OA
HETATM    7  C6  UNL     1      -7.507   1.890   1.352  1.00  0.00     0.053 C 
HETATM    8  C7  UNL     1      -6.374   1.672   0.660  1.00  0.00    -0.067 C 
HETATM    9  C8  UNL     1      -5.483   2.840   0.312  1.00  0.00     0.035 C 
HETATM   10  C9  UNL     1      -4.030   2.578   0.680  1.00  0.00     0.010 C 
HETATM   11  C10 UNL     1      -3.520   1.282   0.036  1.00  0.00     0.003 C 
HETATM   12  C11 UNL     1      -4.408   0.081   0.480  1.00  0.00     0.072 C 
HETATM   13  C12 UNL     1      -3.790  -1.240  -0.025  1.00  0.00     0.133 C 
HETATM   14  O2  UNL     1      -4.435  -2.112  -0.604  1.00  0.00    -0.297 OA
HETATM   15  C13 UNL     1      -2.315  -1.469   0.285  1.00  0.00     0.091 C 
HETATM   16  C14 UNL     1      -1.490  -0.281  -0.226  1.00  0.00     0.005 C 
HETATM   17  C15 UNL     1      -1.545  -0.257  -1.777  1.00  0.00     0.019 C 
HETATM   18  C16 UNL     1      -2.064   1.000   0.431  1.00  0.00     0.002 C 
HETATM   19  C17 UNL     1      -1.012   2.063   0.131  1.00  0.00     0.009 C 
HETATM   20  C18 UNL     1       0.329   1.299   0.119  1.00  0.00     0.047 C 
HETATM   21  C19 UNL     1      -0.019  -0.198   0.274  1.00  0.00     0.128 C 
ENDROOT
BRANCH  21  22
HETATM   22  O3  UNL     1       0.017  -0.489   1.684  1.00  0.00    -0.381 OA
HETATM   23  H25 UNL     1       0.132  -1.458   1.769  1.00  0.00     0.211 HD
ENDBRANCH  21  22
BRANCH  21  24
HETATM   24  C20 UNL     1       0.931  -1.214  -0.386  1.00  0.00     0.185 C 
HETATM   25  O4  UNL     1       0.852  -2.404  -0.055  1.00  0.00    -0.292 OA
BRANCH  24  26
HETATM   26  C21 UNL     1       1.930  -0.731  -1.432  1.00  0.00     0.260 C 
BRANCH  26  27
HETATM   27  O5  UNL     1       2.780  -1.778  -1.900  1.00  0.00    -0.314 OA
BRANCH  27  28
HETATM   28  C22 UNL     1       3.800  -2.082  -1.049  1.00  0.00     0.259 C 
HETATM   29  O6  UNL     1       4.008  -1.524   0.020  1.00  0.00    -0.265 OA
BRANCH  28  30
HETATM   30  C23 UNL     1       4.617  -3.226  -1.598  1.00  0.00     0.120 C 
BRANCH  30  31
HETATM   31  C24 UNL     1       6.017  -3.225  -0.994  1.00  0.00     0.112 C 
BRANCH  31  32
HETATM   32  C25 UNL     1       6.804  -2.002  -1.426  1.00  0.00     0.218 C 
HETATM   33  O7  UNL     1       6.464  -1.284  -2.361  1.00  0.00    -0.274 OA
HETATM   34  N1  UNL     1       7.949  -1.803  -0.688  1.00  0.00    -0.357 N 
HETATM   35  H32 UNL     1       8.059  -2.313   0.178  1.00  0.00     0.162 HD
BRANCH  34  36
HETATM   36  C26 UNL     1       8.774  -0.630  -0.873  1.00  0.00     0.161 C 
BRANCH  36  37
HETATM   37  C27 UNL     1       8.442   0.434   0.139  1.00  0.00    -0.038 A 
HETATM   38  C28 UNL     1       9.292   0.699   1.217  1.00  0.00     0.025 A 
HETATM   39  C29 UNL     1       8.931   1.686   2.121  1.00  0.00     0.088 A 
HETATM   40  N2  UNL     1       7.797   2.413   2.030  1.00  0.00    -0.375 N 
HETATM   41  C30 UNL     1       6.985   2.137   0.987  1.00  0.00     0.088 A 
ATOM     42  H2  UNL     1       7.566   3.134   2.714  1.00  0.00     0.164 HD
HETATM   43  C31 UNL     1       7.260   1.174   0.030  1.00  0.00     0.025 A 
ENDBRANCH  36  37
ENDBRANCH  34  36
ENDBRANCH  31  32
ENDBRANCH  30  31
ENDBRANCH  28  30
ENDBRANCH  27  28
ENDBRANCH  26  27
ENDBRANCH  24  26
ENDBRANCH  21  24
TORSDOF 10
