REMARK  9 active torsions:
REMARK  status: ('A' for Active; 'I' for Inactive)
REMARK    1  A    between atoms: C2_2  and  C3_3 
REMARK    2  A    between atoms: C2_2  and  C9_12 
REMARK    3  A    between atoms: C3_3  and  C4_4 
REMARK    4  A    between atoms: C4_4  and  O1_5 
REMARK    5  A    between atoms: C4_4  and  C5_6 
REMARK    6  A    between atoms: C5_6  and  O2_7 
REMARK    7  A    between atoms: C5_6  and  C6_8 
REMARK    8  A    between atoms: C6_8  and  O3_11 
REMARK    9  A    between atoms: C15_18  and  O4_19 
ROOT
HETATM    1  C9  UNL     1       1.452  -0.095   0.118  1.00  0.00    -0.002 C 
HETATM    2  C10 UNL     1       1.330  -1.010   1.376  1.00  0.00     0.006 C 
HETATM    3  C11 UNL     1      -0.118  -0.913   1.893  1.00  0.00     0.011 C 
HETATM    4  C12 UNL     1      -0.896  -0.235   0.758  1.00  0.00    -0.030 C 
HETATM    5  C13 UNL     1      -1.242  -1.356  -0.273  1.00  0.00     0.016 C 
HETATM    6  C14 UNL     1      -2.197   0.521   1.175  1.00  0.00     0.032 C 
HETATM    7  C15 UNL     1      -3.237  -0.336   1.932  1.00  0.00     0.124 C 
HETATM    8  C16 UNL     1      -4.256  -1.107   1.099  1.00  0.00     0.038 C 
HETATM    9  C17 UNL     1      -4.739  -0.496  -0.229  1.00  0.00     0.012 C 
HETATM   10  C18 UNL     1      -6.297  -0.370  -0.381  1.00  0.00     0.018 C 
HETATM   11  C19 UNL     1      -6.946  -1.765  -0.447  1.00  0.00     0.023 C 
HETATM   12  C20 UNL     1      -6.965   0.438   0.745  1.00  0.00     0.023 C 
HETATM   13  C21 UNL     1      -6.608   0.329  -1.720  1.00  0.00     0.135 C 
HETATM   14  O5  UNL     1      -7.714   0.821  -1.963  1.00  0.00    -0.297 OA
HETATM   15  C22 UNL     1      -5.519   0.325  -2.765  1.00  0.00     0.080 C 
HETATM   16  C23 UNL     1      -4.260   1.000  -2.222  1.00  0.00     0.018 C 
HETATM   17  C24 UNL     1      -4.050   0.773  -0.723  1.00  0.00    -0.026 A 
HETATM   18  C25 UNL     1      -4.068   2.012   0.144  1.00  0.00     0.021 A 
HETATM   19  C26 UNL     1      -2.760   1.278  -0.049  1.00  0.00    -0.025 A 
HETATM   20  C27 UNL     1      -1.725   2.101  -0.831  1.00  0.00     0.011 C 
HETATM   21  C28 UNL     1      -0.373   1.410  -1.062  1.00  0.00     0.011 C 
HETATM   22  C29 UNL     1       0.181   0.805   0.239  1.00  0.00    -0.032 C 
HETATM   23  C30 UNL     1       0.491   1.963   1.241  1.00  0.00     0.016 C 
ENDROOT
BRANCH   1  24
HETATM   24  C2  UNL     1       2.872   0.548  -0.001  1.00  0.00    -0.011 C 
HETATM   25  C1  UNL     1       2.978   1.496  -1.200  1.00  0.00     0.010 C 
BRANCH  24  26
HETATM   26  C3  UNL     1       3.952  -0.569  -0.093  1.00  0.00     0.039 C 
BRANCH  26  27
HETATM   27  C4  UNL     1       5.418  -0.087  -0.110  1.00  0.00     0.150 C 
BRANCH  27  28
HETATM   28  O1  UNL     1       5.629   0.861   0.940  1.00  0.00    -0.393 OA
HETATM   29  H8  UNL     1       5.333   0.452   1.774  1.00  0.00     0.210 HD
ENDBRANCH  27  28
BRANCH  27  30
HETATM   30  C5  UNL     1       6.414  -1.276   0.020  1.00  0.00     0.180 C 
BRANCH  30  31
HETATM   31  O2  UNL     1       6.233  -2.185  -1.070  1.00  0.00    -0.390 OA
HETATM   32  H10 UNL     1       5.469  -2.751  -0.862  1.00  0.00     0.210 HD
ENDBRANCH  30  31
BRANCH  30  33
HETATM   33  C6  UNL     1       7.911  -0.838   0.116  1.00  0.00     0.079 C 
HETATM   34  C7  UNL     1       8.388  -0.063  -1.117  1.00  0.00     0.048 C 
HETATM   35  C8  UNL     1       8.812  -2.066   0.306  1.00  0.00     0.048 C 
BRANCH  33  36
HETATM   36  O3  UNL     1       8.105  -0.012   1.274  1.00  0.00    -0.388 OA
HETATM   37  H17 UNL     1       7.508   0.759   1.173  1.00  0.00     0.210 HD
ENDBRANCH  33  36
ENDBRANCH  30  33
ENDBRANCH  27  30
ENDBRANCH  26  27
ENDBRANCH  24  26
ENDBRANCH   1  24
BRANCH   7  38
HETATM   38  O4  UNL     1      -3.954   0.507   2.850  1.00  0.00    -0.395 OA
HETATM   39  H28 UNL     1      -4.472  -0.069   3.439  1.00  0.00     0.210 HD
ENDBRANCH   7  38
TORSDOF 9
