REMARK  13 active torsions:
REMARK  status: ('A' for Active; 'I' for Inactive)
REMARK    1  A    between atoms: O1_2  and  C2_3 
REMARK    2  A    between atoms: C2_3  and  C5_6 
REMARK    3  A    between atoms: C6_7  and  C7_8 
REMARK    4  A    between atoms: C7_8  and  C8_9 
REMARK    5  A    between atoms: C8_9  and  C10_11 
REMARK    6  A    between atoms: C16_17  and  O2_18 
REMARK    7  A    between atoms: O2_18  and  C17_19 
REMARK    8  A    between atoms: C18_21  and  C19_22 
REMARK    9  A    between atoms: C19_22  and  O4_23 
REMARK   10  A    between atoms: C20_24  and  O5_25 
REMARK   11  A    between atoms: C21_26  and  O6_27 
REMARK   12  A    between atoms: C22_28  and  O7_29 
REMARK   13  A    between atoms: C32_39  and  C33_40 
ROOT
HETATM    1  C10 UNL     1       2.460  -0.107   0.009  1.00  0.00    -0.002 C 
HETATM    2  C11 UNL     1       2.063  -1.576  -0.325  1.00  0.00     0.006 C 
HETATM    3  C12 UNL     1       0.530  -1.618  -0.485  1.00  0.00     0.011 C 
HETATM    4  C13 UNL     1       0.097  -0.140  -0.573  1.00  0.00    -0.029 C 
HETATM    5  C14 UNL     1       0.333   0.269  -2.064  1.00  0.00     0.016 C 
HETATM    6  C15 UNL     1      -1.385   0.131  -0.136  1.00  0.00     0.043 C 
HETATM    7  C16 UNL     1      -2.435  -0.492  -1.096  1.00  0.00     0.153 C 
HETATM    8  C23 UNL     1      -2.795   0.442  -2.216  1.00  0.00     0.009 C 
HETATM    9  C24 UNL     1      -2.993   1.760  -2.017  1.00  0.00    -0.068 C 
HETATM   10  C25 UNL     1      -2.926   2.239  -0.571  1.00  0.00     0.031 C 
HETATM   11  C26 UNL     1      -3.168   3.753  -0.395  1.00  0.00     0.010 C 
HETATM   12  C27 UNL     1      -2.618   4.664  -1.487  1.00  0.00     0.002 C 
HETATM   13  C28 UNL     1      -2.460   4.032  -2.868  1.00  0.00     0.013 C 
HETATM   14  C29 UNL     1      -3.305   2.767  -3.125  1.00  0.00    -0.024 C 
HETATM   15  C30 UNL     1      -4.811   3.089  -3.155  1.00  0.00     0.019 C 
HETATM   16  C31 UNL     1      -2.921   2.259  -4.539  1.00  0.00     0.019 C 
HETATM   17  C32 UNL     1      -1.663   1.667   0.196  1.00  0.00     0.027 C 
HETATM   18  C34 UNL     1      -0.417   2.580  -0.028  1.00  0.00     0.018 C 
HETATM   19  C35 UNL     1       0.978   2.042   0.347  1.00  0.00     0.011 C 
HETATM   20  C36 UNL     1       1.092   0.516   0.453  1.00  0.00    -0.032 C 
HETATM   21  C37 UNL     1       0.842   0.107   1.938  1.00  0.00     0.016 C 
ENDROOT
BRANCH   7  22
HETATM   22  O2  UNL     1      -3.652  -0.734  -0.396  1.00  0.00    -0.349 OA
BRANCH  22  23
HETATM   23  C17 UNL     1      -4.032  -2.103  -0.283  1.00  0.00     0.292 C 
HETATM   24  O3  UNL     1      -5.389  -2.179  -0.742  1.00  0.00    -0.348 OA
HETATM   25  C18 UNL     1      -5.942  -3.500  -0.623  1.00  0.00     0.179 C 
HETATM   26  C20 UNL     1      -6.049  -3.842   0.862  1.00  0.00     0.180 C 
HETATM   27  C21 UNL     1      -4.648  -3.833   1.480  1.00  0.00     0.183 C 
HETATM   28  C22 UNL     1      -3.898  -2.526   1.197  1.00  0.00     0.204 C 
BRANCH  25  29
HETATM   29  C19 UNL     1      -7.306  -3.483  -1.315  1.00  0.00     0.198 C 
BRANCH  29  30
HETATM   30  O4  UNL     1      -7.124  -3.146  -2.693  1.00  0.00    -0.398 OA
HETATM   31  H32 UNL     1      -6.636  -2.298  -2.690  1.00  0.00     0.209 HD
ENDBRANCH  29  30
ENDBRANCH  25  29
BRANCH  26  32
HETATM   32  O5  UNL     1      -6.854  -2.873   1.558  1.00  0.00    -0.390 OA
HETATM   33  H34 UNL     1      -6.685  -2.001   1.148  1.00  0.00     0.210 HD
ENDBRANCH  26  32
BRANCH  27  34
HETATM   34  O6  UNL     1      -4.740  -4.022   2.903  1.00  0.00    -0.390 OA
HETATM   35  H36 UNL     1      -5.554  -3.553   3.181  1.00  0.00     0.210 HD
ENDBRANCH  27  34
BRANCH  28  36
HETATM   36  O7  UNL     1      -2.514  -2.722   1.545  1.00  0.00    -0.388 OA
HETATM   37  H38 UNL     1      -2.520  -2.903   2.508  1.00  0.00     0.210 HD
ENDBRANCH  28  36
ENDBRANCH  22  23
ENDBRANCH   7  22
BRANCH  17  38
HETATM   38  C33 UNL     1      -2.052   1.787   1.681  1.00  0.00     0.241 C 
HETATM   39  O8  UNL     1      -2.825   1.038   2.270  1.00  0.00    -0.306 OA
ENDBRANCH  17  38
BRANCH   1  40
HETATM   40  C8  UNL     1       3.703  -0.028   0.946  1.00  0.00    -0.010 C 
HETATM   41  C9  UNL     1       4.067   1.422   1.298  1.00  0.00     0.010 C 
BRANCH  40  42
HETATM   42  C7  UNL     1       4.926  -0.717   0.283  1.00  0.00     0.031 C 
BRANCH  42  43
HETATM   43  C6  UNL     1       6.096  -0.878   1.216  1.00  0.00    -0.027 C 
HETATM   44  C5  UNL     1       7.291  -0.296   1.025  1.00  0.00     0.006 C 
BRANCH  44  45
HETATM   45  C2  UNL     1       8.524  -0.400   1.903  1.00  0.00     0.070 C 
HETATM   46  C3  UNL     1       8.433  -1.405   3.064  1.00  0.00     0.050 C 
HETATM   47  C4  UNL     1       8.790   0.994   2.498  1.00  0.00     0.050 C 
BRANCH  45  48
HETATM   48  O1  UNL     1       9.655  -0.675   1.060  1.00  0.00    -0.382 OA
HETATM   49  C1  UNL     1       9.743  -1.995   0.539  1.00  0.00     0.202 C 
ENDBRANCH  45  48
ENDBRANCH  44  45
ENDBRANCH  42  43
ENDBRANCH  40  42
ENDBRANCH   1  40
TORSDOF 13
