REMARK  9 active torsions:
REMARK  status: ('A' for Active; 'I' for Inactive)
REMARK    1  A    between atoms: C4_4  and  C5_5 
REMARK    2  A    between atoms: C7_7  and  O1_9 
REMARK    3  A    between atoms: C20_21  and  O2_22 
REMARK    4  A    between atoms: O2_22  and  C21_23 
REMARK    5  A    between atoms: C22_25  and  C23_26 
REMARK    6  A    between atoms: C23_26  and  O4_27 
REMARK    7  A    between atoms: C24_28  and  O5_29 
REMARK    8  A    between atoms: C25_30  and  O6_31 
REMARK    9  A    between atoms: C26_32  and  O7_33 
ROOT
HETATM    1  C5  UNL     1       6.764  -0.097   0.372  1.00  0.00     0.147 C 
HETATM    2  C6  UNL     1       6.310   1.262  -0.212  1.00  0.00     0.074 C 
HETATM    3  C7  UNL     1       5.041   1.152  -1.080  1.00  0.00     0.064 C 
HETATM    4  C8  UNL     1       5.406   0.564  -2.459  1.00  0.00     0.046 C 
HETATM    5  C9  UNL     1       4.005   0.251  -0.374  1.00  0.00     0.058 C 
HETATM    6  C10 UNL     1       4.481  -0.186   1.022  1.00  0.00     0.131 C 
HETATM    7  C11 UNL     1       3.290  -0.982   1.608  1.00  0.00     0.042 C 
HETATM    8  C12 UNL     1       2.065  -0.662   0.679  1.00  0.00    -0.029 C 
HETATM    9  C13 UNL     1       1.881  -1.913  -0.259  1.00  0.00     0.016 C 
HETATM   10  C14 UNL     1       0.701  -0.384   1.383  1.00  0.00     0.014 C 
HETATM   11  C15 UNL     1       0.303  -1.510   2.353  1.00  0.00     0.034 C 
HETATM   12  C16 UNL     1      -1.114  -1.950   2.347  1.00  0.00    -0.022 C 
HETATM   13  C17 UNL     1      -2.010  -1.717   1.373  1.00  0.00    -0.059 C 
HETATM   14  C18 UNL     1      -1.621  -0.890   0.147  1.00  0.00     0.057 C 
HETATM   15  C19 UNL     1      -2.848  -0.197  -0.454  1.00  0.00     0.024 C 
HETATM   16  C20 UNL     1      -4.120  -0.314  -0.057  1.00  0.00     0.116 C 
HETATM   17  C27 UNL     1      -4.454  -1.261   1.041  1.00  0.00     0.194 C 
HETATM   18  O8  UNL     1      -5.571  -1.196   1.559  1.00  0.00    -0.289 OA
HETATM   19  C28 UNL     1      -3.420  -2.343   1.386  1.00  0.00     0.044 C 
HETATM   20  C29 UNL     1      -3.842  -2.967   2.738  1.00  0.00     0.028 C 
HETATM   21  C30 UNL     1      -3.525  -3.450   0.313  1.00  0.00     0.028 C 
HETATM   22  C31 UNL     1      -0.413   0.140   0.376  1.00  0.00     0.032 C 
HETATM   23  C32 UNL     1      -1.000   1.460   0.950  1.00  0.00     0.025 C 
HETATM   24  C33 UNL     1       0.198   0.458  -1.045  1.00  0.00     0.137 C 
HETATM   25  O9  UNL     1      -0.468   0.306  -2.073  1.00  0.00    -0.297 OA
HETATM   26  C34 UNL     1       1.632   0.952  -1.230  1.00  0.00     0.089 C 
HETATM   27  C35 UNL     1       2.544   0.663  -0.051  1.00  0.00    -0.021 C 
HETATM   28  C36 UNL     1       2.556   1.930   0.876  1.00  0.00     0.017 C 
HETATM   29  O10 UNL     1       5.689  -0.917   0.886  1.00  0.00    -0.376 OA
ENDROOT
BRANCH  16  30
HETATM   30  O2  UNL     1      -5.105   0.490  -0.597  1.00  0.00    -0.314 OA
BRANCH  30  31
HETATM   31  C21 UNL     1      -6.096  -0.218  -1.366  1.00  0.00     0.298 C 
HETATM   32  O3  UNL     1      -6.100   0.310  -2.704  1.00  0.00    -0.348 OA
HETATM   33  C22 UNL     1      -6.895   1.491  -2.908  1.00  0.00     0.179 C 
HETATM   34  C24 UNL     1      -8.387   1.235  -2.613  1.00  0.00     0.180 C 
HETATM   35  C25 UNL     1      -8.587   0.000  -1.722  1.00  0.00     0.183 C 
HETATM   36  C26 UNL     1      -7.480  -0.117  -0.675  1.00  0.00     0.205 C 
BRANCH  33  37
HETATM   37  C23 UNL     1      -6.347   2.704  -2.137  1.00  0.00     0.198 C 
BRANCH  37  38
HETATM   38  O4  UNL     1      -7.014   3.901  -2.529  1.00  0.00    -0.398 OA
HETATM   39  H32 UNL     1      -6.623   4.623  -2.005  1.00  0.00     0.209 HD
ENDBRANCH  37  38
ENDBRANCH  33  37
BRANCH  34  40
HETATM   40  O5  UNL     1      -9.080   0.988  -3.853  1.00  0.00    -0.390 OA
HETATM   41  H34 UNL     1      -9.727   1.709  -3.953  1.00  0.00     0.210 HD
ENDBRANCH  34  40
BRANCH  35  42
HETATM   42  O6  UNL     1      -9.852   0.103  -1.040  1.00  0.00    -0.390 OA
HETATM   43  H36 UNL     1      -9.878  -0.695  -0.471  1.00  0.00     0.210 HD
ENDBRANCH  35  42
BRANCH  36  44
HETATM   44  O7  UNL     1      -7.764  -1.271   0.140  1.00  0.00    -0.388 OA
HETATM   45  H38 UNL     1      -7.111  -1.244   0.873  1.00  0.00     0.210 HD
ENDBRANCH  36  44
ENDBRANCH  30  31
ENDBRANCH  16  30
BRANCH   3  46
HETATM   46  O1  UNL     1       4.546   2.470  -1.319  1.00  0.00    -0.390 OA
HETATM   47  H14 UNL     1       3.980   2.446  -2.113  1.00  0.00     0.210 HD
ENDBRANCH   3  46
BRANCH   1  48
HETATM   48  C4  UNL     1       7.748   0.121   1.493  1.00  0.00     0.007 C 
HETATM   49  C2  UNL     1       9.075   0.362   1.396  1.00  0.00    -0.089 C 
HETATM   50  C1  UNL     1       9.849   0.447   0.109  1.00  0.00     0.042 C 
HETATM   51  C3  UNL     1       9.912   0.587   2.636  1.00  0.00     0.042 C 
ENDBRANCH   1  48
TORSDOF 9
