REMARK  7 active torsions:
REMARK  status: ('A' for Active; 'I' for Inactive)
REMARK    1  A    between atoms: C2_2  and  C3_3 
REMARK    2  A    between atoms: C4_5  and  C5_6 
REMARK    3  A    between atoms: C5_6  and  C6_7 
REMARK    4  A    between atoms: C6_7  and  C7_8 
REMARK    5  A    between atoms: C7_8  and  C9_10 
REMARK    6  A    between atoms: C11_12  and  O2_13 
REMARK    7  A    between atoms: C30_33  and  O4_34 
ROOT
HETATM    1  C9  UNL     1       2.412  -0.548   0.316  1.00  0.00     0.001 C 
HETATM    2  C10 UNL     1       2.211  -2.088   0.420  1.00  0.00     0.038 C 
HETATM    3  C11 UNL     1       0.709  -2.373   0.219  1.00  0.00     0.132 C 
HETATM    4  C12 UNL     1       0.128  -1.064  -0.377  1.00  0.00     0.016 C 
HETATM    5  C13 UNL     1       0.419  -1.038  -1.912  1.00  0.00     0.023 C 
HETATM    6  C14 UNL     1      -1.376  -0.773  -0.230  1.00  0.00    -0.037 C 
HETATM    7  C15 UNL     1      -1.811   0.515  -0.145  1.00  0.00    -0.065 C 
HETATM    8  C16 UNL     1      -0.825   1.694  -0.182  1.00  0.00     0.036 C 
HETATM    9  C17 UNL     1       0.682   1.375  -0.146  1.00  0.00     0.015 C 
HETATM   10  C18 UNL     1       0.956  -0.005   0.462  1.00  0.00    -0.026 C 
HETATM   11  C19 UNL     1       0.570   0.032   1.976  1.00  0.00     0.016 C 
HETATM   12  C20 UNL     1      -3.312   0.880   0.043  1.00  0.00    -0.015 C 
HETATM   13  C21 UNL     1      -3.478   1.342   1.514  1.00  0.00     0.020 C 
HETATM   14  C22 UNL     1      -3.711   2.044  -0.907  1.00  0.00     0.021 C 
HETATM   15  C23 UNL     1      -5.202   2.168  -1.219  1.00  0.00     0.080 C 
HETATM   16  C24 UNL     1      -6.083   1.399  -0.262  1.00  0.00     0.135 C 
HETATM   17  O3  UNL     1      -7.050   1.947   0.269  1.00  0.00    -0.297 OA
HETATM   18  C25 UNL     1      -5.769  -0.090  -0.063  1.00  0.00     0.018 C 
HETATM   19  C26 UNL     1      -6.594  -0.858  -1.116  1.00  0.00     0.023 C 
HETATM   20  C27 UNL     1      -6.265  -0.537   1.327  1.00  0.00     0.023 C 
HETATM   21  C28 UNL     1      -4.240  -0.337  -0.305  1.00  0.00     0.016 C 
HETATM   22  C29 UNL     1      -3.711  -1.627   0.340  1.00  0.00     0.043 C 
HETATM   23  C30 UNL     1      -2.316  -1.960  -0.189  1.00  0.00     0.148 C 
ENDROOT
BRANCH   1  24
HETATM   24  C7  UNL     1       3.528  -0.035   1.270  1.00  0.00    -0.013 C 
HETATM   25  C8  UNL     1       3.725   1.483   1.202  1.00  0.00     0.010 C 
BRANCH  24  26
HETATM   26  C6  UNL     1       4.883  -0.776   1.086  1.00  0.00     0.008 C 
BRANCH  26  27
HETATM   27  C5  UNL     1       5.478  -0.876  -0.325  1.00  0.00     0.028 C 
BRANCH  27  28
HETATM   28  C4  UNL     1       5.849   0.432  -0.958  1.00  0.00    -0.017 C 
HETATM   29  C2  UNL     1       7.035   1.060  -0.868  1.00  0.00    -0.028 C 
HETATM   30  C1  UNL     1       8.223   0.616  -0.075  1.00  0.00     0.051 C 
BRANCH  29  31
HETATM   31  C3  UNL     1       7.205   2.348  -1.609  1.00  0.00     0.265 C 
HETATM   32  O1  UNL     1       6.324   2.872  -2.279  1.00  0.00    -0.302 OA
ENDBRANCH  29  31
ENDBRANCH  27  28
ENDBRANCH  26  27
ENDBRANCH  24  26
ENDBRANCH   1  24
BRANCH   3  33
HETATM   33  O2  UNL     1       0.538  -3.504  -0.620  1.00  0.00    -0.394 OA
HETATM   34  H18 UNL     1       0.910  -4.275  -0.161  1.00  0.00     0.210 HD
ENDBRANCH   3  33
BRANCH  23  35
HETATM   35  O4  UNL     1      -2.479  -2.492  -1.501  1.00  0.00    -0.391 OA
HETATM   36  H46 UNL     1      -2.215  -1.807  -2.135  1.00  0.00     0.210 HD
ENDBRANCH  23  35
TORSDOF 7
