REMARK  8 active torsions:
REMARK  status: ('A' for Active; 'I' for Inactive)
REMARK    1  A    between atoms: C4_4  and  C5_5 
REMARK    2  A    between atoms: C5_5  and  C6_6 
REMARK    3  A    between atoms: C6_6  and  C7_7 
REMARK    4  A    between atoms: C7_7  and  C9_9 
REMARK    5  A    between atoms: C25_26  and  C27_28 
REMARK    6  A    between atoms: C27_28  and  O3_30 
REMARK    7  A    between atoms: C28_31  and  O4_32 
REMARK    8  A    between atoms: C30_34  and  O5_35 
ROOT
HETATM    1  C9  UNL     1       2.735   0.277  -1.845  1.00  0.00    -0.002 C 
HETATM    2  C10 UNL     1       2.306   1.084  -3.105  1.00  0.00     0.007 C 
HETATM    3  C11 UNL     1       0.826   1.463  -2.931  1.00  0.00     0.015 C 
HETATM    4  C12 UNL     1       0.517   1.212  -1.442  1.00  0.00    -0.005 C 
HETATM    5  C13 UNL     1       1.010   2.470  -0.661  1.00  0.00     0.021 C 
HETATM    6  C14 UNL     1      -0.921   1.004  -0.973  1.00  0.00    -0.000 C 
HETATM    7  C15 UNL     1      -1.204   0.238   0.114  1.00  0.00    -0.058 C 
HETATM    8  C16 UNL     1      -0.080  -0.509   0.851  1.00  0.00     0.036 C 
HETATM    9  C17 UNL     1       1.355  -0.377   0.299  1.00  0.00     0.015 C 
HETATM   10  C18 UNL     1       1.362  -0.102  -1.208  1.00  0.00    -0.028 C 
HETATM   11  C19 UNL     1       0.775  -1.347  -1.945  1.00  0.00     0.016 C 
HETATM   12  C20 UNL     1      -2.656   0.010   0.658  1.00  0.00     0.011 C 
HETATM   13  C21 UNL     1      -3.093  -1.364   0.097  1.00  0.00     0.023 C 
HETATM   14  C22 UNL     1      -3.563   1.192   0.178  1.00  0.00     0.029 C 
HETATM   15  C23 UNL     1      -3.448   1.426  -1.329  1.00  0.00     0.090 C 
HETATM   16  C24 UNL     1      -2.019   1.693  -1.726  1.00  0.00     0.157 C 
HETATM   17  O1  UNL     1      -1.781   2.430  -2.682  1.00  0.00    -0.293 OA
HETATM   18  C25 UNL     1      -5.051   1.202   0.699  1.00  0.00     0.072 C 
HETATM   19  C26 UNL     1      -5.429   2.687   0.976  1.00  0.00     0.030 C 
HETATM   20  C28 UNL     1      -5.218   0.355   1.985  1.00  0.00     0.139 C 
HETATM   21  C29 UNL     1      -3.995   0.452   2.892  1.00  0.00     0.065 C 
HETATM   22  C30 UNL     1      -2.680   0.021   2.232  1.00  0.00     0.133 C 
ENDROOT
BRANCH   1  23
HETATM   23  C7  UNL     1       3.761  -0.837  -2.207  1.00  0.00    -0.014 C 
HETATM   24  C8  UNL     1       4.997  -0.232  -2.897  1.00  0.00     0.010 C 
BRANCH  23  25
HETATM   25  C6  UNL     1       4.210  -1.731  -1.032  1.00  0.00     0.008 C 
BRANCH  25  26
HETATM   26  C5  UNL     1       4.971  -1.017   0.091  1.00  0.00     0.028 C 
BRANCH  26  27
HETATM   27  C4  UNL     1       5.264  -1.971   1.220  1.00  0.00    -0.025 C 
HETATM   28  C2  UNL     1       4.831  -1.916   2.495  1.00  0.00    -0.091 C 
HETATM   29  C1  UNL     1       5.226  -2.989   3.481  1.00  0.00     0.042 C 
HETATM   30  C3  UNL     1       3.944  -0.850   3.073  1.00  0.00     0.042 C 
ENDBRANCH  26  27
ENDBRANCH  25  26
ENDBRANCH  23  25
ENDBRANCH   1  23
BRANCH  22  31
HETATM   31  O5  UNL     1      -2.324  -1.266   2.750  1.00  0.00    -0.394 OA
HETATM   32  H46 UNL     1      -2.114  -1.154   3.694  1.00  0.00     0.210 HD
ENDBRANCH  22  31
BRANCH  18  33
HETATM   33  C27 UNL     1      -6.058   0.690  -0.337  1.00  0.00     0.151 C 
HETATM   34  O2  UNL     1      -7.014   1.310  -0.780  1.00  0.00    -0.649 OA
BRANCH  33  35
HETATM   35  O3  UNL     1      -5.832  -0.561  -0.759  1.00  0.00    -0.776 OA
HETATM   36  H40 UNL     1      -6.539  -0.723  -1.421  1.00  0.00     0.167 HD
ENDBRANCH  33  35
ENDBRANCH  18  33
BRANCH  20  37
HETATM   37  O4  UNL     1      -6.343   0.779   2.763  1.00  0.00    -0.394 OA
HETATM   38  H42 UNL     1      -7.151   0.633   2.239  1.00  0.00     0.210 HD
ENDBRANCH  20  37
TORSDOF 8
