REMARK  12 active torsions:
REMARK  status: ('A' for Active; 'I' for Inactive)
REMARK    1  A    between atoms: C3_3  and  O1_4 
REMARK    2  A    between atoms: N1_14  and  O2_16 
REMARK    3  A    between atoms: O2_16  and  C13_17 
REMARK    4  A    between atoms: C13_17  and  C14_18 
REMARK       I    between atoms: C14_18  and  N2_20 
REMARK    5  A    between atoms: N2_20  and  C15_21 
REMARK    6  A    between atoms: C15_21  and  C16_22 
REMARK    7  A    between atoms: C15_21  and  C27_38 
REMARK       I    between atoms: C16_22  and  N3_24 
REMARK    8  A    between atoms: N3_24  and  C17_25 
REMARK    9  A    between atoms: C17_25  and  C18_26 
REMARK   10  A    between atoms: C17_25  and  C20_30 
REMARK   11  A    between atoms: C18_26  and  C19_27 
REMARK   12  A    between atoms: C19_27  and  O6_29 
ROOT
HETATM    1  C1  UNL     1       9.955   4.198   1.725  1.00  0.00     0.015 C 
HETATM    2  C2  UNL     1       9.683   3.118   1.274  1.00  0.00    -0.078 C 
HETATM    3  C3  UNL     1       9.361   1.801   0.703  1.00  0.00     0.128 C 
HETATM    4  C4  UNL     1      10.472   0.779   0.953  1.00  0.00     0.052 C 
HETATM    5  C5  UNL     1       9.797  -0.536   0.578  1.00  0.00     0.010 C 
HETATM    6  C6  UNL     1       8.403  -0.421   1.208  1.00  0.00     0.002 C 
HETATM    7  C7  UNL     1       7.303  -1.333   0.614  1.00  0.00    -0.004 C 
HETATM    8  C8  UNL     1       7.290  -1.498  -0.921  1.00  0.00     0.010 C 
HETATM    9  C9  UNL     1       6.144  -2.393  -1.415  1.00  0.00     0.035 C 
HETATM   10  C10 UNL     1       4.818  -1.976  -0.822  1.00  0.00    -0.069 C 
HETATM   11  C11 UNL     1       3.801  -1.622  -1.624  1.00  0.00     0.030 C 
HETATM   12  C12 UNL     1       2.550  -1.021  -1.101  1.00  0.00     0.032 C 
HETATM   13  N1  UNL     1       1.592  -0.796  -1.954  1.00  0.00    -0.271 N 
ATOM     14  H1  UNL     1       1.644  -1.019  -2.948  1.00  0.00     0.194 HD
HETATM   15  C30 UNL     1       2.511  -0.611   0.357  1.00  0.00     0.060 C 
HETATM   16  C31 UNL     1       3.367  -1.506   1.240  1.00  0.00     0.020 C 
HETATM   17  C32 UNL     1       4.773  -1.901   0.699  1.00  0.00    -0.016 C 
HETATM   18  C33 UNL     1       5.039  -3.310   1.306  1.00  0.00     0.020 C 
HETATM   19  C34 UNL     1       5.907  -0.910   1.158  1.00  0.00     0.002 C 
HETATM   20  C35 UNL     1       5.596   0.573   0.832  1.00  0.00     0.007 C 
HETATM   21  C36 UNL     1       6.800   1.466   0.525  1.00  0.00     0.014 C 
HETATM   22  C37 UNL     1       8.080   1.109   1.295  1.00  0.00     0.003 C 
HETATM   23  C38 UNL     1       7.869   1.470   2.791  1.00  0.00     0.020 C 
ENDROOT
BRANCH   3  24
HETATM   24  O1  UNL     1       9.244   1.953  -0.716  1.00  0.00    -0.377 OA
HETATM   25  H2  UNL     1      10.002   2.488  -1.005  1.00  0.00     0.211 HD
ENDBRANCH   3  24
BRANCH  13  26
HETATM   26  O2  UNL     1       0.480  -0.208  -1.334  1.00  0.00    -0.271 OA
BRANCH  26  27
HETATM   27  C13 UNL     1      -0.501   0.100  -2.311  1.00  0.00     0.303 C 
BRANCH  27  28
HETATM   28  C14 UNL     1      -1.882  -0.408  -1.899  1.00  0.00     0.244 C 
HETATM   29  O3  UNL     1      -2.096  -1.131  -0.931  1.00  0.00    -0.271 OA
HETATM   30  N2  UNL     1      -2.894   0.012  -2.751  1.00  0.00    -0.346 N 
HETATM   31  H16 UNL     1      -2.728   0.901  -3.210  1.00  0.00     0.163 HD
BRANCH  30  32
HETATM   32  C15 UNL     1      -4.285  -0.258  -2.404  1.00  0.00     0.180 C 
BRANCH  32  33
HETATM   33  C16 UNL     1      -4.803   0.894  -1.514  1.00  0.00     0.241 C 
HETATM   34  O4  UNL     1      -4.292   2.014  -1.516  1.00  0.00    -0.271 OA
HETATM   35  N3  UNL     1      -5.919   0.572  -0.765  1.00  0.00    -0.354 N 
HETATM   36  H18 UNL     1      -6.215  -0.396  -0.750  1.00  0.00     0.162 HD
BRANCH  35  37
HETATM   37  C17 UNL     1      -6.517   1.514   0.188  1.00  0.00     0.098 C 
BRANCH  37  38
HETATM   38  C18 UNL     1      -7.334   2.575  -0.571  1.00  0.00     0.135 C 
BRANCH  38  39
HETATM   39  C19 UNL     1      -7.790   3.699   0.319  1.00  0.00     0.141 C 
HETATM   40  O5  UNL     1      -7.386   3.980   1.433  1.00  0.00    -0.650 OA
BRANCH  39  41
HETATM   41  O6  UNL     1      -8.750   4.443  -0.267  1.00  0.00    -0.776 OA
HETATM   42  H22 UNL     1      -8.930   5.156   0.382  1.00  0.00     0.167 HD
ENDBRANCH  39  41
ENDBRANCH  38  39
ENDBRANCH  37  38
BRANCH  37  43
HETATM   43  C20 UNL     1      -7.329   0.765   1.287  1.00  0.00     0.014 C 
HETATM   44  C21 UNL     1      -6.433  -0.200   2.083  1.00  0.00     0.033 C 
HETATM   45  C22 UNL     1      -7.233  -0.948   3.138  1.00  0.00     0.169 C 
HETATM   46  O7  UNL     1      -8.334  -1.639   2.553  1.00  0.00    -0.381 OA
HETATM   47  C23 UNL     1      -9.273  -0.812   1.856  1.00  0.00     0.054 C 
HETATM   48  C24 UNL     1     -10.053   0.082   2.832  1.00  0.00     0.045 C 
HETATM   49  C25 UNL     1     -10.269  -1.776   1.192  1.00  0.00     0.045 C 
HETATM   50  C26 UNL     1      -8.560   0.005   0.759  1.00  0.00     0.044 C 
ENDBRANCH  37  43
ENDBRANCH  35  37
ENDBRANCH  32  33
BRANCH  32  51
HETATM   51  C27 UNL     1      -5.185  -0.452  -3.645  1.00  0.00     0.009 C 
HETATM   52  C28 UNL     1      -4.792  -1.723  -4.407  1.00  0.00     0.012 C 
HETATM   53  C29 UNL     1      -5.176   0.750  -4.598  1.00  0.00     0.012 C 
ENDBRANCH  32  51
ENDBRANCH  30  32
ENDBRANCH  27  28
ENDBRANCH  26  27
ENDBRANCH  13  26
TORSDOF 12
