REMARK  14 active torsions:
REMARK  status: ('A' for Active; 'I' for Inactive)
REMARK    1  A    between atoms: O1_2  and  C2_3 
REMARK    2  A    between atoms: C2_3  and  C3_5 
REMARK    3  A    between atoms: C3_5  and  C4_6 
REMARK    4  A    between atoms: C3_5  and  N2_16 
REMARK    5  A    between atoms: C4_6  and  C5_7 
REMARK       I    between atoms: N2_16  and  C13_17 
REMARK    6  A    between atoms: C13_17  and  C14_19 
REMARK    7  A    between atoms: C14_19  and  C15_20 
REMARK    8  A    between atoms: C15_20  and  C16_21 
REMARK    9  A    between atoms: C16_21  and  O5_23 
REMARK   10  A    between atoms: O5_23  and  C17_24 
REMARK   11  A    between atoms: C17_24  and  C18_25 
REMARK   12  A    between atoms: C18_25  and  C19_27 
REMARK   13  A    between atoms: C19_27  and  O7_28 
REMARK   14  A    between atoms: C34_44  and  O9_45 
ROOT
HETATM    1  C17 UNL     1      -1.285  -1.845   1.080  1.00  0.00     0.260 C 
ENDROOT
BRANCH   1   2
HETATM    2  O5  UNL     1       0.007  -2.324   0.693  1.00  0.00    -0.314 OA
BRANCH   2   3
HETATM    3  C16 UNL     1       0.996  -2.002   1.574  1.00  0.00     0.259 C 
HETATM    4  O4  UNL     1       0.808  -1.489   2.669  1.00  0.00    -0.265 OA
BRANCH   3   5
HETATM    5  C15 UNL     1       2.349  -2.362   1.024  1.00  0.00     0.120 C 
BRANCH   5   6
HETATM    6  C14 UNL     1       3.296  -1.182   1.197  1.00  0.00     0.112 C 
BRANCH   6   7
HETATM    7  C13 UNL     1       4.722  -1.538   0.845  1.00  0.00     0.218 C 
HETATM    8  N2  UNL     1       5.589  -0.487   1.015  1.00  0.00    -0.347 N 
HETATM    9  H13 UNL     1       5.240   0.423   1.303  1.00  0.00     0.163 HD
HETATM   10  O3  UNL     1       5.074  -2.644   0.452  1.00  0.00    -0.274 OA
BRANCH   8  11
HETATM   11  C3  UNL     1       7.033  -0.596   0.755  1.00  0.00     0.188 C 
BRANCH  11  12
HETATM   12  C2  UNL     1       7.697   0.567   1.493  1.00  0.00     0.281 C 
HETATM   13  O2  UNL     1       7.161   1.660   1.656  1.00  0.00    -0.263 OA
BRANCH  12  14
HETATM   14  O1  UNL     1       8.936   0.227   1.941  1.00  0.00    -0.325 OA
HETATM   15  C1  UNL     1       9.657   1.295   2.555  1.00  0.00     0.213 C 
ENDBRANCH  12  14
ENDBRANCH  11  12
BRANCH  11  16
HETATM   16  C4  UNL     1       7.340  -0.519  -0.747  1.00  0.00     0.076 C 
BRANCH  16  17
HETATM   17  C5  UNL     1       8.790  -0.709  -1.075  1.00  0.00    -0.028 A 
HETATM   18  C6  UNL     1       9.458  -1.916  -1.143  1.00  0.00     0.096 A 
HETATM   19  N1  UNL     1      10.769  -1.668  -1.446  1.00  0.00    -0.365 N 
HETATM   20  C7  UNL     1      10.977  -0.316  -1.586  1.00  0.00     0.042 A 
HETATM   21  H8  UNL     1      11.485  -2.372  -1.554  1.00  0.00     0.165 HD
HETATM   22  C8  UNL     1      12.148   0.388  -1.888  1.00  0.00     0.030 A 
HETATM   23  C12 UNL     1       9.752   0.314  -1.361  1.00  0.00    -0.002 A 
HETATM   24  C9  UNL     1      12.066   1.781  -1.961  1.00  0.00     0.002 A 
HETATM   25  C10 UNL     1      10.860   2.441  -1.743  1.00  0.00     0.001 A 
HETATM   26  C11 UNL     1       9.698   1.721  -1.442  1.00  0.00     0.014 A 
ENDBRANCH  16  17
ENDBRANCH  11  16
ENDBRANCH   8  11
ENDBRANCH   6   7
ENDBRANCH   5   6
ENDBRANCH   3   5
ENDBRANCH   2   3
ENDBRANCH   1   2
BRANCH   1  27
HETATM   27  C18 UNL     1      -1.416  -0.342   0.847  1.00  0.00     0.185 C 
HETATM   28  O6  UNL     1      -0.518   0.306   0.288  1.00  0.00    -0.292 OA
BRANCH  27  29
HETATM   29  C19 UNL     1      -2.698   0.391   1.288  1.00  0.00     0.128 C 
HETATM   30  C20 UNL     1      -3.557  -0.287   2.362  1.00  0.00     0.047 C 
HETATM   31  C21 UNL     1      -4.987   0.230   2.144  1.00  0.00     0.009 C 
HETATM   32  C22 UNL     1      -4.938   1.160   0.919  1.00  0.00     0.002 C 
HETATM   33  C23 UNL     1      -6.236   1.237   0.087  1.00  0.00    -0.002 C 
HETATM   34  C36 UNL     1      -3.700   0.684   0.126  1.00  0.00     0.001 C 
HETATM   35  C24 UNL     1      -7.408   1.699   0.967  1.00  0.00     0.010 C 
HETATM   36  C33 UNL     1      -6.561  -0.071  -0.703  1.00  0.00     0.035 C 
HETATM   37  C25 UNL     1      -8.674   1.895   0.149  1.00  0.00     0.036 C 
HETATM   38  C26 UNL     1      -9.007   0.614  -0.567  1.00  0.00    -0.064 A 
HETATM   39  C27 UNL     1     -10.182   0.006  -0.320  1.00  0.00     0.058 A 
HETATM   40  C31 UNL     1      -7.926   0.050  -1.511  1.00  0.00     0.004 A 
HETATM   41  C28 UNL     1     -10.541  -1.284  -0.938  1.00  0.00     0.172 A 
HETATM   42  O8  UNL     1     -11.620  -1.818  -0.717  1.00  0.00    -0.289 OA
HETATM   43  C29 UNL     1      -9.543  -1.902  -1.825  1.00  0.00     0.052 A 
HETATM   44  C30 UNL     1      -8.374  -1.297  -2.074  1.00  0.00    -0.009 A 
HETATM   45  C32 UNL     1      -7.790   0.994  -2.728  1.00  0.00     0.025 C 
HETATM   46  C34 UNL     1      -5.313  -0.456  -1.547  1.00  0.00     0.124 C 
HETATM   47  C35 UNL     1      -4.050  -0.583  -0.684  1.00  0.00     0.045 C 
HETATM   48  C37 UNL     1      -3.201   1.787  -0.829  1.00  0.00     0.019 C 
BRANCH  29  49
HETATM   49  O7  UNL     1      -2.257   1.639   1.859  1.00  0.00    -0.381 OA
HETATM   50  H20 UNL     1      -1.492   1.935   1.325  1.00  0.00     0.211 HD
ENDBRANCH  29  49
BRANCH  46  51
HETATM   51  O9  UNL     1      -5.486  -1.720  -2.181  1.00  0.00    -0.395 OA
HETATM   52  H39 UNL     1      -4.737  -1.856  -2.788  1.00  0.00     0.210 HD
ENDBRANCH  46  51
ENDBRANCH  27  29
ENDBRANCH   1  27
TORSDOF 14
