REMARK  13 active torsions:
REMARK  status: ('A' for Active; 'I' for Inactive)
REMARK    1  A    between atoms: C2_2  and  C3_3 
REMARK    2  A    between atoms: C3_3  and  C5_5 
REMARK    3  A    between atoms: C3_3  and  O3_18 
REMARK    4  A    between atoms: C5_5  and  C6_6 
REMARK    5  A    between atoms: C7_7  and  C8_8 
REMARK    6  A    between atoms: C12_12  and  C13_13 
REMARK    7  A    between atoms: C13_13  and  O1_16 
REMARK    8  A    between atoms: O3_18  and  C16_19 
REMARK    9  A    between atoms: C17_21  and  C18_22 
REMARK   10  A    between atoms: C18_22  and  O5_23 
REMARK   11  A    between atoms: C19_24  and  O6_25 
REMARK   12  A    between atoms: C20_26  and  O7_27 
REMARK   13  A    between atoms: C21_28  and  O8_29 
ROOT
HETATM    1  C3  UNL     1       1.510  -1.336   0.327  1.00  0.00     0.081 C 
HETATM    2  C4  UNL     1       1.515  -0.784   1.766  1.00  0.00     0.051 C 
ENDROOT
BRANCH   1   3
HETATM    3  C2  UNL     1       1.227  -2.833   0.396  1.00  0.00     0.001 C 
HETATM    4  C1  UNL     1       0.360  -3.560  -0.324  1.00  0.00     0.010 C 
ENDBRANCH   1   3
BRANCH   1   5
HETATM    5  C5  UNL     1       0.550  -0.522  -0.603  1.00  0.00     0.068 C 
BRANCH   5   6
HETATM    6  C6  UNL     1      -0.908  -0.291  -0.272  1.00  0.00    -0.024 C 
HETATM    7  C7  UNL     1      -1.684  -0.913   0.634  1.00  0.00     0.006 C 
BRANCH   7   8
HETATM    8  C8  UNL     1      -3.131  -0.592   0.939  1.00  0.00     0.075 C 
HETATM    9  C9  UNL     1      -3.271  -0.215   2.418  1.00  0.00     0.050 C 
HETATM   10  C10 UNL     1      -4.048  -1.754   0.552  1.00  0.00     0.044 C 
HETATM   11  C11 UNL     1      -5.329  -1.049   0.170  1.00  0.00     0.038 C 
HETATM   12  C12 UNL     1      -4.800   0.200  -0.521  1.00  0.00     0.156 C 
HETATM   13  O2  UNL     1      -3.581   0.539   0.171  1.00  0.00    -0.368 OA
BRANCH  12  14
HETATM   14  C13 UNL     1      -5.773   1.408  -0.570  1.00  0.00     0.076 C 
HETATM   15  C14 UNL     1      -7.031   1.072  -1.379  1.00  0.00     0.048 C 
HETATM   16  C15 UNL     1      -5.081   2.632  -1.181  1.00  0.00     0.048 C 
BRANCH  14  17
HETATM   17  O1  UNL     1      -6.189   1.797   0.748  1.00  0.00    -0.388 OA
HETATM   18  H25 UNL     1      -6.762   1.104   1.113  1.00  0.00     0.210 HD
ENDBRANCH  14  17
ENDBRANCH  12  14
ENDBRANCH   7   8
ENDBRANCH   5   6
ENDBRANCH   1   5
BRANCH   1  19
HETATM   19  O3  UNL     1       2.838  -1.322  -0.249  1.00  0.00    -0.344 OA
BRANCH  19  20
HETATM   20  C16 UNL     1       3.592  -0.109  -0.168  1.00  0.00     0.293 C 
HETATM   21  O4  UNL     1       4.295  -0.107   1.076  1.00  0.00    -0.348 OA
HETATM   22  C17 UNL     1       5.320   0.896   1.171  1.00  0.00     0.179 C 
HETATM   23  C19 UNL     1       6.472   0.545   0.206  1.00  0.00     0.180 C 
HETATM   24  C20 UNL     1       6.007  -0.392  -0.929  1.00  0.00     0.183 C 
HETATM   25  C21 UNL     1       4.567  -0.099  -1.378  1.00  0.00     0.204 C 
BRANCH  22  26
HETATM   26  C18 UNL     1       4.786   2.337   1.058  1.00  0.00     0.198 C 
BRANCH  26  27
HETATM   27  O5  UNL     1       3.787   2.562   2.056  1.00  0.00    -0.398 OA
HETATM   28  H30 UNL     1       3.419   3.448   1.893  1.00  0.00     0.209 HD
ENDBRANCH  26  27
ENDBRANCH  22  26
BRANCH  23  29
HETATM   29  O6  UNL     1       7.104   1.716  -0.315  1.00  0.00    -0.390 OA
HETATM   30  H32 UNL     1       7.915   1.426  -0.770  1.00  0.00     0.210 HD
ENDBRANCH  23  29
BRANCH  24  31
HETATM   31  O7  UNL     1       6.133  -1.758  -0.517  1.00  0.00    -0.390 OA
HETATM   32  H34 UNL     1       5.477  -1.909   0.195  1.00  0.00     0.210 HD
ENDBRANCH  24  31
BRANCH  25  33
HETATM   33  O8  UNL     1       4.506   1.171  -2.048  1.00  0.00    -0.388 OA
HETATM   34  H36 UNL     1       5.066   1.107  -2.842  1.00  0.00     0.210 HD
ENDBRANCH  25  33
ENDBRANCH  19  20
ENDBRANCH   1  19
TORSDOF 13
