REMARK  6 active torsions:
REMARK  status: ('A' for Active; 'I' for Inactive)
REMARK    1  A    between atoms: C2_2  and  C30_31 
REMARK    2  A    between atoms: C3_3  and  C4_4 
REMARK    3  A    between atoms: C4_4  and  C5_5 
REMARK    4  A    between atoms: C5_5  and  C6_6 
REMARK    5  A    between atoms: C6_6  and  C8_8 
REMARK    6  A    between atoms: C30_31  and  O3_33 
ROOT
HETATM    1  C8  UNL     1       2.124   0.164   1.177  1.00  0.00    -0.002 C 
HETATM    2  C9  UNL     1       2.133  -1.261   1.789  1.00  0.00     0.007 C 
HETATM    3  C10 UNL     1       0.672  -1.767   1.750  1.00  0.00     0.015 C 
HETATM    4  C11 UNL     1      -0.178  -0.516   1.428  1.00  0.00    -0.013 C 
HETATM    5  C12 UNL     1      -0.402   0.213   2.794  1.00  0.00     0.021 C 
HETATM    6  C13 UNL     1      -1.567  -0.699   0.831  1.00  0.00    -0.070 C 
HETATM    7  C14 UNL     1      -2.350  -1.750   1.141  1.00  0.00    -0.022 C 
HETATM    8  C15 UNL     1      -3.779  -1.902   0.703  1.00  0.00     0.034 C 
HETATM    9  C16 UNL     1      -4.232  -0.866  -0.350  1.00  0.00     0.013 C 
HETATM   10  C17 UNL     1      -5.760  -0.911  -0.738  1.00  0.00     0.018 C 
HETATM   11  C18 UNL     1      -5.904  -1.364  -2.208  1.00  0.00     0.023 C 
HETATM   12  C19 UNL     1      -6.585  -1.893   0.121  1.00  0.00     0.023 C 
HETATM   13  C20 UNL     1      -6.426   0.470  -0.657  1.00  0.00     0.135 C 
HETATM   14  O1  UNL     1      -7.589   0.612  -0.270  1.00  0.00    -0.297 OA
HETATM   15  C21 UNL     1      -5.668   1.677  -1.159  1.00  0.00     0.080 C 
HETATM   16  C22 UNL     1      -4.156   1.522  -1.116  1.00  0.00     0.017 C 
HETATM   17  C23 UNL     1      -3.658   0.558  -0.016  1.00  0.00    -0.031 C 
HETATM   18  C24 UNL     1      -4.110   1.069   1.376  1.00  0.00     0.016 C 
HETATM   19  C25 UNL     1      -2.082   0.430  -0.074  1.00  0.00     0.024 C 
HETATM   20  C26 UNL     1      -1.312   1.764   0.105  1.00  0.00     0.010 C 
HETATM   21  C27 UNL     1       0.231   1.658   0.174  1.00  0.00     0.011 C 
HETATM   22  C28 UNL     1       0.760   0.231   0.419  1.00  0.00    -0.029 C 
HETATM   23  C29 UNL     1       0.895  -0.482  -0.959  1.00  0.00     0.016 C 
ENDROOT
BRANCH   1  24
HETATM   24  C6  UNL     1       3.418   0.622   0.438  1.00  0.00    -0.014 C 
HETATM   25  C7  UNL     1       4.405   1.168   1.489  1.00  0.00     0.010 C 
BRANCH  24  26
HETATM   26  C5  UNL     1       4.122  -0.465  -0.413  1.00  0.00     0.008 C 
BRANCH  26  27
HETATM   27  C4  UNL     1       4.789   0.060  -1.695  1.00  0.00     0.028 C 
BRANCH  27  28
HETATM   28  C3  UNL     1       5.996   0.926  -1.475  1.00  0.00    -0.013 C 
HETATM   29  C2  UNL     1       7.290   0.555  -1.391  1.00  0.00     0.008 C 
HETATM   30  C1  UNL     1       8.375   1.577  -1.195  1.00  0.00     0.055 C 
BRANCH  29  31
HETATM   31  C30 UNL     1       7.709  -0.869  -1.453  1.00  0.00     0.171 C 
HETATM   32  O2  UNL     1       6.999  -1.857  -1.397  1.00  0.00    -0.646 OA
BRANCH  31  33
HETATM   33  O3  UNL     1       9.042  -0.996  -1.580  1.00  0.00    -0.773 OA
HETATM   34  H46 UNL     1       9.170  -1.967  -1.611  1.00  0.00     0.167 HD
ENDBRANCH  31  33
ENDBRANCH  29  31
ENDBRANCH  27  28
ENDBRANCH  26  27
ENDBRANCH  24  26
ENDBRANCH   1  24
TORSDOF 6
