REMARK  19 active torsions:
REMARK  status: ('A' for Active; 'I' for Inactive)
REMARK    1  A    between atoms: C2_2  and  C3_3 
REMARK    2  A    between atoms: C3_3  and  C5_5 
REMARK    3  A    between atoms: C5_5  and  N1_6 
REMARK    4  A    between atoms: C5_5  and  C37_46 
REMARK       I    between atoms: N1_6  and  C6_7 
REMARK    5  A    between atoms: C6_7  and  C7_9 
REMARK    6  A    between atoms: C7_9  and  C8_10 
REMARK    7  A    between atoms: C8_10  and  C9_11 
REMARK    8  A    between atoms: C9_11  and  C10_12 
REMARK    9  A    between atoms: C10_12  and  C11_13 
REMARK   10  A    between atoms: C11_13  and  N2_14 
REMARK       I    between atoms: N2_14  and  C12_15 
REMARK   11  A    between atoms: C12_15  and  C13_17 
REMARK   12  A    between atoms: C13_17  and  C14_18 
REMARK   13  A    between atoms: C14_18  and  C15_19 
REMARK   14  A    between atoms: C15_19  and  O4_21 
REMARK   15  A    between atoms: O4_21  and  C16_22 
REMARK   16  A    between atoms: C16_22  and  C17_23 
REMARK   17  A    between atoms: C17_23  and  C18_25 
REMARK   18  A    between atoms: C18_25  and  O6_26 
REMARK   19  A    between atoms: C37_46  and  O9_48 
ROOT
HETATM    1  C15 UNL     1      -1.281  -1.889  -0.749  1.00  0.00     0.259 C 
HETATM    2  O3  UNL     1      -2.070  -2.348  -1.564  1.00  0.00    -0.265 OA
ENDROOT
BRANCH   1   3
HETATM    3  C14 UNL     1      -0.939  -2.561   0.560  1.00  0.00     0.120 C 
BRANCH   3   4
HETATM    4  C13 UNL     1       0.529  -2.443   0.965  1.00  0.00     0.112 C 
BRANCH   4   5
HETATM    5  C12 UNL     1       1.450  -3.162  -0.002  1.00  0.00     0.217 C 
HETATM    6  N2  UNL     1       2.713  -3.392   0.507  1.00  0.00    -0.361 N 
HETATM    7  H22 UNL     1       2.824  -3.359   1.513  1.00  0.00     0.162 HD
HETATM    8  O2  UNL     1       1.113  -3.479  -1.137  1.00  0.00    -0.274 OA
BRANCH   6   9
HETATM    9  C11 UNL     1       3.646  -4.217  -0.237  1.00  0.00     0.122 C 
BRANCH   9  10
HETATM   10  C10 UNL     1       5.062  -4.194   0.335  1.00  0.00     0.020 C 
BRANCH  10  11
HETATM   11  C9  UNL     1       5.905  -2.987  -0.091  1.00  0.00     0.002 C 
BRANCH  11  12
HETATM   12  C8  UNL     1       5.425  -1.647   0.479  1.00  0.00     0.009 C 
BRANCH  12  13
HETATM   13  C7  UNL     1       6.381  -0.502   0.130  1.00  0.00     0.103 C 
BRANCH  13  14
HETATM   14  C6  UNL     1       7.685  -0.540   0.909  1.00  0.00     0.218 C 
HETATM   15  N1  UNL     1       8.633   0.328   0.407  1.00  0.00    -0.346 N 
HETATM   16  H11 UNL     1       8.275   1.109  -0.131  1.00  0.00     0.163 HD
HETATM   17  O1  UNL     1       7.870  -1.251   1.890  1.00  0.00    -0.274 OA
BRANCH  15  18
HETATM   18  C5  UNL     1       9.887   0.568   1.137  1.00  0.00     0.186 C 
BRANCH  18  19
HETATM   19  C3  UNL     1      11.050   0.846   0.150  1.00  0.00     0.014 C 
HETATM   20  C4  UNL     1      12.404   0.665   0.849  1.00  0.00     0.012 C 
BRANCH  19  21
HETATM   21  C2  UNL     1      10.945   2.222  -0.547  1.00  0.00     0.002 C 
HETATM   22  C1  UNL     1      11.951   2.409  -1.677  1.00  0.00     0.005 C 
ENDBRANCH  19  21
ENDBRANCH  18  19
BRANCH  18  23
HETATM   23  C37 UNL     1       9.647   1.717   2.122  1.00  0.00     0.163 C 
HETATM   24  O8  UNL     1       8.819   2.608   2.000  1.00  0.00    -0.648 OA
BRANCH  23  25
HETATM   25  O9  UNL     1      10.484   1.700   3.178  1.00  0.00    -0.775 OA
HETATM   26  H56 UNL     1      10.202   2.464   3.724  1.00  0.00     0.167 HD
ENDBRANCH  23  25
ENDBRANCH  18  23
ENDBRANCH  15  18
ENDBRANCH  13  14
ENDBRANCH  12  13
ENDBRANCH  11  12
ENDBRANCH  10  11
ENDBRANCH   9  10
ENDBRANCH   6   9
ENDBRANCH   4   5
ENDBRANCH   3   4
ENDBRANCH   1   3
BRANCH   1  27
HETATM   27  O4  UNL     1      -0.696  -0.668  -0.843  1.00  0.00    -0.314 OA
BRANCH  27  28
HETATM   28  C16 UNL     1      -0.790  -0.058  -2.124  1.00  0.00     0.260 C 
BRANCH  28  29
HETATM   29  C17 UNL     1      -2.151   0.339  -2.711  1.00  0.00     0.185 C 
HETATM   30  O5  UNL     1      -2.407   0.075  -3.892  1.00  0.00    -0.292 OA
BRANCH  29  31
HETATM   31  C18 UNL     1      -3.109   1.189  -1.841  1.00  0.00     0.128 C 
HETATM   32  C19 UNL     1      -3.486   2.493  -2.597  1.00  0.00     0.047 C 
HETATM   33  C20 UNL     1      -4.915   2.858  -2.154  1.00  0.00     0.009 C 
HETATM   34  C21 UNL     1      -5.302   1.797  -1.119  1.00  0.00     0.002 C 
HETATM   35  C22 UNL     1      -6.812   1.554  -0.905  1.00  0.00    -0.004 C 
HETATM   36  C35 UNL     1      -4.513   0.542  -1.558  1.00  0.00    -0.002 C 
HETATM   37  C23 UNL     1      -7.464   2.789  -0.241  1.00  0.00     0.010 C 
HETATM   38  C32 UNL     1      -7.060   0.204  -0.126  1.00  0.00     0.002 C 
HETATM   39  C24 UNL     1      -7.509   2.687   1.277  1.00  0.00     0.035 C 
HETATM   40  C25 UNL     1      -8.271   1.473   1.744  1.00  0.00    -0.068 C 
HETATM   41  C26 UNL     1      -8.869   1.486   2.950  1.00  0.00     0.053 C 
HETATM   42  C30 UNL     1      -8.321   0.261   0.815  1.00  0.00    -0.016 C 
HETATM   43  C27 UNL     1      -9.611   0.311   3.475  1.00  0.00     0.149 C 
HETATM   44  O7  UNL     1     -10.213   0.410   4.543  1.00  0.00    -0.293 OA
HETATM   45  C28 UNL     1      -9.628  -0.962   2.662  1.00  0.00     0.084 C 
HETATM   46  C29 UNL     1      -8.445  -1.016   1.698  1.00  0.00     0.022 C 
HETATM   47  C31 UNL     1      -9.595   0.335  -0.074  1.00  0.00     0.020 C 
HETATM   48  C33 UNL     1      -5.757  -0.297   0.553  1.00  0.00     0.007 C 
HETATM   49  C34 UNL     1      -4.582  -0.503  -0.424  1.00  0.00     0.013 C 
HETATM   50  C36 UNL     1      -5.113  -0.098  -2.842  1.00  0.00     0.019 C 
BRANCH  31  51
HETATM   51  O6  UNL     1      -2.454   1.643  -0.652  1.00  0.00    -0.381 OA
HETATM   52  H29 UNL     1      -2.871   1.259   0.138  1.00  0.00     0.211 HD
ENDBRANCH  31  51
ENDBRANCH  29  31
ENDBRANCH  28  29
ENDBRANCH  27  28
ENDBRANCH   1  27
TORSDOF 19
