REMARK  9 active torsions:
REMARK  status: ('A' for Active; 'I' for Inactive)
REMARK    1  A    between atoms: C2_2  and  O2_4 
REMARK    2  A    between atoms: O2_4  and  C3_5 
REMARK    3  A    between atoms: C3_5  and  C4_6 
REMARK    4  A    between atoms: C4_6  and  C5_7 
REMARK    5  A    between atoms: C5_7  and  C6_8 
REMARK    6  A    between atoms: C20_22  and  C21_23 
REMARK    7  A    between atoms: C21_23  and  C23_25 
REMARK    8  A    between atoms: C23_25  and  C24_26 
REMARK    9  A    between atoms: C24_26  and  C25_27 
ROOT
HETATM    1  C6  UNL     1      -2.855  -0.120   0.162  1.00  0.00     0.023 C 
HETATM    2  C7  UNL     1      -3.773   0.998   0.725  1.00  0.00    -0.073 C 
HETATM    3  C8  UNL     1      -4.987   1.421   0.281  1.00  0.00    -0.085 C 
HETATM    4  C9  UNL     1      -5.833   2.425   1.036  1.00  0.00     0.043 C 
HETATM    5  C10 UNL     1      -5.649   1.018  -1.013  1.00  0.00     0.043 C 
HETATM    6  C11 UNL     1      -3.074   1.694   1.891  1.00  0.00     0.035 C 
HETATM    7  C12 UNL     1      -1.760   2.335   1.421  1.00  0.00     0.010 C 
HETATM    8  C13 UNL     1      -0.839   1.295   0.754  1.00  0.00     0.003 C 
HETATM    9  C14 UNL     1      -1.542   0.539  -0.449  1.00  0.00    -0.032 C 
HETATM   10  C15 UNL     1      -1.959   1.453  -1.628  1.00  0.00     0.016 C 
HETATM   11  C16 UNL     1      -0.564  -0.532  -1.023  1.00  0.00     0.011 C 
HETATM   12  C17 UNL     1       0.905  -0.081  -1.228  1.00  0.00     0.011 C 
HETATM   13  C18 UNL     1       1.512   0.552   0.043  1.00  0.00    -0.032 C 
HETATM   14  C19 UNL     1       1.597  -0.581   1.119  1.00  0.00     0.016 C 
HETATM   15  C20 UNL     1       2.918   1.247  -0.023  1.00  0.00    -0.002 C 
HETATM   16  C29 UNL     1       2.862   2.183   1.235  1.00  0.00     0.006 C 
HETATM   17  C30 UNL     1       1.384   2.339   1.645  1.00  0.00     0.011 C 
HETATM   18  C31 UNL     1       0.602   1.789   0.442  1.00  0.00    -0.032 C 
HETATM   19  C32 UNL     1       0.594   2.947  -0.608  1.00  0.00     0.016 C 
ENDROOT
BRANCH  15  20
HETATM   20  C21 UNL     1       4.237   0.402  -0.041  1.00  0.00    -0.014 C 
HETATM   21  C22 UNL     1       5.457   1.335   0.089  1.00  0.00     0.010 C 
BRANCH  20  22
HETATM   22  C23 UNL     1       4.371  -0.459  -1.320  1.00  0.00     0.008 C 
BRANCH  22  23
HETATM   23  C24 UNL     1       5.374  -1.624  -1.236  1.00  0.00     0.028 C 
BRANCH  23  24
HETATM   24  C25 UNL     1       6.809  -1.238  -1.460  1.00  0.00    -0.025 C 
HETATM   25  C26 UNL     1       7.872  -1.492  -0.670  1.00  0.00    -0.091 C 
HETATM   26  C27 UNL     1       9.249  -1.028  -1.069  1.00  0.00     0.042 C 
HETATM   27  C28 UNL     1       7.829  -2.219   0.646  1.00  0.00     0.042 C 
ENDBRANCH  23  24
ENDBRANCH  22  23
ENDBRANCH  20  22
ENDBRANCH  15  20
BRANCH   1  28
HETATM   28  C5  UNL     1      -3.485  -1.255  -0.685  1.00  0.00     0.012 C 
BRANCH  28  29
HETATM   29  C4  UNL     1      -4.544  -2.057   0.084  1.00  0.00     0.028 C 
BRANCH  29  30
HETATM   30  C3  UNL     1      -5.193  -3.118  -0.800  1.00  0.00     0.178 C 
BRANCH  30  31
HETATM   31  O2  UNL     1      -6.163  -3.856  -0.041  1.00  0.00    -0.322 OA
BRANCH  31  32
HETATM   32  C2  UNL     1      -7.422  -3.339  -0.031  1.00  0.00     0.254 C 
HETATM   33  C1  UNL     1      -8.321  -4.202   0.803  1.00  0.00     0.126 C 
HETATM   34  O1  UNL     1      -7.784  -2.325  -0.610  1.00  0.00    -0.266 OA
ENDBRANCH  31  32
ENDBRANCH  30  31
ENDBRANCH  29  30
ENDBRANCH  28  29
ENDBRANCH   1  28
TORSDOF 9
