REMARK  11 active torsions:
REMARK  status: ('A' for Active; 'I' for Inactive)
REMARK    1  A    between atoms: C3_4  and  O2_5 
REMARK    2  A    between atoms: O2_5  and  C4_6 
REMARK    3  A    between atoms: C7_9  and  C8_10 
REMARK    4  A    between atoms: N1_11  and  C9_13 
REMARK    5  A    between atoms: C9_13  and  C10_14 
REMARK    6  A    between atoms: C10_14  and  O3_15 
REMARK    7  A    between atoms: C16_21  and  C17_22 
REMARK    8  A    between atoms: C23_30  and  O6_31 
REMARK    9  A    between atoms: C27_35  and  O7_36 
REMARK   10  A    between atoms: C30_39  and  O8_40 
REMARK   11  A    between atoms: C31_41  and  O9_42 
ROOT
HETATM    1  C4  UNL     1       1.518   0.256   1.467  1.00  0.00     0.127 C 
HETATM    2  C5  UNL     1       1.338   0.996   0.140  1.00  0.00     0.033 C 
HETATM    3  C6  UNL     1       1.162   0.031  -1.030  1.00  0.00     0.021 C 
HETATM    4  C7  UNL     1      -0.023  -0.964  -0.848  1.00  0.00     0.026 C 
HETATM    5  C11 UNL     1      -1.421  -0.230  -0.869  1.00  0.00     0.009 C 
HETATM    6  C12 UNL     1      -1.737   0.528  -2.157  1.00  0.00     0.007 C 
HETATM    7  C13 UNL     1      -2.885   1.517  -1.957  1.00  0.00     0.013 C 
HETATM    8  C14 UNL     1      -4.034   1.055  -1.024  1.00  0.00    -0.005 C 
HETATM    9  C15 UNL     1      -5.354   1.531  -1.688  1.00  0.00     0.019 C 
HETATM   10  C16 UNL     1      -3.923   1.612   0.439  1.00  0.00     0.028 C 
HETATM   11  C21 UNL     1      -4.817   0.681   1.284  1.00  0.00     0.013 C 
HETATM   12  C22 UNL     1      -5.016  -0.586   0.453  1.00  0.00     0.040 C 
HETATM   13  C23 UNL     1      -4.047  -0.485  -0.741  1.00  0.00     0.070 C 
HETATM   14  C24 UNL     1      -2.631  -1.161  -0.546  1.00  0.00     0.026 C 
HETATM   15  C25 UNL     1      -2.414  -1.886   0.787  1.00  0.00     0.011 C 
HETATM   16  C26 UNL     1      -1.072  -2.610   0.827  1.00  0.00     0.039 C 
HETATM   17  C27 UNL     1       0.138  -1.709   0.529  1.00  0.00     0.073 C 
HETATM   18  C28 UNL     1       0.352  -0.712   1.704  1.00  0.00     0.071 C 
ENDROOT
BRANCH   1  19
HETATM   19  O2  UNL     1       2.718  -0.522   1.515  1.00  0.00    -0.356 OA
BRANCH  19  20
HETATM   20  C3  UNL     1       3.919   0.252   1.485  1.00  0.00     0.263 C 
HETATM   21  O1  UNL     1       4.494   0.126   0.189  1.00  0.00    -0.354 OA
HETATM   22  C2  UNL     1       5.692   0.889   0.043  1.00  0.00     0.151 C 
HETATM   23  C1  UNL     1       6.160   0.710  -1.398  1.00  0.00     0.042 C 
HETATM   24  C31 UNL     1       6.765   0.415   1.042  1.00  0.00     0.175 C 
HETATM   25  C30 UNL     1       6.202   0.410   2.472  1.00  0.00     0.154 C 
HETATM   26  C29 UNL     1       4.872  -0.321   2.531  1.00  0.00     0.095 C 
BRANCH  24  27
HETATM   27  O9  UNL     1       7.912   1.271   1.016  1.00  0.00    -0.390 OA
HETATM   28  H47 UNL     1       8.459   0.982   0.265  1.00  0.00     0.210 HD
ENDBRANCH  24  27
BRANCH  25  29
HETATM   29  O8  UNL     1       6.020   1.757   2.926  1.00  0.00    -0.393 OA
HETATM   30  H45 UNL     1       6.839   2.219   2.652  1.00  0.00     0.210 HD
ENDBRANCH  25  29
ENDBRANCH  19  20
ENDBRANCH   1  19
BRANCH  17  31
HETATM   31  O7  UNL     1       1.262  -2.606   0.503  1.00  0.00    -0.389 OA
HETATM   32  H39 UNL     1       2.077  -2.064   0.574  1.00  0.00     0.210 HD
ENDBRANCH  17  31
BRANCH   4  33
HETATM   33  C8  UNL     1       0.059  -1.998  -1.982  1.00  0.00     0.068 C 
HETATM   34  N1  UNL     1       1.196  -2.416  -2.436  1.00  0.00    -0.399 N 
ATOM     35  H1  UNL     1       2.080  -1.984  -2.167  1.00  0.00     0.158 HD
BRANCH  34  36
HETATM   36  C9  UNL     1       1.133  -3.552  -3.363  1.00  0.00     0.144 C 
BRANCH  36  37
HETATM   37  C10 UNL     1       1.908  -4.707  -2.731  1.00  0.00     0.183 C 
BRANCH  37  38
HETATM   38  O3  UNL     1       1.311  -5.051  -1.474  1.00  0.00    -0.399 OA
HETATM   39  H16 UNL     1       1.348  -4.227  -0.935  1.00  0.00     0.209 HD
ENDBRANCH  37  38
ENDBRANCH  36  37
ENDBRANCH  34  36
ENDBRANCH   4  33
BRANCH  13  40
HETATM   40  O6  UNL     1      -4.660  -1.153  -1.852  1.00  0.00    -0.389 OA
HETATM   41  H33 UNL     1      -4.741  -2.098  -1.639  1.00  0.00     0.210 HD
ENDBRANCH  13  40
BRANCH  10  42
HETATM   42  C17 UNL     1      -4.141   3.080   0.684  1.00  0.00    -0.045 A 
HETATM   43  C18 UNL     1      -3.172   3.982   0.854  1.00  0.00     0.087 A 
HETATM   44  C19 UNL     1      -3.811   5.271   1.100  1.00  0.00     0.283 A 
HETATM   45  O4  UNL     1      -3.213   6.313   1.282  1.00  0.00    -0.260 OA
HETATM   46  O5  UNL     1      -5.160   5.104   1.095  1.00  0.00    -0.314 OA
HETATM   47  C20 UNL     1      -5.465   3.731   0.850  1.00  0.00     0.213 A 
ENDBRANCH  10  42
TORSDOF 11
