REMARK  13 active torsions:
REMARK  status: ('A' for Active; 'I' for Inactive)
REMARK    1  A    between atoms: O1_2  and  C2_3 
REMARK    2  A    between atoms: C12_14  and  C13_15 
REMARK    3  A    between atoms: C13_15  and  C15_17 
REMARK    4  A    between atoms: C15_17  and  C16_18 
REMARK    5  A    between atoms: C17_19  and  C18_20 
REMARK    6  A    between atoms: C18_20  and  O3_23 
REMARK    7  A    between atoms: C28_31  and  O4_32 
REMARK    8  A    between atoms: O4_32  and  C29_33 
REMARK    9  A    between atoms: C30_35  and  C31_36 
REMARK   10  A    between atoms: C31_36  and  O6_37 
REMARK   11  A    between atoms: C32_38  and  O7_39 
REMARK   12  A    between atoms: C33_40  and  O8_41 
REMARK   13  A    between atoms: C34_42  and  O9_43 
ROOT
HETATM    1  C2  UNL     1      -0.851  -0.541   1.923  1.00  0.00     0.270 C 
HETATM    2  O2  UNL     1      -1.967  -1.277   1.370  1.00  0.00    -0.344 OA
HETATM    3  C3  UNL     1      -1.960  -1.107  -0.070  1.00  0.00     0.095 C 
HETATM    4  C4  UNL     1      -1.072  -2.245  -0.552  1.00  0.00     0.008 C 
HETATM    5  C5  UNL     1       0.264  -2.176  -0.512  1.00  0.00    -0.021 C 
HETATM    6  C6  UNL     1       0.969  -0.999   0.110  1.00  0.00     0.030 C 
HETATM    7  C7  UNL     1      -0.048   0.074   0.721  1.00  0.00     0.024 C 
HETATM    8  C8  UNL     1       0.714   1.348   1.208  1.00  0.00     0.016 C 
HETATM    9  C9  UNL     1       1.858   1.872   0.322  1.00  0.00     0.011 C 
HETATM   10  C10 UNL     1       2.839   0.749  -0.034  1.00  0.00    -0.032 C 
HETATM   11  C11 UNL     1       3.479   0.239   1.293  1.00  0.00     0.016 C 
HETATM   12  C12 UNL     1       3.953   1.097  -1.061  1.00  0.00    -0.002 C 
HETATM   13  C21 UNL     1       4.362  -0.294  -1.623  1.00  0.00     0.006 C 
HETATM   14  C22 UNL     1       3.218  -1.276  -1.253  1.00  0.00     0.011 C 
HETATM   15  C23 UNL     1       2.047  -0.364  -0.825  1.00  0.00    -0.029 C 
HETATM   16  C24 UNL     1       1.390   0.125  -2.161  1.00  0.00     0.016 C 
HETATM   17  C25 UNL     1      -1.272   0.275  -0.225  1.00  0.00     0.039 C 
HETATM   18  C26 UNL     1      -2.193   1.456   0.182  1.00  0.00     0.011 C 
HETATM   19  C27 UNL     1      -3.645   1.084   0.444  1.00  0.00     0.033 C 
HETATM   20  C28 UNL     1      -4.163   0.178  -0.657  1.00  0.00     0.136 C 
HETATM   21  C35 UNL     1      -3.421  -1.204  -0.675  1.00  0.00     0.014 C 
HETATM   22  C36 UNL     1      -3.409  -1.632  -2.171  1.00  0.00     0.021 C 
HETATM   23  C37 UNL     1      -4.231  -2.279   0.095  1.00  0.00     0.021 C 
ENDROOT
BRANCH  20  24
HETATM   24  O4  UNL     1      -5.581  -0.030  -0.566  1.00  0.00    -0.352 OA
BRANCH  24  25
HETATM   25  C29 UNL     1      -6.377   1.114  -0.868  1.00  0.00     0.292 C 
HETATM   26  O5  UNL     1      -6.709   1.838   0.317  1.00  0.00    -0.348 OA
HETATM   27  C30 UNL     1      -7.467   1.100   1.291  1.00  0.00     0.179 C 
HETATM   28  C32 UNL     1      -8.343  -0.013   0.690  1.00  0.00     0.180 C 
HETATM   29  C33 UNL     1      -8.842   0.451  -0.671  1.00  0.00     0.183 C 
HETATM   30  C34 UNL     1      -7.660   0.681  -1.623  1.00  0.00     0.204 C 
BRANCH  27  31
HETATM   31  C31 UNL     1      -6.579   0.545   2.414  1.00  0.00     0.198 C 
BRANCH  31  32
HETATM   32  O6  UNL     1      -7.335   0.108   3.541  1.00  0.00    -0.398 OA
HETATM   33  H48 UNL     1      -8.241  -0.112   3.235  1.00  0.00     0.209 HD
ENDBRANCH  31  32
ENDBRANCH  27  31
BRANCH  28  34
HETATM   34  O7  UNL     1      -9.445  -0.295   1.562  1.00  0.00    -0.390 OA
HETATM   35  H50 UNL     1     -10.067  -0.819   1.009  1.00  0.00     0.210 HD
ENDBRANCH  28  34
BRANCH  29  36
HETATM   36  O8  UNL     1      -9.742  -0.532  -1.207  1.00  0.00    -0.390 OA
HETATM   37  H52 UNL     1      -9.960  -0.236  -2.112  1.00  0.00     0.210 HD
ENDBRANCH  29  36
BRANCH  30  38
HETATM   38  O9  UNL     1      -8.074   1.680  -2.580  1.00  0.00    -0.388 OA
HETATM   39  H54 UNL     1      -8.095   2.537  -2.117  1.00  0.00     0.210 HD
ENDBRANCH  30  38
ENDBRANCH  24  25
ENDBRANCH  20  24
BRANCH   1  40
HETATM   40  O1  UNL     1      -0.025  -1.336   2.763  1.00  0.00    -0.365 OA
HETATM   41  C1  UNL     1      -0.746  -1.871   3.863  1.00  0.00     0.204 C 
ENDBRANCH   1  40
BRANCH  12  42
HETATM   42  C13 UNL     1       5.087   2.113  -0.738  1.00  0.00    -0.010 C 
HETATM   43  C14 UNL     1       5.846   2.448  -2.040  1.00  0.00     0.010 C 
BRANCH  42  44
HETATM   44  C15 UNL     1       6.115   1.858   0.390  1.00  0.00     0.031 C 
BRANCH  44  45
HETATM   45  C16 UNL     1       7.001   0.653   0.268  1.00  0.00    -0.027 C 
HETATM   46  C17 UNL     1       8.309   0.707  -0.036  1.00  0.00     0.006 C 
BRANCH  46  47
HETATM   47  C18 UNL     1       9.264  -0.454  -0.168  1.00  0.00     0.068 C 
HETATM   48  C19 UNL     1       8.619  -1.844  -0.171  1.00  0.00     0.050 C 
HETATM   49  C20 UNL     1      10.329  -0.379   0.925  1.00  0.00     0.050 C 
BRANCH  47  50
HETATM   50  O3  UNL     1       9.927  -0.287  -1.422  1.00  0.00    -0.387 OA
HETATM   51  H30 UNL     1       9.234  -0.259  -2.106  1.00  0.00     0.211 HD
ENDBRANCH  47  50
ENDBRANCH  46  47
ENDBRANCH  44  45
ENDBRANCH  42  44
ENDBRANCH  12  42
TORSDOF 13
