REMARK  9 active torsions:
REMARK  status: ('A' for Active; 'I' for Inactive)
REMARK    1  A    between atoms: C2_2  and  O1_3 
REMARK    2  A    between atoms: O1_3  and  C3_4 
REMARK    3  A    between atoms: C3_4  and  C4_6 
REMARK    4  A    between atoms: C4_6  and  O3_7 
REMARK    5  A    between atoms: C6_9  and  N4_37 
REMARK    6  A    between atoms: C7_11  and  N1_13 
REMARK    7  A    between atoms: C12_17  and  O5_18 
REMARK    8  A    between atoms: C13_19  and  N2_20 
REMARK    9  A    between atoms: C27_38  and  C28_39 
ROOT
HETATM    1  C4  UNL     1       2.507   0.268  -1.264  1.00  0.00     0.200 C 
HETATM    2  C5  UNL     1       2.163   1.672  -0.799  1.00  0.00     0.108 C 
HETATM    3  C6  UNL     1       0.977   2.065  -1.671  1.00  0.00     0.235 C 
HETATM    4  O4  UNL     1       0.627   0.956  -2.510  1.00  0.00    -0.332 OA
HETATM    5  C7  UNL     1       1.212  -0.250  -1.938  1.00  0.00     0.181 C 
HETATM    6  C8  UNL     1       1.459  -1.112  -3.189  1.00  0.00     0.075 C 
ENDROOT
BRANCH   1   7
HETATM    7  C3  UNL     1       3.021  -0.669  -0.174  1.00  0.00     0.298 C 
HETATM    8  O2  UNL     1       3.908  -1.487  -0.400  1.00  0.00    -0.262 OA
BRANCH   7   9
HETATM    9  O1  UNL     1       2.386  -0.502   1.011  1.00  0.00    -0.319 OA
BRANCH   9  10
HETATM   10  C2  UNL     1       2.752  -1.409   2.064  1.00  0.00     0.174 C 
HETATM   11  C1  UNL     1       3.929  -0.852   2.841  1.00  0.00     0.034 C 
ENDBRANCH   9  10
ENDBRANCH   7   9
ENDBRANCH   1   7
BRANCH   1  12
HETATM   12  O3  UNL     1       3.570   0.433  -2.238  1.00  0.00    -0.375 OA
HETATM   13  H6  UNL     1       4.107  -0.388  -2.219  1.00  0.00     0.211 HD
ENDBRANCH   1  12
BRANCH   5  14
HETATM   14  N1  UNL     1       0.218  -0.843  -1.012  1.00  0.00    -0.307 N 
HETATM   15  C9  UNL     1       0.126  -2.176  -0.618  1.00  0.00     0.051 A 
HETATM   16  C10 UNL     1       0.980  -3.268  -0.887  1.00  0.00     0.033 A 
HETATM   17  C14 UNL     1      -1.039  -2.321   0.183  1.00  0.00     0.028 A 
HETATM   18  C11 UNL     1       0.685  -4.524  -0.376  1.00  0.00     0.040 A 
HETATM   19  C12 UNL     1      -0.444  -4.683   0.391  1.00  0.00     0.087 A 
HETATM   20  C13 UNL     1      -1.341  -3.628   0.674  1.00  0.00     0.053 A 
HETATM   21  C15 UNL     1      -1.616  -1.004   0.326  1.00  0.00     0.024 C 
HETATM   22  C16 UNL     1      -2.701  -0.343   0.948  1.00  0.00     0.062 A 
HETATM   23  C28 UNL     1      -0.759  -0.146  -0.351  1.00  0.00     0.078 C 
HETATM   24  C17 UNL     1      -3.852  -0.895   1.666  1.00  0.00     0.260 A 
HETATM   25  C19 UNL     1      -2.885   1.070   0.974  1.00  0.00     0.062 A 
HETATM   26  O6  UNL     1      -4.150  -2.067   1.777  1.00  0.00    -0.267 OA
HETATM   27  N3  UNL     1      -4.577   0.146   2.146  1.00  0.00    -0.289 N 
HETATM   28  C18 UNL     1      -4.102   1.346   1.733  1.00  0.00     0.260 A 
HETATM   29  H18 UNL     1      -5.455   0.039   2.629  1.00  0.00     0.172 HD
HETATM   30  O7  UNL     1      -4.613   2.427   1.943  1.00  0.00    -0.267 OA
HETATM   31  C20 UNL     1      -2.024   1.987   0.367  1.00  0.00     0.022 A 
HETATM   32  C21 UNL     1      -1.866   3.399   0.205  1.00  0.00     0.004 A 
HETATM   33  C27 UNL     1      -0.973   1.403  -0.307  1.00  0.00     0.077 A 
HETATM   34  C22 UNL     1      -2.584   4.530   0.648  1.00  0.00     0.014 A 
HETATM   35  C26 UNL     1      -0.712   3.610  -0.572  1.00  0.00     0.048 A 
HETATM   36  C23 UNL     1      -2.143   5.816   0.316  1.00  0.00     0.001 A 
HETATM   37  C24 UNL     1      -0.998   5.995  -0.450  1.00  0.00     0.002 A 
HETATM   38  C25 UNL     1      -0.263   4.899  -0.907  1.00  0.00     0.030 A 
HETATM   39  N4  UNL     1      -0.204   2.368  -0.881  1.00  0.00    -0.316 N 
BRANCH  19  40
HETATM   40  O5  UNL     1      -0.674  -5.912   0.957  1.00  0.00    -0.359 OA
HETATM   41  H15 UNL     1      -1.332  -5.716   1.656  1.00  0.00     0.217 HD
ENDBRANCH  19  40
BRANCH  20  42
HETATM   42  N2  UNL     1      -2.453  -3.993   1.479  1.00  0.00    -0.300 NA
HETATM   43  H16 UNL     1      -3.008  -4.707   1.006  1.00  0.00     0.124 HD
HETATM   44  H17 UNL     1      -3.082  -3.204   1.664  1.00  0.00     0.124 HD
ENDBRANCH  20  42
ENDBRANCH   5  14
TORSDOF 9
