REMARK  12 active torsions:
REMARK  status: ('A' for Active; 'I' for Inactive)
REMARK    1  A    between atoms: C2_2  and  C3_3 
REMARK    2  A    between atoms: C4_4  and  C18_19 
REMARK    3  A    between atoms: C19_20  and  O1_21 
REMARK    4  A    between atoms: N2_22  and  C20_23 
REMARK    5  A    between atoms: C20_23  and  C21_24 
REMARK    6  A    between atoms: C21_24  and  O3_26 
REMARK    7  A    between atoms: O3_26  and  C22_27 
REMARK    8  A    between atoms: C25_30  and  C26_31 
REMARK    9  A    between atoms: C32_38  and  C33_39 
REMARK   10  A    between atoms: C39_47  and  O7_48 
REMARK   11  A    between atoms: C43_52  and  O8_53 
REMARK   12  A    between atoms: C45_55  and  O9_56 
ROOT
HETATM    1  C22 UNL     1      -0.314  -1.655   1.431  1.00  0.00     0.164 C 
HETATM    2  C23 UNL     1      -0.012  -2.312   0.087  1.00  0.00     0.042 C 
HETATM    3  C24 UNL     1       1.481  -2.312  -0.209  1.00  0.00     0.032 C 
HETATM    4  C25 UNL     1       2.032  -0.871  -0.432  1.00  0.00     0.076 C 
HETATM    5  C27 UNL     1       3.593  -0.875  -0.288  1.00  0.00     0.019 C 
HETATM    6  C28 UNL     1       4.332  -1.878  -1.190  1.00  0.00     0.008 C 
HETATM    7  C29 UNL     1       5.825  -1.929  -0.836  1.00  0.00     0.013 C 
HETATM    8  C30 UNL     1       6.552  -0.555  -0.934  1.00  0.00    -0.005 C 
HETATM    9  C31 UNL     1       6.767  -0.229  -2.428  1.00  0.00     0.019 C 
HETATM   10  C32 UNL     1       7.901  -0.643  -0.127  1.00  0.00     0.028 C 
HETATM   11  C37 UNL     1       7.539  -0.199   1.311  1.00  0.00     0.013 C 
HETATM   12  C38 UNL     1       6.091   0.296   1.296  1.00  0.00     0.040 C 
HETATM   13  C39 UNL     1       5.747   0.551  -0.177  1.00  0.00     0.070 C 
HETATM   14  C40 UNL     1       4.223   0.529  -0.494  1.00  0.00     0.027 C 
HETATM   15  C41 UNL     1       3.427   1.646   0.206  1.00  0.00     0.011 C 
HETATM   16  C42 UNL     1       2.427   1.115   1.221  1.00  0.00     0.040 C 
HETATM   17  C43 UNL     1       1.390   0.137   0.608  1.00  0.00     0.082 C 
HETATM   18  C44 UNL     1       0.714  -0.579   1.802  1.00  0.00     0.080 C 
HETATM   19 BR1  UNL     1       0.000   0.000   0.000  1.00  0.00    -0.120 Br
ENDROOT
BRANCH   1  20
HETATM   20  O3  UNL     1      -1.673  -1.164   1.347  1.00  0.00    -0.307 OA
BRANCH  20  21
HETATM   21  C21 UNL     1      -2.278  -0.794   2.503  1.00  0.00     0.286 C 
HETATM   22  O2  UNL     1      -1.727  -0.683   3.587  1.00  0.00    -0.263 OA
BRANCH  21  23
HETATM   23  C20 UNL     1      -3.756  -0.509   2.274  1.00  0.00     0.352 C 
BRANCH  23  24
HETATM   24  N2  UNL     1      -4.117   0.636   1.257  1.00  0.00    -0.021 N 
HETATM   25  C6  UNL     1      -5.685   0.816   1.277  1.00  0.00     0.214 C 
HETATM   26  C5  UNL     1      -5.984   2.221   0.723  1.00  0.00     0.041 C 
HETATM   27  C7  UNL     1      -6.413  -0.261   0.408  1.00  0.00     0.109 C 
HETATM   28  C4  UNL     1      -4.843   2.644  -0.211  1.00  0.00     0.004 C 
HETATM   29  C3  UNL     1      -3.691   3.071   0.736  1.00  0.00     0.047 C 
HETATM   30  C45 UNL     1      -3.425   1.909   1.742  1.00  0.00     0.329 C 
HETATM   31  N1  UNL     1      -6.597  -1.590   1.063  1.00  0.00    -0.279 NA
HETATM   32  C15 UNL     1      -5.660  -0.585  -0.918  1.00  0.00     0.035 C 
HETATM   33  C8  UNL     1      -7.615  -1.704   2.112  1.00  0.00     0.117 C 
HETATM   34  C9  UNL     1      -6.858  -2.414  -0.088  1.00  0.00     0.018 A 
HETATM   35  C10 UNL     1      -7.465  -3.659  -0.121  1.00  0.00     0.024 A 
HETATM   36  C14 UNL     1      -6.379  -1.833  -1.286  1.00  0.00    -0.024 A 
HETATM   37  C11 UNL     1      -7.622  -4.294  -1.359  1.00  0.00     0.002 A 
HETATM   38  C12 UNL     1      -7.164  -3.692  -2.546  1.00  0.00     0.001 A 
HETATM   39  C13 UNL     1      -6.527  -2.455  -2.514  1.00  0.00     0.010 A 
HETATM   40  C16 UNL     1      -4.185  -0.930  -0.695  1.00  0.00     0.053 C 
HETATM   41  C19 UNL     1      -5.514   0.642  -1.816  1.00  0.00     0.139 C 
HETATM   42  C17 UNL     1      -3.665   0.391  -0.198  1.00  0.00     0.203 C 
HETATM   43  C18 UNL     1      -4.389   1.450  -1.093  1.00  0.00     0.051 C 
BRANCH  29  44
HETATM   44  C2  UNL     1      -2.393   3.502   0.024  1.00  0.00     0.005 C 
HETATM   45  C1  UNL     1      -2.580   4.673  -0.925  1.00  0.00     0.005 C 
ENDBRANCH  29  44
BRANCH  30  46
HETATM   46  O9  UNL     1      -3.883   2.273   3.021  1.00  0.00    -0.369 OA
HETATM   47  H59 UNL     1      -3.293   2.992   3.346  1.00  0.00     0.212 HD
ENDBRANCH  30  46
BRANCH  41  48
HETATM   48  O1  UNL     1      -6.703   1.390  -1.952  1.00  0.00    -0.394 OA
HETATM   49  H24 UNL     1      -7.038   1.282  -2.867  1.00  0.00     0.210 HD
ENDBRANCH  41  48
ENDBRANCH  23  24
ENDBRANCH  21  23
ENDBRANCH  20  21
ENDBRANCH   1  20
BRANCH  17  50
HETATM   50  O8  UNL     1       0.342   0.910  -0.015  1.00  0.00    -0.388 OA
HETATM   51  H55 UNL     1       0.666   1.824  -0.143  1.00  0.00     0.210 HD
ENDBRANCH  17  50
BRANCH   4  52
HETATM   52  C26 UNL     1       1.675  -0.437  -1.862  1.00  0.00     0.253 C 
HETATM   53  O4  UNL     1       1.260  -1.192  -2.740  1.00  0.00    -0.305 OA
ENDBRANCH   4  52
BRANCH  13  54
HETATM   54  O7  UNL     1       6.262   1.824  -0.563  1.00  0.00    -0.389 OA
HETATM   55  H49 UNL     1       6.093   2.492   0.134  1.00  0.00     0.210 HD
ENDBRANCH  13  54
BRANCH  10  56
HETATM   56  C33 UNL     1       9.093   0.112  -0.661  1.00  0.00    -0.045 A 
HETATM   57  C34 UNL     1       9.383   1.410  -0.568  1.00  0.00     0.087 A 
HETATM   58  C35 UNL     1      10.668   1.621  -1.231  1.00  0.00     0.283 A 
HETATM   59  O5  UNL     1      11.226   2.695  -1.342  1.00  0.00    -0.260 OA
HETATM   60  O6  UNL     1      11.126   0.429  -1.700  1.00  0.00    -0.314 OA
HETATM   61  C36 UNL     1      10.186  -0.593  -1.376  1.00  0.00     0.213 A 
ENDBRANCH  10  56
TORSDOF 12
