REMARK  4 active torsions:
REMARK  status: ('A' for Active; 'I' for Inactive)
REMARK    1  A    between atoms: C7_11  and  O3_12 
REMARK    2  A    between atoms: C10_16  and  C11_17 
REMARK    3  A    between atoms: C21_28  and  C22_29 
REMARK    4  A    between atoms: C28_37  and  O8_38 
ROOT
HETATM    1  C1  UNL     1       8.610   1.206  -0.350  1.00  0.00     0.040 C 
HETATM    2  C2  UNL     1       7.215   1.006   0.226  1.00  0.00     0.124 C 
HETATM    3  C3  UNL     1       7.084  -0.373   0.871  1.00  0.00     0.082 C 
HETATM    4  C4  UNL     1       5.610  -0.840   0.981  1.00  0.00     0.175 C 
HETATM    5  N1  UNL     1       5.298  -1.847  -0.023  1.00  0.00    -0.335 N 
HETATM    6  C5  UNL     1       5.426  -3.166   0.297  1.00  0.00     0.230 C 
HETATM    7  O1  UNL     1       5.410  -4.059  -0.538  1.00  0.00    -0.273 OA
HETATM    8  C6  UNL     1       5.645  -3.377   1.760  1.00  0.00     0.214 C 
HETATM    9  S1  UNL     1       5.496  -1.775   2.587  1.00  0.00     0.059 S 
HETATM   10  O2  UNL     1       3.965  -1.652   3.222  1.00  0.00    -0.255 OA
HETATM   11  C7  UNL     1       4.619   0.363   0.932  1.00  0.00     0.252 C 
HETATM   12  O4  UNL     1       3.253  -0.055   1.033  1.00  0.00    -0.340 OA
HETATM   13  C8  UNL     1       2.385   0.761   0.256  1.00  0.00     0.156 C 
HETATM   14  C9  UNL     1       0.942   0.325   0.516  1.00  0.00     0.056 C 
HETATM   15  C10 UNL     1      -0.099   1.067  -0.363  1.00  0.00     0.043 C 
HETATM   16  C12 UNL     1       0.376   1.192  -1.816  1.00  0.00    -0.065 C 
HETATM   17  C13 UNL     1      -0.469   1.077  -2.856  1.00  0.00    -0.022 C 
HETATM   18  C14 UNL     1      -1.938   0.804  -2.745  1.00  0.00     0.035 C 
HETATM   19  C15 UNL     1      -2.508   0.833  -1.310  1.00  0.00     0.030 C 
HETATM   20  C16 UNL     1      -1.470   0.280  -0.302  1.00  0.00     0.012 C 
HETATM   21  C17 UNL     1      -2.062   0.180   1.113  1.00  0.00     0.007 C 
HETATM   22  C18 UNL     1      -3.349  -0.635   1.130  1.00  0.00     0.013 C 
HETATM   23  C19 UNL     1      -4.457  -0.062   0.205  1.00  0.00    -0.005 C 
HETATM   24  C20 UNL     1      -4.982   1.251   0.819  1.00  0.00     0.019 C 
HETATM   25  C21 UNL     1      -5.561  -1.179   0.047  1.00  0.00     0.028 C 
HETATM   26  C26 UNL     1      -5.304  -1.824  -1.335  1.00  0.00     0.013 C 
HETATM   27  C27 UNL     1      -3.964  -1.282  -1.819  1.00  0.00     0.040 C 
HETATM   28  C28 UNL     1      -3.905   0.141  -1.240  1.00  0.00     0.070 C 
HETATM   29  C29 UNL     1       1.849   1.459  -2.069  1.00  0.00     0.069 C 
HETATM   30  C30 UNL     1       2.739   0.562  -1.214  1.00  0.00     0.158 C 
HETATM   31  O9  UNL     1       4.121   0.785  -1.515  1.00  0.00    -0.347 OA
HETATM   32  C31 UNL     1       4.918   1.192  -0.393  1.00  0.00     0.326 C 
HETATM   33  O10 UNL     1       6.280   1.104  -0.836  1.00  0.00    -0.351 OA
HETATM   34  H7  UNL     1       5.232  -1.599  -1.008  1.00  0.00     0.164 HD
ENDROOT
BRANCH  11  35
HETATM   35  O3  UNL     1       4.838   1.215   2.069  1.00  0.00    -0.359 OA
HETATM   36  H10 UNL     1       4.303   0.774   2.772  1.00  0.00     0.213 HD
ENDBRANCH  11  35
BRANCH  15  37
HETATM   37  C11 UNL     1      -0.243   2.492   0.219  1.00  0.00     0.245 C 
HETATM   38  O5  UNL     1       0.261   3.506  -0.259  1.00  0.00    -0.306 OA
ENDBRANCH  15  37
BRANCH  28  39
HETATM   39  O8  UNL     1      -4.833   0.952  -1.974  1.00  0.00    -0.389 OA
HETATM   40  H35 UNL     1      -4.660   0.834  -2.927  1.00  0.00     0.210 HD
ENDBRANCH  28  39
BRANCH  25  41
HETATM   41  C22 UNL     1      -6.996  -0.789   0.255  1.00  0.00    -0.045 A 
HETATM   42  C23 UNL     1      -7.842  -0.187  -0.584  1.00  0.00     0.087 A 
HETATM   43  C24 UNL     1      -9.125  -0.075   0.107  1.00  0.00     0.283 A 
HETATM   44  O6  UNL     1     -10.135   0.405  -0.367  1.00  0.00    -0.260 OA
HETATM   45  O7  UNL     1      -9.016  -0.621   1.347  1.00  0.00    -0.314 OA
HETATM   46  C25 UNL     1      -7.684  -1.093   1.530  1.00  0.00     0.213 A 
ENDBRANCH  25  41
TORSDOF 4
