REMARK  12 active torsions:
REMARK  status: ('A' for Active; 'I' for Inactive)
REMARK    1  A    between atoms: C2_2  and  C4_4 
REMARK    2  A    between atoms: C4_4  and  C6_6 
REMARK    3  A    between atoms: C7_8  and  C8_9 
REMARK    4  A    between atoms: C8_9  and  O2_11 
REMARK    5  A    between atoms: C8_9  and  C10_12 
REMARK    6  A    between atoms: C13_15  and  O3_16 
REMARK    7  A    between atoms: C19_23  and  O5_24 
REMARK    8  A    between atoms: C20_25  and  O6_26 
REMARK    9  A    between atoms: C27_33  and  C28_34 
REMARK   10  A    between atoms: C28_34  and  C29_35 
REMARK   11  A    between atoms: C29_35  and  C30_36 
REMARK   12  A    between atoms: C34_40  and  O7_41 
ROOT
HETATM    1  C10 UNL     1       1.043  -1.778   1.046  1.00  0.00     0.034 C 
HETATM    2  C11 UNL     1       1.177  -0.902   2.325  1.00  0.00     0.012 C 
HETATM    3  C12 UNL     1      -0.161  -0.150   2.489  1.00  0.00     0.044 C 
HETATM    4  C13 UNL     1      -1.112  -0.875   1.533  1.00  0.00     0.090 C 
HETATM    5  C14 UNL     1      -2.426  -0.280   1.086  1.00  0.00    -0.037 C 
HETATM    6  C15 UNL     1      -2.810   0.968   1.391  1.00  0.00     0.057 C 
HETATM    7  C16 UNL     1      -4.002   1.574   0.764  1.00  0.00     0.154 C 
HETATM    8  O4  UNL     1      -4.403   2.650   1.203  1.00  0.00    -0.293 OA
HETATM    9  C17 UNL     1      -4.645   0.848  -0.418  1.00  0.00     0.071 C 
HETATM   10  C18 UNL     1      -6.046   1.424  -0.714  1.00  0.00     0.047 C 
HETATM   11  C19 UNL     1      -7.144   0.912   0.225  1.00  0.00     0.147 C 
HETATM   12  C20 UNL     1      -6.623   0.101   1.416  1.00  0.00     0.147 C 
HETATM   13  C21 UNL     1      -5.637  -1.010   1.024  1.00  0.00     0.044 C 
HETATM   14  C22 UNL     1      -4.672  -0.679  -0.167  1.00  0.00    -0.023 C 
HETATM   15  C23 UNL     1      -5.215  -1.410  -1.422  1.00  0.00     0.016 C 
HETATM   16  C24 UNL     1      -3.224  -1.214   0.168  1.00  0.00     0.027 C 
HETATM   17  C25 UNL     1      -2.335  -1.598  -1.046  1.00  0.00     0.011 C 
HETATM   18  C26 UNL     1      -0.952  -2.153  -0.628  1.00  0.00     0.014 C 
HETATM   19  C27 UNL     1      -0.185  -1.164   0.283  1.00  0.00     0.002 C 
ENDROOT
BRANCH   1  20
HETATM   20  C8  UNL     1       2.390  -2.128   0.353  1.00  0.00     0.087 C 
HETATM   21  C9  UNL     1       3.045  -3.299   1.113  1.00  0.00     0.049 C 
BRANCH  20  22
HETATM   22  C7  UNL     1       3.334  -0.945   0.215  1.00  0.00     0.185 A 
HETATM   23  C6  UNL     1       4.746  -0.885   0.783  1.00  0.00     0.158 A 
HETATM   24  O1  UNL     1       4.504  -1.232  -0.583  1.00  0.00    -0.372 OA
BRANCH  23  25
HETATM   25  C4  UNL     1       5.498   0.409   1.018  1.00  0.00     0.017 C 
HETATM   26  C5  UNL     1       5.165   1.523   0.020  1.00  0.00     0.013 C 
BRANCH  25  27
HETATM   27  C2  UNL     1       7.026   0.129   1.140  1.00  0.00    -0.016 C 
HETATM   28  C1  UNL     1       7.781   1.317   1.745  1.00  0.00     0.010 C 
HETATM   29  C3  UNL     1       7.679  -0.280  -0.183  1.00  0.00     0.010 C 
ENDBRANCH  25  27
ENDBRANCH  23  25
ENDBRANCH  20  22
BRANCH  20  30
HETATM   30  O2  UNL     1       2.111  -2.625  -0.957  1.00  0.00    -0.387 OA
HETATM   31  H17 UNL     1       2.971  -2.675  -1.416  1.00  0.00     0.210 HD
ENDBRANCH  20  30
ENDBRANCH   1  20
BRANCH  19  32
HETATM   32  C28 UNL     1       0.150   0.170  -0.486  1.00  0.00     0.018 C 
BRANCH  32  33
HETATM   33  C29 UNL     1       0.681   0.058  -1.927  1.00  0.00     0.039 C 
BRANCH  33  34
HETATM   34  C30 UNL     1       0.832   1.428  -2.550  1.00  0.00    -0.056 A 
HETATM   35  C31 UNL     1       2.071   2.082  -2.560  1.00  0.00     0.007 A 
HETATM   36  C32 UNL     1       2.191   3.364  -3.104  1.00  0.00     0.003 A 
HETATM   37  C33 UNL     1       1.076   4.005  -3.643  1.00  0.00     0.036 A 
HETATM   38  C34 UNL     1      -0.154   3.353  -3.639  1.00  0.00     0.066 A 
HETATM   39  C35 UNL     1      -0.283   2.077  -3.101  1.00  0.00     0.043 A 
BRANCH  38  40
HETATM   40  O7  UNL     1      -1.273   3.938  -4.154  1.00  0.00    -0.361 OA
HETATM   41  H49 UNL     1      -1.048   4.841  -4.436  1.00  0.00     0.217 HD
ENDBRANCH  38  40
ENDBRANCH  33  34
ENDBRANCH  32  33
ENDBRANCH  19  32
BRANCH   4  42
HETATM   42  O3  UNL     1      -1.466  -2.095   2.210  1.00  0.00    -0.384 OA
HETATM   43  H23 UNL     1      -2.020  -1.852   2.972  1.00  0.00     0.211 HD
ENDBRANCH   4  42
BRANCH  12  44
HETATM   44  O6  UNL     1      -7.746  -0.492   2.084  1.00  0.00    -0.393 OA
HETATM   45  H31 UNL     1      -7.408  -0.900   2.901  1.00  0.00     0.210 HD
ENDBRANCH  12  44
BRANCH  11  46
HETATM   46  O5  UNL     1      -8.056   0.096  -0.521  1.00  0.00    -0.393 OA
HETATM   47  H29 UNL     1      -8.587  -0.366   0.161  1.00  0.00     0.210 HD
ENDBRANCH  11  46
TORSDOF 12
