REMARK  12 active torsions:
REMARK  status: ('A' for Active; 'I' for Inactive)
REMARK    1  A    between atoms: N1_6  and  O1_8 
REMARK    2  A    between atoms: O1_8  and  C6_9 
REMARK    3  A    between atoms: C6_9  and  C7_10 
REMARK       I    between atoms: C7_10  and  N2_12 
REMARK    4  A    between atoms: N2_12  and  C8_13 
REMARK    5  A    between atoms: C8_13  and  C9_14 
REMARK    6  A    between atoms: C12_17  and  C13_18 
REMARK    7  A    between atoms: C13_18  and  O4_20 
REMARK    8  A    between atoms: C22_29  and  O5_30 
REMARK    9  A    between atoms: C29_37  and  O6_38 
REMARK   10  A    between atoms: C29_37  and  C30_39 
REMARK   11  A    between atoms: C30_39  and  C31_41 
REMARK   12  A    between atoms: C31_41  and  O8_42 
ROOT
HETATM    1  C1  UNL     1      -1.924   2.440   1.650  1.00  0.00     0.020 C 
HETATM    2  C2  UNL     1      -1.542   1.029   1.150  1.00  0.00    -0.014 C 
HETATM    3  C3  UNL     1      -1.014   0.189   2.349  1.00  0.00     0.020 C 
HETATM    4  C4  UNL     1       0.339   0.651   2.868  1.00  0.00     0.060 C 
HETATM    5  C5  UNL     1       1.369   0.680   1.760  1.00  0.00     0.032 C 
HETATM    6  N1  UNL     1       2.605   0.483   2.105  1.00  0.00    -0.271 N 
ATOM      7  H1  UNL     1       2.906   0.283   3.059  1.00  0.00     0.194 HD
HETATM    8  C16 UNL     1       0.886   1.008   0.387  1.00  0.00     0.030 C 
HETATM    9  C17 UNL     1      -0.418   1.208   0.121  1.00  0.00    -0.069 C 
HETATM   10  C18 UNL     1      -0.831   1.700  -1.245  1.00  0.00     0.035 C 
HETATM   11  C19 UNL     1      -1.950   0.857  -1.836  1.00  0.00     0.010 C 
HETATM   12  C20 UNL     1      -3.165   0.804  -0.900  1.00  0.00    -0.002 C 
HETATM   13  C21 UNL     1      -2.751   0.241   0.497  1.00  0.00     0.031 C 
HETATM   14  C22 UNL     1      -3.983   0.015   1.427  1.00  0.00     0.124 C 
HETATM   15  C23 UNL     1      -5.142  -0.743   0.740  1.00  0.00     0.045 C 
HETATM   16  C24 UNL     1      -5.552  -0.140  -0.625  1.00  0.00     0.001 C 
HETATM   17  C25 UNL     1      -6.212   1.256  -0.445  1.00  0.00     0.019 C 
HETATM   18  C26 UNL     1      -4.267  -0.093  -1.487  1.00  0.00     0.002 C 
HETATM   19  C27 UNL     1      -4.782   0.217  -2.885  1.00  0.00     0.009 C 
HETATM   20  C28 UNL     1      -6.109  -0.557  -2.976  1.00  0.00     0.047 C 
HETATM   21  C29 UNL     1      -6.463  -1.031  -1.533  1.00  0.00     0.128 C 
ENDROOT
BRANCH   6  22
HETATM   22  O1  UNL     1       3.477   0.577   1.011  1.00  0.00    -0.271 OA
BRANCH  22  23
HETATM   23  C6  UNL     1       4.781   0.881   1.493  1.00  0.00     0.303 C 
BRANCH  23  24
HETATM   24  C7  UNL     1       5.722   0.990   0.304  1.00  0.00     0.244 C 
HETATM   25  O2  UNL     1       6.223   2.055  -0.047  1.00  0.00    -0.271 OA
HETATM   26  N2  UNL     1       5.974  -0.210  -0.328  1.00  0.00    -0.355 N 
HETATM   27  H10 UNL     1       5.590  -1.060   0.065  1.00  0.00     0.162 HD
BRANCH  26  28
HETATM   28  C8  UNL     1       6.900  -0.316  -1.433  1.00  0.00     0.161 C 
BRANCH  28  29
HETATM   29  C9  UNL     1       8.274  -0.722  -0.961  1.00  0.00    -0.040 A 
HETATM   30  C10 UNL     1       8.728  -2.039  -1.115  1.00  0.00     0.010 A 
HETATM   31  C11 UNL     1      10.004  -2.404  -0.674  1.00  0.00     0.019 A 
HETATM   32  C12 UNL     1      10.838  -1.460  -0.063  1.00  0.00     0.037 A 
HETATM   33  C14 UNL     1      10.389  -0.146   0.100  1.00  0.00     0.019 A 
HETATM   34  C15 UNL     1       9.117   0.219  -0.348  1.00  0.00     0.010 A 
BRANCH  32  35
HETATM   35  C13 UNL     1      12.180  -1.896   0.394  1.00  0.00     0.176 C 
HETATM   36  O3  UNL     1      12.644  -3.015   0.276  1.00  0.00    -0.646 OA
BRANCH  35  37
HETATM   37  O4  UNL     1      12.879  -0.908   0.980  1.00  0.00    -0.773 OA
HETATM   38  H15 UNL     1      13.728  -1.332   1.232  1.00  0.00     0.167 HD
ENDBRANCH  35  37
ENDBRANCH  32  35
ENDBRANCH  28  29
ENDBRANCH  26  28
ENDBRANCH  23  24
ENDBRANCH  22  23
ENDBRANCH   6  22
BRANCH  14  39
HETATM   39  O5  UNL     1      -4.479   1.244   1.936  1.00  0.00    -0.395 OA
HETATM   40  H26 UNL     1      -5.158   1.045   2.604  1.00  0.00     0.210 HD
ENDBRANCH  14  39
BRANCH  21  41
HETATM   41  O6  UNL     1      -6.062  -2.407  -1.467  1.00  0.00    -0.381 OA
HETATM   42  H37 UNL     1      -6.375  -2.768  -0.612  1.00  0.00     0.211 HD
ENDBRANCH  21  41
BRANCH  21  43
HETATM   43  C30 UNL     1      -7.987  -0.912  -1.256  1.00  0.00     0.184 C 
HETATM   44  O7  UNL     1      -8.765  -0.323  -2.012  1.00  0.00    -0.292 OA
BRANCH  43  45
HETATM   45  C31 UNL     1      -8.509  -1.506   0.050  1.00  0.00     0.245 C 
BRANCH  45  46
HETATM   46  O8  UNL     1      -8.027  -2.817   0.304  1.00  0.00    -0.393 OA
HETATM   47  H40 UNL     1      -8.556  -3.419  -0.258  1.00  0.00     0.209 HD
ENDBRANCH  45  46
ENDBRANCH  43  45
ENDBRANCH  21  43
TORSDOF 12
