REMARK  13 active torsions:
REMARK  status: ('A' for Active; 'I' for Inactive)
REMARK    1  A    between atoms: C19_21  and  O3_22 
REMARK    2  A    between atoms: C19_21  and  C20_23 
REMARK    3  A    between atoms: C20_23  and  C21_25 
REMARK    4  A    between atoms: C21_25  and  O5_26 
REMARK    5  A    between atoms: O5_26  and  C22_27 
REMARK    6  A    between atoms: C22_27  and  C23_29 
REMARK    7  A    between atoms: C23_29  and  C24_30 
REMARK    8  A    between atoms: C24_30  and  C25_31 
REMARK       I    between atoms: C25_31  and  N1_33 
REMARK    9  A    between atoms: N1_33  and  C26_34 
REMARK   10  A    between atoms: C26_34  and  C27_35 
REMARK   11  A    between atoms: C26_34  and  C34_42 
REMARK   12  A    between atoms: C27_35  and  C28_36 
REMARK   13  A    between atoms: C34_42  and  O9_44 
ROOT
HETATM    1  C20 UNL     1      -0.175   2.367  -0.020  1.00  0.00     0.185 C 
HETATM    2  O4  UNL     1      -0.631   3.396   0.488  1.00  0.00    -0.292 OA
ENDROOT
BRANCH   1   3
HETATM    3  C19 UNL     1      -1.114   1.277  -0.587  1.00  0.00     0.128 C 
HETATM    4  C14 UNL     1      -2.299   0.930   0.372  1.00  0.00     0.005 C 
HETATM    5  C13 UNL     1      -3.449   1.945   0.420  1.00  0.00     0.091 C 
HETATM    6  C15 UNL     1      -1.785   0.674   1.817  1.00  0.00     0.019 C 
HETATM    7  C16 UNL     1      -2.837  -0.349  -0.318  1.00  0.00     0.002 C 
HETATM    8  C12 UNL     1      -4.643   1.329   1.139  1.00  0.00     0.133 C 
HETATM    9  C11 UNL     1      -5.164  -0.015   0.589  1.00  0.00     0.072 C 
HETATM   10  O2  UNL     1      -5.174   1.926   2.073  1.00  0.00    -0.297 OA
HETATM   11  C2  UNL     1      -6.406  -0.620   1.339  1.00  0.00    -0.009 C 
HETATM   12  C10 UNL     1      -3.983  -1.021   0.449  1.00  0.00     0.003 C 
HETATM   13  C1  UNL     1      -6.128  -0.873   2.838  1.00  0.00     0.021 C 
HETATM   14  C3  UNL     1      -7.609   0.360   1.186  1.00  0.00     0.022 C 
HETATM   15  C7  UNL     1      -6.761  -1.975   0.697  1.00  0.00    -0.067 C 
HETATM   16  C4  UNL     1      -8.958  -0.264   1.515  1.00  0.00     0.084 C 
HETATM   17  C5  UNL     1      -9.184  -1.492   0.678  1.00  0.00     0.149 C 
HETATM   18  O1  UNL     1     -10.303  -1.852   0.320  1.00  0.00    -0.293 OA
HETATM   19  C6  UNL     1      -8.011  -2.340   0.361  1.00  0.00     0.053 C 
HETATM   20  C8  UNL     1      -5.622  -2.942   0.472  1.00  0.00     0.035 C 
HETATM   21  C9  UNL     1      -4.459  -2.292  -0.267  1.00  0.00     0.010 C 
HETATM   22  C17 UNL     1      -1.578  -1.163  -0.591  1.00  0.00     0.009 C 
HETATM   23  C18 UNL     1      -0.479  -0.113  -0.844  1.00  0.00     0.047 C 
BRANCH   3  24
HETATM   24  O3  UNL     1      -1.655   1.738  -1.834  1.00  0.00    -0.381 OA
HETATM   25  H25 UNL     1      -0.987   2.308  -2.274  1.00  0.00     0.211 HD
ENDBRANCH   3  24
ENDBRANCH   1   3
BRANCH   1  26
HETATM   26  C21 UNL     1       1.343   2.166  -0.087  1.00  0.00     0.260 C 
BRANCH  26  27
HETATM   27  O5  UNL     1       1.955   1.530  -1.202  1.00  0.00    -0.314 OA
BRANCH  27  28
HETATM   28  C22 UNL     1       1.675   2.058  -2.420  1.00  0.00     0.259 C 
HETATM   29  O6  UNL     1       0.782   2.872  -2.619  1.00  0.00    -0.265 OA
BRANCH  28  30
HETATM   30  C23 UNL     1       2.545   1.503  -3.525  1.00  0.00     0.120 C 
BRANCH  30  31
HETATM   31  C24 UNL     1       3.466   0.361  -3.111  1.00  0.00     0.112 C 
BRANCH  31  32
HETATM   32  C25 UNL     1       4.622   0.841  -2.255  1.00  0.00     0.218 C 
HETATM   33  O7  UNL     1       4.846   2.022  -2.024  1.00  0.00    -0.274 OA
HETATM   34  N1  UNL     1       5.386  -0.191  -1.756  1.00  0.00    -0.346 N 
HETATM   35  H32 UNL     1       5.361  -1.063  -2.275  1.00  0.00     0.163 HD
BRANCH  34  36
HETATM   36  C26 UNL     1       6.643   0.085  -1.042  1.00  0.00     0.186 C 
BRANCH  36  37
HETATM   37  C27 UNL     1       6.908  -1.017  -0.010  1.00  0.00     0.074 C 
BRANCH  37  38
HETATM   38  C28 UNL     1       8.058  -0.720   0.921  1.00  0.00    -0.056 A 
HETATM   39  C29 UNL     1       9.280  -1.391   0.780  1.00  0.00     0.007 A 
HETATM   40  C30 UNL     1      10.343  -1.111   1.642  1.00  0.00     0.001 A 
HETATM   41  C31 UNL     1      10.195  -0.161   2.649  1.00  0.00     0.000 A 
HETATM   42  C32 UNL     1       8.984   0.513   2.797  1.00  0.00     0.001 A 
HETATM   43  C33 UNL     1       7.919   0.235   1.938  1.00  0.00     0.007 A 
ENDBRANCH  37  38
ENDBRANCH  36  37
BRANCH  36  44
HETATM   44  C34 UNL     1       7.753   0.101  -2.089  1.00  0.00     0.163 C 
HETATM   45  O8  UNL     1       7.826  -0.645  -3.057  1.00  0.00    -0.648 OA
BRANCH  44  46
HETATM   46  O9  UNL     1       8.702   1.027  -1.860  1.00  0.00    -0.775 OA
HETATM   47  H41 UNL     1       9.338   0.934  -2.600  1.00  0.00     0.167 HD
ENDBRANCH  44  46
ENDBRANCH  36  44
ENDBRANCH  34  36
ENDBRANCH  31  32
ENDBRANCH  30  31
ENDBRANCH  28  30
ENDBRANCH  27  28
ENDBRANCH  26  27
ENDBRANCH   1  26
TORSDOF 13
