REMARK  8 active torsions:
REMARK  status: ('A' for Active; 'I' for Inactive)
REMARK    1  A    between atoms: C2_2  and  C3_3 
REMARK    2  A    between atoms: C2_2  and  C9_12 
REMARK    3  A    between atoms: C3_3  and  C4_4 
REMARK    4  A    between atoms: C4_4  and  C5_5 
REMARK    5  A    between atoms: C6_6  and  C7_7 
REMARK    6  A    between atoms: C6_6  and  C8_9 
REMARK    7  A    between atoms: C7_7  and  O1_8 
REMARK    8  A    between atoms: C8_9  and  O3_11 
ROOT
HETATM    1  C9  UNL     1       2.052   0.914   0.056  1.00  0.00    -0.002 C 
HETATM    2  C10 UNL     1       1.948   1.438   1.517  1.00  0.00     0.006 C 
HETATM    3  C11 UNL     1       0.509   1.145   2.004  1.00  0.00     0.011 C 
HETATM    4  C12 UNL     1      -0.091   0.216   0.935  1.00  0.00    -0.032 C 
HETATM    5  C13 UNL     1       0.385  -1.238   1.289  1.00  0.00     0.016 C 
HETATM    6  C14 UNL     1      -1.638   0.234   0.792  1.00  0.00     0.004 C 
HETATM    7  C15 UNL     1      -2.381  -0.142   2.086  1.00  0.00     0.007 C 
HETATM    8  C16 UNL     1      -3.891  -0.370   1.927  1.00  0.00     0.007 C 
HETATM    9  C17 UNL     1      -4.450  -0.164   0.506  1.00  0.00     0.010 C 
HETATM   10  C18 UNL     1      -5.981  -0.503   0.352  1.00  0.00     0.018 C 
HETATM   11  C19 UNL     1      -6.724   0.655  -0.352  1.00  0.00     0.023 C 
HETATM   12  C20 UNL     1      -6.712  -0.721   1.695  1.00  0.00     0.023 C 
HETATM   13  C21 UNL     1      -6.174  -1.756  -0.516  1.00  0.00     0.135 C 
HETATM   14  O4  UNL     1      -6.950  -2.662  -0.197  1.00  0.00    -0.297 OA
HETATM   15  C22 UNL     1      -5.464  -1.827  -1.850  1.00  0.00     0.080 C 
HETATM   16  C23 UNL     1      -4.237  -0.930  -1.911  1.00  0.00     0.018 C 
HETATM   17  C24 UNL     1      -3.572  -0.861  -0.556  1.00  0.00    -0.026 A 
HETATM   18  C25 UNL     1      -2.640  -2.008  -0.216  1.00  0.00     0.021 A 
HETATM   19  C26 UNL     1      -2.058  -0.619  -0.428  1.00  0.00    -0.027 A 
HETATM   20  C27 UNL     1      -1.259  -0.367  -1.718  1.00  0.00     0.011 C 
HETATM   21  C28 UNL     1       0.255  -0.159  -1.528  1.00  0.00     0.011 C 
HETATM   22  C29 UNL     1       0.557   0.808  -0.374  1.00  0.00    -0.032 C 
HETATM   23  C30 UNL     1       0.032   2.219  -0.778  1.00  0.00     0.016 C 
ENDROOT
BRANCH   1  24
HETATM   24  C2  UNL     1       3.043   1.656  -0.888  1.00  0.00    -0.014 C 
HETATM   25  C1  UNL     1       3.260   3.145  -0.599  1.00  0.00     0.010 C 
BRANCH  24  26
HETATM   26  C3  UNL     1       4.424   0.943  -0.960  1.00  0.00     0.008 C 
BRANCH  26  27
HETATM   27  C4  UNL     1       5.077   0.631   0.392  1.00  0.00     0.028 C 
BRANCH  27  28
HETATM   28  C5  UNL     1       6.548   0.310   0.313  1.00  0.00    -0.011 C 
HETATM   29  C6  UNL     1       7.153  -0.698  -0.357  1.00  0.00     0.035 C 
BRANCH  29  30
HETATM   30  C7  UNL     1       6.491  -1.781  -1.168  1.00  0.00     0.209 C 
BRANCH  30  31
HETATM   31  O1  UNL     1       5.296  -2.256  -0.550  1.00  0.00    -0.396 OA
HETATM   32  H12 UNL     1       5.510  -2.419   0.387  1.00  0.00     0.209 HD
ENDBRANCH  30  31
ENDBRANCH  29  30
BRANCH  29  33
HETATM   33  C8  UNL     1       8.638  -0.788  -0.354  1.00  0.00     0.173 C 
HETATM   34  O2  UNL     1       9.318  -1.429  -1.140  1.00  0.00    -0.646 OA
BRANCH  33  35
HETATM   35  O3  UNL     1       9.216  -0.113   0.659  1.00  0.00    -0.773 OA
HETATM   36  H13 UNL     1      10.174  -0.269   0.524  1.00  0.00     0.167 HD
ENDBRANCH  33  35
ENDBRANCH  29  33
ENDBRANCH  27  28
ENDBRANCH  26  27
ENDBRANCH  24  26
ENDBRANCH   1  24
TORSDOF 8
