REMARK  11 active torsions:
REMARK  status: ('A' for Active; 'I' for Inactive)
REMARK    1  A    between atoms: C4_4  and  O1_5 
REMARK    2  A    between atoms: O1_5  and  C5_6 
REMARK    3  A    between atoms: C6_8  and  C7_9 
REMARK    4  A    between atoms: C7_9  and  O3_10 
REMARK    5  A    between atoms: C8_11  and  O4_12 
REMARK    6  A    between atoms: C9_13  and  O5_14 
REMARK    7  A    between atoms: C10_15  and  O6_16 
REMARK    8  A    between atoms: C15_21  and  O7_22 
REMARK    9  A    between atoms: C15_21  and  C16_23 
REMARK   10  A    between atoms: C17_24  and  C18_25 
REMARK   11  A    between atoms: C18_25  and  O8_27 
ROOT
HETATM    1  C1  UNL     1       0.008  -0.755  -1.880  1.00  0.00     0.013 C 
HETATM    2  C2  UNL     1      -1.089  -0.036  -1.084  1.00  0.00     0.023 C 
HETATM    3  C3  UNL     1      -0.516   1.116  -0.235  1.00  0.00     0.039 C 
HETATM    4  C4  UNL     1       0.098   0.682   1.099  1.00  0.00     0.126 C 
HETATM    5  C11 UNL     1      -0.882  -0.188   1.900  1.00  0.00     0.044 C 
HETATM    6  C12 UNL     1      -1.481  -1.403   1.136  1.00  0.00    -0.010 C 
HETATM    7  C13 UNL     1      -0.432  -2.535   1.007  1.00  0.00     0.018 C 
HETATM    8  C14 UNL     1      -2.594  -2.009   2.040  1.00  0.00     0.018 C 
HETATM    9  C15 UNL     1      -2.055  -0.953  -0.267  1.00  0.00     0.086 C 
ENDROOT
BRANCH   4  10
HETATM   10  O1  UNL     1       1.309  -0.055   0.944  1.00  0.00    -0.353 OA
BRANCH  10  11
HETATM   11  C5  UNL     1       2.492   0.752   0.831  1.00  0.00     0.292 C 
HETATM   12  O2  UNL     1       2.599   1.293  -0.483  1.00  0.00    -0.348 OA
HETATM   13  C6  UNL     1       3.925   1.690  -0.896  1.00  0.00     0.179 C 
HETATM   14  C8  UNL     1       4.930   1.842   0.257  1.00  0.00     0.180 C 
HETATM   15  C9  UNL     1       4.984   0.597   1.154  1.00  0.00     0.183 C 
HETATM   16  C10 UNL     1       3.668  -0.186   1.143  1.00  0.00     0.204 C 
BRANCH  13  17
HETATM   17  C7  UNL     1       4.410   0.716  -1.979  1.00  0.00     0.198 C 
BRANCH  17  18
HETATM   18  O3  UNL     1       3.511   0.759  -3.090  1.00  0.00    -0.398 OA
HETATM   19  H12 UNL     1       2.614   0.710  -2.708  1.00  0.00     0.209 HD
ENDBRANCH  17  18
ENDBRANCH  13  17
BRANCH  14  20
HETATM   20  O4  UNL     1       4.523   2.957   1.072  1.00  0.00    -0.390 OA
HETATM   21  H14 UNL     1       4.598   3.762   0.527  1.00  0.00     0.210 HD
ENDBRANCH  14  20
BRANCH  15  22
HETATM   22  O5  UNL     1       6.043  -0.271   0.724  1.00  0.00    -0.390 OA
HETATM   23  H16 UNL     1       6.073  -0.994   1.382  1.00  0.00     0.210 HD
ENDBRANCH  15  22
BRANCH  16  24
HETATM   24  O6  UNL     1       3.502  -0.861   2.400  1.00  0.00    -0.388 OA
HETATM   25  H18 UNL     1       2.574  -1.174   2.395  1.00  0.00     0.210 HD
ENDBRANCH  16  24
ENDBRANCH  10  11
ENDBRANCH   4  10
BRANCH   9  26
HETATM   26  O7  UNL     1      -2.339  -2.112  -1.058  1.00  0.00    -0.385 OA
HETATM   27  H27 UNL     1      -3.003  -2.635  -0.579  1.00  0.00     0.211 HD
ENDBRANCH   9  26
BRANCH   9  28
HETATM   28  C16 UNL     1      -3.367  -0.176  -0.110  1.00  0.00     0.010 C 
HETATM   29  C17 UNL     1      -4.504  -0.370  -0.807  1.00  0.00     0.003 C 
BRANCH  29  30
HETATM   30  C18 UNL     1      -5.758   0.427  -0.605  1.00  0.00     0.136 C 
HETATM   31  C19 UNL     1      -6.082   1.292  -1.815  1.00  0.00     0.043 C 
BRANCH  30  32
HETATM   32  O8  UNL     1      -6.824  -0.487  -0.374  1.00  0.00    -0.392 OA
HETATM   33  H34 UNL     1      -6.954  -0.998  -1.190  1.00  0.00     0.210 HD
ENDBRANCH  30  32
ENDBRANCH  29  30
ENDBRANCH   9  28
TORSDOF 11
