REMARK  4 active torsions:
REMARK  status: ('A' for Active; 'I' for Inactive)
REMARK    1  A    between atoms: C4_4  and  C5_5 
REMARK    2  A    between atoms: C5_5  and  C6_6 
REMARK    3  A    between atoms: C6_6  and  C7_7 
REMARK    4  A    between atoms: C7_7  and  C9_9 
ROOT
HETATM    1  C9  UNL     1       2.271  -1.117  -0.651  1.00  0.00    -0.001 C 
HETATM    2  C10 UNL     1       2.184  -0.726  -2.155  1.00  0.00     0.007 C 
HETATM    3  C11 UNL     1       0.735  -0.304  -2.451  1.00  0.00     0.024 C 
HETATM    4  C12 UNL     1       0.053  -0.326  -1.102  1.00  0.00     0.092 C 
HETATM    5  C13 UNL     1       0.175   1.039  -0.377  1.00  0.00     0.272 C 
HETATM    6  O1  UNL     1       1.035   1.889  -0.521  1.00  0.00    -0.264 OA
HETATM    7  O2  UNL     1      -0.892   1.163   0.495  1.00  0.00    -0.305 OA
HETATM    8  C14 UNL     1      -1.718  -0.023   0.400  1.00  0.00     0.113 C 
HETATM    9  C15 UNL     1      -1.119  -1.061   1.400  1.00  0.00     0.043 C 
HETATM   10  C16 UNL     1       0.403  -1.304   1.205  1.00  0.00     0.014 C 
HETATM   11  C17 UNL     1       0.786  -1.444  -0.291  1.00  0.00    -0.020 C 
HETATM   12  C18 UNL     1       0.411  -2.872  -0.764  1.00  0.00     0.017 C 
HETATM   13  C19 UNL     1      -1.415  -0.461  -0.996  1.00  0.00     0.137 A 
HETATM   14  O3  UNL     1      -2.130  -1.508  -1.620  1.00  0.00    -0.364 OA
HETATM   15  C20 UNL     1      -2.353  -0.177  -2.138  1.00  0.00     0.162 A 
HETATM   16  C21 UNL     1      -3.714   0.375  -1.877  1.00  0.00     0.041 C 
HETATM   17  C22 UNL     1      -3.774   1.191  -0.567  1.00  0.00     0.010 C 
HETATM   18  C23 UNL     1      -5.197   1.768  -0.329  1.00  0.00     0.056 C 
HETATM   19  C24 UNL     1      -5.665   2.686  -1.463  1.00  0.00     0.018 C 
HETATM   20  C25 UNL     1      -5.238   2.522   0.999  1.00  0.00     0.131 C 
HETATM   21  O4  UNL     1      -5.733   3.642   1.117  1.00  0.00    -0.298 OA
HETATM   22  C26 UNL     1      -4.728   1.777   2.206  1.00  0.00     0.079 C 
HETATM   23  C27 UNL     1      -3.329   1.247   1.932  1.00  0.00     0.020 C 
HETATM   24  C28 UNL     1      -3.227   0.354   0.656  1.00  0.00    -0.004 C 
HETATM   25  C29 UNL     1      -4.075  -0.925   0.886  1.00  0.00     0.019 C 
ENDROOT
BRANCH   1  26
HETATM   26  C7  UNL     1       3.375  -2.177  -0.380  1.00  0.00    -0.014 C 
HETATM   27  C8  UNL     1       3.449  -2.600   1.090  1.00  0.00     0.010 C 
BRANCH  26  28
HETATM   28  C6  UNL     1       4.785  -1.771  -0.896  1.00  0.00     0.008 C 
BRANCH  28  29
HETATM   29  C5  UNL     1       5.593  -0.755  -0.070  1.00  0.00     0.028 C 
BRANCH  29  30
HETATM   30  C4  UNL     1       5.048   0.643  -0.106  1.00  0.00    -0.025 C 
HETATM   31  C2  UNL     1       4.697   1.430   0.930  1.00  0.00    -0.091 C 
HETATM   32  C1  UNL     1       4.786   1.060   2.384  1.00  0.00     0.042 C 
HETATM   33  C3  UNL     1       4.146   2.812   0.683  1.00  0.00     0.042 C 
ENDBRANCH  29  30
ENDBRANCH  28  29
ENDBRANCH  26  28
ENDBRANCH   1  26
TORSDOF 4
