REMARK  6 active torsions:
REMARK  status: ('A' for Active; 'I' for Inactive)
REMARK       I    between atoms: N1_1  and  C1_2 
REMARK       I    between atoms: C1_2  and  N2_3 
REMARK    1  A    between atoms: N3_4  and  C2_6 
REMARK    2  A    between atoms: C11_16  and  S1_17 
REMARK    3  A    between atoms: S1_17  and  O4_20 
REMARK    4  A    between atoms: C23_33  and  O6_34 
REMARK    5  A    between atoms: C29_40  and  C30_41 
REMARK    6  A    between atoms: C30_41  and  O7_42 
ROOT
HETATM    1  C2  UNL     1      -4.993   2.035  -0.523  1.00  0.00     0.263 C 
HETATM    2  O1  UNL     1      -5.280   1.089  -1.608  1.00  0.00    -0.322 OA
HETATM    3  C3  UNL     1      -4.818  -0.189  -1.421  1.00  0.00     0.071 C 
HETATM    4  C4  UNL     1      -5.047  -0.929  -0.264  1.00  0.00     0.037 C 
HETATM    5  C5  UNL     1      -4.347  -2.121  -0.056  1.00  0.00     0.010 C 
HETATM    6  C6  UNL     1      -3.436  -2.590  -1.013  1.00  0.00    -0.058 C 
HETATM    7  C7  UNL     1      -3.321  -1.904  -2.230  1.00  0.00     0.010 C 
HETATM    8  C8  UNL     1      -4.018  -0.713  -2.436  1.00  0.00     0.037 C 
HETATM    9  C9  UNL     1      -2.546  -3.774  -0.712  1.00  0.00     0.040 C 
HETATM   10  C10 UNL     1      -1.058  -3.389  -0.572  1.00  0.00     0.027 C 
HETATM   11  C11 UNL     1      -0.753  -2.450   0.628  1.00  0.00     0.130 C 
HETATM   12  C12 UNL     1       0.231  -1.305   0.239  1.00  0.00     0.037 C 
HETATM   13  C13 UNL     1       1.649  -1.734  -0.062  1.00  0.00    -0.014 C 
HETATM   14  C14 UNL     1       2.702  -1.154   0.554  1.00  0.00    -0.050 C 
HETATM   15  C15 UNL     1       2.515  -0.325   1.785  1.00  0.00     0.042 C 
HETATM   16  C16 UNL     1       1.477   0.722   1.422  1.00  0.00     0.001 C 
HETATM   17  C17 UNL     1       2.071   1.677   0.353  1.00  0.00     0.038 C 
HETATM   18  C18 UNL     1       2.614   1.156  -1.015  1.00  0.00     0.130 C 
HETATM   19  O5  UNL     1       3.745   0.268  -1.059  1.00  0.00    -0.371 OA
HETATM   20  C19 UNL     1       3.946  -0.883  -0.242  1.00  0.00     0.185 C 
HETATM   21  C20 UNL     1       5.262  -0.828   0.551  1.00  0.00    -0.006 A 
HETATM   22  C21 UNL     1       5.667  -2.011   1.209  1.00  0.00     0.014 A 
HETATM   23  C22 UNL     1       6.853  -2.064   1.945  1.00  0.00     0.037 A 
HETATM   24  C23 UNL     1       7.656  -0.933   2.029  1.00  0.00     0.067 A 
HETATM   25  C24 UNL     1       7.293   0.247   1.392  1.00  0.00     0.057 A 
HETATM   26  C25 UNL     1       6.105   0.310   0.655  1.00  0.00     0.029 A 
HETATM   27  C26 UNL     1       5.766   1.558   0.035  1.00  0.00    -0.066 C 
HETATM   28  C27 UNL     1       5.216   2.456  -0.545  1.00  0.00    -0.101 C 
HETATM   29  C28 UNL     1       4.208   3.255  -1.258  1.00  0.00     0.103 C 
HETATM   30  C29 UNL     1       3.097   2.365  -1.908  1.00  0.00     0.049 C 
HETATM   31  C31 UNL     1       0.139  -0.037   1.175  1.00  0.00     0.032 C 
HETATM   32  C32 UNL     1      -1.063   0.833   0.828  1.00  0.00    -0.053 C 
HETATM   33  C33 UNL     1      -2.114   0.937   1.751  1.00  0.00     0.008 C 
HETATM   34  C34 UNL     1      -3.354   1.443   1.360  1.00  0.00     0.012 C 
HETATM   35  C35 UNL     1      -3.569   1.859   0.039  1.00  0.00    -0.010 C 
HETATM   36  C36 UNL     1      -2.469   1.921  -0.829  1.00  0.00     0.012 C 
HETATM   37  C37 UNL     1      -1.233   1.398  -0.442  1.00  0.00     0.008 C 
ENDROOT
BRANCH   1  38
HETATM   38  N3  UNL     1      -6.008   2.151   0.540  1.00  0.00    -0.341 N 
HETATM   39  C1  UNL     1      -7.239   2.168   0.200  1.00  0.00     0.124 C 
HETATM   40  N1  UNL     1      -8.199   2.306   1.142  1.00  0.00    -0.279 NA
HETATM   41  N2  UNL     1      -7.811   2.068  -1.021  1.00  0.00    -0.279 NA
HETATM   42  H1  UNL     1      -8.904   2.983   0.876  1.00  0.00     0.126 HD
HETATM   43  H2  UNL     1      -7.781   2.558   2.033  1.00  0.00     0.126 HD
HETATM   44  H3  UNL     1      -8.660   1.514  -0.992  1.00  0.00     0.126 HD
HETATM   45  H4  UNL     1      -7.176   1.677  -1.716  1.00  0.00     0.126 HD
ATOM     46  H3  UNL     1      -5.734   2.216   1.521  1.00  0.00     0.164 HD
ENDBRANCH   1  38
BRANCH  11  47
HETATM   47  S1  UNL     1      -0.159  -3.394   2.060  1.00  0.00     0.099 S 
HETATM   48  O2  UNL     1       0.939  -4.261   1.695  1.00  0.00    -0.601 OA
HETATM   49  O3  UNL     1      -0.118  -2.568   3.245  1.00  0.00    -0.601 OA
BRANCH  47  50
HETATM   50  O4  UNL     1      -1.423  -4.383   2.238  1.00  0.00    -0.295 OA
HETATM   51  H15 UNL     1      -1.073  -5.287   2.392  1.00  0.00     0.232 HD
ENDBRANCH  47  50
ENDBRANCH  11  47
BRANCH  30  52
HETATM   52  C30 UNL     1       1.920   3.230  -2.376  1.00  0.00     0.172 C 
BRANCH  52  53
HETATM   53  O7  UNL     1       2.318   4.120  -3.413  1.00  0.00    -0.400 OA
HETATM   54  H34 UNL     1       2.818   4.850  -3.011  1.00  0.00     0.209 HD
ENDBRANCH  52  53
ENDBRANCH  30  52
BRANCH  24  55
HETATM   55  O6  UNL     1       8.821  -0.942   2.737  1.00  0.00    -0.361 OA
HETATM   56  H27 UNL     1       8.937  -1.822   3.132  1.00  0.00     0.217 HD
ENDBRANCH  24  55
TORSDOF 6
