REMARK  5 active torsions:
REMARK  status: ('A' for Active; 'I' for Inactive)
REMARK    1  A    between atoms: C4_4  and  C5_5 
REMARK    2  A    between atoms: C5_5  and  C6_6 
REMARK    3  A    between atoms: C6_6  and  C7_7 
REMARK    4  A    between atoms: C7_7  and  C9_9 
REMARK    5  A    between atoms: C26_29  and  O4_30 
ROOT
HETATM    1  C9  UNL     1       2.259  -1.056  -0.187  1.00  0.00    -0.001 C 
HETATM    2  C10 UNL     1       2.215  -1.700   1.233  1.00  0.00     0.007 C 
HETATM    3  C11 UNL     1       0.828  -1.420   1.837  1.00  0.00     0.024 C 
HETATM    4  C12 UNL     1       0.052  -0.781   0.711  1.00  0.00     0.092 C 
HETATM    5  C13 UNL     1      -0.642  -1.838  -0.184  1.00  0.00     0.272 C 
HETATM    6  O1  UNL     1      -0.308  -2.996  -0.369  1.00  0.00    -0.264 OA
HETATM    7  O2  UNL     1      -1.740  -1.250  -0.782  1.00  0.00    -0.305 OA
HETATM    8  C14 UNL     1      -1.838   0.126  -0.335  1.00  0.00     0.113 C 
HETATM    9  C15 UNL     1      -0.964   0.966  -1.318  1.00  0.00     0.043 C 
HETATM   10  C16 UNL     1       0.483   0.418  -1.478  1.00  0.00     0.014 C 
HETATM   11  C17 UNL     1       1.115   0.008  -0.121  1.00  0.00    -0.020 C 
HETATM   12  C18 UNL     1       1.607   1.291   0.599  1.00  0.00     0.017 C 
HETATM   13  C19 UNL     1      -1.140   0.046   0.989  1.00  0.00     0.137 A 
HETATM   14  O3  UNL     1      -1.109   1.143   1.883  1.00  0.00    -0.364 OA
HETATM   15  C20 UNL     1      -1.902   0.010   2.295  1.00  0.00     0.162 A 
HETATM   16  C21 UNL     1      -3.386   0.229   2.300  1.00  0.00     0.041 C 
HETATM   17  C22 UNL     1      -4.011  -0.222   0.960  1.00  0.00     0.009 C 
HETATM   18  C23 UNL     1      -5.594  -0.368   0.927  1.00  0.00    -0.017 C 
HETATM   19  C24 UNL     1      -5.919  -1.862   0.633  1.00  0.00     0.018 C 
HETATM   20  C25 UNL     1      -6.257  -0.053   2.290  1.00  0.00     0.018 C 
HETATM   21  C26 UNL     1      -6.296   0.468  -0.180  1.00  0.00     0.126 C 
HETATM   22  C27 UNL     1      -5.591   0.508  -1.538  1.00  0.00     0.033 C 
HETATM   23  C28 UNL     1      -4.108   0.143  -1.523  1.00  0.00     0.015 C 
HETATM   24  C29 UNL     1      -3.353   0.558  -0.240  1.00  0.00    -0.004 C 
HETATM   25  C30 UNL     1      -3.425   2.098  -0.072  1.00  0.00     0.019 C 
ENDROOT
BRANCH   1  26
HETATM   26  C7  UNL     1       3.698  -0.611  -0.586  1.00  0.00    -0.014 C 
HETATM   27  C8  UNL     1       3.721   0.062  -1.964  1.00  0.00     0.010 C 
BRANCH  26  28
HETATM   28  C6  UNL     1       4.681  -1.819  -0.592  1.00  0.00     0.008 C 
BRANCH  28  29
HETATM   29  C5  UNL     1       6.072  -1.496  -0.022  1.00  0.00     0.028 C 
BRANCH  29  30
HETATM   30  C4  UNL     1       6.873  -0.549  -0.870  1.00  0.00    -0.025 C 
HETATM   31  C2  UNL     1       7.244   0.715  -0.585  1.00  0.00    -0.091 C 
HETATM   32  C1  UNL     1       6.918   1.454   0.683  1.00  0.00     0.042 C 
HETATM   33  C3  UNL     1       8.036   1.520  -1.582  1.00  0.00     0.042 C 
ENDBRANCH  29  30
ENDBRANCH  28  29
ENDBRANCH  26  28
ENDBRANCH   1  26
BRANCH  21  34
HETATM   34  O4  UNL     1      -6.518   1.805   0.272  1.00  0.00    -0.395 OA
HETATM   35  H39 UNL     1      -7.080   2.251  -0.386  1.00  0.00     0.210 HD
ENDBRANCH  21  34
TORSDOF 5
