REMARK  6 active torsions:
REMARK  status: ('A' for Active; 'I' for Inactive)
REMARK    1  A    between atoms: C2_2  and  C30_32 
REMARK    2  A    between atoms: C3_3  and  C4_4 
REMARK    3  A    between atoms: C4_4  and  C5_5 
REMARK    4  A    between atoms: C5_5  and  C6_6 
REMARK    5  A    between atoms: C6_6  and  C8_8 
REMARK    6  A    between atoms: C30_32  and  O4_34 
ROOT
HETATM    1  C8  UNL     1       2.108   1.477   0.654  1.00  0.00    -0.002 C 
HETATM    2  C9  UNL     1       1.577   2.715   1.430  1.00  0.00     0.007 C 
HETATM    3  C10 UNL     1       0.043   2.722   1.275  1.00  0.00     0.015 C 
HETATM    4  C11 UNL     1      -0.241   1.758   0.108  1.00  0.00    -0.005 C 
HETATM    5  C12 UNL     1      -0.014   2.558  -1.215  1.00  0.00     0.021 C 
HETATM    6  C13 UNL     1      -1.617   1.135  -0.050  1.00  0.00    -0.000 C 
HETATM    7  C14 UNL     1      -1.806  -0.077  -0.630  1.00  0.00    -0.060 C 
HETATM    8  C15 UNL     1      -0.573  -0.900  -1.065  1.00  0.00     0.036 C 
HETATM    9  C16 UNL     1       0.831  -0.309  -0.798  1.00  0.00     0.015 C 
HETATM   10  C17 UNL     1       0.823   0.632   0.412  1.00  0.00    -0.028 C 
HETATM   11  C18 UNL     1       0.482  -0.203   1.681  1.00  0.00     0.016 C 
HETATM   12  C19 UNL     1      -3.214  -0.671  -0.967  1.00  0.00    -0.014 C 
HETATM   13  C20 UNL     1      -3.273  -0.719  -2.521  1.00  0.00     0.020 C 
HETATM   14  C21 UNL     1      -3.364  -2.127  -0.436  1.00  0.00     0.021 C 
HETATM   15  C22 UNL     1      -4.005  -2.205   0.937  1.00  0.00     0.080 C 
HETATM   16  C23 UNL     1      -5.428  -1.701   0.878  1.00  0.00     0.135 C 
HETATM   17  O1  UNL     1      -6.287  -2.186   1.617  1.00  0.00    -0.297 OA
HETATM   18  C24 UNL     1      -5.751  -0.575  -0.114  1.00  0.00     0.018 C 
HETATM   19  C25 UNL     1      -6.416  -1.204  -1.354  1.00  0.00     0.023 C 
HETATM   20  C26 UNL     1      -6.821   0.341   0.528  1.00  0.00     0.023 C 
HETATM   21  C27 UNL     1      -4.434   0.226  -0.467  1.00  0.00     0.020 C 
HETATM   22  C28 UNL     1      -4.035   1.140   0.703  1.00  0.00     0.090 C 
HETATM   23  C29 UNL     1      -2.797   1.918   0.383  1.00  0.00     0.157 C 
HETATM   24  O2  UNL     1      -2.749   3.136   0.527  1.00  0.00    -0.293 OA
ENDROOT
BRANCH   1  25
HETATM   25  C6  UNL     1       3.423   0.884   1.243  1.00  0.00    -0.014 C 
HETATM   26  C7  UNL     1       3.392   0.439   2.710  1.00  0.00     0.010 C 
BRANCH  25  27
HETATM   27  C5  UNL     1       3.991  -0.238   0.345  1.00  0.00     0.008 C 
BRANCH  27  28
HETATM   28  C4  UNL     1       5.466  -0.550   0.623  1.00  0.00     0.028 C 
BRANCH  28  29
HETATM   29  C3  UNL     1       5.992  -1.589  -0.330  1.00  0.00    -0.013 C 
HETATM   30  C2  UNL     1       6.823  -1.420  -1.378  1.00  0.00     0.008 C 
HETATM   31  C1  UNL     1       7.334  -2.585  -2.177  1.00  0.00     0.055 C 
BRANCH  30  32
HETATM   32  C30 UNL     1       7.336  -0.112  -1.844  1.00  0.00     0.171 C 
HETATM   33  O3  UNL     1       8.431   0.076  -2.345  1.00  0.00    -0.646 OA
BRANCH  32  34
HETATM   34  O4  UNL     1       6.432   0.876  -1.758  1.00  0.00    -0.773 OA
HETATM   35  H44 UNL     1       6.900   1.649  -2.137  1.00  0.00     0.167 HD
ENDBRANCH  32  34
ENDBRANCH  30  32
ENDBRANCH  28  29
ENDBRANCH  27  28
ENDBRANCH  25  27
ENDBRANCH   1  25
TORSDOF 6
