REMARK  9 active torsions:
REMARK  status: ('A' for Active; 'I' for Inactive)
REMARK    1  A    between atoms: C2_2  and  C30_34 
REMARK    2  A    between atoms: C3_3  and  C4_4 
REMARK    3  A    between atoms: C4_4  and  C5_5 
REMARK    4  A    between atoms: C5_5  and  C6_6 
REMARK    5  A    between atoms: C6_6  and  C8_8 
REMARK    6  A    between atoms: C10_10  and  O1_12 
REMARK    7  A    between atoms: C14_15  and  O2_16 
REMARK    8  A    between atoms: C25_28  and  O4_29 
REMARK    9  A    between atoms: C30_34  and  O5_35 
ROOT
HETATM    1  C8  UNL     1       2.004  -0.199   0.045  1.00  0.00     0.005 C 
HETATM    2  C9  UNL     1       2.023   0.510  -1.313  1.00  0.00     0.048 C 
HETATM    3  C10 UNL     1       0.708   1.317  -1.325  1.00  0.00     0.079 C 
HETATM    4  C11 UNL     1       0.992   2.755  -0.872  1.00  0.00     0.051 C 
HETATM    5  C12 UNL     1      -0.221   0.530  -0.402  1.00  0.00    -0.030 C 
HETATM    6  C13 UNL     1      -1.460   0.874   0.028  1.00  0.00    -0.011 C 
HETATM    7  C14 UNL     1      -2.201   2.087  -0.480  1.00  0.00     0.151 C 
HETATM    8  C15 UNL     1      -3.668   1.813  -0.822  1.00  0.00     0.043 C 
HETATM    9  C16 UNL     1      -4.441   1.043   0.274  1.00  0.00     0.015 C 
HETATM   10  C17 UNL     1      -5.969   0.875  -0.070  1.00  0.00     0.018 C 
HETATM   11  C18 UNL     1      -6.749   2.114   0.432  1.00  0.00     0.023 C 
HETATM   12  C19 UNL     1      -6.272   0.730  -1.577  1.00  0.00     0.023 C 
HETATM   13  C20 UNL     1      -6.541  -0.331   0.679  1.00  0.00     0.135 C 
HETATM   14  O3  UNL     1      -7.528  -0.961   0.287  1.00  0.00    -0.297 OA
HETATM   15  C21 UNL     1      -5.908  -0.670   1.999  1.00  0.00     0.080 C 
HETATM   16  C22 UNL     1      -4.425  -0.980   1.857  1.00  0.00     0.020 C 
HETATM   17  C23 UNL     1      -3.684  -0.283   0.672  1.00  0.00    -0.004 C 
HETATM   18  C24 UNL     1      -3.650  -1.278  -0.517  1.00  0.00     0.019 C 
HETATM   19  C25 UNL     1      -2.203   0.092   1.122  1.00  0.00     0.092 C 
HETATM   20  C26 UNL     1      -1.416  -1.118   1.701  1.00  0.00     0.044 C 
HETATM   21  C27 UNL     1       0.103  -0.951   1.593  1.00  0.00     0.017 C 
HETATM   22  C28 UNL     1       0.531  -0.686   0.140  1.00  0.00    -0.013 C 
HETATM   23  C29 UNL     1       0.220  -1.911  -0.742  1.00  0.00     0.021 C 
ENDROOT
BRANCH   1  24
HETATM   24  C6  UNL     1       3.160  -1.212   0.284  1.00  0.00    -0.013 C 
HETATM   25  C7  UNL     1       3.518  -2.082  -0.925  1.00  0.00     0.010 C 
BRANCH  24  26
HETATM   26  C5  UNL     1       4.405  -0.419   0.784  1.00  0.00     0.008 C 
BRANCH  26  27
HETATM   27  C4  UNL     1       5.612  -1.255   1.231  1.00  0.00     0.028 C 
BRANCH  27  28
HETATM   28  C3  UNL     1       6.535  -1.674   0.123  1.00  0.00    -0.022 C 
HETATM   29  C2  UNL     1       7.563  -0.967  -0.396  1.00  0.00    -0.064 C 
HETATM   30  C1  UNL     1       7.932   0.433   0.025  1.00  0.00     0.045 C 
BRANCH  29  31
HETATM   31  C30 UNL     1       8.443  -1.558  -1.469  1.00  0.00     0.197 C 
BRANCH  31  32
HETATM   32  O5  UNL     1       8.004  -1.133  -2.755  1.00  0.00    -0.397 OA
HETATM   33  H48 UNL     1       7.405  -0.377  -2.627  1.00  0.00     0.209 HD
ENDBRANCH  31  32
ENDBRANCH  29  31
ENDBRANCH  27  28
ENDBRANCH  26  27
ENDBRANCH  24  26
ENDBRANCH   1  24
BRANCH   3  34
HETATM   34  O1  UNL     1       0.165   1.327  -2.635  1.00  0.00    -0.386 OA
HETATM   35  H19 UNL     1       0.856   1.637  -3.240  1.00  0.00     0.211 HD
ENDBRANCH   3  34
BRANCH   7  36
HETATM   36  O2  UNL     1      -2.093   3.095   0.528  1.00  0.00    -0.391 OA
HETATM   37  H21 UNL     1      -2.766   3.768   0.339  1.00  0.00     0.210 HD
ENDBRANCH   7  36
BRANCH  19  38
HETATM   38  O4  UNL     1      -2.334   0.991   2.250  1.00  0.00    -0.384 OA
HETATM   39  H38 UNL     1      -1.674   1.704   2.126  1.00  0.00     0.211 HD
ENDBRANCH  19  38
TORSDOF 9
