REMARK  12 active torsions:
REMARK  status: ('A' for Active; 'I' for Inactive)
REMARK    1  A    between atoms: O1_2  and  C2_3 
REMARK    2  A    between atoms: C4_5  and  O2_6 
REMARK    3  A    between atoms: O2_6  and  C5_7 
REMARK    4  A    between atoms: C8_10  and  C9_11 
REMARK    5  A    between atoms: N1_12  and  C10_14 
REMARK    6  A    between atoms: C10_14  and  C11_15 
REMARK    7  A    between atoms: C11_15  and  C12_16 
REMARK    8  A    between atoms: C12_16  and  O3_17 
REMARK    9  A    between atoms: C18_23  and  C19_24 
REMARK   10  A    between atoms: C25_32  and  O6_33 
REMARK   11  A    between atoms: C29_37  and  O7_38 
REMARK   12  A    between atoms: C33_43  and  O9_44 
ROOT
HETATM    1  C5  UNL     1       2.340   0.853  -0.118  1.00  0.00     0.127 C 
HETATM    2  C6  UNL     1       1.292   1.719  -0.791  1.00  0.00     0.033 C 
HETATM    3  C7  UNL     1       0.292   0.854  -1.531  1.00  0.00     0.021 C 
HETATM    4  C8  UNL     1      -0.429  -0.229  -0.653  1.00  0.00     0.026 C 
HETATM    5  C13 UNL     1      -1.962   0.186  -0.581  1.00  0.00     0.009 C 
HETATM    6  C14 UNL     1      -2.738  -0.138  -1.859  1.00  0.00     0.007 C 
HETATM    7  C15 UNL     1      -4.074   0.579  -1.805  1.00  0.00     0.013 C 
HETATM    8  C16 UNL     1      -4.999   0.030  -0.706  1.00  0.00    -0.005 C 
HETATM    9  C17 UNL     1      -5.653  -1.260  -1.275  1.00  0.00     0.019 C 
HETATM   10  C18 UNL     1      -6.172   1.036  -0.341  1.00  0.00     0.028 C 
HETATM   11  C23 UNL     1      -6.315   0.893   1.171  1.00  0.00     0.013 C 
HETATM   12  C24 UNL     1      -4.880   0.726   1.655  1.00  0.00     0.040 C 
HETATM   13  C25 UNL     1      -4.257  -0.274   0.667  1.00  0.00     0.070 C 
HETATM   14  C26 UNL     1      -2.691  -0.377   0.657  1.00  0.00     0.026 C 
HETATM   15  C27 UNL     1      -2.025   0.177   1.948  1.00  0.00     0.011 C 
HETATM   16  C28 UNL     1      -0.555   0.575   1.778  1.00  0.00     0.039 C 
HETATM   17  C29 UNL     1       0.194  -0.353   0.800  1.00  0.00     0.073 C 
HETATM   18  C30 UNL     1       1.721  -0.120   0.896  1.00  0.00     0.071 C 
ENDROOT
BRANCH   1  19
HETATM   19  O2  UNL     1       3.296   1.736   0.477  1.00  0.00    -0.356 OA
BRANCH  19  20
HETATM   20  C4  UNL     1       4.593   1.162   0.608  1.00  0.00     0.263 C 
HETATM   21  C3  UNL     1       5.557   2.290   0.959  1.00  0.00     0.095 C 
HETATM   22  C2  UNL     1       6.960   1.731   1.138  1.00  0.00     0.156 C 
HETATM   23  C33 UNL     1       6.944   0.615   2.194  1.00  0.00     0.175 C 
HETATM   24  C31 UNL     1       5.888  -0.432   1.814  1.00  0.00     0.151 C 
HETATM   25  O8  UNL     1       4.604   0.175   1.638  1.00  0.00    -0.354 OA
HETATM   26  C32 UNL     1       5.751  -1.502   2.893  1.00  0.00     0.042 C 
BRANCH  22  27
HETATM   27  O1  UNL     1       7.808   2.804   1.581  1.00  0.00    -0.388 OA
HETATM   28  C1  UNL     1       8.972   2.960   0.777  1.00  0.00     0.202 C 
ENDBRANCH  22  27
BRANCH  23  29
HETATM   29  O9  UNL     1       8.247   0.023   2.270  1.00  0.00    -0.390 OA
HETATM   30  H51 UNL     1       8.844   0.746   2.536  1.00  0.00     0.210 HD
ENDBRANCH  23  29
ENDBRANCH  19  20
ENDBRANCH   1  19
BRANCH  17  31
HETATM   31  O7  UNL     1      -0.052  -1.656   1.381  1.00  0.00    -0.389 OA
HETATM   32  H43 UNL     1       0.278  -2.321   0.742  1.00  0.00     0.210 HD
ENDBRANCH  17  31
BRANCH   4  33
HETATM   33  C9  UNL     1      -0.235  -1.535  -1.468  1.00  0.00     0.068 C 
HETATM   34  N1  UNL     1       0.315  -2.584  -0.960  1.00  0.00    -0.401 N 
ATOM     35  H1  UNL     1       0.577  -2.630   0.025  1.00  0.00     0.158 HD
BRANCH  34  36
HETATM   36  C10 UNL     1       0.543  -3.705  -1.872  1.00  0.00     0.121 C 
BRANCH  36  37
HETATM   37  C11 UNL     1      -0.038  -4.979  -1.245  1.00  0.00     0.045 C 
BRANCH  37  38
HETATM   38  C12 UNL     1       0.378  -6.222  -2.013  1.00  0.00     0.165 C 
BRANCH  38  39
HETATM   39  O3  UNL     1       1.793  -6.391  -1.980  1.00  0.00    -0.401 OA
HETATM   40  H20 UNL     1       2.066  -6.394  -1.046  1.00  0.00     0.209 HD
ENDBRANCH  38  39
ENDBRANCH  37  38
ENDBRANCH  36  37
ENDBRANCH  34  36
ENDBRANCH   4  33
BRANCH  13  41
HETATM   41  O6  UNL     1      -4.712  -1.560   1.168  1.00  0.00    -0.389 OA
HETATM   42  H37 UNL     1      -4.242  -1.747   2.001  1.00  0.00     0.210 HD
ENDBRANCH  13  41
BRANCH  10  43
HETATM   43  C19 UNL     1      -6.038   2.484  -0.762  1.00  0.00    -0.045 A 
HETATM   44  C20 UNL     1      -6.663   3.050  -1.802  1.00  0.00     0.087 A 
HETATM   45  C21 UNL     1      -6.239   4.444  -1.852  1.00  0.00     0.283 A 
HETATM   46  O4  UNL     1      -6.594   5.243  -2.696  1.00  0.00    -0.260 OA
HETATM   47  O5  UNL     1      -5.380   4.695  -0.828  1.00  0.00    -0.314 OA
HETATM   48  C22 UNL     1      -5.213   3.500  -0.062  1.00  0.00     0.213 A 
ENDBRANCH  10  43
TORSDOF 12
