REMARK  5 active torsions:
REMARK  status: ('A' for Active; 'I' for Inactive)
REMARK    1  A    between atoms: C4_4  and  C5_5 
REMARK    2  A    between atoms: C5_5  and  N1_6 
REMARK    3  A    between atoms: N1_6  and  C6_7 
REMARK    4  A    between atoms: N1_6  and  C10_14 
REMARK    5  A    between atoms: C6_7  and  C7_8 
ROOT
HETATM    1  N1  UNL     1       0.162   0.201  -0.552  1.00  0.00    -0.273 NA
ENDROOT
BRANCH   1   2
HETATM    2  C5  UNL     1       1.509   0.302  -1.156  1.00  0.00     0.134 C 
BRANCH   2   3
HETATM    3  C4  UNL     1       2.521  -0.536  -0.401  1.00  0.00    -0.045 A 
HETATM    4  C3  UNL     1       2.643  -0.432   0.993  1.00  0.00     0.008 A 
HETATM    5  C2  UNL     1       3.593  -1.187   1.682  1.00  0.00     0.001 A 
HETATM    6  C1  UNL     1       4.438  -2.047   0.985  1.00  0.00     0.000 A 
HETATM    7  C17 UNL     1       4.336  -2.152  -0.401  1.00  0.00     0.001 A 
HETATM    8  C16 UNL     1       3.385  -1.398  -1.092  1.00  0.00     0.008 A 
ENDBRANCH   2   3
ENDBRANCH   1   2
BRANCH   1   9
HETATM    9  C6  UNL     1      -0.491  -1.117  -0.785  1.00  0.00     0.165 C 
BRANCH   9  10
HETATM   10  C7  UNL     1      -1.631  -1.341   0.202  1.00  0.00     0.065 C 
HETATM   11  N2  UNL     1      -2.758  -1.911  -0.151  1.00  0.00    -0.382 N 
HETATM   12  C8  UNL     1      -3.575  -1.864   1.098  1.00  0.00     0.135 C 
ATOM     13  H2  UNL     1      -3.015  -2.294  -1.061  1.00  0.00     0.160 HD
HETATM   14  C9  UNL     1      -2.868  -0.884   2.042  1.00  0.00     0.113 C 
HETATM   15  N3  UNL     1      -1.529  -0.916   1.510  1.00  0.00    -0.280 NA
HETATM   16  H12 UNL     1      -0.961  -0.075   1.596  1.00  0.00     0.128 HD
ENDBRANCH   9  10
ENDBRANCH   1   9
BRANCH   1  17
HETATM   17  C10 UNL     1      -0.605   1.368  -0.748  1.00  0.00     0.011 A 
HETATM   18  C11 UNL     1      -0.175   2.571  -0.158  1.00  0.00     0.024 A 
HETATM   19  C12 UNL     1      -0.900   3.759  -0.295  1.00  0.00     0.002 A 
HETATM   20  C13 UNL     1      -2.083   3.768  -1.024  1.00  0.00     0.000 A 
HETATM   21  C14 UNL     1      -2.538   2.590  -1.607  1.00  0.00     0.002 A 
HETATM   22  C15 UNL     1      -1.808   1.404  -1.466  1.00  0.00     0.024 A 
ENDBRANCH   1  17
TORSDOF 5
