REMARK  10 active torsions:
REMARK  status: ('A' for Active; 'I' for Inactive)
REMARK    1  A    between atoms: C5_5  and  C6_6 
REMARK    2  A    between atoms: C6_6  and  C8_8 
REMARK    3  A    between atoms: C8_8  and  O1_9 
REMARK    4  A    between atoms: C15_17  and  O3_18 
REMARK    5  A    between atoms: C18_21  and  O4_23 
REMARK    6  A    between atoms: O4_23  and  C20_24 
REMARK    7  A    between atoms: C20_24  and  C21_26 
REMARK    8  A    between atoms: C21_26  and  C22_27 
REMARK    9  A    between atoms: C21_26  and  O6_29 
REMARK   10  A    between atoms: O6_29  and  C24_30 
ROOT
HETATM    1  C1  UNL     1      -4.562  -0.891  -1.214  1.00  0.00     0.015 C 
HETATM    2  C2  UNL     1      -3.681  -0.471  -0.291  1.00  0.00    -0.082 C 
HETATM    3  C3  UNL     1      -4.110   0.428   0.837  1.00  0.00     0.034 C 
HETATM    4  C4  UNL     1      -2.966   1.236   1.444  1.00  0.00     0.010 C 
HETATM    5  C5  UNL     1      -1.837   1.619   0.468  1.00  0.00    -0.001 C 
HETATM    6  C9  UNL     1      -1.234   0.385  -0.267  1.00  0.00     0.033 C 
HETATM    7  C10 UNL     1      -0.078  -0.343   0.432  1.00  0.00     0.162 C 
HETATM    8  O2  UNL     1      -0.773  -1.024   1.485  1.00  0.00    -0.376 OA
HETATM    9  C11 UNL     1      -1.791  -1.777   0.817  1.00  0.00     0.134 C 
HETATM   10  C12 UNL     1      -1.154  -3.127   0.395  1.00  0.00     0.068 C 
HETATM   11  C13 UNL     1      -0.233  -3.693   1.474  1.00  0.00    -0.059 C 
HETATM   12  C14 UNL     1      -0.766  -4.217   2.595  1.00  0.00     0.017 C 
HETATM   13  C15 UNL     1       1.274  -3.697   1.261  1.00  0.00     0.146 C 
HETATM   14  C16 UNL     1       2.042  -2.430   0.811  1.00  0.00     0.039 C 
HETATM   15  C17 UNL     1       1.923  -1.165   1.697  1.00  0.00     0.044 C 
HETATM   16  C18 UNL     1       1.289   0.104   0.983  1.00  0.00     0.093 C 
HETATM   17  C19 UNL     1       1.261   1.226   2.025  1.00  0.00     0.049 C 
HETATM   18  C26 UNL     1      -2.220  -0.845  -0.355  1.00  0.00     0.050 C 
ENDROOT
BRANCH  16  19
HETATM   19  O4  UNL     1       2.236   0.401  -0.080  1.00  0.00    -0.306 OA
BRANCH  19  20
HETATM   20  C20 UNL     1       2.068   1.470  -0.896  1.00  0.00     0.289 C 
HETATM   21  O5  UNL     1       1.129   2.252  -0.845  1.00  0.00    -0.262 OA
BRANCH  20  22
HETATM   22  C21 UNL     1       3.174   1.534  -1.960  1.00  0.00     0.231 C 
BRANCH  22  23
HETATM   23  C22 UNL     1       2.569   1.240  -3.340  1.00  0.00     0.038 C 
HETATM   24  C23 UNL     1       2.063  -0.190  -3.495  1.00  0.00     0.008 C 
ENDBRANCH  22  23
BRANCH  22  25
HETATM   25  O6  UNL     1       4.274   0.637  -1.757  1.00  0.00    -0.306 OA
BRANCH  25  26
HETATM   26  C24 UNL     1       5.081   0.955  -0.709  1.00  0.00     0.255 C 
HETATM   27  C25 UNL     1       6.137  -0.092  -0.535  1.00  0.00     0.126 C 
HETATM   28  O7  UNL     1       4.955   1.940   0.005  1.00  0.00    -0.266 OA
ENDBRANCH  25  26
ENDBRANCH  22  25
ENDBRANCH  20  22
ENDBRANCH  19  20
ENDBRANCH  16  19
BRANCH   5  29
HETATM   29  C6  UNL     1      -2.179   2.797  -0.512  1.00  0.00     0.010 C 
HETATM   30  C7  UNL     1      -3.159   2.463  -1.641  1.00  0.00     0.012 C 
BRANCH  29  31
HETATM   31  C8  UNL     1      -2.638   4.055   0.252  1.00  0.00     0.168 C 
BRANCH  31  32
HETATM   32  O1  UNL     1      -2.634   5.205  -0.587  1.00  0.00    -0.400 OA
HETATM   33  H14 UNL     1      -3.335   5.093  -1.249  1.00  0.00     0.209 HD
ENDBRANCH  31  32
ENDBRANCH  29  31
ENDBRANCH   5  29
BRANCH  13  34
HETATM   34  O3  UNL     1       1.535  -4.699   0.270  1.00  0.00    -0.391 OA
HETATM   35  H23 UNL     1       1.048  -5.494   0.547  1.00  0.00     0.210 HD
ENDBRANCH  13  34
TORSDOF 10
