REMARK  6 active torsions:
REMARK  status: ('A' for Active; 'I' for Inactive)
REMARK    1  A    between atoms: C2_2  and  C30_31 
REMARK    2  A    between atoms: C3_3  and  C4_4 
REMARK    3  A    between atoms: C4_4  and  C5_5 
REMARK    4  A    between atoms: C5_5  and  C6_6 
REMARK    5  A    between atoms: C6_6  and  C8_8 
REMARK    6  A    between atoms: C30_31  and  O3_33 
ROOT
HETATM    1  C8  UNL     1       2.241   0.532  -0.723  1.00  0.00    -0.002 C 
HETATM    2  C9  UNL     1       2.333  -0.783  -1.543  1.00  0.00     0.007 C 
HETATM    3  C10 UNL     1       0.960  -1.488  -1.418  1.00  0.00     0.015 C 
HETATM    4  C11 UNL     1       0.197  -0.699  -0.331  1.00  0.00    -0.013 C 
HETATM    5  C12 UNL     1       0.646  -1.296   1.040  1.00  0.00     0.021 C 
HETATM    6  C13 UNL     1      -1.327  -0.747  -0.324  1.00  0.00    -0.070 C 
HETATM    7  C14 UNL     1      -2.016  -1.834  -0.716  1.00  0.00    -0.022 C 
HETATM    8  C15 UNL     1      -3.510  -1.967  -0.645  1.00  0.00     0.034 C 
HETATM    9  C16 UNL     1      -4.244  -0.656  -0.281  1.00  0.00     0.013 C 
HETATM   10  C17 UNL     1      -5.793  -0.826  -0.105  1.00  0.00     0.018 C 
HETATM   11  C18 UNL     1      -6.420  -1.189  -1.477  1.00  0.00     0.023 C 
HETATM   12  C19 UNL     1      -6.241  -1.909   0.890  1.00  0.00     0.023 C 
HETATM   13  C20 UNL     1      -6.396   0.510   0.357  1.00  0.00     0.135 C 
HETATM   14  O1  UNL     1      -7.443   0.962  -0.109  1.00  0.00    -0.297 OA
HETATM   15  C21 UNL     1      -5.700   1.226   1.490  1.00  0.00     0.080 C 
HETATM   16  C22 UNL     1      -4.238   1.451   1.143  1.00  0.00     0.017 C 
HETATM   17  C23 UNL     1      -3.466   0.141   0.835  1.00  0.00    -0.031 C 
HETATM   18  C24 UNL     1      -3.276  -0.659   2.146  1.00  0.00     0.016 C 
HETATM   19  C25 UNL     1      -2.052   0.497   0.208  1.00  0.00     0.024 C 
HETATM   20  C26 UNL     1      -1.153   1.409   1.080  1.00  0.00     0.010 C 
HETATM   21  C27 UNL     1       0.262   1.696   0.522  1.00  0.00     0.011 C 
HETATM   22  C28 UNL     1       0.697   0.757  -0.619  1.00  0.00    -0.029 C 
HETATM   23  C29 UNL     1       0.178   1.339  -1.971  1.00  0.00     0.016 C 
ENDROOT
BRANCH   1  24
HETATM   24  C6  UNL     1       3.109   1.744  -1.178  1.00  0.00    -0.014 C 
HETATM   25  C7  UNL     1       3.398   1.846  -2.679  1.00  0.00     0.010 C 
BRANCH  24  26
HETATM   26  C5  UNL     1       4.432   1.830  -0.370  1.00  0.00     0.008 C 
BRANCH  26  27
HETATM   27  C4  UNL     1       5.461   0.742  -0.684  1.00  0.00     0.028 C 
BRANCH  27  28
HETATM   28  C3  UNL     1       6.642   0.814   0.247  1.00  0.00    -0.013 C 
HETATM   29  C2  UNL     1       7.034  -0.109   1.151  1.00  0.00     0.008 C 
HETATM   30  C1  UNL     1       8.278   0.057   1.973  1.00  0.00     0.055 C 
BRANCH  29  31
HETATM   31  C30 UNL     1       6.235  -1.327   1.416  1.00  0.00     0.171 C 
HETATM   32  O2  UNL     1       5.022  -1.417   1.460  1.00  0.00    -0.646 OA
BRANCH  31  33
HETATM   33  O3  UNL     1       7.026  -2.392   1.633  1.00  0.00    -0.773 OA
HETATM   34  H46 UNL     1       6.390  -3.124   1.771  1.00  0.00     0.167 HD
ENDBRANCH  31  33
ENDBRANCH  29  31
ENDBRANCH  27  28
ENDBRANCH  26  27
ENDBRANCH  24  26
ENDBRANCH   1  24
TORSDOF 6
