REMARK  6 active torsions:
REMARK  status: ('A' for Active; 'I' for Inactive)
REMARK    1  A    between atoms: C5_5  and  C6_6 
REMARK    2  A    between atoms: C6_6  and  C7_7 
REMARK    3  A    between atoms: C13_15  and  O3_16 
REMARK    4  A    between atoms: C24_28  and  C25_29 
REMARK    5  A    between atoms: C25_29  and  O5_30 
REMARK    6  A    between atoms: C25_29  and  C26_31 
ROOT
HETATM    1  C6  UNL     1       1.039  -1.448   0.410  1.00  0.00     0.033 C 
ENDROOT
BRANCH   1   2
HETATM    2  C5  UNL     1       1.605  -0.526  -0.708  1.00  0.00    -0.002 C 
HETATM    3  C4  UNL     1       1.714  -1.261  -2.063  1.00  0.00     0.010 C 
HETATM    4  C3  UNL     1       2.735  -2.400  -2.023  1.00  0.00     0.034 C 
HETATM    5  C2  UNL     1       3.886  -2.077  -1.095  1.00  0.00    -0.082 C 
HETATM    6  C1  UNL     1       4.479  -3.053  -0.387  1.00  0.00     0.015 C 
HETATM    7  C24 UNL     1       4.228  -0.580  -1.042  1.00  0.00     0.054 C 
HETATM    8  C21 UNL     1       3.003   0.182  -0.361  1.00  0.00    -0.034 C 
HETATM    9  C22 UNL     1       2.909   1.622  -0.934  1.00  0.00     0.016 C 
HETATM   10  C23 UNL     1       3.195   0.319   1.163  1.00  0.00     0.016 C 
BRANCH   7  11
HETATM   11  C25 UNL     1       5.667  -0.264  -0.496  1.00  0.00     0.150 C 
BRANCH  11  12
HETATM   12  O5  UNL     1       6.624  -1.004  -1.265  1.00  0.00    -0.391 OA
HETATM   13  H39 UNL     1       7.509  -0.774  -0.938  1.00  0.00     0.210 HD
ENDBRANCH  11  12
BRANCH  11  14
HETATM   14  C26 UNL     1       6.106   1.164  -0.637  1.00  0.00     0.018 C 
HETATM   15  C27 UNL     1       6.662   1.923   0.320  1.00  0.00     0.018 C 
HETATM   16  C28 UNL     1       7.024   1.593   1.717  1.00  0.00     0.071 C 
HETATM   17  C30 UNL     1       7.066   3.328   0.072  1.00  0.00     0.289 C 
HETATM   18  C29 UNL     1       8.102   2.617   1.976  1.00  0.00     0.183 C 
HETATM   19  O6  UNL     1       7.808   3.736   1.138  1.00  0.00    -0.317 OA
HETATM   20  O7  UNL     1       6.775   4.004  -0.895  1.00  0.00    -0.260 OA
ENDBRANCH  11  14
ENDBRANCH   7  11
ENDBRANCH   1   2
BRANCH   1  21
HETATM   21  C7  UNL     1      -0.272  -2.101   0.054  1.00  0.00    -0.021 C 
HETATM   22  C8  UNL     1      -1.509  -1.629   0.306  1.00  0.00    -0.060 C 
HETATM   23  C9  UNL     1      -2.738  -2.399  -0.102  1.00  0.00     0.041 C 
HETATM   24  C12 UNL     1      -1.833  -0.315   0.965  1.00  0.00     0.205 C 
HETATM   25  C10 UNL     1      -3.646  -1.494  -0.929  1.00  0.00     0.076 C 
HETATM   26  C11 UNL     1      -3.935  -0.177  -0.185  1.00  0.00     0.199 C 
HETATM   27  O1  UNL     1      -2.684   0.462   0.121  1.00  0.00    -0.348 OA
HETATM   28  O2  UNL     1      -4.643  -0.483   1.046  1.00  0.00    -0.313 OA
HETATM   29  C16 UNL     1      -4.799   0.827  -1.044  1.00  0.00     0.115 C 
HETATM   30  C13 UNL     1      -5.827   0.317   1.195  1.00  0.00     0.196 C 
HETATM   31  C14 UNL     1      -5.405   1.791   1.173  1.00  0.00     0.075 C 
HETATM   32  C18 UNL     1      -6.800   0.004   0.007  1.00  0.00     0.111 C 
HETATM   33  C15 UNL     1      -4.956   2.141  -0.244  1.00  0.00     0.049 C 
HETATM   34  O4  UNL     1      -6.129   0.272  -1.254  1.00  0.00    -0.359 OA
HETATM   35  C19 UNL     1      -8.076   0.860   0.040  1.00  0.00     0.051 C 
HETATM   36  C20 UNL     1      -7.236  -1.470  -0.000  1.00  0.00     0.051 C 
HETATM   37  C17 UNL     1      -4.213   1.139  -2.421  1.00  0.00     0.052 C 
BRANCH  30  38
HETATM   38  O3  UNL     1      -6.388   0.023   2.459  1.00  0.00    -0.363 OA
HETATM   39  H17 UNL     1      -6.328  -0.944   2.535  1.00  0.00     0.213 HD
ENDBRANCH  30  38
ENDBRANCH   1  21
TORSDOF 6
