REMARK  4 active torsions:
REMARK  status: ('A' for Active; 'I' for Inactive)
REMARK    1  A    between atoms: C13_15  and  C14_16 
REMARK    2  A    between atoms: C14_16  and  C16_18 
REMARK    3  A    between atoms: C16_18  and  C17_19 
REMARK    4  A    between atoms: C17_19  and  C18_20 
ROOT
HETATM    1  C1  UNL     1      -7.186  -1.083  -0.891  1.00  0.00     0.047 C 
HETATM    2  C2  UNL     1      -6.108  -0.847  -0.131  1.00  0.00     0.052 C 
HETATM    3  O1  UNL     1      -6.113  -1.356   1.197  1.00  0.00    -0.284 OA
HETATM    4  C3  UNL     1      -5.975  -0.532   2.282  1.00  0.00     0.263 C 
HETATM    5  O2  UNL     1      -5.981  -0.971   3.429  1.00  0.00    -0.265 OA
HETATM    6  C4  UNL     1      -5.800   0.935   1.988  1.00  0.00     0.112 C 
HETATM    7  C5  UNL     1      -4.377   1.228   1.534  1.00  0.00     0.021 C 
HETATM    8  C6  UNL     1      -3.847   0.234   0.499  1.00  0.00    -0.022 A 
HETATM    9  C7  UNL     1      -2.964  -0.873   1.021  1.00  0.00     0.022 A 
HETATM   10  C8  UNL     1      -2.324   0.217   0.174  1.00  0.00    -0.027 A 
HETATM   11  C9  UNL     1      -1.434   1.226   0.913  1.00  0.00     0.011 C 
HETATM   12  C10 UNL     1       0.084   1.174   0.664  1.00  0.00     0.011 C 
HETATM   13  C11 UNL     1       0.519   0.236  -0.468  1.00  0.00    -0.032 C 
HETATM   14  C12 UNL     1       0.593  -1.200   0.116  1.00  0.00     0.016 C 
HETATM   15  C13 UNL     1       1.868   0.599  -1.173  1.00  0.00    -0.002 C 
HETATM   16  C22 UNL     1       1.701   0.042  -2.615  1.00  0.00     0.006 C 
HETATM   17  C23 UNL     1       0.222  -0.347  -2.780  1.00  0.00     0.011 C 
HETATM   18  C24 UNL     1      -0.510   0.397  -1.647  1.00  0.00    -0.032 C 
HETATM   19  C25 UNL     1      -0.718   1.866  -2.135  1.00  0.00     0.016 C 
HETATM   20  C26 UNL     1      -1.869  -0.230  -1.237  1.00  0.00     0.004 C 
HETATM   21  C27 UNL     1      -2.983  -0.036  -2.274  1.00  0.00     0.007 C 
HETATM   22  C28 UNL     1      -4.247  -0.764  -1.833  1.00  0.00     0.012 C 
HETATM   23  C29 UNL     1      -4.874  -0.081  -0.606  1.00  0.00     0.051 C 
ENDROOT
BRANCH  15  24
HETATM   24  C14 UNL     1       3.263   0.303  -0.539  1.00  0.00    -0.014 C 
HETATM   25  C15 UNL     1       3.667  -1.173  -0.441  1.00  0.00     0.010 C 
BRANCH  24  26
HETATM   26  C16 UNL     1       3.430   1.042   0.812  1.00  0.00     0.008 C 
BRANCH  26  27
HETATM   27  C17 UNL     1       4.879   1.201   1.300  1.00  0.00     0.028 C 
BRANCH  27  28
HETATM   28  C18 UNL     1       5.413  -0.005   2.023  1.00  0.00    -0.025 C 
HETATM   29  C19 UNL     1       6.549  -0.689   1.781  1.00  0.00    -0.091 C 
HETATM   30  C20 UNL     1       6.921  -1.876   2.632  1.00  0.00     0.042 C 
HETATM   31  C21 UNL     1       7.540  -0.382   0.692  1.00  0.00     0.042 C 
ENDBRANCH  27  28
ENDBRANCH  26  27
ENDBRANCH  24  26
ENDBRANCH  15  24
TORSDOF 4
