REMARK  9 active torsions:
REMARK  status: ('A' for Active; 'I' for Inactive)
REMARK    1  A    between atoms: C2_2  and  C3_3 
REMARK    2  A    between atoms: C2_2  and  C9_11 
REMARK    3  A    between atoms: C3_3  and  C4_4 
REMARK    4  A    between atoms: C4_4  and  C5_5 
REMARK    5  A    between atoms: C5_5  and  O1_6 
REMARK    6  A    between atoms: C5_5  and  C6_7 
REMARK    7  A    between atoms: C6_7  and  O2_10 
REMARK    8  A    between atoms: C17_19  and  C18_20 
REMARK    9  A    between atoms: C18_20  and  O3_23 
ROOT
HETATM    1  C9  UNL     1       1.839   0.531   0.892  1.00  0.00    -0.002 C 
HETATM    2  C10 UNL     1       1.548   0.855   2.393  1.00  0.00     0.006 C 
HETATM    3  C11 UNL     1       0.014   0.978   2.542  1.00  0.00     0.011 C 
HETATM    4  C12 UNL     1      -0.501   1.093   1.095  1.00  0.00    -0.032 C 
HETATM    5  C13 UNL     1      -0.253   2.585   0.683  1.00  0.00     0.016 C 
HETATM    6  C14 UNL     1      -1.986   0.678   0.878  1.00  0.00     0.003 C 
HETATM    7  C15 UNL     1      -3.001   1.434   1.748  1.00  0.00     0.009 C 
HETATM    8  C16 UNL     1      -4.460   1.275   1.323  1.00  0.00     0.042 C 
HETATM    9  C17 UNL     1      -4.837   0.052   0.442  1.00  0.00     0.095 C 
HETATM   10  O4  UNL     1      -6.111   0.393  -0.193  1.00  0.00    -0.377 OA
HETATM   11  C21 UNL     1      -6.019   1.184  -1.366  1.00  0.00     0.169 C 
HETATM   12  C22 UNL     1      -5.402   0.388  -2.495  1.00  0.00     0.027 C 
HETATM   13  C23 UNL     1      -4.349  -0.604  -2.023  1.00  0.00     0.010 C 
HETATM   14  C24 UNL     1      -3.743  -0.329  -0.629  1.00  0.00     0.032 C 
HETATM   15  C25 UNL     1      -2.419   0.560  -0.627  1.00  0.00    -0.033 C 
HETATM   16  C26 UNL     1      -2.647   1.930  -1.303  1.00  0.00     0.016 C 
HETATM   17  C27 UNL     1      -1.312  -0.176  -1.475  1.00  0.00     0.011 C 
HETATM   18  C28 UNL     1       0.164   0.143  -1.144  1.00  0.00     0.011 C 
HETATM   19  C29 UNL     1       0.449   0.053   0.366  1.00  0.00    -0.032 C 
HETATM   20  C30 UNL     1       0.230  -1.431   0.787  1.00  0.00     0.016 C 
ENDROOT
BRANCH   1  21
HETATM   21  C2  UNL     1       3.171  -0.255   0.680  1.00  0.00    -0.014 C 
HETATM   22  C1  UNL     1       3.306  -1.605   1.396  1.00  0.00     0.010 C 
BRANCH  21  23
HETATM   23  C3  UNL     1       3.514  -0.394  -0.819  1.00  0.00     0.007 C 
BRANCH  23  24
HETATM   24  C4  UNL     1       4.922  -0.910  -1.173  1.00  0.00     0.035 C 
BRANCH  24  25
HETATM   25  C5  UNL     1       6.074   0.027  -0.761  1.00  0.00     0.151 C 
BRANCH  25  26
HETATM   26  O1  UNL     1       6.277  -0.091   0.647  1.00  0.00    -0.393 OA
HETATM   27  H10 UNL     1       6.825   0.657   0.939  1.00  0.00     0.210 HD
ENDBRANCH  25  26
BRANCH  25  28
HETATM   28  C6  UNL     1       7.399  -0.262  -1.536  1.00  0.00     0.076 C 
HETATM   29  C7  UNL     1       8.509   0.710  -1.112  1.00  0.00     0.048 C 
HETATM   30  C8  UNL     1       7.891  -1.699  -1.336  1.00  0.00     0.048 C 
BRANCH  28  31
HETATM   31  O2  UNL     1       7.188  -0.077  -2.943  1.00  0.00    -0.388 OA
HETATM   32  H17 UNL     1       6.955   0.854  -3.096  1.00  0.00     0.210 HD
ENDBRANCH  28  31
ENDBRANCH  25  28
ENDBRANCH  24  25
ENDBRANCH  23  24
ENDBRANCH  21  23
ENDBRANCH   1  21
BRANCH   9  33
HETATM   33  C18 UNL     1      -5.263  -1.193   1.355  1.00  0.00     0.082 C 
HETATM   34  C19 UNL     1      -4.200  -1.692   2.335  1.00  0.00     0.049 C 
HETATM   35  C20 UNL     1      -5.779  -2.393   0.541  1.00  0.00     0.049 C 
BRANCH  33  36
HETATM   36  O3  UNL     1      -6.388  -0.779   2.164  1.00  0.00    -0.388 OA
HETATM   37  H37 UNL     1      -6.961  -0.281   1.545  1.00  0.00     0.210 HD
ENDBRANCH  33  36
ENDBRANCH   9  33
TORSDOF 9
