REMARK  7 active torsions:
REMARK  status: ('A' for Active; 'I' for Inactive)
REMARK    1  A    between atoms: C2_2  and  C30_32 
REMARK    2  A    between atoms: C3_3  and  C4_4 
REMARK    3  A    between atoms: C4_4  and  O1_5 
REMARK    4  A    between atoms: C4_4  and  C5_6 
REMARK    5  A    between atoms: C5_6  and  C6_7 
REMARK    6  A    between atoms: C6_7  and  C8_9 
REMARK    7  A    between atoms: C30_32  and  O3_33 
ROOT
HETATM    1  C8  UNL     1       1.814   0.260  -0.445  1.00  0.00    -0.002 C 
HETATM    2  C9  UNL     1       1.728   1.787  -0.138  1.00  0.00     0.007 C 
HETATM    3  C10 UNL     1       0.236   2.167  -0.080  1.00  0.00     0.015 C 
HETATM    4  C11 UNL     1      -0.499   0.947  -0.664  1.00  0.00    -0.013 C 
HETATM    5  C12 UNL     1      -0.440   1.114  -2.218  1.00  0.00     0.021 C 
HETATM    6  C13 UNL     1      -1.973   0.762  -0.316  1.00  0.00    -0.070 C 
HETATM    7  C14 UNL     1      -2.799   1.805  -0.119  1.00  0.00    -0.022 C 
HETATM    8  C15 UNL     1      -4.276   1.690   0.097  1.00  0.00     0.034 C 
HETATM    9  C16 UNL     1      -4.789   0.253   0.346  1.00  0.00     0.013 C 
HETATM   10  C17 UNL     1      -6.360   0.159   0.345  1.00  0.00     0.018 C 
HETATM   11  C18 UNL     1      -7.063   1.073  -0.679  1.00  0.00     0.023 C 
HETATM   12  C19 UNL     1      -6.898   0.543   1.740  1.00  0.00     0.023 C 
HETATM   13  C20 UNL     1      -6.789  -1.289   0.092  1.00  0.00     0.135 C 
HETATM   14  O2  UNL     1      -7.885  -1.587  -0.384  1.00  0.00    -0.297 OA
HETATM   15  C21 UNL     1      -5.833  -2.359   0.539  1.00  0.00     0.080 C 
HETATM   16  C22 UNL     1      -4.504  -2.252  -0.193  1.00  0.00     0.017 C 
HETATM   17  C23 UNL     1      -4.044  -0.803  -0.556  1.00  0.00    -0.031 C 
HETATM   18  C24 UNL     1      -4.334  -0.568  -2.059  1.00  0.00     0.016 C 
HETATM   19  C25 UNL     1      -2.493  -0.675  -0.255  1.00  0.00     0.024 C 
HETATM   20  C26 UNL     1      -1.596  -1.654  -1.052  1.00  0.00     0.010 C 
HETATM   21  C27 UNL     1      -0.081  -1.557  -0.747  1.00  0.00     0.011 C 
HETATM   22  C28 UNL     1       0.369  -0.233  -0.092  1.00  0.00    -0.029 C 
HETATM   23  C29 UNL     1       0.276  -0.380   1.461  1.00  0.00     0.016 C 
ENDROOT
BRANCH   1  24
HETATM   24  C6  UNL     1       3.067  -0.403   0.216  1.00  0.00    -0.011 C 
HETATM   25  C7  UNL     1       3.122  -1.911  -0.042  1.00  0.00     0.010 C 
BRANCH  24  26
HETATM   26  C5  UNL     1       4.359   0.312  -0.288  1.00  0.00     0.040 C 
BRANCH  26  27
HETATM   27  C4  UNL     1       5.688  -0.238   0.264  1.00  0.00     0.141 C 
BRANCH  27  28
HETATM   28  C3  UNL     1       6.816   0.753   0.097  1.00  0.00     0.009 C 
HETATM   29  C2  UNL     1       8.111   0.568   0.437  1.00  0.00    -0.062 C 
HETATM   30  C1  UNL     1       8.639  -0.678   1.098  1.00  0.00     0.045 C 
BRANCH  29  31
HETATM   31  C30 UNL     1       9.144   1.631   0.175  1.00  0.00     0.198 C 
BRANCH  31  32
HETATM   32  O3  UNL     1      10.068   1.131  -0.779  1.00  0.00    -0.397 OA
HETATM   33  H48 UNL     1      10.733   1.827  -0.914  1.00  0.00     0.209 HD
ENDBRANCH  31  32
ENDBRANCH  29  31
ENDBRANCH  27  28
BRANCH  27  34
HETATM   34  O1  UNL     1       6.024  -1.428  -0.444  1.00  0.00    -0.392 OA
HETATM   35  H6  UNL     1       6.648  -1.185  -1.150  1.00  0.00     0.210 HD
ENDBRANCH  27  34
ENDBRANCH  26  27
ENDBRANCH  24  26
ENDBRANCH   1  24
TORSDOF 7
