REMARK  6 active torsions:
REMARK  status: ('A' for Active; 'I' for Inactive)
REMARK    1  A    between atoms: C4_4  and  C5_5 
REMARK    2  A    between atoms: C5_5  and  C6_6 
REMARK    3  A    between atoms: C6_6  and  C7_7 
REMARK    4  A    between atoms: C7_7  and  C9_9 
REMARK    5  A    between atoms: C17_17  and  O1_18 
REMARK    6  A    between atoms: C21_22  and  O2_23 
ROOT
HETATM    1  C9  UNL     1       2.493  -0.324  -1.600  1.00  0.00    -0.002 C 
HETATM    2  C10 UNL     1       2.033  -0.624  -3.061  1.00  0.00     0.006 C 
HETATM    3  C11 UNL     1       0.499  -0.764  -3.049  1.00  0.00     0.011 C 
HETATM    4  C12 UNL     1       0.065  -0.212  -1.679  1.00  0.00    -0.032 C 
HETATM    5  C13 UNL     1       0.013   1.343  -1.849  1.00  0.00     0.016 C 
HETATM    6  C14 UNL     1      -1.298  -0.753  -1.148  1.00  0.00     0.003 C 
HETATM    7  C15 UNL     1      -2.470  -0.469  -2.108  1.00  0.00     0.009 C 
HETATM    8  C16 UNL     1      -3.817  -0.740  -1.450  1.00  0.00     0.039 C 
HETATM    9  C17 UNL     1      -4.099   0.306  -0.353  1.00  0.00     0.071 C 
HETATM   10  C18 UNL     1      -2.801   0.648   0.471  1.00  0.00     0.029 C 
HETATM   11  C19 UNL     1      -3.125   1.119   1.909  1.00  0.00     0.011 C 
HETATM   12  C20 UNL     1      -4.392   1.961   1.968  1.00  0.00     0.033 C 
HETATM   13  C21 UNL     1      -5.641   1.228   1.470  1.00  0.00     0.129 C 
HETATM   14  C22 UNL     1      -5.377   0.009   0.522  1.00  0.00     0.010 C 
HETATM   15  C23 UNL     1      -5.280  -1.314   1.316  1.00  0.00     0.020 C 
HETATM   16  C24 UNL     1      -6.641  -0.153  -0.372  1.00  0.00     0.020 C 
HETATM   17  C25 UNL     1      -1.584  -0.376   0.370  1.00  0.00    -0.033 C 
HETATM   18  C26 UNL     1      -1.901  -1.676   1.156  1.00  0.00     0.016 C 
HETATM   19  C27 UNL     1      -0.335   0.262   1.084  1.00  0.00     0.011 C 
HETATM   20  C28 UNL     1       1.093  -0.117   0.637  1.00  0.00     0.011 C 
HETATM   21  C29 UNL     1       1.231  -0.737  -0.763  1.00  0.00    -0.032 C 
HETATM   22  C30 UNL     1       1.272  -2.290  -0.599  1.00  0.00     0.016 C 
ENDROOT
BRANCH   1  23
HETATM   23  C7  UNL     1       3.881  -0.957  -1.284  1.00  0.00    -0.014 C 
HETATM   24  C8  UNL     1       4.940  -0.509  -2.308  1.00  0.00     0.010 C 
BRANCH  23  25
HETATM   25  C6  UNL     1       4.396  -0.698   0.150  1.00  0.00     0.008 C 
BRANCH  25  26
HETATM   26  C5  UNL     1       4.722   0.763   0.481  1.00  0.00     0.028 C 
BRANCH  26  27
HETATM   27  C4  UNL     1       5.113   0.907   1.927  1.00  0.00    -0.025 C 
HETATM   28  C2  UNL     1       6.335   1.164   2.431  1.00  0.00    -0.091 C 
HETATM   29  C1  UNL     1       7.591   1.326   1.619  1.00  0.00     0.042 C 
HETATM   30  C3  UNL     1       6.538   1.306   3.918  1.00  0.00     0.042 C 
ENDBRANCH  26  27
ENDBRANCH  25  26
ENDBRANCH  23  25
ENDBRANCH   1  23
BRANCH   9  31
HETATM   31  O1  UNL     1      -4.396   1.547  -1.059  1.00  0.00    -0.389 OA
HETATM   32  H29 UNL     1      -4.922   1.346  -1.851  1.00  0.00     0.210 HD
ENDBRANCH   9  31
BRANCH  13  33
HETATM   33  O2  UNL     1      -6.410   0.837   2.613  1.00  0.00    -0.395 OA
HETATM   34  H36 UNL     1      -7.303   0.612   2.301  1.00  0.00     0.210 HD
ENDBRANCH  13  33
TORSDOF 6
