REMARK  6 active torsions:
REMARK  status: ('A' for Active; 'I' for Inactive)
REMARK    1  A    between atoms: C2_2  and  C30_32 
REMARK    2  A    between atoms: C3_3  and  C4_4 
REMARK    3  A    between atoms: C4_4  and  C5_5 
REMARK    4  A    between atoms: C5_5  and  C6_6 
REMARK    5  A    between atoms: C6_6  and  C8_8 
REMARK    6  A    between atoms: C30_32  and  O4_34 
ROOT
HETATM    1  C8  UNL     1       2.099  -0.009   0.023  1.00  0.00    -0.002 C 
HETATM    2  C9  UNL     1       2.161   1.255   0.929  1.00  0.00     0.007 C 
HETATM    3  C10 UNL     1       0.724   1.584   1.372  1.00  0.00     0.015 C 
HETATM    4  C11 UNL     1      -0.097   0.328   1.029  1.00  0.00    -0.005 C 
HETATM    5  C12 UNL     1       0.101  -0.683   2.201  1.00  0.00     0.021 C 
HETATM    6  C13 UNL     1      -1.607   0.426   0.850  1.00  0.00    -0.000 C 
HETATM    7  C14 UNL     1      -2.276  -0.416   0.019  1.00  0.00    -0.060 C 
HETATM    8  C15 UNL     1      -1.508  -1.460  -0.805  1.00  0.00     0.036 C 
HETATM    9  C16 UNL     1       0.032  -1.461  -0.719  1.00  0.00     0.015 C 
HETATM   10  C17 UNL     1       0.583  -0.082  -0.338  1.00  0.00    -0.028 C 
HETATM   11  C18 UNL     1       0.282   0.919  -1.499  1.00  0.00     0.016 C 
HETATM   12  C19 UNL     1      -3.816  -0.372  -0.188  1.00  0.00    -0.014 C 
HETATM   13  C20 UNL     1      -4.077   0.345  -1.531  1.00  0.00     0.020 C 
HETATM   14  C21 UNL     1      -4.405  -1.801  -0.220  1.00  0.00     0.021 C 
HETATM   15  C22 UNL     1      -5.922  -1.885  -0.299  1.00  0.00     0.080 C 
HETATM   16  C23 UNL     1      -6.691  -0.636   0.053  1.00  0.00     0.135 C 
HETATM   17  O1  UNL     1      -7.858  -0.533  -0.338  1.00  0.00    -0.297 OA
HETATM   18  C24 UNL     1      -6.060   0.432   0.956  1.00  0.00     0.018 C 
HETATM   19  C25 UNL     1      -6.556   1.812   0.464  1.00  0.00     0.023 C 
HETATM   20  C26 UNL     1      -6.645   0.203   2.366  1.00  0.00     0.023 C 
HETATM   21  C27 UNL     1      -4.499   0.330   1.026  1.00  0.00     0.020 C 
HETATM   22  C28 UNL     1      -3.814   1.662   1.341  1.00  0.00     0.090 C 
HETATM   23  C29 UNL     1      -2.355   1.449   1.645  1.00  0.00     0.157 C 
HETATM   24  O2  UNL     1      -1.799   2.127   2.506  1.00  0.00    -0.293 OA
ENDROOT
BRANCH   1  25
HETATM   25  C6  UNL     1       3.178   0.036  -1.105  1.00  0.00    -0.014 C 
HETATM   26  C7  UNL     1       3.084  -1.170  -2.045  1.00  0.00     0.010 C 
BRANCH  25  27
HETATM   27  C5  UNL     1       4.599   0.116  -0.479  1.00  0.00     0.008 C 
BRANCH  27  28
HETATM   28  C4  UNL     1       5.721   0.358  -1.497  1.00  0.00     0.028 C 
BRANCH  28  29
HETATM   29  C3  UNL     1       7.027   0.642  -0.807  1.00  0.00    -0.013 C 
HETATM   30  C2  UNL     1       8.039  -0.223  -0.583  1.00  0.00     0.008 C 
HETATM   31  C1  UNL     1       8.042  -1.678  -0.952  1.00  0.00     0.055 C 
BRANCH  30  32
HETATM   32  C30 UNL     1       9.284   0.222   0.099  1.00  0.00     0.171 C 
HETATM   33  O3  UNL     1      10.237  -0.492   0.359  1.00  0.00    -0.646 OA
BRANCH  32  34
HETATM   34  O4  UNL     1       9.295   1.526   0.425  1.00  0.00    -0.773 OA
HETATM   35  H44 UNL     1      10.167   1.646   0.854  1.00  0.00     0.167 HD
ENDBRANCH  32  34
ENDBRANCH  30  32
ENDBRANCH  28  29
ENDBRANCH  27  28
ENDBRANCH  25  27
ENDBRANCH   1  25
TORSDOF 6
