REMARK  10 active torsions:
REMARK  status: ('A' for Active; 'I' for Inactive)
REMARK    1  A    between atoms: C3_3  and  O1_4 
REMARK    2  A    between atoms: N1_14  and  O2_16 
REMARK    3  A    between atoms: O2_16  and  C13_17 
REMARK    4  A    between atoms: C13_17  and  C14_18 
REMARK       I    between atoms: C14_18  and  N2_20 
REMARK    5  A    between atoms: N2_20  and  C15_21 
REMARK    6  A    between atoms: C15_21  and  C16_22 
REMARK       I    between atoms: C16_22  and  N3_24 
REMARK    7  A    between atoms: N3_24  and  C17_25 
REMARK    8  A    between atoms: C17_25  and  C18_26 
REMARK    9  A    between atoms: C17_25  and  C19_29 
REMARK   10  A    between atoms: C18_26  and  O6_28 
ROOT
HETATM    1  C1  UNL     1      -8.305  -1.709  -3.953  1.00  0.00     0.015 C 
HETATM    2  C2  UNL     1      -7.708  -0.875  -3.328  1.00  0.00    -0.078 C 
HETATM    3  C3  UNL     1      -6.941   0.147  -2.598  1.00  0.00     0.128 C 
HETATM    4  C4  UNL     1      -7.776   1.395  -2.296  1.00  0.00     0.052 C 
HETATM    5  C5  UNL     1      -6.902   2.138  -1.290  1.00  0.00     0.010 C 
HETATM    6  C6  UNL     1      -6.412   1.031  -0.349  1.00  0.00     0.002 C 
HETATM    7  C7  UNL     1      -5.137   1.337   0.474  1.00  0.00    -0.004 C 
HETATM    8  C8  UNL     1      -3.991   2.056  -0.261  1.00  0.00     0.010 C 
HETATM    9  C9  UNL     1      -2.807   2.338   0.667  1.00  0.00     0.035 C 
HETATM   10  C10 UNL     1      -2.345   1.133   1.458  1.00  0.00    -0.069 C 
HETATM   11  C11 UNL     1      -1.031   0.851   1.542  1.00  0.00     0.030 C 
HETATM   12  C12 UNL     1      -0.521  -0.251   2.408  1.00  0.00     0.032 C 
HETATM   13  N1  UNL     1       0.700  -0.690   2.448  1.00  0.00    -0.271 N 
ATOM     14  H1  UNL     1       1.017  -1.443   3.059  1.00  0.00     0.194 HD
HETATM   15  C22 UNL     1      -1.508  -0.878   3.371  1.00  0.00     0.060 C 
HETATM   16  C23 UNL     1      -2.867  -1.030   2.705  1.00  0.00     0.020 C 
HETATM   17  C24 UNL     1      -3.433   0.315   2.155  1.00  0.00    -0.016 C 
HETATM   18  C25 UNL     1      -3.954   1.129   3.370  1.00  0.00     0.020 C 
HETATM   19  C26 UNL     1      -4.622   0.041   1.154  1.00  0.00     0.002 C 
HETATM   20  C27 UNL     1      -4.304  -1.057   0.101  1.00  0.00     0.007 C 
HETATM   21  C28 UNL     1      -5.009  -0.925  -1.251  1.00  0.00     0.014 C 
HETATM   22  C29 UNL     1      -6.409  -0.294  -1.186  1.00  0.00     0.003 C 
HETATM   23  C30 UNL     1      -7.373  -1.300  -0.498  1.00  0.00     0.020 C 
ENDROOT
BRANCH   3  24
HETATM   24  O1  UNL     1      -5.861   0.568  -3.438  1.00  0.00    -0.377 OA
HETATM   25  H2  UNL     1      -6.234   0.705  -4.327  1.00  0.00     0.211 HD
ENDBRANCH   3  24
BRANCH  13  26
HETATM   26  O2  UNL     1       1.533  -0.003   1.548  1.00  0.00    -0.271 OA
BRANCH  26  27
HETATM   27  C13 UNL     1       2.823  -0.594   1.582  1.00  0.00     0.303 C 
BRANCH  27  28
HETATM   28  C14 UNL     1       3.825   0.233   0.781  1.00  0.00     0.244 C 
HETATM   29  O3  UNL     1       3.622   1.380   0.391  1.00  0.00    -0.271 OA
HETATM   30  N2  UNL     1       5.019  -0.418   0.544  1.00  0.00    -0.350 N 
HETATM   31  H16 UNL     1       5.098  -1.422   0.688  1.00  0.00     0.163 HD
BRANCH  30  32
HETATM   32  C15 UNL     1       6.064   0.217  -0.232  1.00  0.00     0.225 C 
BRANCH  32  33
HETATM   33  C16 UNL     1       7.174  -0.781  -0.557  1.00  0.00     0.236 C 
HETATM   34  O4  UNL     1       7.037  -1.993  -0.405  1.00  0.00    -0.272 OA
HETATM   35  N3  UNL     1       8.318  -0.202  -1.051  1.00  0.00    -0.345 N 
HETATM   36  H19 UNL     1       8.311   0.785  -1.299  1.00  0.00     0.163 HD
BRANCH  35  37
HETATM   37  C17 UNL     1       9.460  -0.975  -1.546  1.00  0.00     0.185 C 
BRANCH  37  38
HETATM   38  C18 UNL     1      10.028  -0.319  -2.814  1.00  0.00     0.163 C 
HETATM   39  O5  UNL     1      10.932  -0.749  -3.513  1.00  0.00    -0.648 OA
BRANCH  38  40
HETATM   40  O6  UNL     1       9.454   0.871  -3.112  1.00  0.00    -0.775 OA
HETATM   41  H21 UNL     1       9.921   1.151  -3.929  1.00  0.00     0.167 HD
ENDBRANCH  38  40
ENDBRANCH  37  38
BRANCH  37  42
HETATM   42  C19 UNL     1      10.575  -1.137  -0.489  1.00  0.00     0.010 C 
HETATM   43  C20 UNL     1      11.026   0.199   0.117  1.00  0.00     0.012 C 
HETATM   44  C21 UNL     1      10.167  -2.100   0.630  1.00  0.00     0.012 C 
ENDBRANCH  37  42
ENDBRANCH  35  37
ENDBRANCH  32  33
ENDBRANCH  30  32
ENDBRANCH  27  28
ENDBRANCH  26  27
ENDBRANCH  13  26
TORSDOF 10
