REMARK  11 active torsions:
REMARK  status: ('A' for Active; 'I' for Inactive)
REMARK    1  A    between atoms: C2_2  and  O1_3 
REMARK    2  A    between atoms: O1_3  and  C3_4 
REMARK    3  A    between atoms: C3_4  and  C4_6 
REMARK    4  A    between atoms: C5_7  and  C6_8 
REMARK    5  A    between atoms: C10_13  and  C11_14 
REMARK    6  A    between atoms: C11_14  and  O4_15 
REMARK    7  A    between atoms: C13_18  and  C14_19 
REMARK    8  A    between atoms: C25_32  and  C26_33 
REMARK    9  A    between atoms: C26_33  and  O7_34 
REMARK   10  A    between atoms: C33_42  and  O9_44 
REMARK   11  A    between atoms: C36_46  and  O10_47 
ROOT
HETATM    1  C4  UNL     1      -0.134   2.657  -1.587  1.00  0.00     0.165 C 
HETATM    2  C5  UNL     1       0.593   1.532  -1.747  1.00  0.00     0.053 C 
HETATM    3  C7  UNL     1       0.266   0.385  -0.885  1.00  0.00    -0.002 C 
HETATM    4  C8  UNL     1       1.204  -0.413  -0.295  1.00  0.00    -0.066 C 
HETATM    5  C9  UNL     1       0.914  -1.352   0.875  1.00  0.00     0.049 C 
HETATM    6  C10 UNL     1       1.913  -1.147   2.025  1.00  0.00     0.084 C 
HETATM    7  C12 UNL     1       3.344  -1.354   1.548  1.00  0.00     0.142 C 
HETATM    8  O5  UNL     1       4.270  -1.414   2.360  1.00  0.00    -0.297 OA
HETATM    9  C13 UNL     1       3.542  -1.468   0.041  1.00  0.00     0.092 C 
HETATM   10  C22 UNL     1       2.693  -0.378  -0.648  1.00  0.00     0.052 C 
HETATM   11  C23 UNL     1      -1.185   0.321  -0.523  1.00  0.00     0.044 C 
HETATM   12  C24 UNL     1      -1.818   1.575  -0.324  1.00  0.00     0.101 C 
HETATM   13  O6  UNL     1      -1.151   2.751  -0.631  1.00  0.00    -0.302 OA
HETATM   14  C25 UNL     1      -3.143   1.683   0.130  1.00  0.00     0.034 C 
HETATM   15  C27 UNL     1      -3.831   0.494   0.311  1.00  0.00     0.090 C 
HETATM   16  O8  UNL     1      -5.123   0.404   0.766  1.00  0.00    -0.341 OA
HETATM   17  C28 UNL     1      -5.513  -0.971   0.456  1.00  0.00     0.171 C 
HETATM   18  C29 UNL     1      -4.235  -1.828   0.365  1.00  0.00     0.057 C 
HETATM   19  C30 UNL     1      -3.882  -2.568   1.663  1.00  0.00     0.012 C 
HETATM   20  C31 UNL     1      -4.360  -1.842   2.916  1.00  0.00     0.004 C 
HETATM   21  C32 UNL     1      -5.862  -1.546   2.920  1.00  0.00     0.040 C 
HETATM   22  C33 UNL     1      -6.511  -1.447   1.527  1.00  0.00     0.081 C 
HETATM   23  C34 UNL     1      -7.170  -2.769   1.116  1.00  0.00     0.049 C 
HETATM   24  C35 UNL     1      -3.264  -0.744   0.046  1.00  0.00     0.017 C 
HETATM   25  C36 UNL     1      -1.963  -0.842  -0.424  1.00  0.00     0.091 C 
ENDROOT
BRANCH   2  26
HETATM   26  C6  UNL     1       1.682   1.511  -2.746  1.00  0.00     0.273 C 
HETATM   27  O3  UNL     1       2.674   2.219  -2.635  1.00  0.00    -0.301 OA
ENDBRANCH   2  26
BRANCH   1  28
HETATM   28  C3  UNL     1       0.094   3.858  -2.433  1.00  0.00     0.318 C 
HETATM   29  O2  UNL     1       0.337   3.820  -3.630  1.00  0.00    -0.257 OA
BRANCH  28  30
HETATM   30  O1  UNL     1      -0.048   4.975  -1.671  1.00  0.00    -0.316 OA
BRANCH  30  31
HETATM   31  C2  UNL     1       0.168   6.217  -2.353  1.00  0.00     0.175 C 
HETATM   32  C1  UNL     1       1.647   6.555  -2.366  1.00  0.00     0.034 C 
ENDBRANCH  30  31
ENDBRANCH  28  30
ENDBRANCH   1  28
BRANCH  25  33
HETATM   33  O10 UNL     1      -1.479  -2.085  -0.726  1.00  0.00    -0.354 OA
HETATM   34  C37 UNL     1      -1.535  -2.313  -2.136  1.00  0.00     0.210 C 
ENDBRANCH  25  33
BRANCH   6  35
HETATM   35  C11 UNL     1       1.619  -2.070   3.206  1.00  0.00     0.176 C 
BRANCH  35  36
HETATM   36  O4  UNL     1       1.477  -3.417   2.770  1.00  0.00    -0.400 OA
HETATM   37  H12 UNL     1       1.500  -3.975   3.568  1.00  0.00     0.209 HD
ENDBRANCH  35  36
ENDBRANCH   6  35
BRANCH   9  38
HETATM   38  C14 UNL     1       4.996  -1.410  -0.409  1.00  0.00    -0.046 A 
HETATM   39  C15 UNL     1       5.561  -2.507  -1.076  1.00  0.00     0.010 A 
HETATM   40  C16 UNL     1       6.889  -2.500  -1.519  1.00  0.00     0.031 A 
HETATM   41  C17 UNL     1       7.647  -1.351  -1.274  1.00  0.00     0.042 A 
HETATM   42  N1  UNL     1       8.956  -1.064  -1.586  1.00  0.00    -0.365 N 
HETATM   43  C20 UNL     1       7.129  -0.237  -0.615  1.00  0.00    -0.008 A 
HETATM   44  C18 UNL     1       9.285   0.191  -1.145  1.00  0.00     0.089 A 
HETATM   45  H16 UNL     1       9.582  -1.694  -2.067  1.00  0.00     0.165 HD
HETATM   46  C19 UNL     1       8.172   0.727  -0.539  1.00  0.00     0.030 A 
HETATM   47  C21 UNL     1       5.789  -0.268  -0.178  1.00  0.00     0.021 A 
ENDBRANCH   9  38
BRANCH  14  48
HETATM   48  C26 UNL     1      -3.798   3.011   0.347  1.00  0.00     0.208 C 
BRANCH  48  49
HETATM   49  O7  UNL     1      -4.199   3.534  -0.911  1.00  0.00    -0.396 OA
HETATM   50  H24 UNL     1      -4.619   4.393  -0.735  1.00  0.00     0.209 HD
ENDBRANCH  48  49
ENDBRANCH  14  48
BRANCH  22  51
HETATM   51  O9  UNL     1      -7.586  -0.496   1.616  1.00  0.00    -0.388 OA
HETATM   52  H36 UNL     1      -7.175   0.389   1.610  1.00  0.00     0.210 HD
ENDBRANCH  22  51
TORSDOF 11
