REMARK  5 active torsions:
REMARK  status: ('A' for Active; 'I' for Inactive)
REMARK    1  A    between atoms: C5_5  and  C6_6 
REMARK    2  A    between atoms: C6_6  and  C7_8 
REMARK    3  A    between atoms: C7_8  and  O2_9 
REMARK    4  A    between atoms: O2_9  and  C8_10 
REMARK    5  A    between atoms: C14_17  and  C15_18 
ROOT
HETATM    1  C8  UNL     1       0.253  -1.458  -0.598  1.00  0.00     0.093 A 
HETATM    2  C9  UNL     1       1.034  -1.806  -1.699  1.00  0.00     0.076 A 
HETATM    3  C10 UNL     1       2.391  -1.472  -1.709  1.00  0.00     0.093 A 
HETATM    4  C11 UNL     1       3.004  -0.806  -0.649  1.00  0.00     0.011 A 
HETATM    5  C12 UNL     1       2.218  -0.469   0.458  1.00  0.00     0.042 A 
HETATM    6  C13 UNL     1       0.857  -0.797   0.484  1.00  0.00     0.068 A 
HETATM    7 CL1  UNL     1      -0.064  -0.338   1.875  1.00  0.00    -0.081 Cl
HETATM    8  C14 UNL     1       4.437  -0.490  -0.732  1.00  0.00    -0.007 A 
HETATM    9  C21 UNL     1       5.102  -0.861  -1.837  1.00  0.00     0.095 A 
HETATM   10  C22 UNL     1       4.472  -1.565  -2.964  1.00  0.00     0.289 A 
HETATM   11  O3  UNL     1       5.126  -1.878  -3.951  1.00  0.00    -0.260 OA
HETATM   12  O4  UNL     1       3.121  -1.848  -2.852  1.00  0.00    -0.275 OA
ENDROOT
BRANCH   1  13
HETATM   13  O2  UNL     1      -1.077  -1.762  -0.484  1.00  0.00    -0.342 OA
BRANCH  13  14
HETATM   14  C7  UNL     1      -1.813  -1.848  -1.696  1.00  0.00     0.254 C 
BRANCH  14  15
HETATM   15  C6  UNL     1      -3.311  -1.783  -1.413  1.00  0.00     0.155 C 
HETATM   16  O1  UNL     1      -4.107  -2.362  -2.157  1.00  0.00    -0.295 OA
BRANCH  15  17
HETATM   17  C5  UNL     1      -3.782  -0.896  -0.256  1.00  0.00     0.062 C 
HETATM   18  C4  UNL     1      -3.512   0.571  -0.617  1.00  0.00     0.049 C 
HETATM   19  C2  UNL     1      -4.390   1.557   0.173  1.00  0.00     0.054 C 
HETATM   20  C1  UNL     1      -4.244   2.963  -0.421  1.00  0.00     0.045 C 
HETATM   21  C3  UNL     1      -3.981   1.602   1.651  1.00  0.00     0.045 C 
HETATM   22  O5  UNL     1      -5.787   1.236   0.122  1.00  0.00    -0.381 OA
HETATM   23  C24 UNL     1      -6.127  -0.017  -0.468  1.00  0.00     0.169 C 
HETATM   24  C23 UNL     1      -5.261  -1.135   0.084  1.00  0.00     0.038 C 
ENDBRANCH  15  17
ENDBRANCH  14  15
ENDBRANCH  13  14
ENDBRANCH   1  13
BRANCH   8  25
HETATM   25  C15 UNL     1       5.227   0.205   0.302  1.00  0.00    -0.025 A 
HETATM   26  C16 UNL     1       5.839  -0.524   1.329  1.00  0.00     0.012 A 
HETATM   27  C17 UNL     1       6.583   0.135   2.310  1.00  0.00     0.001 A 
HETATM   28  C18 UNL     1       6.719   1.523   2.268  1.00  0.00     0.000 A 
HETATM   29  C19 UNL     1       6.113   2.254   1.247  1.00  0.00     0.001 A 
HETATM   30  C20 UNL     1       5.368   1.598   0.265  1.00  0.00     0.012 A 
ENDBRANCH   8  25
TORSDOF 5
