REMARK  12 active torsions:
REMARK  status: ('A' for Active; 'I' for Inactive)
REMARK    1  A    between atoms: C2_2  and  C3_3 
REMARK    2  A    between atoms: C4_5  and  C5_6 
REMARK    3  A    between atoms: C5_6  and  C6_7 
REMARK    4  A    between atoms: C6_7  and  C7_8 
REMARK    5  A    between atoms: C7_8  and  C9_10 
REMARK    6  A    between atoms: C21_22  and  O2_23 
REMARK    7  A    between atoms: O2_23  and  C22_24 
REMARK    8  A    between atoms: C23_26  and  C24_27 
REMARK    9  A    between atoms: C24_27  and  O4_28 
REMARK   10  A    between atoms: C25_29  and  O5_30 
REMARK   11  A    between atoms: C26_31  and  O6_32 
REMARK   12  A    between atoms: C27_33  and  O7_34 
ROOT
HETATM    1  C9  UNL     1       4.449   0.306  -0.808  1.00  0.00    -0.002 C 
HETATM    2  C10 UNL     1       4.535   1.842  -1.182  1.00  0.00     0.006 C 
HETATM    3  C11 UNL     1       3.108   2.457  -0.958  1.00  0.00     0.011 C 
HETATM    4  C12 UNL     1       2.390   1.361  -0.155  1.00  0.00    -0.031 C 
HETATM    5  C13 UNL     1       3.068   1.530   1.284  1.00  0.00     0.016 C 
HETATM    6  C14 UNL     1       0.787   1.394   0.085  1.00  0.00     0.014 C 
HETATM    7  C15 UNL     1       0.418   1.048   1.575  1.00  0.00     0.034 C 
HETATM    8  C16 UNL     1      -0.901   0.447   1.910  1.00  0.00    -0.022 C 
HETATM    9  C17 UNL     1      -1.810   0.044   1.018  1.00  0.00    -0.068 C 
HETATM   10  C18 UNL     1      -1.559   0.274  -0.448  1.00  0.00     0.031 C 
HETATM   11  C19 UNL     1      -2.548   1.397  -0.861  1.00  0.00     0.013 C 
HETATM   12  C20 UNL     1      -3.947   1.258  -0.236  1.00  0.00     0.034 C 
HETATM   13  C21 UNL     1      -4.231  -0.167   0.263  1.00  0.00     0.136 C 
HETATM   14  C28 UNL     1      -3.187  -0.561   1.376  1.00  0.00     0.002 C 
HETATM   15  C29 UNL     1      -3.042  -2.096   1.434  1.00  0.00     0.022 C 
HETATM   16  C30 UNL     1      -3.680  -0.085   2.765  1.00  0.00     0.022 C 
HETATM   17  C31 UNL     1      -0.032   0.474  -0.862  1.00  0.00     0.029 C 
HETATM   18  C32 UNL     1      -0.061   1.097  -2.278  1.00  0.00     0.025 C 
HETATM   19  C33 UNL     1       0.645  -0.952  -0.848  1.00  0.00     0.137 C 
HETATM   20  O8  UNL     1       0.029  -1.961  -1.212  1.00  0.00    -0.297 OA
HETATM   21  C34 UNL     1       2.132  -1.099  -0.425  1.00  0.00     0.089 C 
HETATM   22  C35 UNL     1       2.915   0.078  -0.988  1.00  0.00    -0.026 C 
HETATM   23  C36 UNL     1       2.750  -0.039  -2.553  1.00  0.00     0.016 C 
ENDROOT
BRANCH  13  24
HETATM   24  O2  UNL     1      -5.580  -0.184   0.749  1.00  0.00    -0.352 OA
BRANCH  24  25
HETATM   25  C22 UNL     1      -6.298  -1.378   0.444  1.00  0.00     0.292 C 
HETATM   26  O3  UNL     1      -7.142  -1.175  -0.690  1.00  0.00    -0.348 OA
HETATM   27  C23 UNL     1      -8.197  -0.226  -0.492  1.00  0.00     0.179 C 
HETATM   28  C25 UNL     1      -8.432   0.237   0.963  1.00  0.00     0.180 C 
HETATM   29  C26 UNL     1      -8.352  -0.958   1.916  1.00  0.00     0.183 C 
HETATM   30  C27 UNL     1      -7.131  -1.856   1.650  1.00  0.00     0.204 C 
BRANCH  27  31
HETATM   31  C24 UNL     1      -7.960   0.970  -1.426  1.00  0.00     0.198 C 
BRANCH  31  32
HETATM   32  O4  UNL     1      -9.025   1.913  -1.335  1.00  0.00    -0.398 OA
HETATM   33  H36 UNL     1      -8.825   2.624  -1.973  1.00  0.00     0.209 HD
ENDBRANCH  31  32
ENDBRANCH  27  31
BRANCH  28  34
HETATM   34  O5  UNL     1      -9.730   0.846   1.078  1.00  0.00    -0.390 OA
HETATM   35  H38 UNL     1      -9.817   1.461   0.316  1.00  0.00     0.210 HD
ENDBRANCH  28  34
BRANCH  29  36
HETATM   36  O6  UNL     1      -8.300  -0.497   3.282  1.00  0.00    -0.390 OA
HETATM   37  H40 UNL     1      -8.663  -1.212   3.834  1.00  0.00     0.210 HD
ENDBRANCH  29  36
BRANCH  30  38
HETATM   38  O7  UNL     1      -7.591  -3.206   1.421  1.00  0.00    -0.388 OA
HETATM   39  H42 UNL     1      -8.122  -3.202   0.604  1.00  0.00     0.210 HD
ENDBRANCH  30  38
ENDBRANCH  24  25
ENDBRANCH  13  24
BRANCH   1  40
HETATM   40  C7  UNL     1       5.516  -0.543  -1.552  1.00  0.00    -0.014 C 
HETATM   41  C8  UNL     1       5.377  -2.039  -1.247  1.00  0.00     0.010 C 
BRANCH  40  42
HETATM   42  C6  UNL     1       6.967  -0.079  -1.255  1.00  0.00     0.008 C 
BRANCH  42  43
HETATM   43  C5  UNL     1       7.376  -0.068   0.223  1.00  0.00     0.028 C 
BRANCH  43  44
HETATM   44  C4  UNL     1       8.843   0.228   0.367  1.00  0.00    -0.017 C 
HETATM   45  C2  UNL     1       9.792  -0.557   0.911  1.00  0.00    -0.028 C 
HETATM   46  C1  UNL     1       9.611  -1.907   1.534  1.00  0.00     0.051 C 
BRANCH  45  47
HETATM   47  C3  UNL     1      11.197  -0.038   0.917  1.00  0.00     0.265 C 
HETATM   48  O1  UNL     1      11.523   1.075   0.521  1.00  0.00    -0.302 OA
ENDBRANCH  45  47
ENDBRANCH  43  44
ENDBRANCH  42  43
ENDBRANCH  40  42
ENDBRANCH   1  40
TORSDOF 12
