REMARK  6 active torsions:
REMARK  status: ('A' for Active; 'I' for Inactive)
REMARK    1  A    between atoms: C2_2  and  C30_32 
REMARK    2  A    between atoms: C3_3  and  C4_4 
REMARK    3  A    between atoms: C4_4  and  C5_6 
REMARK    4  A    between atoms: C5_6  and  C6_7 
REMARK    5  A    between atoms: C6_7  and  C8_9 
REMARK    6  A    between atoms: C30_32  and  O4_34 
ROOT
HETATM    1  C8  UNL     1       2.135   0.153   0.887  1.00  0.00    -0.001 C 
HETATM    2  C9  UNL     1       2.048   1.592   1.479  1.00  0.00     0.007 C 
HETATM    3  C10 UNL     1       0.588   2.060   1.349  1.00  0.00     0.015 C 
HETATM    4  C11 UNL     1      -0.204   0.781   1.012  1.00  0.00    -0.013 C 
HETATM    5  C12 UNL     1      -0.480   0.072   2.374  1.00  0.00     0.021 C 
HETATM    6  C13 UNL     1      -1.558   0.929   0.334  1.00  0.00    -0.070 C 
HETATM    7  C14 UNL     1      -2.304   2.047   0.396  1.00  0.00    -0.022 C 
HETATM    8  C15 UNL     1      -3.676   2.108  -0.204  1.00  0.00     0.034 C 
HETATM    9  C16 UNL     1      -4.379   0.765   0.047  1.00  0.00     0.013 C 
HETATM   10  C17 UNL     1      -5.921   0.775  -0.192  1.00  0.00     0.018 C 
HETATM   11  C18 UNL     1      -6.638   1.390   1.029  1.00  0.00     0.023 C 
HETATM   12  C19 UNL     1      -6.346   1.582  -1.433  1.00  0.00     0.023 C 
HETATM   13  C20 UNL     1      -6.431  -0.668  -0.310  1.00  0.00     0.135 C 
HETATM   14  O2  UNL     1      -7.502  -0.937  -0.858  1.00  0.00    -0.297 OA
HETATM   15  C21 UNL     1      -5.631  -1.759   0.370  1.00  0.00     0.080 C 
HETATM   16  C22 UNL     1      -4.121  -1.705   0.116  1.00  0.00     0.017 C 
HETATM   17  C23 UNL     1      -3.614  -0.436  -0.619  1.00  0.00    -0.031 C 
HETATM   18  C24 UNL     1      -3.926  -0.601  -2.131  1.00  0.00     0.016 C 
HETATM   19  C25 UNL     1      -2.030  -0.244  -0.530  1.00  0.00     0.024 C 
HETATM   20  C26 UNL     1      -1.226  -1.548  -0.308  1.00  0.00     0.010 C 
HETATM   21  C27 UNL     1       0.309  -1.393  -0.210  1.00  0.00     0.011 C 
HETATM   22  C28 UNL     1       0.808   0.043   0.064  1.00  0.00    -0.029 C 
HETATM   23  C29 UNL     1       1.012   0.770  -1.304  1.00  0.00     0.016 C 
ENDROOT
BRANCH   1  24
HETATM   24  C6  UNL     1       3.500  -0.111   0.188  1.00  0.00    -0.007 C 
HETATM   25  C7  UNL     1       3.576  -1.512  -0.430  1.00  0.00     0.011 C 
BRANCH  24  26
HETATM   26  C5  UNL     1       4.672   0.050   1.186  1.00  0.00     0.087 C 
BRANCH  26  27
HETATM   27  C4  UNL     1       5.982   0.329   0.471  1.00  0.00     0.150 C 
HETATM   28  O1  UNL     1       6.130   1.305  -0.260  1.00  0.00    -0.293 OA
BRANCH  27  29
HETATM   29  C3  UNL     1       7.111  -0.606   0.742  1.00  0.00     0.063 C 
HETATM   30  C2  UNL     1       8.037  -0.949  -0.170  1.00  0.00     0.015 C 
HETATM   31  C1  UNL     1       9.221  -1.804   0.155  1.00  0.00     0.055 C 
BRANCH  30  32
HETATM   32  C30 UNL     1       7.976  -0.500  -1.573  1.00  0.00     0.171 C 
HETATM   33  O3  UNL     1       8.910  -0.063  -2.219  1.00  0.00    -0.646 OA
BRANCH  32  34
HETATM   34  O4  UNL     1       6.777  -0.748  -2.127  1.00  0.00    -0.773 OA
HETATM   35  H44 UNL     1       6.853  -0.358  -3.022  1.00  0.00     0.167 HD
ENDBRANCH  32  34
ENDBRANCH  30  32
ENDBRANCH  27  29
ENDBRANCH  26  27
ENDBRANCH  24  26
ENDBRANCH   1  24
TORSDOF 6
