REMARK  6 active torsions:
REMARK  status: ('A' for Active; 'I' for Inactive)
REMARK    1  A    between atoms: C9_10  and  C10_11 
REMARK    2  A    between atoms: C11_13  and  O3_14 
REMARK    3  A    between atoms: C12_15  and  C13_16 
REMARK    4  A    between atoms: C14_18  and  O5_19 
REMARK    5  A    between atoms: C16_21  and  C17_22 
REMARK    6  A    between atoms: C17_22  and  C18_23 
ROOT
HETATM    1  C1  UNL     1       5.553   1.405  -0.964  1.00  0.00     0.043 C 
HETATM    2  C2  UNL     1       4.259   0.640  -1.146  1.00  0.00    -0.087 C 
HETATM    3  C3  UNL     1       3.470   0.922  -2.205  1.00  0.00    -0.024 C 
HETATM    4  C4  UNL     1       2.154   0.378  -2.711  1.00  0.00     0.030 C 
HETATM    5  C5  UNL     1       1.747  -1.045  -2.337  1.00  0.00     0.042 C 
HETATM    6  C6  UNL     1       0.625  -1.252  -1.264  1.00  0.00     0.069 C 
HETATM    7  C7  UNL     1       0.893  -2.661  -0.659  1.00  0.00     0.047 C 
HETATM    8  O1  UNL     1      -0.586  -1.416  -2.090  1.00  0.00    -0.338 OA
HETATM    9  C8  UNL     1      -1.730  -1.562  -1.346  1.00  0.00     0.095 A 
HETATM   10  C9  UNL     1      -2.608  -2.617  -1.605  1.00  0.00     0.070 A 
HETATM   11  C11 UNL     1      -3.720  -2.804  -0.776  1.00  0.00     0.097 A 
HETATM   12  C12 UNL     1      -3.933  -1.934   0.300  1.00  0.00     0.069 A 
HETATM   13  C14 UNL     1      -3.055  -0.852   0.524  1.00  0.00     0.091 A 
HETATM   14  C15 UNL     1      -1.973  -0.625  -0.333  1.00  0.00     0.015 A 
HETATM   15  C16 UNL     1      -0.989   0.529  -0.336  1.00  0.00     0.032 C 
HETATM   16  C21 UNL     1       0.452  -0.063  -0.176  1.00  0.00     0.034 C 
HETATM   17  C22 UNL     1       0.765  -0.530   1.243  1.00  0.00     0.006 A 
HETATM   18  C23 UNL     1       2.201  -0.476   1.769  1.00  0.00    -0.001 A 
HETATM   19  C24 UNL     1       3.329   0.325   1.165  1.00  0.00     0.010 C 
HETATM   20  C25 UNL     1       3.993  -0.353  -0.032  1.00  0.00     0.034 C 
HETATM   21  C26 UNL     1       1.103   0.266   2.517  1.00  0.00    -0.039 A 
HETATM   22  C27 UNL     1       0.647  -0.341   3.828  1.00  0.00     0.015 C 
HETATM   23  C28 UNL     1       1.153   1.772   2.584  1.00  0.00     0.015 C 
ENDROOT
BRANCH  15  24
HETATM   24  C17 UNL     1      -1.296   1.780   0.505  1.00  0.00     0.014 C 
BRANCH  24  25
HETATM   25  C18 UNL     1      -2.538   2.594   0.063  1.00  0.00    -0.022 C 
HETATM   26  C19 UNL     1      -2.331   3.287  -1.287  1.00  0.00     0.009 C 
HETATM   27  C20 UNL     1      -2.863   3.644   1.130  1.00  0.00     0.009 C 
ENDBRANCH  24  25
ENDBRANCH  15  24
BRANCH  13  28
HETATM   28  O5  UNL     1      -3.229  -0.019   1.596  1.00  0.00    -0.359 OA
HETATM   29  H15 UNL     1      -4.034  -0.294   2.092  1.00  0.00     0.217 HD
ENDBRANCH  13  28
BRANCH  10  30
HETATM   30  C10 UNL     1      -2.333  -3.532  -2.728  1.00  0.00     0.275 C 
HETATM   31  O2  UNL     1      -3.083  -4.480  -2.950  1.00  0.00    -0.301 OA
ENDBRANCH  10  30
BRANCH  12  32
HETATM   32  C13 UNL     1      -5.088  -2.166   1.193  1.00  0.00     0.275 C 
HETATM   33  O4  UNL     1      -5.301  -1.419   2.146  1.00  0.00    -0.301 OA
ENDBRANCH  12  32
BRANCH  11  34
HETATM   34  O3  UNL     1      -4.603  -3.836  -0.976  1.00  0.00    -0.359 OA
HETATM   35  H13 UNL     1      -4.309  -4.357  -1.761  1.00  0.00     0.217 HD
ENDBRANCH  11  34
TORSDOF 6
