REMARK  4 active torsions:
REMARK  status: ('A' for Active; 'I' for Inactive)
REMARK    1  A    between atoms: C4_4  and  C5_5 
REMARK    2  A    between atoms: C5_5  and  C6_6 
REMARK    3  A    between atoms: C6_6  and  C7_7 
REMARK    4  A    between atoms: C7_7  and  C9_9 
ROOT
HETATM    1  C9  UNL     1       1.990   0.528  -1.268  1.00  0.00    -0.001 C 
HETATM    2  C10 UNL     1       2.074  -0.993  -1.550  1.00  0.00     0.007 C 
HETATM    3  C11 UNL     1       0.706  -1.597  -1.159  1.00  0.00     0.024 C 
HETATM    4  C12 UNL     1      -0.154  -0.405  -0.792  1.00  0.00     0.092 C 
HETATM    5  C13 UNL     1      -0.897   0.178  -2.026  1.00  0.00     0.272 C 
HETATM    6  O1  UNL     1      -0.582   0.087  -3.200  1.00  0.00    -0.264 OA
HETATM    7  O2  UNL     1      -2.023   0.849  -1.582  1.00  0.00    -0.305 OA
HETATM    8  C14 UNL     1      -2.100   0.728  -0.142  1.00  0.00     0.113 C 
HETATM    9  C15 UNL     1      -1.275   1.923   0.447  1.00  0.00     0.043 C 
HETATM   10  C16 UNL     1       0.159   2.031  -0.143  1.00  0.00     0.014 C 
HETATM   11  C17 UNL     1       0.852   0.649  -0.212  1.00  0.00    -0.020 C 
HETATM   12  C18 UNL     1       1.326   0.279   1.212  1.00  0.00     0.017 C 
HETATM   13  C19 UNL     1      -1.339  -0.549   0.078  1.00  0.00     0.137 A 
HETATM   14  O3  UNL     1      -1.281  -1.174   1.346  1.00  0.00    -0.364 OA
HETATM   15  C20 UNL     1      -2.034  -1.871   0.334  1.00  0.00     0.162 A 
HETATM   16  C21 UNL     1      -3.517  -1.903   0.555  1.00  0.00     0.042 C 
HETATM   17  C22 UNL     1      -4.189  -0.733  -0.194  1.00  0.00     0.014 C 
HETATM   18  C23 UNL     1      -5.747  -0.824  -0.322  1.00  0.00     0.018 C 
HETATM   19  C24 UNL     1      -6.146  -2.125  -1.054  1.00  0.00     0.023 C 
HETATM   20  C25 UNL     1      -6.510  -0.772   1.008  1.00  0.00     0.023 C 
HETATM   21  C26 UNL     1      -6.241   0.347  -1.188  1.00  0.00     0.135 C 
HETATM   22  O4  UNL     1      -7.408   0.422  -1.575  1.00  0.00    -0.297 OA
HETATM   23  C27 UNL     1      -5.238   1.411  -1.568  1.00  0.00     0.080 C 
HETATM   24  C28 UNL     1      -4.444   1.817  -0.336  1.00  0.00     0.020 C 
HETATM   25  C29 UNL     1      -3.614   0.658   0.301  1.00  0.00    -0.004 C 
HETATM   26  C30 UNL     1      -3.694   0.840   1.841  1.00  0.00     0.019 C 
ENDROOT
BRANCH   1  27
HETATM   27  C7  UNL     1       3.319   1.323  -1.148  1.00  0.00    -0.014 C 
HETATM   28  C8  UNL     1       4.130   1.165  -2.451  1.00  0.00     0.010 C 
BRANCH  27  29
HETATM   29  C6  UNL     1       4.267   1.149   0.059  1.00  0.00     0.008 C 
BRANCH  29  30
HETATM   30  C5  UNL     1       4.803  -0.255   0.344  1.00  0.00     0.028 C 
BRANCH  30  31
HETATM   31  C4  UNL     1       5.859  -0.215   1.418  1.00  0.00    -0.025 C 
HETATM   32  C2  UNL     1       7.140  -0.623   1.344  1.00  0.00    -0.091 C 
HETATM   33  C1  UNL     1       8.056  -0.481   2.532  1.00  0.00     0.042 C 
HETATM   34  C3  UNL     1       7.794  -1.234   0.136  1.00  0.00     0.042 C 
ENDBRANCH  30  31
ENDBRANCH  29  30
ENDBRANCH  27  29
ENDBRANCH   1  27
TORSDOF 4
