REMARK  12 active torsions:
REMARK  status: ('A' for Active; 'I' for Inactive)
REMARK    1  A    between atoms: C5_5  and  C6_6 
REMARK    2  A    between atoms: C6_6  and  C8_8 
REMARK    3  A    between atoms: C8_8  and  O1_9 
REMARK    4  A    between atoms: C13_15  and  O3_17 
REMARK    5  A    between atoms: C18_21  and  O4_23 
REMARK    6  A    between atoms: O4_23  and  C20_24 
REMARK    7  A    between atoms: C20_24  and  C21_26 
REMARK    8  A    between atoms: C21_26  and  C22_27 
REMARK    9  A    between atoms: C21_26  and  O6_29 
REMARK   10  A    between atoms: O6_29  and  C24_30 
REMARK   11  A    between atoms: C24_30  and  C25_32 
REMARK   12  A    between atoms: C25_32  and  C26_33 
ROOT
HETATM    1  C1  UNL     1      -4.259   2.053   0.003  1.00  0.00     0.015 C 
HETATM    2  C2  UNL     1      -3.092   1.747   0.596  1.00  0.00    -0.077 C 
HETATM    3  C3  UNL     1      -2.111   2.825   0.992  1.00  0.00     0.034 C 
HETATM    4  C4  UNL     1      -0.658   2.344   0.928  1.00  0.00     0.010 C 
HETATM    5  C5  UNL     1      -0.432   1.252  -0.140  1.00  0.00    -0.001 C 
HETATM    6  C9  UNL     1      -1.236  -0.031   0.291  1.00  0.00     0.037 C 
HETATM    7  C10 UNL     1      -2.662   0.310   0.854  1.00  0.00     0.090 C 
HETATM    8  C11 UNL     1      -2.890   0.012   2.348  1.00  0.00     0.138 C 
HETATM    9  O2  UNL     1      -2.494   0.777   3.235  1.00  0.00    -0.297 OA
HETATM   10  C12 UNL     1      -3.688  -1.236   2.739  1.00  0.00     0.119 C 
HETATM   11  C13 UNL     1      -3.447  -2.524   1.917  1.00  0.00     0.087 C 
HETATM   12  C14 UNL     1      -4.022  -3.725   2.692  1.00  0.00     0.049 C 
HETATM   13  C15 UNL     1      -1.937  -2.810   1.589  1.00  0.00     0.156 C 
HETATM   14  C16 UNL     1      -1.652  -3.168   0.124  1.00  0.00     0.038 C 
HETATM   15  C17 UNL     1      -0.184  -3.046  -0.292  1.00  0.00     0.043 C 
HETATM   16  C18 UNL     1       0.620  -1.968   0.473  1.00  0.00     0.093 C 
HETATM   17  C19 UNL     1       1.497  -2.635   1.567  1.00  0.00     0.049 C 
HETATM   18  C28 UNL     1      -0.361  -0.981   1.195  1.00  0.00     0.162 C 
HETATM   19  O8  UNL     1      -1.139  -1.749   2.110  1.00  0.00    -0.374 OA
ENDROOT
BRANCH  16  20
HETATM   20  O4  UNL     1       1.503  -1.215  -0.403  1.00  0.00    -0.306 OA
BRANCH  20  21
HETATM   21  C20 UNL     1       2.464  -1.872  -1.120  1.00  0.00     0.289 C 
HETATM   22  O5  UNL     1       2.496  -3.084  -1.302  1.00  0.00    -0.262 OA
BRANCH  21  23
HETATM   23  C21 UNL     1       3.544  -0.917  -1.656  1.00  0.00     0.231 C 
BRANCH  23  24
HETATM   24  C22 UNL     1       3.724  -1.082  -3.171  1.00  0.00     0.038 C 
HETATM   25  C23 UNL     1       2.530  -0.625  -3.995  1.00  0.00     0.008 C 
ENDBRANCH  23  24
BRANCH  23  26
HETATM   26  O6  UNL     1       3.356   0.472  -1.365  1.00  0.00    -0.306 OA
BRANCH  26  27
HETATM   27  C24 UNL     1       3.696   0.837  -0.096  1.00  0.00     0.259 C 
HETATM   28  O7  UNL     1       4.078   0.067   0.773  1.00  0.00    -0.265 OA
BRANCH  27  29
HETATM   29  C25 UNL     1       3.510   2.324   0.084  1.00  0.00     0.111 C 
BRANCH  29  30
HETATM   30  C26 UNL     1       4.480   2.889   1.117  1.00  0.00     0.005 C 
HETATM   31  C27 UNL     1       4.299   4.390   1.286  1.00  0.00     0.005 C 
ENDBRANCH  29  30
ENDBRANCH  27  29
ENDBRANCH  26  27
ENDBRANCH  23  26
ENDBRANCH  21  23
ENDBRANCH  20  21
ENDBRANCH  16  20
BRANCH   5  32
HETATM   32  C6  UNL     1      -0.719   1.781  -1.595  1.00  0.00     0.010 C 
HETATM   33  C7  UNL     1       0.317   2.847  -1.999  1.00  0.00     0.012 C 
BRANCH  32  34
HETATM   34  C8  UNL     1      -0.756   0.663  -2.654  1.00  0.00     0.168 C 
BRANCH  34  35
HETATM   35  O1  UNL     1      -0.800   1.183  -3.977  1.00  0.00    -0.400 OA
HETATM   36  H14 UNL     1      -1.593   1.741  -4.045  1.00  0.00     0.209 HD
ENDBRANCH  34  35
ENDBRANCH  32  34
ENDBRANCH   5  32
BRANCH  11  37
HETATM   37  O3  UNL     1      -4.231  -2.438   0.714  1.00  0.00    -0.387 OA
HETATM   38  H22 UNL     1      -5.174  -2.451   0.956  1.00  0.00     0.210 HD
ENDBRANCH  11  37
TORSDOF 12
