REMARK  7 active torsions:
REMARK  status: ('A' for Active; 'I' for Inactive)
REMARK    1  A    between atoms: C3_3  and  C5_5 
REMARK    2  A    between atoms: C24_26  and  O3_27 
REMARK    3  A    between atoms: C30_35  and  O6_36 
REMARK    4  A    between atoms: C31_38  and  O8_39 
REMARK    5  A    between atoms: C32_40  and  O9_41 
REMARK    6  A    between atoms: O9_41  and  C33_42 
REMARK    7  A    between atoms: C33_42  and  C34_44 
ROOT
HETATM    1  C5  UNL     1       3.582  -0.896  -1.503  1.00  0.00     0.160 C 
HETATM    2  O1  UNL     1       2.935  -1.061  -0.238  1.00  0.00    -0.342 OA
HETATM    3  C6  UNL     1       1.745  -0.267  -0.102  1.00  0.00     0.196 C 
HETATM    4  C7  UNL     1       1.487  -0.173   1.424  1.00  0.00     0.104 C 
HETATM    5  C8  UNL     1       0.005  -0.253   1.770  1.00  0.00     0.139 C 
HETATM    6  C9  UNL     1      -0.629  -1.525   1.195  1.00  0.00     0.065 C 
HETATM    7  C10 UNL     1       0.133  -2.041  -0.033  1.00  0.00     0.131 C 
HETATM    8  C11 UNL     1      -0.749  -2.856  -0.999  1.00  0.00     0.059 C 
HETATM    9  C12 UNL     1      -1.476  -4.014  -0.361  1.00  0.00    -0.022 C 
HETATM   10  C13 UNL     1      -2.680  -4.518  -0.712  1.00  0.00    -0.087 C 
HETATM   11  C14 UNL     1      -3.234  -5.700   0.042  1.00  0.00     0.043 C 
HETATM   12  C15 UNL     1      -3.483  -4.055  -1.918  1.00  0.00     0.041 C 
HETATM   13  C16 UNL     1      -4.765  -3.212  -1.681  1.00  0.00     0.008 C 
HETATM   14  C17 UNL     1      -5.933  -4.051  -1.151  1.00  0.00     0.014 C 
HETATM   15  C18 UNL     1      -4.470  -1.946  -0.903  1.00  0.00    -0.022 C 
HETATM   16  C19 UNL     1      -5.063  -1.522   0.225  1.00  0.00    -0.003 C 
HETATM   17  C20 UNL     1      -4.656  -0.336   0.943  1.00  0.00     0.008 C 
HETATM   18  C21 UNL     1      -4.543   0.905   0.441  1.00  0.00    -0.019 C 
HETATM   19  C22 UNL     1      -4.905   1.368  -0.946  1.00  0.00     0.206 C 
HETATM   20  O2  UNL     1      -4.751   2.808  -0.939  1.00  0.00    -0.375 OA
HETATM   21  C23 UNL     1      -4.864   3.186   0.453  1.00  0.00     0.194 C 
HETATM   22  C24 UNL     1      -4.373   4.625   0.715  1.00  0.00     0.179 C 
HETATM   23  C25 UNL     1      -2.905   4.784   1.049  1.00  0.00    -0.056 C 
HETATM   24  C26 UNL     1      -2.420   6.194   1.247  1.00  0.00     0.046 C 
HETATM   25  C27 UNL     1      -2.079   3.732   1.196  1.00  0.00    -0.004 C 
HETATM   26  C28 UNL     1      -2.542   2.316   0.990  1.00  0.00     0.150 C 
HETATM   27  C29 UNL     1      -1.766   1.342   1.861  1.00  0.00     0.270 C 
HETATM   28  O4  UNL     1      -2.109   0.992   2.986  1.00  0.00    -0.264 OA
HETATM   29  O5  UNL     1      -0.658   0.898   1.206  1.00  0.00    -0.315 OA
HETATM   30  C30 UNL     1      -4.072   2.120   1.202  1.00  0.00     0.128 C 
HETATM   31  O7  UNL     1       0.650  -0.925  -0.758  1.00  0.00    -0.347 OA
HETATM   32  C31 UNL     1       1.938   1.161  -0.730  1.00  0.00     0.210 C 
HETATM   33  C32 UNL     1       3.428   1.546  -0.756  1.00  0.00     0.172 C 
HETATM   34  C37 UNL     1       4.273   0.489  -1.519  1.00  0.00     0.047 C 
HETATM   35  C38 UNL     1       4.567   0.958  -2.949  1.00  0.00     0.015 C 
ENDROOT
BRANCH  32  36
HETATM   36  O8  UNL     1       1.445   1.229  -2.084  1.00  0.00    -0.387 OA
HETATM   37  H42 UNL     1       1.340   2.168  -2.313  1.00  0.00     0.210 HD
ENDBRANCH  32  36
BRANCH   1  38
HETATM   38  C3  UNL     1       4.566  -2.053  -1.694  1.00  0.00    -0.059 C 
HETATM   39  C2  UNL     1       5.121  -2.707  -0.649  1.00  0.00    -0.026 C 
HETATM   40  C1  UNL     1       6.098  -3.837  -0.700  1.00  0.00     0.036 C 
HETATM   41  C4  UNL     1       4.824  -2.456  -3.123  1.00  0.00     0.046 C 
ENDBRANCH   1  38
BRANCH  33  42
HETATM   42  O9  UNL     1       3.906   1.669   0.603  1.00  0.00    -0.312 OA
BRANCH  42  43
HETATM   43  C33 UNL     1       4.992   2.475   0.781  1.00  0.00     0.262 C 
HETATM   44  O10 UNL     1       5.524   3.115  -0.116  1.00  0.00    -0.265 OA
BRANCH  43  45
HETATM   45  C34 UNL     1       5.503   2.405   2.213  1.00  0.00     0.077 C 
HETATM   46  C35 UNL     1       6.417   3.596   2.503  1.00  0.00     0.020 C 
HETATM   47  C36 UNL     1       4.371   2.363   3.241  1.00  0.00     0.020 C 
ENDBRANCH  43  45
ENDBRANCH  42  43
ENDBRANCH  33  42
BRANCH  30  48
HETATM   48  O6  UNL     1      -4.503   2.103   2.559  1.00  0.00    -0.381 OA
HETATM   49  H40 UNL     1      -3.838   1.615   3.088  1.00  0.00     0.211 HD
ENDBRANCH  30  48
BRANCH  22  50
HETATM   50  O3  UNL     1      -4.672   5.441  -0.418  1.00  0.00    -0.389 OA
HETATM   51  H34 UNL     1      -4.721   4.822  -1.175  1.00  0.00     0.210 HD
ENDBRANCH  22  50
TORSDOF 7
