REMARK  12 active torsions:
REMARK  status: ('A' for Active; 'I' for Inactive)
REMARK    1  A    between atoms: C4_5  and  C5_6 
REMARK    2  A    between atoms: C5_6  and  O2_7 
REMARK    3  A    between atoms: C5_6  and  C6_8 
REMARK    4  A    between atoms: C6_8  and  O3_10 
REMARK    5  A    between atoms: C6_8  and  C8_11 
REMARK    6  A    between atoms: C11_14  and  O4_15 
REMARK    7  A    between atoms: C17_22  and  O6_23 
REMARK    8  A    between atoms: O6_23  and  C18_24 
REMARK    9  A    between atoms: C18_24  and  C19_25 
REMARK   10  A    between atoms: C19_25  and  C20_26 
REMARK   11  A    between atoms: C35_41  and  C36_42 
REMARK   12  A    between atoms: C36_42  and  O7_43 
ROOT
HETATM    1  C8  UNL     1      -3.355   0.430   0.386  1.00  0.00     0.034 C 
HETATM    2  C9  UNL     1      -3.708   1.017  -0.997  1.00  0.00     0.012 C 
HETATM    3  C10 UNL     1      -2.389   1.061  -1.742  1.00  0.00     0.044 C 
HETATM    4  C11 UNL     1      -1.443   1.689  -0.716  1.00  0.00     0.089 C 
HETATM    5  C12 UNL     1       0.042   1.474  -0.938  1.00  0.00    -0.037 C 
HETATM    6  C13 UNL     1       0.580   0.934  -2.045  1.00  0.00     0.057 C 
HETATM    7  C14 UNL     1       2.038   0.668  -2.150  1.00  0.00     0.154 C 
HETATM    8  O5  UNL     1       2.484   0.238  -3.210  1.00  0.00    -0.293 OA
HETATM    9  C15 UNL     1       2.886   0.859  -0.901  1.00  0.00     0.071 C 
HETATM   10  C16 UNL     1       4.380   0.931  -1.232  1.00  0.00     0.045 C 
HETATM   11  C17 UNL     1       5.232   1.085   0.029  1.00  0.00     0.122 C 
HETATM   12  C26 UNL     1       4.772   2.261   0.894  1.00  0.00     0.033 C 
HETATM   13  C27 UNL     1       3.272   2.205   1.197  1.00  0.00     0.013 C 
HETATM   14  C28 UNL     1       2.397   2.080  -0.080  1.00  0.00    -0.026 C 
HETATM   15  C29 UNL     1       2.539   3.405  -0.891  1.00  0.00     0.016 C 
HETATM   16  C30 UNL     1       0.877   1.894   0.261  1.00  0.00     0.026 C 
HETATM   17  C31 UNL     1       0.556   0.927   1.416  1.00  0.00     0.011 C 
HETATM   18  C32 UNL     1      -0.846   0.283   1.350  1.00  0.00     0.014 C 
HETATM   19  C33 UNL     1      -1.948   1.151   0.691  1.00  0.00    -0.002 C 
HETATM   20  C34 UNL     1      -2.255   2.315   1.675  1.00  0.00     0.019 C 
ENDROOT
BRANCH   1  21
HETATM   21  C6  UNL     1      -3.486  -1.139   0.490  1.00  0.00     0.087 C 
HETATM   22  C7  UNL     1      -3.311  -1.609   1.952  1.00  0.00     0.049 C 
BRANCH  21  23
HETATM   23  C5  UNL     1      -4.830  -1.777  -0.042  1.00  0.00     0.181 C 
BRANCH  23  24
HETATM   24  C4  UNL     1      -6.141  -1.225   0.562  1.00  0.00     0.159 C 
HETATM   25  O1  UNL     1      -6.369   0.147   0.193  1.00  0.00    -0.382 OA
HETATM   26  C3  UNL     1      -7.768   0.344  -0.049  1.00  0.00     0.173 C 
HETATM   27  C2  UNL     1      -8.474  -0.884   0.496  1.00  0.00     0.014 C 
HETATM   28  C1  UNL     1      -9.868  -1.085  -0.071  1.00  0.00     0.012 C 
HETATM   29  C35 UNL     1      -7.446  -1.995   0.260  1.00  0.00     0.046 C 
BRANCH  29  30
HETATM   30  C36 UNL     1      -7.544  -2.685  -1.107  1.00  0.00     0.172 C 
BRANCH  30  31
HETATM   31  O7  UNL     1      -7.392  -1.787  -2.192  1.00  0.00    -0.400 OA
HETATM   32  H52 UNL     1      -6.446  -1.517  -2.178  1.00  0.00     0.209 HD
ENDBRANCH  30  31
ENDBRANCH  29  30
ENDBRANCH  23  24
BRANCH  23  33
HETATM   33  O2  UNL     1      -4.842  -1.753  -1.480  1.00  0.00    -0.390 OA
HETATM   34  H9  UNL     1      -3.897  -1.764  -1.742  1.00  0.00     0.210 HD
ENDBRANCH  23  33
ENDBRANCH  21  23
BRANCH  21  35
HETATM   35  O3  UNL     1      -2.454  -1.745  -0.316  1.00  0.00    -0.387 OA
HETATM   36  H13 UNL     1      -2.346  -2.670  -0.029  1.00  0.00     0.210 HD
ENDBRANCH  21  35
ENDBRANCH   1  21
BRANCH   4  37
HETATM   37  O4  UNL     1      -1.634   3.109  -0.796  1.00  0.00    -0.384 OA
HETATM   38  H19 UNL     1      -1.360   3.389  -1.686  1.00  0.00     0.211 HD
ENDBRANCH   4  37
BRANCH  11  39
HETATM   39  O6  UNL     1       6.580   1.326  -0.380  1.00  0.00    -0.386 OA
BRANCH  39  40
HETATM   40  C18 UNL     1       7.545   0.486   0.255  1.00  0.00     0.172 C 
BRANCH  40  41
HETATM   41  C19 UNL     1       7.582  -0.896  -0.401  1.00  0.00     0.064 C 
BRANCH  41  42
HETATM   42  C20 UNL     1       8.681  -1.764   0.155  1.00  0.00    -0.056 A 
HETATM   43  C21 UNL     1       8.472  -2.521   1.316  1.00  0.00     0.007 A 
HETATM   44  C22 UNL     1       9.496  -3.314   1.835  1.00  0.00     0.001 A 
HETATM   45  C23 UNL     1      10.737  -3.356   1.202  1.00  0.00     0.000 A 
HETATM   46  C24 UNL     1      10.956  -2.603   0.050  1.00  0.00     0.001 A 
HETATM   47  C25 UNL     1       9.933  -1.808  -0.471  1.00  0.00     0.007 A 
ENDBRANCH  41  42
ENDBRANCH  40  41
ENDBRANCH  39  40
ENDBRANCH  11  39
TORSDOF 12
