REMARK  6 active torsions:
REMARK  status: ('A' for Active; 'I' for Inactive)
REMARK    1  A    between atoms: C4_4  and  C5_5 
REMARK    2  A    between atoms: C5_5  and  C6_6 
REMARK    3  A    between atoms: C6_6  and  C7_7 
REMARK    4  A    between atoms: C19_21  and  C20_22 
REMARK    5  A    between atoms: C26_28  and  C27_29 
REMARK    6  A    between atoms: C30_32  and  O2_33 
ROOT
HETATM    1  C7  UNL     1       4.183  -1.707  -0.565  1.00  0.00     0.082 C 
HETATM    2  C8  UNL     1       4.387  -2.566  -1.820  1.00  0.00     0.051 C 
HETATM    3  C9  UNL     1       3.329  -0.505  -0.916  1.00  0.00     0.012 C 
HETATM    4  C10 UNL     1       2.073  -0.333  -0.492  1.00  0.00     0.015 C 
HETATM    5  C11 UNL     1       1.504  -1.372   0.341  1.00  0.00     0.025 A 
HETATM    6  C12 UNL     1       2.275  -2.460   0.762  1.00  0.00     0.088 A 
HETATM    7  O1  UNL     1       3.594  -2.596   0.421  1.00  0.00    -0.335 OA
HETATM    8  C13 UNL     1       1.731  -3.461   1.579  1.00  0.00    -0.027 A 
HETATM    9  C14 UNL     1       2.572  -4.618   2.038  1.00  0.00     0.051 C 
HETATM   10  C15 UNL     1       0.384  -3.377   1.974  1.00  0.00     0.024 A 
HETATM   11  C16 UNL     1      -0.414  -2.292   1.553  1.00  0.00     0.005 A 
HETATM   12  C17 UNL     1       0.161  -1.309   0.750  1.00  0.00     0.057 A 
HETATM   13  N1  UNL     1      -0.825  -0.383   0.503  1.00  0.00    -0.354 N 
HETATM   14  C18 UNL     1      -2.021  -0.732   1.095  1.00  0.00     0.053 A 
HETATM   15  C19 UNL     1      -3.279  -0.075   1.071  1.00  0.00     0.011 A 
HETATM   16  C30 UNL     1      -4.285  -0.698   1.841  1.00  0.00     0.074 A 
HETATM   17  C31 UNL     1      -4.080  -1.896   2.526  1.00  0.00     0.038 A 
HETATM   18  C32 UNL     1      -2.835  -2.523   2.492  1.00  0.00     0.017 A 
HETATM   19  C33 UNL     1      -1.782  -1.928   1.772  1.00  0.00     0.004 A 
HETATM   20  H21 UNL     1      -0.691   0.447  -0.054  1.00  0.00     0.166 HD
ENDROOT
BRANCH  15  21
HETATM   21  C20 UNL     1      -3.500   1.248   0.333  1.00  0.00     0.051 C 
HETATM   22  C21 UNL     1      -3.529   2.370   1.358  1.00  0.00    -0.014 C 
HETATM   23  C22 UNL     1      -4.467   3.328   1.417  1.00  0.00    -0.087 C 
HETATM   24  C23 UNL     1      -4.492   4.364   2.502  1.00  0.00     0.043 C 
HETATM   25  C24 UNL     1      -5.564   3.399   0.398  1.00  0.00     0.034 C 
HETATM   26  C25 UNL     1      -5.197   2.698  -0.909  1.00  0.00     0.010 C 
HETATM   27  C26 UNL     1      -4.688   1.253  -0.700  1.00  0.00     0.001 C 
BRANCH  27  28
HETATM   28  C27 UNL     1      -4.309   0.601  -2.079  1.00  0.00    -0.018 C 
HETATM   29  C28 UNL     1      -5.451   0.693  -3.104  1.00  0.00     0.010 C 
HETATM   30  C29 UNL     1      -3.904  -0.872  -1.964  1.00  0.00     0.010 C 
ENDBRANCH  27  28
ENDBRANCH  15  21
BRANCH  16  31
HETATM   31  O2  UNL     1      -5.513  -0.096   1.940  1.00  0.00    -0.360 OA
HETATM   32  H39 UNL     1      -6.056  -0.585   2.577  1.00  0.00     0.217 HD
ENDBRANCH  16  31
BRANCH   1  33
HETATM   33  C6  UNL     1       5.534  -1.283   0.072  1.00  0.00     0.046 C 
BRANCH  33  34
HETATM   34  C5  UNL     1       6.664  -0.785  -0.840  1.00  0.00     0.030 C 
BRANCH  34  35
HETATM   35  C4  UNL     1       6.398   0.490  -1.587  1.00  0.00    -0.025 C 
HETATM   36  C2  UNL     1       6.583   1.747  -1.140  1.00  0.00    -0.091 C 
HETATM   37  C1  UNL     1       6.300   2.931  -2.026  1.00  0.00     0.042 C 
HETATM   38  C3  UNL     1       7.065   2.104   0.239  1.00  0.00     0.042 C 
ENDBRANCH  34  35
ENDBRANCH  33  34
ENDBRANCH   1  33
TORSDOF 6
