REMARK  12 active torsions:
REMARK  status: ('A' for Active; 'I' for Inactive)
REMARK    1  A    between atoms: C3_3  and  O1_4 
REMARK    2  A    between atoms: N1_14  and  O2_16 
REMARK    3  A    between atoms: O2_16  and  C13_17 
REMARK    4  A    between atoms: C13_17  and  C14_18 
REMARK       I    between atoms: C14_18  and  N2_20 
REMARK    5  A    between atoms: N2_20  and  C15_21 
REMARK    6  A    between atoms: C15_21  and  C16_22 
REMARK    7  A    between atoms: C15_21  and  C26_36 
REMARK       I    between atoms: C16_22  and  N3_24 
REMARK    8  A    between atoms: N3_24  and  C17_25 
REMARK    9  A    between atoms: C17_25  and  C18_26 
REMARK   10  A    between atoms: C17_25  and  C25_33 
REMARK   11  A    between atoms: C18_26  and  C19_27 
REMARK   12  A    between atoms: C25_33  and  O6_35 
ROOT
HETATM    1  C1  UNL     1     -10.720  -1.410   1.463  1.00  0.00     0.015 C 
HETATM    2  C2  UNL     1      -9.951  -0.548   1.135  1.00  0.00    -0.078 C 
HETATM    3  C3  UNL     1      -9.012   0.523   0.733  1.00  0.00     0.128 C 
HETATM    4  C4  UNL     1      -8.081   0.872   1.904  1.00  0.00     0.052 C 
HETATM    5  C5  UNL     1      -6.825   0.008   1.722  1.00  0.00     0.010 C 
HETATM    6  C6  UNL     1      -7.004  -0.760   0.396  1.00  0.00     0.002 C 
HETATM    7  C7  UNL     1      -5.725  -1.160  -0.387  1.00  0.00    -0.004 C 
HETATM    8  C8  UNL     1      -4.573  -1.606   0.542  1.00  0.00     0.010 C 
HETATM    9  C9  UNL     1      -3.452  -0.582   0.666  1.00  0.00     0.035 C 
HETATM   10  C10 UNL     1      -2.886  -0.150  -0.663  1.00  0.00    -0.069 C 
HETATM   11  C11 UNL     1      -1.641   0.363  -0.712  1.00  0.00     0.030 C 
HETATM   12  C12 UNL     1      -1.036   0.857  -1.988  1.00  0.00     0.032 C 
HETATM   13  N1  UNL     1       0.160   1.346  -2.123  1.00  0.00    -0.271 N 
ATOM     14  H1  UNL     1       0.544   1.676  -3.009  1.00  0.00     0.194 HD
HETATM   15  C29 UNL     1      -1.876   0.773  -3.249  1.00  0.00     0.060 C 
HETATM   16  C30 UNL     1      -3.363   0.812  -2.920  1.00  0.00     0.020 C 
HETATM   17  C31 UNL     1      -3.780  -0.277  -1.891  1.00  0.00    -0.016 C 
HETATM   18  C32 UNL     1      -3.544  -1.663  -2.558  1.00  0.00     0.020 C 
HETATM   19  C33 UNL     1      -5.302  -0.155  -1.506  1.00  0.00     0.002 C 
HETATM   20  C34 UNL     1      -5.786   1.259  -1.156  1.00  0.00     0.007 C 
HETATM   21  C35 UNL     1      -7.311   1.350  -1.016  1.00  0.00     0.014 C 
HETATM   22  C36 UNL     1      -8.011   0.105  -0.394  1.00  0.00     0.003 C 
HETATM   23  C37 UNL     1      -8.699  -0.688  -1.523  1.00  0.00     0.020 C 
ENDROOT
BRANCH   3  24
HETATM   24  O1  UNL     1      -9.779   1.662   0.368  1.00  0.00    -0.377 OA
HETATM   25  H2  UNL     1     -10.424   1.369  -0.296  1.00  0.00     0.211 HD
ENDBRANCH   3  24
BRANCH  13  26
HETATM   26  O2  UNL     1       0.862   1.367  -0.910  1.00  0.00    -0.271 OA
BRANCH  26  27
HETATM   27  C13 UNL     1       2.092   2.054  -1.107  1.00  0.00     0.303 C 
BRANCH  27  28
HETATM   28  C14 UNL     1       3.007   1.826   0.088  1.00  0.00     0.244 C 
HETATM   29  O3  UNL     1       3.692   2.718   0.582  1.00  0.00    -0.271 OA
HETATM   30  N2  UNL     1       3.049   0.518   0.530  1.00  0.00    -0.346 N 
HETATM   31  H16 UNL     1       2.729  -0.176  -0.138  1.00  0.00     0.163 HD
BRANCH  30  32
HETATM   32  C15 UNL     1       4.075   0.085   1.473  1.00  0.00     0.180 C 
BRANCH  32  33
HETATM   33  C16 UNL     1       5.316  -0.240   0.610  1.00  0.00     0.241 C 
HETATM   34  O4  UNL     1       5.233  -0.831  -0.466  1.00  0.00    -0.271 OA
HETATM   35  N3  UNL     1       6.514   0.181   1.144  1.00  0.00    -0.345 N 
HETATM   36  H18 UNL     1       6.546   0.376   2.138  1.00  0.00     0.163 HD
BRANCH  35  37
HETATM   37  C17 UNL     1       7.789  -0.111   0.475  1.00  0.00     0.186 C 
BRANCH  37  38
HETATM   38  C18 UNL     1       8.834   0.947   0.852  1.00  0.00     0.074 C 
BRANCH  38  39
HETATM   39  C19 UNL     1      10.104   0.863   0.041  1.00  0.00    -0.056 A 
HETATM   40  C20 UNL     1      10.133   1.335  -1.279  1.00  0.00     0.007 A 
HETATM   41  C21 UNL     1      11.301   1.247  -2.036  1.00  0.00     0.001 A 
HETATM   42  C22 UNL     1      12.450   0.684  -1.484  1.00  0.00     0.000 A 
HETATM   43  C23 UNL     1      12.432   0.212  -0.173  1.00  0.00     0.001 A 
HETATM   44  C24 UNL     1      11.265   0.301   0.589  1.00  0.00     0.007 A 
ENDBRANCH  38  39
ENDBRANCH  37  38
BRANCH  37  45
HETATM   45  C25 UNL     1       8.257  -1.489   0.940  1.00  0.00     0.163 C 
HETATM   46  O5  UNL     1       8.208  -1.912   2.086  1.00  0.00    -0.648 OA
BRANCH  45  47
HETATM   47  O6  UNL     1       8.767  -2.248  -0.049  1.00  0.00    -0.775 OA
HETATM   48  H27 UNL     1       9.003  -3.098   0.376  1.00  0.00     0.167 HD
ENDBRANCH  45  47
ENDBRANCH  37  45
ENDBRANCH  35  37
ENDBRANCH  32  33
BRANCH  32  49
HETATM   49  C26 UNL     1       3.603  -1.148   2.274  1.00  0.00     0.009 C 
HETATM   50  C27 UNL     1       4.678  -1.657   3.237  1.00  0.00     0.012 C 
HETATM   51  C28 UNL     1       2.331  -0.830   3.070  1.00  0.00     0.012 C 
ENDBRANCH  32  49
ENDBRANCH  30  32
ENDBRANCH  27  28
ENDBRANCH  26  27
ENDBRANCH  13  26
TORSDOF 12
