REMARK  14 active torsions:
REMARK  status: ('A' for Active; 'I' for Inactive)
REMARK    1  A    between atoms: C2_2  and  O2_4 
REMARK    2  A    between atoms: O2_4  and  C3_5 
REMARK    3  A    between atoms: C3_5  and  C4_6 
REMARK    4  A    between atoms: C4_6  and  C5_8 
REMARK    5  A    between atoms: C5_8  and  O4_9 
REMARK    6  A    between atoms: O4_9  and  C6_10 
REMARK    7  A    between atoms: C6_10  and  C7_12 
REMARK    8  A    between atoms: C7_12  and  C8_13 
REMARK    9  A    between atoms: C8_13  and  C9_14 
REMARK       I    between atoms: C9_14  and  N1_16 
REMARK   10  A    between atoms: N1_16  and  C10_17 
REMARK   11  A    between atoms: C10_17  and  C11_18 
REMARK   12  A    between atoms: C10_17  and  C18_25 
REMARK   13  A    between atoms: C11_18  and  C12_19 
REMARK   14  A    between atoms: C18_25  and  O8_27 
ROOT
HETATM    1  C3  UNL     1      -1.144   1.306   0.057  1.00  0.00     0.140 C 
HETATM    2  C19 UNL     1      -0.945   1.492  -1.496  1.00  0.00     0.048 C 
HETATM    3  C20 UNL     1      -2.180   0.873  -2.198  1.00  0.00     0.009 C 
HETATM    4  C21 UNL     1      -3.111   0.569  -1.040  1.00  0.00     0.002 C 
HETATM    5  C22 UNL     1      -4.328  -0.347  -1.142  1.00  0.00    -0.004 C 
HETATM    6  C23 UNL     1      -5.082  -0.336  -2.478  1.00  0.00     0.010 C 
HETATM    7  C24 UNL     1      -6.544   0.092  -2.378  1.00  0.00     0.035 C 
HETATM    8  C25 UNL     1      -7.311  -0.501  -1.216  1.00  0.00    -0.068 C 
HETATM    9  C26 UNL     1      -8.647  -0.622  -1.313  1.00  0.00     0.053 C 
HETATM   10  C27 UNL     1      -9.481  -1.002  -0.149  1.00  0.00     0.149 C 
HETATM   11  O9  UNL     1     -10.666  -1.274  -0.326  1.00  0.00    -0.293 OA
HETATM   12  C28 UNL     1      -8.847  -1.043   1.221  1.00  0.00     0.084 C 
HETATM   13  C29 UNL     1      -7.470  -0.378   1.262  1.00  0.00     0.022 C 
HETATM   14  C30 UNL     1      -6.552  -0.799   0.084  1.00  0.00    -0.016 C 
HETATM   15  C31 UNL     1      -6.248  -2.312   0.173  1.00  0.00     0.020 C 
HETATM   16  C32 UNL     1      -5.229   0.035   0.070  1.00  0.00     0.002 C 
HETATM   17  C33 UNL     1      -4.429   0.129   1.403  1.00  0.00     0.007 C 
HETATM   18  C34 UNL     1      -2.934  -0.237   1.366  1.00  0.00     0.013 C 
HETATM   19  C35 UNL     1      -2.141   0.086   0.077  1.00  0.00    -0.001 C 
HETATM   20  C36 UNL     1      -1.398  -1.236  -0.323  1.00  0.00     0.019 C 
ENDROOT
BRANCH   1  21
HETATM   21  O2  UNL     1      -1.814   2.528   0.472  1.00  0.00    -0.301 OA
BRANCH  21  22
HETATM   22  C2  UNL     1      -1.879   2.878   1.781  1.00  0.00     0.256 C 
HETATM   23  C1  UNL     1      -2.730   4.099   1.940  1.00  0.00     0.126 C 
HETATM   24  O1  UNL     1      -1.314   2.305   2.698  1.00  0.00    -0.266 OA
ENDBRANCH  21  22
ENDBRANCH   1  21
BRANCH   1  25
HETATM   25  C4  UNL     1       0.251   1.109   0.721  1.00  0.00     0.186 C 
HETATM   26  O3  UNL     1       0.565   0.077   1.314  1.00  0.00    -0.292 OA
BRANCH  25  27
HETATM   27  C5  UNL     1       1.227   2.281   0.589  1.00  0.00     0.260 C 
BRANCH  27  28
HETATM   28  O4  UNL     1       2.514   1.927   1.095  1.00  0.00    -0.314 OA
BRANCH  28  29
HETATM   29  C6  UNL     1       3.445   2.905   0.972  1.00  0.00     0.259 C 
HETATM   30  O5  UNL     1       3.227   4.010   0.489  1.00  0.00    -0.265 OA
BRANCH  29  31
HETATM   31  C7  UNL     1       4.768   2.493   1.564  1.00  0.00     0.120 C 
BRANCH  31  32
HETATM   32  C8  UNL     1       5.099   1.028   1.303  1.00  0.00     0.112 C 
BRANCH  32  33
HETATM   33  C9  UNL     1       6.525   0.700   1.683  1.00  0.00     0.218 C 
HETATM   34  O6  UNL     1       7.325   1.526   2.107  1.00  0.00    -0.274 OA
HETATM   35  N1  UNL     1       6.845  -0.620   1.490  1.00  0.00    -0.346 N 
HETATM   36  H10 UNL     1       6.142  -1.279   1.167  1.00  0.00     0.163 HD
BRANCH  35  37
HETATM   37  C10 UNL     1       8.179  -1.153   1.779  1.00  0.00     0.186 C 
BRANCH  37  38
HETATM   38  C11 UNL     1       9.212  -0.817   0.690  1.00  0.00     0.074 C 
BRANCH  38  39
HETATM   39  C12 UNL     1       8.879  -1.353  -0.686  1.00  0.00    -0.056 A 
HETATM   40  C13 UNL     1       8.074  -0.612  -1.562  1.00  0.00     0.007 A 
HETATM   41  C14 UNL     1       7.746  -1.117  -2.821  1.00  0.00     0.001 A 
HETATM   42  C15 UNL     1       8.220  -2.367  -3.215  1.00  0.00     0.000 A 
HETATM   43  C16 UNL     1       9.028  -3.110  -2.355  1.00  0.00     0.001 A 
HETATM   44  C17 UNL     1       9.358  -2.605  -1.097  1.00  0.00     0.007 A 
ENDBRANCH  38  39
ENDBRANCH  37  38
BRANCH  37  45
HETATM   45  C18 UNL     1       8.061  -2.657   2.010  1.00  0.00     0.163 C 
HETATM   46  O7  UNL     1       7.045  -3.331   1.892  1.00  0.00    -0.648 OA
BRANCH  45  47
HETATM   47  O8  UNL     1       9.211  -3.236   2.415  1.00  0.00    -0.775 OA
HETATM   48  H19 UNL     1       8.963  -4.175   2.546  1.00  0.00     0.167 HD
ENDBRANCH  45  47
ENDBRANCH  37  45
ENDBRANCH  35  37
ENDBRANCH  32  33
ENDBRANCH  31  32
ENDBRANCH  29  31
ENDBRANCH  28  29
ENDBRANCH  27  28
ENDBRANCH  25  27
ENDBRANCH   1  25
TORSDOF 14
