REMARK  9 active torsions:
REMARK  status: ('A' for Active; 'I' for Inactive)
REMARK    1  A    between atoms: C5_5  and  O1_6 
REMARK    2  A    between atoms: C8_9  and  C9_10 
REMARK    3  A    between atoms: C19_20  and  C20_21 
REMARK    4  A    between atoms: C20_21  and  C22_23 
REMARK    5  A    between atoms: C23_24  and  C24_25 
REMARK    6  A    between atoms: C24_25  and  O2_27 
REMARK    7  A    between atoms: C24_25  and  C26_28 
REMARK    8  A    between atoms: C26_28  and  C28_30 
REMARK    9  A    between atoms: C28_30  and  O3_31 
ROOT
HETATM    1  C9  UNL     1       3.497  -0.467  -0.354  1.00  0.00     0.004 C 
HETATM    2  C10 UNL     1       2.420  -1.236  -0.087  1.00  0.00    -0.075 C 
HETATM    3  C11 UNL     1       2.455  -2.686   0.323  1.00  0.00     0.034 C 
HETATM    4  C12 UNL     1       1.673  -2.896   1.615  1.00  0.00     0.005 C 
HETATM    5  C13 UNL     1       0.215  -2.486   1.433  1.00  0.00     0.010 C 
HETATM    6  C14 UNL     1       0.030  -1.012   0.978  1.00  0.00    -0.032 C 
HETATM    7  C15 UNL     1       0.298  -0.067   2.166  1.00  0.00     0.016 C 
HETATM    8  C16 UNL     1       1.033  -0.619  -0.161  1.00  0.00     0.023 C 
HETATM    9  C17 UNL     1       0.273  -0.904  -1.450  1.00  0.00     0.010 C 
HETATM   10  C18 UNL     1      -1.097  -0.330  -1.117  1.00  0.00     0.007 C 
HETATM   11  C19 UNL     1      -1.398  -0.872   0.296  1.00  0.00     0.002 C 
ENDROOT
BRANCH  11  12
HETATM   12  C20 UNL     1      -2.516  -0.114   1.068  1.00  0.00     0.009 C 
HETATM   13  C21 UNL     1      -3.014  -0.942   2.265  1.00  0.00     0.014 C 
BRANCH  12  14
HETATM   14  C22 UNL     1      -3.653   0.311   0.146  1.00  0.00    -0.023 C 
HETATM   15  C23 UNL     1      -4.893  -0.206   0.068  1.00  0.00     0.007 C 
BRANCH  15  16
HETATM   16  C24 UNL     1      -6.024   0.238  -0.851  1.00  0.00     0.077 C 
HETATM   17  C25 UNL     1      -5.589   1.203  -1.962  1.00  0.00     0.051 C 
BRANCH  16  18
HETATM   18  O2  UNL     1      -6.436  -0.958  -1.540  1.00  0.00    -0.386 OA
HETATM   19  H37 UNL     1      -6.695  -1.615  -0.875  1.00  0.00     0.211 HD
ENDBRANCH  16  18
BRANCH  16  20
HETATM   20  C26 UNL     1      -7.236   0.748  -0.005  1.00  0.00     0.043 C 
HETATM   21  C27 UNL     1      -8.491   1.002  -0.856  1.00  0.00     0.015 C 
BRANCH  20  22
HETATM   22  C28 UNL     1      -6.928   1.976   0.869  1.00  0.00     0.171 C 
BRANCH  22  23
HETATM   23  O3  UNL     1      -6.774   3.154   0.092  1.00  0.00    -0.400 OA
HETATM   24  H44 UNL     1      -6.566   3.879   0.706  1.00  0.00     0.209 HD
ENDBRANCH  22  23
ENDBRANCH  20  22
ENDBRANCH  16  20
ENDBRANCH  15  16
ENDBRANCH  12  14
ENDBRANCH  11  12
BRANCH   1  25
HETATM   25  C8  UNL     1       4.894  -0.856  -0.312  1.00  0.00     0.008 C 
HETATM   26  C7  UNL     1       5.955  -0.089  -0.638  1.00  0.00    -0.050 C 
HETATM   27  C2  UNL     1       5.899   1.282  -1.132  1.00  0.00    -0.061 C 
HETATM   28  C6  UNL     1       7.373  -0.601  -0.433  1.00  0.00     0.070 C 
HETATM   29  C1  UNL     1       5.276   1.610  -2.275  1.00  0.00     0.019 C 
HETATM   30  C3  UNL     1       6.690   2.302  -0.346  1.00  0.00     0.041 C 
HETATM   31  C4  UNL     1       7.621   1.676   0.699  1.00  0.00     0.036 C 
HETATM   32  C5  UNL     1       8.346   0.451   0.139  1.00  0.00     0.122 C 
BRANCH  32  33
HETATM   33  O1  UNL     1       9.255   0.863  -0.886  1.00  0.00    -0.395 OA
HETATM   34  H8  UNL     1       9.871   1.505  -0.493  1.00  0.00     0.210 HD
ENDBRANCH  32  33
ENDBRANCH   1  25
TORSDOF 9
