REMARK  9 active torsions:
REMARK  status: ('A' for Active; 'I' for Inactive)
REMARK    1  A    between atoms: O1_2  and  C2_3 
REMARK    2  A    between atoms: C2_3  and  C3_4 
REMARK    3  A    between atoms: C3_4  and  N1_5 
REMARK       I    between atoms: N1_5  and  C4_6 
REMARK    4  A    between atoms: C4_6  and  C5_8 
REMARK    5  A    between atoms: C5_8  and  C7_10 
REMARK    6  A    between atoms: C15_20  and  N3_21 
REMARK       I    between atoms: N3_21  and  C16_22 
REMARK    7  A    between atoms: C16_22  and  C17_24 
REMARK    8  A    between atoms: C17_24  and  N4_25 
REMARK    9  A    between atoms: C23_32  and  O4_33 
ROOT
HETATM    1  C7  UNL     1       2.602   0.263   0.589  1.00  0.00     0.027 C 
HETATM    2  C8  UNL     1       2.523  -0.423   1.959  1.00  0.00     0.009 C 
HETATM    3  C9  UNL     1       1.524  -1.584   1.965  1.00  0.00     0.010 C 
HETATM    4  C10 UNL     1       0.255  -1.379   1.087  1.00  0.00    -0.033 C 
HETATM    5  C11 UNL     1       0.428  -2.155  -0.247  1.00  0.00     0.016 C 
HETATM    6  C12 UNL     1      -0.963  -1.996   1.859  1.00  0.00     0.058 C 
HETATM    7  C13 UNL     1      -2.249  -1.572   1.238  1.00  0.00     0.010 A 
HETATM    8  C14 UNL     1      -2.414  -0.492   0.398  1.00  0.00     0.029 A 
HETATM    9  N2  UNL     1      -3.691  -0.340  -0.104  1.00  0.00    -0.339 N 
ATOM     10  H2  UNL     1      -3.982   0.378  -0.768  1.00  0.00     0.168 HD
HETATM   11  C15 UNL     1      -4.470  -1.259   0.404  1.00  0.00     0.151 A 
HETATM   12  S1  UNL     1      -3.737  -2.363   1.487  1.00  0.00    -0.056 SA
HETATM   13  C20 UNL     1      -1.294   0.422  -0.025  1.00  0.00     0.040 C 
HETATM   14  C21 UNL     1      -1.737   1.889   0.033  1.00  0.00     0.017 C 
HETATM   15  C22 UNL     1      -0.004   0.151   0.841  1.00  0.00     0.033 C 
HETATM   16  C23 UNL     1       1.229   0.903   0.266  1.00  0.00     0.128 C 
ENDROOT
BRANCH   1  17
HETATM   17  C5  UNL     1       3.801   1.251   0.511  1.00  0.00     0.080 C 
HETATM   18  C6  UNL     1       3.850   2.053  -0.795  1.00  0.00     0.020 C 
BRANCH  17  19
HETATM   19  C4  UNL     1       5.131   0.518   0.704  1.00  0.00     0.222 C 
HETATM   20  N1  UNL     1       5.484  -0.339  -0.318  1.00  0.00    -0.359 N 
HETATM   21  H8  UNL     1       4.954  -0.312  -1.177  1.00  0.00     0.162 HD
HETATM   22  O2  UNL     1       5.787   0.654   1.733  1.00  0.00    -0.273 OA
BRANCH  20  23
HETATM   23  C3  UNL     1       6.787  -0.986  -0.353  1.00  0.00     0.148 C 
BRANCH  23  24
HETATM   24  C2  UNL     1       7.732  -0.341  -1.375  1.00  0.00     0.186 C 
BRANCH  24  25
HETATM   25  O1  UNL     1       7.962   1.030  -1.054  1.00  0.00    -0.394 OA
HETATM   26  C1  UNL     1       8.915   1.628  -1.924  1.00  0.00     0.201 C 
ENDBRANCH  24  25
ENDBRANCH  23  24
ENDBRANCH  20  23
ENDBRANCH  17  19
ENDBRANCH   1  17
BRANCH  16  27
HETATM   27  O4  UNL     1       1.190   2.241   0.766  1.00  0.00    -0.395 OA
HETATM   28  H38 UNL     1       1.320   2.222   1.731  1.00  0.00     0.210 HD
ENDBRANCH  16  27
BRANCH  11  29
HETATM   29  N3  UNL     1      -5.804  -1.476   0.216  1.00  0.00    -0.306 N 
HETATM   30  C16 UNL     1      -6.561  -0.742  -0.679  1.00  0.00     0.252 C 
HETATM   31  O3  UNL     1      -6.136   0.107  -1.458  1.00  0.00    -0.271 OA
HETATM   32  H23 UNL     1      -6.216  -2.212   0.769  1.00  0.00     0.171 HD
BRANCH  30  33
HETATM   33  C17 UNL     1      -8.051  -1.127  -0.620  1.00  0.00     0.373 C 
BRANCH  33  34
HETATM   34  N4  UNL     1      -8.985   0.009  -0.484  1.00  0.00     0.088 N 
HETATM   35  C18 UNL     1      -8.677   0.858   0.664  1.00  0.00     0.310 C 
HETATM   36  C19 UNL     1      -9.082   0.803  -1.709  1.00  0.00     0.310 C 
ENDBRANCH  33  34
ENDBRANCH  30  33
ENDBRANCH  11  29
TORSDOF 9
