REMARK  7 active torsions:
REMARK  status: ('A' for Active; 'I' for Inactive)
REMARK    1  A    between atoms: C2_2  and  C30_33 
REMARK    2  A    between atoms: C3_3  and  C4_4 
REMARK    3  A    between atoms: C4_4  and  C5_5 
REMARK    4  A    between atoms: C5_5  and  C6_6 
REMARK    5  A    between atoms: C6_6  and  C8_8 
REMARK    6  A    between atoms: C10_10  and  O1_11 
REMARK    7  A    between atoms: C30_33  and  O5_35 
ROOT
HETATM    1  C8  UNL     1      -1.997   0.163  -1.605  1.00  0.00     0.001 C 
HETATM    2  C9  UNL     1      -2.018   1.686  -1.320  1.00  0.00     0.038 C 
HETATM    3  C10 UNL     1      -0.584   2.071  -0.880  1.00  0.00     0.131 C 
HETATM    4  C11 UNL     1       0.297   0.848  -1.269  1.00  0.00     0.014 C 
HETATM    5  C12 UNL     1       0.677   0.973  -2.779  1.00  0.00     0.023 C 
HETATM    6  C13 UNL     1       1.622   0.596  -0.555  1.00  0.00    -0.058 C 
HETATM    7  C14 UNL     1       2.149  -0.649  -0.441  1.00  0.00    -0.000 C 
HETATM    8  C15 UNL     1       1.333  -1.825  -0.991  1.00  0.00     0.157 C 
HETATM    9  O2  UNL     1       1.819  -2.953  -1.073  1.00  0.00    -0.293 OA
HETATM   10  C16 UNL     1      -0.109  -1.620  -1.448  1.00  0.00     0.094 C 
HETATM   11  C17 UNL     1      -0.689  -0.316  -0.910  1.00  0.00    -0.019 C 
HETATM   12  C18 UNL     1      -0.920  -0.495   0.622  1.00  0.00     0.017 C 
HETATM   13  C19 UNL     1       3.484  -0.962   0.290  1.00  0.00    -0.008 C 
HETATM   14  C20 UNL     1       3.091  -1.886   1.481  1.00  0.00     0.021 C 
HETATM   15  C21 UNL     1       4.475  -1.722  -0.646  1.00  0.00     0.022 C 
HETATM   16  C22 UNL     1       5.515  -0.839  -1.315  1.00  0.00     0.080 C 
HETATM   17  C23 UNL     1       6.389  -0.153  -0.294  1.00  0.00     0.135 C 
HETATM   18  O3  UNL     1       7.565   0.107  -0.557  1.00  0.00    -0.297 OA
HETATM   19  C24 UNL     1       5.762   0.213   1.056  1.00  0.00     0.018 C 
HETATM   20  C25 UNL     1       6.197  -0.856   2.075  1.00  0.00     0.023 C 
HETATM   21  C26 UNL     1       6.382   1.547   1.537  1.00  0.00     0.023 C 
HETATM   22  C27 UNL     1       4.192   0.328   0.905  1.00  0.00     0.014 C 
HETATM   23  C28 UNL     1       3.816   1.615   0.136  1.00  0.00     0.011 C 
HETATM   24  C29 UNL     1       2.320   1.807  -0.017  1.00  0.00     0.036 C 
ENDROOT
BRANCH   1  25
HETATM   25  C6  UNL     1      -3.315  -0.624  -1.336  1.00  0.00    -0.013 C 
HETATM   26  C7  UNL     1      -4.198  -0.562  -2.596  1.00  0.00     0.010 C 
BRANCH  25  27
HETATM   27  C5  UNL     1      -4.136  -0.150  -0.115  1.00  0.00     0.008 C 
BRANCH  27  28
HETATM   28  C4  UNL     1      -5.184  -1.174   0.340  1.00  0.00     0.028 C 
BRANCH  28  29
HETATM   29  C3  UNL     1      -5.862  -0.723   1.604  1.00  0.00    -0.013 C 
HETATM   30  C2  UNL     1      -7.081  -0.160   1.722  1.00  0.00     0.008 C 
HETATM   31  C1  UNL     1      -8.004   0.179   0.590  1.00  0.00     0.055 C 
BRANCH  30  32
HETATM   32  C30 UNL     1      -7.526   0.172   3.101  1.00  0.00     0.171 C 
HETATM   33  O4  UNL     1      -6.877   0.056   4.125  1.00  0.00    -0.646 OA
BRANCH  32  34
HETATM   34  O5  UNL     1      -8.785   0.639   3.132  1.00  0.00    -0.773 OA
HETATM   35  H44 UNL     1      -8.942   0.806   4.084  1.00  0.00     0.167 HD
ENDBRANCH  32  34
ENDBRANCH  30  32
ENDBRANCH  28  29
ENDBRANCH  27  28
ENDBRANCH  25  27
ENDBRANCH   1  25
BRANCH   3  36
HETATM   36  O1  UNL     1      -0.186   3.281  -1.508  1.00  0.00    -0.394 OA
HETATM   37  H17 UNL     1      -0.841   3.962  -1.275  1.00  0.00     0.210 HD
ENDBRANCH   3  36
TORSDOF 7
