REMARK  11 active torsions:
REMARK  status: ('A' for Active; 'I' for Inactive)
REMARK    1  A    between atoms: C2_2  and  C3_3 
REMARK    2  A    between atoms: C2_2  and  C4_5 
REMARK    3  A    between atoms: C3_3  and  O1_4 
REMARK    4  A    between atoms: C13_14  and  C14_15 
REMARK    5  A    between atoms: C14_15  and  C16_17 
REMARK    6  A    between atoms: C16_17  and  C17_18 
REMARK    7  A    between atoms: C17_18  and  C18_19 
REMARK    8  A    between atoms: C27_28  and  C28_29 
REMARK    9  A    between atoms: C28_29  and  C29_30 
REMARK   10  A    between atoms: C29_30  and  C30_31 
REMARK   11  A    between atoms: C30_31  and  O3_33 
ROOT
HETATM    1  C4  UNL     1      -3.945   0.782   1.866  1.00  0.00     0.025 C 
HETATM    2  C5  UNL     1      -2.751   1.428   2.590  1.00  0.00     0.010 C 
HETATM    3  C6  UNL     1      -1.600   0.447   2.739  1.00  0.00     0.007 C 
HETATM    4  C7  UNL     1      -0.983   0.179   1.362  1.00  0.00     0.004 C 
HETATM    5  C8  UNL     1      -2.033  -0.407   0.382  1.00  0.00    -0.027 A 
HETATM    6  C9  UNL     1      -1.666  -1.735  -0.312  1.00  0.00     0.011 C 
HETATM    7  C10 UNL     1      -0.187  -2.014  -0.635  1.00  0.00     0.011 C 
HETATM    8  C11 UNL     1       0.792  -0.998  -0.042  1.00  0.00    -0.032 C 
HETATM    9  C12 UNL     1       0.826   0.229  -0.989  1.00  0.00     0.016 C 
HETATM   10  C13 UNL     1       2.235  -1.539   0.211  1.00  0.00    -0.002 C 
HETATM   11  C22 UNL     1       2.764  -0.680   1.385  1.00  0.00     0.006 C 
HETATM   12  C23 UNL     1       1.555   0.087   1.954  1.00  0.00     0.011 C 
HETATM   13  C24 UNL     1       0.319  -0.664   1.419  1.00  0.00    -0.032 C 
HETATM   14  C25 UNL     1       0.112  -1.905   2.346  1.00  0.00     0.016 C 
HETATM   15  C26 UNL     1      -2.771   0.591  -0.490  1.00  0.00     0.022 A 
HETATM   16  C27 UNL     1      -3.555  -0.061   0.619  1.00  0.00    -0.024 A 
ENDROOT
BRANCH  10  17
HETATM   17  C14 UNL     1       3.217  -1.850  -0.956  1.00  0.00    -0.014 C 
HETATM   18  C15 UNL     1       4.408  -2.666  -0.410  1.00  0.00     0.010 C 
BRANCH  17  19
HETATM   19  C16 UNL     1       3.759  -0.741  -1.889  1.00  0.00     0.008 C 
BRANCH  19  20
HETATM   20  C17 UNL     1       4.534   0.414  -1.254  1.00  0.00     0.028 C 
BRANCH  20  21
HETATM   21  C18 UNL     1       5.172   1.277  -2.311  1.00  0.00    -0.025 C 
HETATM   22  C19 UNL     1       6.480   1.373  -2.623  1.00  0.00    -0.091 C 
HETATM   23  C20 UNL     1       6.942   2.318  -3.702  1.00  0.00     0.042 C 
HETATM   24  C21 UNL     1       7.586   0.582  -1.982  1.00  0.00     0.042 C 
ENDBRANCH  20  21
ENDBRANCH  19  20
ENDBRANCH  17  19
ENDBRANCH  10  17
BRANCH  16  25
HETATM   25  C28 UNL     1      -4.574  -1.172   0.289  1.00  0.00     0.021 C 
BRANCH  25  26
HETATM   26  C29 UNL     1      -5.895  -0.729  -0.327  1.00  0.00     0.111 C 
BRANCH  26  27
HETATM   27  C30 UNL     1      -5.744  -0.268  -1.747  1.00  0.00     0.139 C 
HETATM   28  O2  UNL     1      -5.154  -0.841  -2.647  1.00  0.00    -0.650 OA
BRANCH  27  29
HETATM   29  O3  UNL     1      -6.389   0.895  -1.980  1.00  0.00    -0.776 OA
HETATM   30  H48 UNL     1      -6.181   1.083  -2.921  1.00  0.00     0.167 HD
ENDBRANCH  27  29
ENDBRANCH  26  27
ENDBRANCH  25  26
ENDBRANCH  16  25
BRANCH   1  31
HETATM   31  C2  UNL     1      -5.062   1.821   1.700  1.00  0.00    -0.061 C 
HETATM   32  C1  UNL     1      -6.213   1.695   2.391  1.00  0.00     0.017 C 
BRANCH  31  33
HETATM   33  C3  UNL     1      -4.833   3.050   0.853  1.00  0.00     0.198 C 
BRANCH  33  34
HETATM   34  O1  UNL     1      -4.914   2.744  -0.526  1.00  0.00    -0.397 OA
HETATM   35  H5  UNL     1      -5.725   2.220  -0.661  1.00  0.00     0.209 HD
ENDBRANCH  33  34
ENDBRANCH  31  33
ENDBRANCH   1  31
TORSDOF 11
