REMARK  8 active torsions:
REMARK  status: ('A' for Active; 'I' for Inactive)
REMARK    1  A    between atoms: C4_4  and  C5_5 
REMARK    2  A    between atoms: C5_5  and  C6_6 
REMARK    3  A    between atoms: C6_6  and  C7_7 
REMARK    4  A    between atoms: C7_7  and  C9_9 
REMARK    5  A    between atoms: C25_26  and  C27_28 
REMARK    6  A    between atoms: C27_28  and  O3_30 
REMARK    7  A    between atoms: C28_31  and  O4_32 
REMARK    8  A    between atoms: C30_34  and  O5_35 
ROOT
HETATM    1  C9  UNL     1       3.047  -0.757  -0.849  1.00  0.00    -0.002 C 
HETATM    2  C10 UNL     1       3.160   0.136  -2.116  1.00  0.00     0.007 C 
HETATM    3  C11 UNL     1       1.801   0.846  -2.295  1.00  0.00     0.015 C 
HETATM    4  C12 UNL     1       1.035   0.596  -0.977  1.00  0.00    -0.005 C 
HETATM    5  C13 UNL     1       1.515   1.682   0.036  1.00  0.00     0.021 C 
HETATM    6  C14 UNL     1      -0.485   0.685  -0.924  1.00  0.00    -0.000 C 
HETATM    7  C15 UNL     1      -1.210  -0.053  -0.041  1.00  0.00    -0.058 C 
HETATM    8  C16 UNL     1      -0.522  -1.094   0.859  1.00  0.00     0.036 C 
HETATM    9  C17 UNL     1       1.004  -1.251   0.730  1.00  0.00     0.015 C 
HETATM   10  C18 UNL     1       1.504  -0.887  -0.668  1.00  0.00    -0.028 C 
HETATM   11  C19 UNL     1       0.906  -1.920  -1.672  1.00  0.00     0.016 C 
HETATM   12  C20 UNL     1      -2.770   0.045   0.091  1.00  0.00     0.011 C 
HETATM   13  C21 UNL     1      -3.296  -1.176  -0.705  1.00  0.00     0.023 C 
HETATM   14  C22 UNL     1      -3.249   1.411  -0.498  1.00  0.00     0.029 C 
HETATM   15  C23 UNL     1      -2.670   1.675  -1.889  1.00  0.00     0.090 C 
HETATM   16  C24 UNL     1      -1.163   1.655  -1.842  1.00  0.00     0.157 C 
HETATM   17  O1  UNL     1      -0.519   2.402  -2.577  1.00  0.00    -0.293 OA
HETATM   18  C25 UNL     1      -4.785   1.735  -0.368  1.00  0.00     0.072 C 
HETATM   19  C26 UNL     1      -4.886   3.280  -0.153  1.00  0.00     0.030 C 
HETATM   20  C28 UNL     1      -5.429   1.066   0.879  1.00  0.00     0.139 C 
HETATM   21  C29 UNL     1      -4.419   0.877   2.004  1.00  0.00     0.065 C 
HETATM   22  C30 UNL     1      -3.205   0.015   1.608  1.00  0.00     0.133 C 
ENDROOT
BRANCH   1  23
HETATM   23  C7  UNL     1       4.041  -1.958  -0.868  1.00  0.00    -0.014 C 
HETATM   24  C8  UNL     1       3.800  -3.015  -1.955  1.00  0.00     0.010 C 
BRANCH  23  25
HETATM   25  C6  UNL     1       4.230  -2.684   0.489  1.00  0.00     0.008 C 
BRANCH  25  26
HETATM   26  C5  UNL     1       4.966  -1.882   1.576  1.00  0.00     0.028 C 
BRANCH  26  27
HETATM   27  C4  UNL     1       4.062  -1.060   2.454  1.00  0.00    -0.025 C 
HETATM   28  C2  UNL     1       4.155   0.251   2.756  1.00  0.00    -0.091 C 
HETATM   29  C1  UNL     1       5.239   1.174   2.269  1.00  0.00     0.042 C 
HETATM   30  C3  UNL     1       3.133   0.912   3.650  1.00  0.00     0.042 C 
ENDBRANCH  26  27
ENDBRANCH  25  26
ENDBRANCH  23  25
ENDBRANCH   1  23
BRANCH  22  31
HETATM   31  O5  UNL     1      -3.442  -1.322   2.059  1.00  0.00    -0.394 OA
HETATM   32  H46 UNL     1      -4.244  -1.639   1.600  1.00  0.00     0.210 HD
ENDBRANCH  22  31
BRANCH  18  33
HETATM   33  C27 UNL     1      -5.645   1.445  -1.602  1.00  0.00     0.151 C 
HETATM   34  O2  UNL     1      -6.575   2.130  -2.004  1.00  0.00    -0.649 OA
BRANCH  33  35
HETATM   35  O3  UNL     1      -5.324   0.316  -2.252  1.00  0.00    -0.776 OA
HETATM   36  H40 UNL     1      -5.995   0.258  -2.967  1.00  0.00     0.167 HD
ENDBRANCH  33  35
ENDBRANCH  18  33
BRANCH  20  37
HETATM   37  O4  UNL     1      -6.016  -0.213   0.623  1.00  0.00    -0.394 OA
HETATM   38  H42 UNL     1      -6.657  -0.364   1.340  1.00  0.00     0.210 HD
ENDBRANCH  20  37
TORSDOF 8
