REMARK  9 active torsions:
REMARK  status: ('A' for Active; 'I' for Inactive)
REMARK    1  A    between atoms: C2_2  and  C30_35 
REMARK    2  A    between atoms: C3_3  and  C4_4 
REMARK    3  A    between atoms: C4_4  and  O1_5 
REMARK    4  A    between atoms: C4_4  and  C5_6 
REMARK    5  A    between atoms: C5_6  and  C6_7 
REMARK    6  A    between atoms: C6_7  and  C8_9 
REMARK    7  A    between atoms: C10_11  and  O2_12 
REMARK    8  A    between atoms: C29_33  and  O5_34 
REMARK    9  A    between atoms: C30_35  and  O7_37 
ROOT
HETATM    1  C8  UNL     1       2.045  -1.707  -0.934  1.00  0.00     0.001 C 
HETATM    2  C9  UNL     1       1.403  -3.084  -1.266  1.00  0.00     0.038 C 
HETATM    3  C10 UNL     1      -0.119  -2.920  -1.080  1.00  0.00     0.132 C 
HETATM    4  C11 UNL     1      -0.350  -1.385  -1.106  1.00  0.00     0.017 C 
HETATM    5  C12 UNL     1      -0.358  -0.911  -2.598  1.00  0.00     0.023 C 
HETATM    6  C13 UNL     1      -1.622  -0.795  -0.486  1.00  0.00    -0.029 C 
HETATM    7  C14 UNL     1      -1.667   0.510  -0.103  1.00  0.00     0.002 C 
HETATM    8  C15 UNL     1      -0.368   1.310  -0.137  1.00  0.00     0.157 C 
HETATM    9  O3  UNL     1      -0.366   2.524   0.056  1.00  0.00    -0.293 OA
HETATM   10  C16 UNL     1       0.969   0.618  -0.396  1.00  0.00     0.094 C 
HETATM   11  C17 UNL     1       0.886  -0.902  -0.266  1.00  0.00    -0.019 C 
HETATM   12  C18 UNL     1       0.775  -1.251   1.246  1.00  0.00     0.017 C 
HETATM   13  C19 UNL     1      -2.961   1.191   0.433  1.00  0.00    -0.008 C 
HETATM   14  C20 UNL     1      -2.778   1.259   1.966  1.00  0.00     0.021 C 
HETATM   15  C21 UNL     1      -3.186   2.622  -0.133  1.00  0.00     0.022 C 
HETATM   16  C22 UNL     1      -4.513   3.250   0.268  1.00  0.00     0.080 C 
HETATM   17  C23 UNL     1      -5.680   2.388  -0.134  1.00  0.00     0.135 C 
HETATM   18  O4  UNL     1      -6.658   2.896  -0.688  1.00  0.00    -0.297 OA
HETATM   19  C24 UNL     1      -5.638   0.907   0.266  1.00  0.00     0.018 C 
HETATM   20  C25 UNL     1      -6.097   0.784   1.726  1.00  0.00     0.023 C 
HETATM   21  C26 UNL     1      -6.686   0.163  -0.603  1.00  0.00     0.023 C 
HETATM   22  C27 UNL     1      -4.209   0.340  -0.043  1.00  0.00     0.016 C 
HETATM   23  C28 UNL     1      -4.029  -1.136   0.353  1.00  0.00     0.043 C 
HETATM   24  C29 UNL     1      -2.790  -1.734  -0.314  1.00  0.00     0.149 C 
ENDROOT
BRANCH   1  25
HETATM   25  C6  UNL     1       3.474  -1.807  -0.317  1.00  0.00    -0.011 C 
HETATM   26  C7  UNL     1       3.599  -2.600   0.989  1.00  0.00     0.010 C 
BRANCH  25  27
HETATM   27  C5  UNL     1       4.130  -0.407  -0.203  1.00  0.00     0.040 C 
BRANCH  27  28
HETATM   28  C4  UNL     1       5.661  -0.430  -0.066  1.00  0.00     0.142 C 
BRANCH  28  29
HETATM   29  C3  UNL     1       6.250   0.935  -0.310  1.00  0.00     0.018 C 
HETATM   30  C2  UNL     1       6.498   1.929   0.571  1.00  0.00     0.010 C 
HETATM   31  C1  UNL     1       6.157   1.903   2.033  1.00  0.00     0.055 C 
BRANCH  30  32
HETATM   32  C30 UNL     1       7.134   3.195   0.119  1.00  0.00     0.171 C 
HETATM   33  O6  UNL     1       7.520   4.091   0.850  1.00  0.00    -0.646 OA
BRANCH  32  34
HETATM   34  O7  UNL     1       7.261   3.298  -1.215  1.00  0.00    -0.773 OA
HETATM   35  H44 UNL     1       7.679   4.175  -1.335  1.00  0.00     0.167 HD
ENDBRANCH  32  34
ENDBRANCH  30  32
ENDBRANCH  28  29
BRANCH  28  36
HETATM   36  O1  UNL     1       6.045  -0.909   1.213  1.00  0.00    -0.392 OA
HETATM   37  H6  UNL     1       7.017  -0.882   1.244  1.00  0.00     0.210 HD
ENDBRANCH  28  36
ENDBRANCH  27  28
ENDBRANCH  25  27
ENDBRANCH   1  25
BRANCH   3  38
HETATM   38  O2  UNL     1      -0.806  -3.628  -2.100  1.00  0.00    -0.394 OA
HETATM   39  H17 UNL     1      -1.751  -3.367  -2.045  1.00  0.00     0.210 HD
ENDBRANCH   3  38
BRANCH  24  40
HETATM   40  O5  UNL     1      -3.136  -2.250  -1.596  1.00  0.00    -0.391 OA
HETATM   41  H43 UNL     1      -3.516  -1.520  -2.118  1.00  0.00     0.210 HD
ENDBRANCH  24  40
TORSDOF 9
