REMARK  2 active torsions:
REMARK  status: ('A' for Active; 'I' for Inactive)
REMARK    1  A    between atoms: C21_27  and  C22_28 
REMARK    2  A    between atoms: C22_28  and  O7_30 
ROOT
HETATM    1  C1  UNL     1       2.433   2.314   3.408  1.00  0.00     0.043 C 
HETATM    2  C2  UNL     1       1.684   2.561   2.124  1.00  0.00    -0.076 C 
HETATM    3  C3  UNL     1       0.408   2.144   1.998  1.00  0.00     0.084 C 
HETATM    4  C4  UNL     1      -0.425   2.267   0.779  1.00  0.00     0.283 C 
HETATM    5  O1  UNL     1      -0.157   2.908  -0.222  1.00  0.00    -0.260 OA
HETATM    6  O2  UNL     1      -1.528   1.495   0.964  1.00  0.00    -0.317 OA
HETATM    7  C5  UNL     1      -2.454   1.437  -0.127  1.00  0.00     0.195 C 
HETATM    8  C6  UNL     1      -3.034  -0.001  -0.365  1.00  0.00     0.053 C 
HETATM    9  C7  UNL     1      -3.568  -0.579   1.006  1.00  0.00     0.159 C 
HETATM   10  C8  UNL     1      -4.858   0.039   1.481  1.00  0.00     0.011 C 
HETATM   11  C9  UNL     1      -5.774   0.537   0.629  1.00  0.00    -0.054 C 
HETATM   12  C10 UNL     1      -7.066   1.124   1.123  1.00  0.00     0.046 C 
HETATM   13  C11 UNL     1      -5.592   0.464  -0.831  1.00  0.00     0.180 A 
HETATM   14  O3  UNL     1      -5.206  -0.766  -1.466  1.00  0.00    -0.370 OA
HETATM   15  C12 UNL     1      -4.190   0.230  -1.360  1.00  0.00     0.170 A 
HETATM   16  O4  UNL     1      -3.799  -2.000   1.004  1.00  0.00    -0.372 OA
HETATM   17  C13 UNL     1      -2.786  -2.794   0.380  1.00  0.00     0.162 C 
HETATM   18  C14 UNL     1      -1.402  -2.506   0.970  1.00  0.00     0.068 C 
HETATM   19  C15 UNL     1      -0.823  -1.378   0.080  1.00  0.00     0.147 C 
HETATM   20  O5  UNL     1       0.347  -1.887  -0.599  1.00  0.00    -0.312 OA
HETATM   21  C16 UNL     1       1.510  -1.857   0.103  1.00  0.00     0.283 C 
HETATM   22  O6  UNL     1       1.661  -1.396   1.220  1.00  0.00    -0.260 OA
HETATM   23  C17 UNL     1       2.535  -2.521  -0.735  1.00  0.00     0.082 C 
HETATM   24  C18 UNL     1       3.852  -2.577  -0.494  1.00  0.00     0.006 C 
HETATM   25  C19 UNL     1       4.581  -1.963   0.588  1.00  0.00    -0.001 C 
HETATM   26  C20 UNL     1       4.903  -0.663   0.689  1.00  0.00     0.007 C 
HETATM   27  C21 UNL     1       4.561   0.458  -0.257  1.00  0.00     0.172 C 
HETATM   28  O8  UNL     1       4.079   1.515   0.587  1.00  0.00    -0.379 OA
HETATM   29  C24 UNL     1       3.047   2.303  -0.007  1.00  0.00     0.173 C 
HETATM   30  C25 UNL     1       2.486   3.265   1.044  1.00  0.00     0.060 C 
HETATM   31  C26 UNL     1      -1.952  -1.017  -0.970  1.00  0.00     0.034 C 
HETATM   32  C27 UNL     1      -1.356  -0.547  -2.306  1.00  0.00     0.022 C 
HETATM   33  C28 UNL     1      -2.650  -2.359  -1.038  1.00  0.00     0.119 A 
HETATM   34  C29 UNL     1      -3.411  -2.953  -2.198  1.00  0.00     0.210 A 
HETATM   35  O9  UNL     1      -2.060  -3.339  -1.909  1.00  0.00    -0.371 OA
ENDROOT
BRANCH  27  36
HETATM   36  C22 UNL     1       5.783   0.959  -1.081  1.00  0.00     0.146 C 
HETATM   37  C23 UNL     1       6.565  -0.157  -1.766  1.00  0.00     0.042 C 
BRANCH  36  38
HETATM   38  O7  UNL     1       5.364   1.864  -2.117  1.00  0.00    -0.393 OA
HETATM   39  H27 UNL     1       4.704   1.406  -2.665  1.00  0.00     0.210 HD
ENDBRANCH  36  38
ENDBRANCH  27  36
TORSDOF 2
