REMARK  9 active torsions:
REMARK  status: ('A' for Active; 'I' for Inactive)
REMARK    1  A    between atoms: C4_4  and  C5_5 
REMARK    2  A    between atoms: C5_5  and  C6_6 
REMARK    3  A    between atoms: C6_6  and  C7_7 
REMARK    4  A    between atoms: C13_14  and  O2_15 
REMARK    5  A    between atoms: C14_16  and  C15_17 
REMARK    6  A    between atoms: C15_17  and  C16_18 
REMARK    7  A    between atoms: C22_25  and  C23_26 
REMARK    8  A    between atoms: C25_28  and  O4_29 
REMARK    9  A    between atoms: C27_31  and  O5_32 
ROOT
HETATM    1  C7  UNL     1       2.936  -0.828   1.238  1.00  0.00     0.082 A 
HETATM    2  C8  UNL     1       3.709  -0.919   2.561  1.00  0.00     0.051 C 
HETATM    3  C9  UNL     1       2.134  -2.109   1.073  1.00  0.00     0.012 A 
HETATM    4  C10 UNL     1       0.806  -2.140   0.933  1.00  0.00     0.016 A 
HETATM    5  C11 UNL     1       0.122  -0.867   0.945  1.00  0.00     0.035 A 
HETATM    6  C12 UNL     1       0.805   0.328   1.131  1.00  0.00     0.117 A 
HETATM    7  O1  UNL     1       2.162   0.393   1.314  1.00  0.00    -0.333 OA
HETATM    8  C13 UNL     1       0.113   1.545   1.150  1.00  0.00     0.107 A 
HETATM    9  C14 UNL     1      -1.286   1.634   0.986  1.00  0.00    -0.006 A 
HETATM   10  C20 UNL     1      -1.973   0.410   0.783  1.00  0.00     0.011 A 
HETATM   11  C21 UNL     1      -1.260  -0.786   0.771  1.00  0.00     0.100 A 
HETATM   12  O3  UNL     1      -2.108  -1.836   0.567  1.00  0.00    -0.308 OA
HETATM   13  C22 UNL     1      -3.372  -1.334   0.437  1.00  0.00     0.087 A 
HETATM   14  C29 UNL     1      -3.331   0.041   0.563  1.00  0.00     0.053 A 
ENDROOT
BRANCH  13  15
HETATM   15  C23 UNL     1      -4.436  -2.308   0.205  1.00  0.00     0.003 A 
HETATM   16  C24 UNL     1      -5.767  -1.888   0.062  1.00  0.00     0.051 A 
HETATM   17  C25 UNL     1      -6.782  -2.817  -0.160  1.00  0.00     0.069 A 
HETATM   18  C26 UNL     1      -6.504  -4.174  -0.245  1.00  0.00     0.073 A 
HETATM   19  C27 UNL     1      -5.189  -4.596  -0.105  1.00  0.00     0.069 A 
HETATM   20  C28 UNL     1      -4.158  -3.683   0.118  1.00  0.00     0.051 A 
BRANCH  17  21
HETATM   21  O4  UNL     1      -8.055  -2.344  -0.291  1.00  0.00    -0.361 OA
HETATM   22  H28 UNL     1      -8.650  -3.097  -0.446  1.00  0.00     0.217 HD
ENDBRANCH  17  21
BRANCH  19  23
HETATM   23  O5  UNL     1      -4.942  -5.936  -0.193  1.00  0.00    -0.361 OA
HETATM   24  H30 UNL     1      -3.988  -6.084  -0.077  1.00  0.00     0.217 HD
ENDBRANCH  19  23
ENDBRANCH  13  15
BRANCH   9  25
HETATM   25  C15 UNL     1      -1.988   2.973   0.996  1.00  0.00     0.070 C 
BRANCH  25  26
HETATM   26  C16 UNL     1      -2.081   3.570  -0.383  1.00  0.00    -0.020 C 
HETATM   27  C17 UNL     1      -3.182   3.874  -1.099  1.00  0.00    -0.091 C 
HETATM   28  C18 UNL     1      -4.602   3.675  -0.649  1.00  0.00     0.042 C 
HETATM   29  C19 UNL     1      -3.052   4.466  -2.479  1.00  0.00     0.042 C 
ENDBRANCH  25  26
ENDBRANCH   9  25
BRANCH   8  30
HETATM   30  O2  UNL     1       0.833   2.702   1.335  1.00  0.00    -0.357 OA
HETATM   31  H17 UNL     1       1.763   2.417   1.428  1.00  0.00     0.217 HD
ENDBRANCH   8  30
BRANCH   1  32
HETATM   32  C6  UNL     1       3.892  -0.700   0.027  1.00  0.00     0.046 C 
BRANCH  32  33
HETATM   33  C5  UNL     1       4.764   0.562   0.034  1.00  0.00     0.030 C 
BRANCH  33  34
HETATM   34  C4  UNL     1       5.630   0.622  -1.195  1.00  0.00    -0.025 C 
HETATM   35  C2  UNL     1       6.944   0.340  -1.290  1.00  0.00    -0.091 C 
HETATM   36  C1  UNL     1       7.810  -0.144  -0.159  1.00  0.00     0.042 C 
HETATM   37  C3  UNL     1       7.667   0.487  -2.604  1.00  0.00     0.042 C 
ENDBRANCH  33  34
ENDBRANCH  32  33
ENDBRANCH   1  32
TORSDOF 9
