REMARK  7 active torsions:
REMARK  status: ('A' for Active; 'I' for Inactive)
REMARK    1  A    between atoms: C2_2  and  C3_3 
REMARK    2  A    between atoms: C9_10  and  O1_11 
REMARK    3  A    between atoms: C18_22  and  C19_23 
REMARK    4  A    between atoms: C33_39  and  C34_40 
REMARK    5  A    between atoms: C34_40  and  O2_41 
REMARK    6  A    between atoms: C35_42  and  C38_45 
REMARK    7  A    between atoms: C39_46  and  O3_47 
ROOT
HETATM    1  C19 UNL     1      -0.067   0.448  -0.237  1.00  0.00    -0.003 C 
HETATM    2  C20 UNL     1      -0.414   0.076   1.015  1.00  0.00     0.102 C 
HETATM    3  N3  UNL     1      -1.708  -0.223   1.412  1.00  0.00    -0.349 N 
HETATM    4  C21 UNL     1      -2.073  -1.344   2.193  1.00  0.00     0.041 A 
HETATM    5  C22 UNL     1      -1.265  -2.067   3.064  1.00  0.00     0.030 A 
HETATM    6  C23 UNL     1      -1.795  -3.172   3.729  1.00  0.00     0.002 A 
HETATM    7  C24 UNL     1      -3.130  -3.543   3.541  1.00  0.00     0.001 A 
HETATM    8  C25 UNL     1      -3.947  -2.816   2.679  1.00  0.00     0.010 A 
HETATM    9  C26 UNL     1      -3.406  -1.727   1.999  1.00  0.00    -0.018 A 
HETATM   10  C27 UNL     1      -4.075  -0.792   1.021  1.00  0.00     0.041 C 
HETATM   11  C28 UNL     1      -5.068   0.141   1.752  1.00  0.00     0.046 C 
HETATM   12  C29 UNL     1      -6.445  -0.237   1.257  1.00  0.00     0.239 C 
HETATM   13  N4  UNL     1      -6.240  -0.741  -0.169  1.00  0.00    -0.062 N 
HETATM   14  C30 UNL     1      -7.429  -1.631  -0.543  1.00  0.00     0.273 C 
HETATM   15  C31 UNL     1      -6.139   0.381  -1.206  1.00  0.00     0.271 C 
HETATM   16  C32 UNL     1      -4.743   0.823  -1.624  1.00  0.00    -0.051 C 
HETATM   17  C33 UNL     1      -4.586   2.149  -1.861  1.00  0.00     0.004 C 
HETATM   18  C35 UNL     1      -3.672  -0.274  -1.828  1.00  0.00     0.027 C 
HETATM   19  C36 UNL     1      -4.342  -1.618  -1.494  1.00  0.00     0.044 C 
HETATM   20  C37 UNL     1      -4.916  -1.532  -0.076  1.00  0.00     0.206 C 
HETATM   21  C38 UNL     1      -2.424  -0.294  -0.896  1.00  0.00     0.052 C 
HETATM   22  C39 UNL     1      -1.177   0.510  -1.297  1.00  0.00     0.160 C 
HETATM   23  C40 UNL     1      -2.845   0.040   0.522  1.00  0.00     0.112 C 
ENDROOT
BRANCH   1  24
HETATM   24  C18 UNL     1       1.336   0.764  -0.613  1.00  0.00    -0.016 C 
HETATM   25  C3  UNL     1       1.773   1.789  -1.604  1.00  0.00    -0.032 C 
HETATM   26  C4  UNL     1       3.037   1.745  -2.069  1.00  0.00     0.099 C 
HETATM   27  N1  UNL     1       4.019   0.862  -1.618  1.00  0.00    -0.354 N 
HETATM   28  C5  UNL     1       5.443   1.160  -1.940  1.00  0.00     0.133 C 
HETATM   29  C16 UNL     1       3.725   0.095  -0.465  1.00  0.00     0.062 C 
HETATM   30  C6  UNL     1       6.393   0.043  -1.497  1.00  0.00     0.062 C 
HETATM   31  C7  UNL     1       6.088  -0.386  -0.099  1.00  0.00    -0.012 C 
HETATM   32  C8  UNL     1       6.865  -0.720   0.932  1.00  0.00     0.033 A 
HETATM   33  C15 UNL     1       4.693  -0.457   0.292  1.00  0.00     0.067 C 
HETATM   34  C9  UNL     1       8.272  -0.800   1.199  1.00  0.00     0.081 A 
HETATM   35  C14 UNL     1       5.852  -1.097   1.939  1.00  0.00     0.046 A 
HETATM   36  C11 UNL     1       8.656  -1.188   2.437  1.00  0.00     0.038 A 
HETATM   37  C12 UNL     1       7.684  -1.559   3.462  1.00  0.00     0.005 A 
HETATM   38  C13 UNL     1       6.355  -1.542   3.255  1.00  0.00     0.030 A 
HETATM   39  N2  UNL     1       4.609  -0.999   1.558  1.00  0.00    -0.353 N 
ATOM     40  H2  UNL     1       3.770  -1.262   2.075  1.00  0.00     0.166 HD
HETATM   41  C17 UNL     1       2.317  -0.012  -0.091  1.00  0.00     0.044 C 
BRANCH  25  42
HETATM   42  C2  UNL     1       0.883   2.930  -2.041  1.00  0.00     0.036 C 
HETATM   43  C1  UNL     1       0.560   3.895  -0.897  1.00  0.00     0.010 C 
ENDBRANCH  25  42
BRANCH  34  44
HETATM   44  O1  UNL     1       9.069  -0.433   0.142  1.00  0.00    -0.355 OA
HETATM   45  C10 UNL     1      10.476  -0.469   0.334  1.00  0.00     0.210 C 
ENDBRANCH  34  44
ENDBRANCH   1  24
BRANCH  22  46
HETATM   46  O3  UNL     1      -0.772  -0.003  -2.563  1.00  0.00    -0.390 OA
HETATM   47  H42 UNL     1       0.165  -0.281  -2.486  1.00  0.00     0.210 HD
ENDBRANCH  22  46
BRANCH  17  48
HETATM   48  C34 UNL     1      -3.433   2.903  -2.414  1.00  0.00     0.191 C 
BRANCH  48  49
HETATM   49  O2  UNL     1      -2.782   3.472  -1.292  1.00  0.00    -0.397 OA
HETATM   50  H35 UNL     1      -2.673   4.427  -1.456  1.00  0.00     0.209 HD
ENDBRANCH  48  49
ENDBRANCH  17  48
TORSDOF 7
