REMARK  5 active torsions:
REMARK  status: ('A' for Active; 'I' for Inactive)
REMARK    1  A    between atoms: C2_2  and  C4_4 
REMARK    2  A    between atoms: C7_7  and  C8_8 
REMARK    3  A    between atoms: C8_8  and  O2_10 
REMARK    4  A    between atoms: C21_24  and  C23_26 
REMARK    5  A    between atoms: C23_26  and  O4_27 
ROOT
HETATM    1  C4  UNL     1      -4.008   1.061  -0.861  1.00  0.00     0.019 C 
HETATM    2  C5  UNL     1      -5.440   0.664  -0.406  1.00  0.00     0.011 C 
HETATM    3  C6  UNL     1      -5.300  -0.562   0.529  1.00  0.00     0.021 C 
HETATM    4  C7  UNL     1      -3.840  -1.028   0.363  1.00  0.00     0.050 C 
HETATM    5  C9  UNL     1      -3.249  -1.717   1.601  1.00  0.00     0.022 C 
HETATM    6  C10 UNL     1      -1.699  -1.779   1.553  1.00  0.00     0.011 C 
HETATM    7  C11 UNL     1      -0.953  -0.409   1.308  1.00  0.00    -0.032 C 
HETATM    8  C12 UNL     1      -1.241   0.445   2.586  1.00  0.00     0.016 C 
HETATM    9  C13 UNL     1      -1.605   0.276   0.040  1.00  0.00     0.000 C 
HETATM   10  C14 UNL     1      -1.176  -0.314  -1.321  1.00  0.00     0.006 C 
HETATM   11  C15 UNL     1       0.112  -1.125  -1.295  1.00  0.00     0.006 C 
HETATM   12  C16 UNL     1       1.118  -0.437  -0.381  1.00  0.00     0.003 C 
HETATM   13  C17 UNL     1       2.632  -0.739  -0.708  1.00  0.00    -0.031 C 
HETATM   14  C18 UNL     1       2.873  -2.255  -0.941  1.00  0.00     0.016 C 
HETATM   15  C19 UNL     1       3.013  -0.004  -2.021  1.00  0.00     0.036 C 
HETATM   16  C20 UNL     1       4.483  -0.164  -2.398  1.00  0.00     0.169 C 
HETATM   17  O3  UNL     1       5.323  -0.472  -1.292  1.00  0.00    -0.378 OA
HETATM   18  C21 UNL     1       5.011   0.230  -0.075  1.00  0.00     0.082 C 
HETATM   19  C22 UNL     1       6.051  -0.284   0.943  1.00  0.00     0.049 C 
HETATM   20  C24 UNL     1       3.572  -0.197   0.430  1.00  0.00     0.030 C 
HETATM   21  C25 UNL     1       2.890   0.894   1.275  1.00  0.00     0.009 C 
HETATM   22  C26 UNL     1       1.492   0.575   1.838  1.00  0.00     0.011 C 
HETATM   23  C27 UNL     1       0.687  -0.562   1.126  1.00  0.00    -0.032 C 
HETATM   24  C28 UNL     1       1.120  -1.888   1.803  1.00  0.00     0.016 C 
HETATM   25  C29 UNL     1      -3.142   0.340   0.186  1.00  0.00     0.017 C 
ENDROOT
BRANCH   4  26
HETATM   26  C8  UNL     1      -3.794  -2.043  -0.800  1.00  0.00     0.149 C 
HETATM   27  O1  UNL     1      -3.156  -3.083  -0.840  1.00  0.00    -0.649 OA
BRANCH  26  28
HETATM   28  O2  UNL     1      -4.552  -1.724  -1.865  1.00  0.00    -0.776 OA
HETATM   29  H11 UNL     1      -4.405  -2.470  -2.484  1.00  0.00     0.167 HD
ENDBRANCH  26  28
ENDBRANCH   4  26
BRANCH   1  30
HETATM   30  C2  UNL     1      -3.869   2.565  -1.034  1.00  0.00    -0.088 C 
HETATM   31  C1  UNL     1      -3.238   3.389  -0.181  1.00  0.00     0.014 C 
HETATM   32  C3  UNL     1      -4.511   3.118  -2.282  1.00  0.00     0.043 C 
ENDBRANCH   1  30
BRANCH  18  33
HETATM   33  C23 UNL     1       5.259   1.752  -0.297  1.00  0.00     0.202 C 
BRANCH  33  34
HETATM   34  O4  UNL     1       5.346   2.516   0.901  1.00  0.00    -0.398 OA
HETATM   35  H37 UNL     1       6.209   2.324   1.307  1.00  0.00     0.209 HD
ENDBRANCH  33  34
ENDBRANCH  18  33
TORSDOF 5
