REMARK  10 active torsions:
REMARK  status: ('A' for Active; 'I' for Inactive)
REMARK    1  A    between atoms: C14_14  and  C15_15 
REMARK    2  A    between atoms: C15_15  and  C17_17 
REMARK    3  A    between atoms: C17_17  and  C18_18 
REMARK    4  A    between atoms: C18_18  and  C19_19 
REMARK    5  A    between atoms: C20_20  and  C22_22 
REMARK    6  A    between atoms: C22_22  and  O2_24 
REMARK    7  A    between atoms: C27_29  and  C28_30 
REMARK    8  A    between atoms: C28_30  and  C29_31 
REMARK    9  A    between atoms: C29_31  and  C30_32 
REMARK   10  A    between atoms: C30_32  and  O4_34 
ROOT
HETATM    1  C1  UNL     1      -6.306  -1.910   0.755  1.00  0.00     0.043 C 
HETATM    2  C2  UNL     1      -5.422  -0.696   0.974  1.00  0.00    -0.085 C 
HETATM    3  C3  UNL     1      -5.795   0.010   2.252  1.00  0.00     0.043 C 
HETATM    4  C4  UNL     1      -4.408  -0.368   0.126  1.00  0.00    -0.073 C 
HETATM    5  C5  UNL     1      -3.981  -1.381  -0.929  1.00  0.00     0.035 C 
HETATM    6  C6  UNL     1      -2.563  -1.171  -1.457  1.00  0.00     0.010 C 
HETATM    7  C7  UNL     1      -1.532  -0.767  -0.367  1.00  0.00     0.003 C 
HETATM    8  C8  UNL     1      -2.038   0.429   0.586  1.00  0.00    -0.032 C 
HETATM    9  C9  UNL     1      -2.154  -0.043   2.063  1.00  0.00     0.016 C 
HETATM   10  C10 UNL     1      -1.038   1.630   0.604  1.00  0.00     0.011 C 
HETATM   11  C11 UNL     1       0.476   1.324   0.644  1.00  0.00     0.011 C 
HETATM   12  C12 UNL     1       0.899  -0.052   0.100  1.00  0.00    -0.032 C 
HETATM   13  C13 UNL     1       1.009  -1.064   1.275  1.00  0.00     0.016 C 
HETATM   14  C14 UNL     1       2.253  -0.088  -0.691  1.00  0.00    -0.002 C 
HETATM   15  C23 UNL     1       2.089  -1.324  -1.623  1.00  0.00     0.006 C 
HETATM   16  C24 UNL     1       0.599  -1.727  -1.581  1.00  0.00     0.011 C 
HETATM   17  C25 UNL     1      -0.125  -0.492  -1.007  1.00  0.00    -0.032 C 
HETATM   18  C26 UNL     1      -0.272   0.509  -2.208  1.00  0.00     0.016 C 
HETATM   19  C27 UNL     1      -3.488   0.875   0.107  1.00  0.00     0.024 C 
ENDROOT
BRANCH  14  20
HETATM   20  C15 UNL     1       3.653   0.028  -0.008  1.00  0.00    -0.014 C 
HETATM   21  C16 UNL     1       3.771   1.337   0.783  1.00  0.00     0.010 C 
BRANCH  20  22
HETATM   22  C17 UNL     1       4.131  -1.169   0.849  1.00  0.00     0.008 C 
BRANCH  22  23
HETATM   23  C18 UNL     1       5.641  -1.189   1.148  1.00  0.00     0.028 C 
BRANCH  23  24
HETATM   24  C19 UNL     1       6.482  -1.371  -0.085  1.00  0.00    -0.013 C 
HETATM   25  C20 UNL     1       7.414  -0.535  -0.586  1.00  0.00     0.008 C 
HETATM   26  C21 UNL     1       7.817   0.791  -0.014  1.00  0.00     0.055 C 
BRANCH  25  27
HETATM   27  C22 UNL     1       8.097  -0.979  -1.830  1.00  0.00     0.171 C 
HETATM   28  O1  UNL     1       7.914  -2.022  -2.433  1.00  0.00    -0.646 OA
BRANCH  27  29
HETATM   29  O2  UNL     1       8.992  -0.080  -2.272  1.00  0.00    -0.773 OA
HETATM   30  H35 UNL     1       9.352  -0.498  -3.081  1.00  0.00     0.167 HD
ENDBRANCH  27  29
ENDBRANCH  25  27
ENDBRANCH  23  24
ENDBRANCH  22  23
ENDBRANCH  20  22
ENDBRANCH  14  20
BRANCH  19  31
HETATM   31  C28 UNL     1      -4.043   2.207   0.686  1.00  0.00     0.020 C 
BRANCH  31  32
HETATM   32  C29 UNL     1      -4.927   2.979  -0.301  1.00  0.00     0.110 C 
BRANCH  32  33
HETATM   33  C30 UNL     1      -6.162   2.251  -0.745  1.00  0.00     0.139 C 
HETATM   34  O3  UNL     1      -6.303   1.642  -1.793  1.00  0.00    -0.650 OA
BRANCH  33  35
HETATM   35  O4  UNL     1      -7.173   2.348   0.137  1.00  0.00    -0.776 OA
HETATM   36  H48 UNL     1      -7.883   1.809  -0.272  1.00  0.00     0.167 HD
ENDBRANCH  33  35
ENDBRANCH  32  33
ENDBRANCH  31  32
ENDBRANCH  19  31
TORSDOF 10
