REMARK  7 active torsions:
REMARK  status: ('A' for Active; 'I' for Inactive)
REMARK    1  A    between atoms: C2_2  and  C4_4 
REMARK    2  A    between atoms: C4_4  and  C6_6 
REMARK    3  A    between atoms: C7_7  and  C8_8 
REMARK    4  A    between atoms: C8_8  and  C10_10 
REMARK    5  A    between atoms: C17_17  and  O1_18 
REMARK    6  A    between atoms: C22_23  and  O2_24 
REMARK    7  A    between atoms: C24_26  and  O3_27 
ROOT
HETATM    1  C10 UNL     1       1.428   0.696   1.593  1.00  0.00     0.004 C 
HETATM    2  C11 UNL     1       1.071   1.406   2.914  1.00  0.00     0.007 C 
HETATM    3  C12 UNL     1      -0.454   1.580   2.910  1.00  0.00     0.009 C 
HETATM    4  C13 UNL     1      -0.958   0.931   1.606  1.00  0.00     0.038 C 
HETATM    5  C14 UNL     1       0.240   1.024   0.666  1.00  0.00    -0.008 C 
HETATM    6  C15 UNL     1       0.031   0.024  -0.492  1.00  0.00     0.016 C 
HETATM    7  C16 UNL     1      -1.454  -0.334  -0.725  1.00  0.00     0.043 C 
HETATM    8  C17 UNL     1      -2.384   0.896  -0.600  1.00  0.00     0.103 C 
HETATM    9  C18 UNL     1      -3.964   0.634  -0.768  1.00  0.00     0.025 C 
HETATM   10  C19 UNL     1      -4.595   1.917  -1.426  1.00  0.00     0.022 C 
HETATM   11  C20 UNL     1      -4.305  -0.532  -1.752  1.00  0.00     0.018 C 
HETATM   12  C21 UNL     1      -4.182  -1.955  -1.193  1.00  0.00     0.033 C 
HETATM   13  C22 UNL     1      -4.836  -2.130   0.172  1.00  0.00     0.121 C 
HETATM   14  C23 UNL     1      -4.430  -1.037   1.164  1.00  0.00     0.074 C 
HETATM   15  C24 UNL     1      -4.688   0.374   0.602  1.00  0.00     0.088 C 
HETATM   16  C25 UNL     1      -4.338   1.426   1.612  1.00  0.00     0.010 C 
HETATM   17  C26 UNL     1      -3.159   2.060   1.641  1.00  0.00     0.013 C 
HETATM   18  C27 UNL     1      -2.005   1.690   0.762  1.00  0.00     0.115 C 
HETATM   19  O4  UNL     1      -1.277   2.884   0.403  1.00  0.00    -0.372 OA
HETATM   20  C28 UNL     1       0.101   2.493   0.201  1.00  0.00     0.179 C 
ENDROOT
BRANCH   1  21
HETATM   21  C8  UNL     1       2.889   0.934   1.133  1.00  0.00     0.009 C 
HETATM   22  C9  UNL     1       3.258   2.363   0.733  1.00  0.00     0.014 C 
BRANCH  21  23
HETATM   23  C7  UNL     1       3.275   0.008  -0.001  1.00  0.00    -0.026 C 
HETATM   24  C6  UNL     1       4.123  -1.025   0.131  1.00  0.00    -0.026 C 
BRANCH  24  25
HETATM   25  C4  UNL     1       4.508  -1.949  -1.003  1.00  0.00     0.007 C 
HETATM   26  C5  UNL     1       4.127  -3.386  -0.630  1.00  0.00     0.014 C 
BRANCH  25  27
HETATM   27  C2  UNL     1       6.000  -1.830  -1.422  1.00  0.00    -0.015 C 
HETATM   28  C1  UNL     1       6.997  -2.167  -0.309  1.00  0.00     0.010 C 
HETATM   29  C3  UNL     1       6.313  -0.438  -1.986  1.00  0.00     0.010 C 
ENDBRANCH  25  27
ENDBRANCH  24  25
ENDBRANCH  21  23
ENDBRANCH   1  21
BRANCH   8  30
HETATM   30  O1  UNL     1      -1.966   1.688  -1.755  1.00  0.00    -0.385 OA
HETATM   31  H28 UNL     1      -2.222   1.219  -2.565  1.00  0.00     0.210 HD
ENDBRANCH   8  30
BRANCH  15  32
HETATM   32  O3  UNL     1      -6.107   0.523   0.433  1.00  0.00    -0.385 OA
HETATM   33  H40 UNL     1      -6.472  -0.355   0.192  1.00  0.00     0.211 HD
ENDBRANCH  15  32
BRANCH  13  34
HETATM   34  O2  UNL     1      -6.257  -2.088   0.003  1.00  0.00    -0.395 OA
HETATM   35  H37 UNL     1      -6.516  -2.896  -0.477  1.00  0.00     0.210 HD
ENDBRANCH  13  34
TORSDOF 7
