REMARK  10 active torsions:
REMARK  status: ('A' for Active; 'I' for Inactive)
REMARK    1  A    between atoms: C2_2  and  C3_3 
REMARK    2  A    between atoms: C2_2  and  C9_11 
REMARK    3  A    between atoms: C3_3  and  C4_4 
REMARK    4  A    between atoms: C4_4  and  C5_5 
REMARK    5  A    between atoms: C5_5  and  O1_6 
REMARK    6  A    between atoms: C5_5  and  C6_7 
REMARK    7  A    between atoms: C6_7  and  O2_10 
REMARK    8  A    between atoms: C10_12  and  O3_13 
REMARK    9  A    between atoms: C12_15  and  C13_16 
REMARK   10  A    between atoms: C13_16  and  O5_18 
ROOT
HETATM    1  C9  UNL     1       1.820  -0.243  -0.311  1.00  0.00     0.028 C 
HETATM    2  C10 UNL     1       1.491   0.115  -1.782  1.00  0.00     0.124 C 
HETATM    3  C11 UNL     1      -0.029   0.190  -1.891  1.00  0.00     0.053 C 
HETATM    4  C12 UNL     1      -0.541  -0.859  -0.880  1.00  0.00     0.060 C 
HETATM    5  C14 UNL     1      -2.075  -0.705  -0.559  1.00  0.00     0.014 C 
HETATM    6  C15 UNL     1      -2.924  -0.769  -1.851  1.00  0.00     0.007 C 
HETATM    7  C16 UNL     1      -4.415  -0.456  -1.701  1.00  0.00     0.007 C 
HETATM    8  C17 UNL     1      -4.882  -0.129  -0.275  1.00  0.00     0.010 C 
HETATM    9  C18 UNL     1      -6.364   0.374  -0.209  1.00  0.00     0.018 C 
HETATM   10  C19 UNL     1      -7.321  -0.675  -0.807  1.00  0.00     0.023 C 
HETATM   11  C20 UNL     1      -6.581   1.717  -0.928  1.00  0.00     0.023 C 
HETATM   12  C21 UNL     1      -6.762   0.570   1.260  1.00  0.00     0.135 C 
HETATM   13  O6  UNL     1      -7.938   0.727   1.604  1.00  0.00    -0.297 OA
HETATM   14  C22 UNL     1      -5.665   0.540   2.294  1.00  0.00     0.080 C 
HETATM   15  C23 UNL     1      -4.470   1.334   1.798  1.00  0.00     0.018 C 
HETATM   16  C24 UNL     1      -3.920   0.812   0.471  1.00  0.00    -0.026 A 
HETATM   17  C25 UNL     1      -3.016   1.767  -0.293  1.00  0.00     0.021 A 
HETATM   18  C26 UNL     1      -2.414   0.515   0.304  1.00  0.00    -0.027 A 
HETATM   19  C27 UNL     1      -1.504   0.678   1.502  1.00  0.00     0.011 C 
HETATM   20  C28 UNL     1      -0.041   0.694   1.091  1.00  0.00     0.012 C 
HETATM   21  C29 UNL     1       0.424  -0.604   0.342  1.00  0.00    -0.020 C 
HETATM   22  C30 UNL     1       0.419  -1.731   1.388  1.00  0.00     0.017 C 
ENDROOT
BRANCH   1  23
HETATM   23  C2  UNL     1       3.085  -1.155  -0.244  1.00  0.00    -0.011 C 
HETATM   24  C1  UNL     1       2.931  -2.600  -0.724  1.00  0.00     0.010 C 
BRANCH  23  25
HETATM   25  C3  UNL     1       3.789  -1.115   1.136  1.00  0.00     0.007 C 
BRANCH  25  26
HETATM   26  C4  UNL     1       4.713   0.106   1.334  1.00  0.00     0.035 C 
BRANCH  26  27
HETATM   27  C5  UNL     1       6.165  -0.157   0.878  1.00  0.00     0.151 C 
BRANCH  27  28
HETATM   28  O1  UNL     1       6.206  -0.419  -0.526  1.00  0.00    -0.393 OA
HETATM   29  H10 UNL     1       5.743   0.307  -0.980  1.00  0.00     0.210 HD
ENDBRANCH  27  28
BRANCH  27  30
HETATM   30  C6  UNL     1       7.163   0.979   1.257  1.00  0.00     0.076 C 
HETATM   31  C7  UNL     1       8.594   0.571   0.881  1.00  0.00     0.048 C 
HETATM   32  C8  UNL     1       6.828   2.313   0.581  1.00  0.00     0.048 C 
BRANCH  30  33
HETATM   33  O2  UNL     1       7.123   1.181   2.675  1.00  0.00    -0.388 OA
HETATM   34  H17 UNL     1       7.800   1.841   2.905  1.00  0.00     0.210 HD
ENDBRANCH  30  33
ENDBRANCH  27  30
ENDBRANCH  26  27
ENDBRANCH  25  26
ENDBRANCH  23  25
ENDBRANCH   1  23
BRANCH   2  35
HETATM   35  O3  UNL     1       2.076   1.365  -2.116  1.00  0.00    -0.395 OA
HETATM   36  H20 UNL     1       1.831   1.559  -3.037  1.00  0.00     0.210 HD
ENDBRANCH   2  35
BRANCH   4  37
HETATM   37  C13 UNL     1      -0.394  -2.292  -1.424  1.00  0.00     0.150 C 
HETATM   38  O4  UNL     1      -0.655  -3.322  -0.819  1.00  0.00    -0.649 OA
BRANCH  37  39
HETATM   39  O5  UNL     1      -0.030  -2.377  -2.716  1.00  0.00    -0.776 OA
HETATM   40  H23 UNL     1      -0.048  -3.342  -2.901  1.00  0.00     0.167 HD
ENDBRANCH  37  39
ENDBRANCH   4  37
TORSDOF 10
