REMARK  9 active torsions:
REMARK  status: ('A' for Active; 'I' for Inactive)
REMARK    1  A    between atoms: C3_3  and  O1_4 
REMARK    2  A    between atoms: N1_14  and  O2_16 
REMARK    3  A    between atoms: O2_16  and  C13_17 
REMARK    4  A    between atoms: C13_17  and  C14_18 
REMARK       I    between atoms: C14_18  and  N2_20 
REMARK    5  A    between atoms: N2_20  and  C15_21 
REMARK    6  A    between atoms: C15_21  and  C16_22 
REMARK    7  A    between atoms: C15_21  and  C18_26 
REMARK    8  A    between atoms: C16_22  and  C17_23 
REMARK    9  A    between atoms: C17_23  and  O5_25 
ROOT
HETATM    1  C1  UNL     1     -10.291   0.220  -1.218  1.00  0.00     0.015 C 
HETATM    2  C2  UNL     1      -9.232   0.774  -1.344  1.00  0.00    -0.078 C 
HETATM    3  C3  UNL     1      -7.937   1.458  -1.494  1.00  0.00     0.128 C 
HETATM    4  C4  UNL     1      -7.168   0.976  -2.725  1.00  0.00     0.052 C 
HETATM    5  C5  UNL     1      -5.691   1.248  -2.420  1.00  0.00     0.010 C 
HETATM    6  C6  UNL     1      -5.605   1.703  -0.945  1.00  0.00     0.002 C 
HETATM    7  C7  UNL     1      -4.301   1.222  -0.265  1.00  0.00    -0.004 C 
HETATM    8  C8  UNL     1      -3.915   2.147   0.916  1.00  0.00     0.010 C 
HETATM    9  C9  UNL     1      -3.190   1.453   2.065  1.00  0.00     0.035 C 
HETATM   10  C10 UNL     1      -2.278   0.391   1.529  1.00  0.00    -0.069 C 
HETATM   11  C11 UNL     1      -0.945   0.490   1.673  1.00  0.00     0.030 C 
HETATM   12  C12 UNL     1      -0.027  -0.527   1.101  1.00  0.00     0.032 C 
HETATM   13  N1  UNL     1       1.211  -0.522   1.509  1.00  0.00    -0.271 N 
ATOM     14  H1  UNL     1       1.589   0.143   2.184  1.00  0.00     0.194 HD
HETATM   15  C25 UNL     1      -0.585  -1.537   0.113  1.00  0.00     0.060 C 
HETATM   16  C26 UNL     1      -1.990  -1.181  -0.369  1.00  0.00     0.020 C 
HETATM   17  C27 UNL     1      -2.955  -0.747   0.773  1.00  0.00    -0.016 C 
HETATM   18  C28 UNL     1      -3.156  -1.932   1.743  1.00  0.00     0.020 C 
HETATM   19  C29 UNL     1      -4.321  -0.284   0.113  1.00  0.00     0.002 C 
HETATM   20  C30 UNL     1      -5.601  -0.616   0.904  1.00  0.00     0.007 C 
HETATM   21  C31 UNL     1      -6.855  -0.268   0.102  1.00  0.00     0.014 C 
HETATM   22  C32 UNL     1      -6.943   1.222  -0.312  1.00  0.00     0.003 C 
HETATM   23  C33 UNL     1      -7.348   2.063   0.915  1.00  0.00     0.020 C 
ENDROOT
BRANCH   3  24
HETATM   24  O1  UNL     1      -8.174   2.860  -1.661  1.00  0.00    -0.377 OA
HETATM   25  H2  UNL     1      -9.023   2.953  -2.124  1.00  0.00     0.211 HD
ENDBRANCH   3  24
BRANCH  13  26
HETATM   26  O2  UNL     1       1.960  -1.543   0.905  1.00  0.00    -0.271 OA
BRANCH  26  27
HETATM   27  C13 UNL     1       3.012  -1.922   1.782  1.00  0.00     0.303 C 
BRANCH  27  28
HETATM   28  C14 UNL     1       4.219  -2.379   0.976  1.00  0.00     0.244 C 
HETATM   29  O3  UNL     1       4.825  -3.419   1.221  1.00  0.00    -0.271 OA
HETATM   30  N2  UNL     1       4.614  -1.483   0.001  1.00  0.00    -0.354 N 
HETATM   31  H16 UNL     1       4.051  -0.645  -0.104  1.00  0.00     0.162 HD
BRANCH  30  32
HETATM   32  C15 UNL     1       5.842  -1.645  -0.776  1.00  0.00     0.098 C 
BRANCH  32  33
HETATM   33  C16 UNL     1       5.621  -1.207  -2.228  1.00  0.00     0.135 C 
BRANCH  33  34
HETATM   34  C17 UNL     1       4.766  -2.189  -2.974  1.00  0.00     0.141 C 
HETATM   35  O4  UNL     1       3.619  -2.005  -3.348  1.00  0.00    -0.650 OA
BRANCH  34  36
HETATM   36  O5  UNL     1       5.404  -3.343  -3.246  1.00  0.00    -0.776 OA
HETATM   37  H20 UNL     1       4.729  -3.890  -3.706  1.00  0.00     0.167 HD
ENDBRANCH  34  36
ENDBRANCH  33  34
ENDBRANCH  32  33
BRANCH  32  38
HETATM   38  C18 UNL     1       7.046  -0.892  -0.136  1.00  0.00     0.014 C 
HETATM   39  C19 UNL     1       7.392  -1.421   1.263  1.00  0.00     0.033 C 
HETATM   40  C20 UNL     1       8.571  -0.667   1.859  1.00  0.00     0.169 C 
HETATM   41  O6  UNL     1       8.308   0.734   1.908  1.00  0.00    -0.381 OA
HETATM   42  C21 UNL     1       8.032   1.347   0.640  1.00  0.00     0.054 C 
HETATM   43  C22 UNL     1       7.625   2.795   0.955  1.00  0.00     0.045 C 
HETATM   44  C23 UNL     1       9.296   1.384  -0.232  1.00  0.00     0.045 C 
HETATM   45  C24 UNL     1       6.858   0.634  -0.064  1.00  0.00     0.044 C 
ENDBRANCH  32  38
ENDBRANCH  30  32
ENDBRANCH  27  28
ENDBRANCH  26  27
ENDBRANCH  13  26
TORSDOF 9
