REMARK  7 active torsions:
REMARK  status: ('A' for Active; 'I' for Inactive)
REMARK    1  A    between atoms: C4_4  and  C5_5 
REMARK    2  A    between atoms: C5_5  and  C6_6 
REMARK    3  A    between atoms: C6_6  and  C7_7 
REMARK    4  A    between atoms: C7_7  and  C9_9 
REMARK    5  A    between atoms: C16_16  and  O1_17 
REMARK    6  A    between atoms: C18_19  and  O2_20 
REMARK    7  A    between atoms: C19_21  and  O3_22 
ROOT
HETATM    1  C9  UNL     1       2.184  -1.761  -0.909  1.00  0.00    -0.002 C 
HETATM    2  C10 UNL     1       1.674  -2.639  -2.089  1.00  0.00     0.006 C 
HETATM    3  C11 UNL     1       0.175  -2.348  -2.257  1.00  0.00     0.011 C 
HETATM    4  C12 UNL     1      -0.053  -1.015  -1.523  1.00  0.00    -0.032 C 
HETATM    5  C13 UNL     1       0.399   0.120  -2.494  1.00  0.00     0.016 C 
HETATM    6  C14 UNL     1      -1.519  -0.779  -1.068  1.00  0.00     0.006 C 
HETATM    7  C15 UNL     1      -2.491  -0.472  -2.216  1.00  0.00     0.038 C 
HETATM    8  C16 UNL     1      -3.918  -0.329  -1.692  1.00  0.00     0.126 C 
HETATM    9  C17 UNL     1      -4.033   0.926  -0.812  1.00  0.00     0.055 C 
HETATM   10  C18 UNL     1      -5.403   1.017  -0.102  1.00  0.00     0.154 C 
HETATM   11  C19 UNL     1      -5.485   2.242   0.847  1.00  0.00     0.147 C 
HETATM   12  C20 UNL     1      -4.282   3.180   0.721  1.00  0.00     0.035 C 
HETATM   13  C21 UNL     1      -2.937   2.459   0.874  1.00  0.00     0.013 C 
HETATM   14  C22 UNL     1      -2.931   1.076   0.226  1.00  0.00    -0.023 A 
HETATM   15  C23 UNL     1      -2.623  -0.072   1.156  1.00  0.00     0.021 A 
HETATM   16  C24 UNL     1      -1.618   0.269   0.070  1.00  0.00    -0.027 A 
HETATM   17  C25 UNL     1      -0.324   0.963   0.508  1.00  0.00     0.011 C 
HETATM   18  C26 UNL     1       0.987   0.157   0.438  1.00  0.00     0.011 C 
HETATM   19  C27 UNL     1       0.871  -1.204  -0.260  1.00  0.00    -0.032 C 
HETATM   20  C28 UNL     1       0.321  -2.217   0.778  1.00  0.00     0.016 C 
ENDROOT
BRANCH   1  21
HETATM   21  C7  UNL     1       3.326  -2.440  -0.090  1.00  0.00    -0.014 C 
HETATM   22  C8  UNL     1       3.011  -3.807   0.536  1.00  0.00     0.010 C 
BRANCH  21  23
HETATM   23  C6  UNL     1       3.959  -1.537   0.993  1.00  0.00     0.008 C 
BRANCH  23  24
HETATM   24  C5  UNL     1       4.707  -0.321   0.433  1.00  0.00     0.028 C 
BRANCH  24  25
HETATM   25  C4  UNL     1       5.353   0.464   1.543  1.00  0.00    -0.025 C 
HETATM   26  C2  UNL     1       5.140   1.746   1.897  1.00  0.00    -0.091 C 
HETATM   27  C1  UNL     1       5.888   2.351   3.057  1.00  0.00     0.042 C 
HETATM   28  C3  UNL     1       4.184   2.694   1.225  1.00  0.00     0.042 C 
ENDBRANCH  24  25
ENDBRANCH  23  24
ENDBRANCH  21  23
ENDBRANCH   1  21
BRANCH   8  29
HETATM   29  O1  UNL     1      -4.785  -0.225  -2.825  1.00  0.00    -0.395 OA
HETATM   30  H28 UNL     1      -5.615   0.190  -2.504  1.00  0.00     0.210 HD
ENDBRANCH   8  29
BRANCH  10  31
HETATM   31  O2  UNL     1      -6.435   1.091  -1.099  1.00  0.00    -0.393 OA
HETATM   32  H31 UNL     1      -7.290   1.148  -0.633  1.00  0.00     0.210 HD
ENDBRANCH  10  31
BRANCH  11  33
HETATM   33  O3  UNL     1      -5.566   1.806   2.207  1.00  0.00    -0.393 OA
HETATM   34  H33 UNL     1      -6.383   1.288   2.310  1.00  0.00     0.210 HD
ENDBRANCH  11  33
TORSDOF 7
