REMARK  8 active torsions:
REMARK  status: ('A' for Active; 'I' for Inactive)
REMARK    1  A    between atoms: C2_2  and  C3_3 
REMARK    2  A    between atoms: C2_2  and  C27_30 
REMARK    3  A    between atoms: C3_3  and  C4_4 
REMARK    4  A    between atoms: C4_4  and  C5_5 
REMARK    5  A    between atoms: C5_5  and  C7_7 
REMARK    6  A    between atoms: C26_28  and  O3_29 
REMARK    7  A    between atoms: C27_30  and  C29_32 
REMARK    8  A    between atoms: C29_32  and  O5_34 
ROOT
HETATM    1  C7  UNL     1       2.067   1.046   0.912  1.00  0.00    -0.002 C 
HETATM    2  C8  UNL     1       1.792   1.047   2.443  1.00  0.00     0.006 C 
HETATM    3  C9  UNL     1       0.319   0.653   2.624  1.00  0.00     0.010 C 
HETATM    4  C10 UNL     1      -0.108   0.159   1.242  1.00  0.00     0.027 C 
HETATM    5  C11 UNL     1      -1.570  -0.016   0.894  1.00  0.00    -0.036 C 
HETATM    6  C12 UNL     1      -1.989   0.011  -0.396  1.00  0.00     0.002 C 
HETATM    7  C13 UNL     1      -0.967   0.304  -1.481  1.00  0.00     0.157 C 
HETATM    8  O1  UNL     1      -1.299   0.342  -2.665  1.00  0.00    -0.293 OA
HETATM    9  C14 UNL     1       0.494   0.522  -1.111  1.00  0.00     0.093 C 
HETATM   10  C15 UNL     1       0.641   1.122   0.286  1.00  0.00    -0.026 C 
HETATM   11  C16 UNL     1       0.060   2.556   0.297  1.00  0.00     0.016 C 
HETATM   12  C17 UNL     1      -3.458  -0.219  -0.814  1.00  0.00    -0.008 C 
HETATM   13  C18 UNL     1      -4.035   1.177  -1.169  1.00  0.00     0.021 C 
HETATM   14  C19 UNL     1      -3.587  -1.158  -2.058  1.00  0.00     0.022 C 
HETATM   15  C20 UNL     1      -4.842  -2.031  -2.113  1.00  0.00     0.080 C 
HETATM   16  C21 UNL     1      -6.007  -1.397  -1.399  1.00  0.00     0.131 C 
HETATM   17  O2  UNL     1      -7.108  -1.285  -1.936  1.00  0.00    -0.298 OA
HETATM   18  C22 UNL     1      -5.781  -0.981   0.047  1.00  0.00     0.056 C 
HETATM   19  C23 UNL     1      -6.514  -1.969   0.953  1.00  0.00     0.018 C 
HETATM   20  C24 UNL     1      -4.264  -0.899   0.352  1.00  0.00     0.012 C 
HETATM   21  C25 UNL     1      -3.990  -0.213   1.696  1.00  0.00     0.042 C 
HETATM   22  C26 UNL     1      -2.504  -0.265   2.050  1.00  0.00     0.148 C 
ENDROOT
BRANCH   1  23
HETATM   23  C5  UNL     1       3.231   1.992   0.504  1.00  0.00    -0.014 C 
HETATM   24  C6  UNL     1       3.032   3.484   0.805  1.00  0.00     0.010 C 
BRANCH  23  25
HETATM   25  C4  UNL     1       3.690   1.855  -0.968  1.00  0.00     0.009 C 
BRANCH  25  26
HETATM   26  C3  UNL     1       4.174   0.460  -1.402  1.00  0.00     0.034 C 
BRANCH  26  27
HETATM   27  C2  UNL     1       5.381  -0.134  -0.689  1.00  0.00    -0.075 C 
HETATM   28  C1  UNL     1       6.362   0.620  -0.157  1.00  0.00     0.015 C 
BRANCH  27  29
HETATM   29  C27 UNL     1       5.473  -1.661  -0.616  1.00  0.00     0.107 C 
HETATM   30  C28 UNL     1       4.365  -2.250   0.260  1.00  0.00     0.026 C 
BRANCH  29  31
HETATM   31  C29 UNL     1       5.497  -2.315  -1.999  1.00  0.00     0.147 C 
HETATM   32  O4  UNL     1       5.547  -1.769  -3.090  1.00  0.00    -0.650 OA
BRANCH  31  33
HETATM   33  O5  UNL     1       5.511  -3.664  -1.935  1.00  0.00    -0.776 OA
HETATM   34  H42 UNL     1       5.563  -3.938  -2.875  1.00  0.00     0.167 HD
ENDBRANCH  31  33
ENDBRANCH  29  31
ENDBRANCH  27  29
ENDBRANCH  26  27
ENDBRANCH  25  26
ENDBRANCH  23  25
ENDBRANCH   1  23
BRANCH  22  35
HETATM   35  O3  UNL     1      -2.197  -1.544   2.595  1.00  0.00    -0.391 OA
HETATM   36  H37 UNL     1      -2.120  -2.175   1.860  1.00  0.00     0.210 HD
ENDBRANCH  22  35
TORSDOF 8
