REMARK  19 active torsions:
REMARK  status: ('A' for Active; 'I' for Inactive)
REMARK    1  A    between atoms: C3_3  and  C4_4 
REMARK    2  A    between atoms: C5_5  and  C6_6 
REMARK    3  A    between atoms: C7_8  and  O2_9 
REMARK    4  A    between atoms: C7_8  and  C8_10 
REMARK    5  A    between atoms: C8_10  and  C10_12 
REMARK       I    between atoms: C10_12  and  N1_14 
REMARK    6  A    between atoms: N1_14  and  C11_15 
REMARK    7  A    between atoms: C11_15  and  C12_16 
REMARK    8  A    between atoms: C13_17  and  C14_18 
REMARK    9  A    between atoms: C15_19  and  C17_21 
REMARK   10  A    between atoms: C17_21  and  O4_22 
REMARK   11  A    between atoms: C17_21  and  C19_24 
REMARK   12  A    between atoms: C19_24  and  C21_26 
REMARK   13  A    between atoms: C23_28  and  O5_29 
REMARK   14  A    between atoms: C24_30  and  C25_31 
REMARK   15  A    between atoms: C26_32  and  C27_33 
REMARK   16  A    between atoms: C28_34  and  C29_35 
REMARK   17  A    between atoms: C30_36  and  C31_37 
REMARK   18  A    between atoms: C31_37  and  O7_39 
REMARK   19  A    between atoms: C33_42  and  O9_43 
ROOT
HETATM    1  C12 UNL     1      -1.250  -2.215  -3.672  1.00  0.00    -0.007 C 
HETATM    2  C13 UNL     1      -0.427  -2.092  -2.618  1.00  0.00    -0.002 C 
ENDROOT
BRANCH   2   3
HETATM    3  C14 UNL     1       0.622  -1.101  -2.556  1.00  0.00     0.005 C 
HETATM    4  C15 UNL     1       1.474  -0.879  -1.534  1.00  0.00    -0.055 C 
HETATM    5  C16 UNL     1       1.409  -1.580  -0.197  1.00  0.00     0.046 C 
BRANCH   4   6
HETATM    6  C17 UNL     1       2.662   0.083  -1.664  1.00  0.00     0.155 C 
BRANCH   6   7
HETATM    7  O4  UNL     1       2.926   0.382  -3.051  1.00  0.00    -0.386 OA
HETATM    8  C18 UNL     1       3.818  -0.551  -3.650  1.00  0.00     0.202 C 
ENDBRANCH   6   7
BRANCH   6   9
HETATM    9  C19 UNL     1       2.465   1.433  -0.912  1.00  0.00     0.044 C 
HETATM   10  C20 UNL     1       1.286   2.239  -1.473  1.00  0.00     0.015 C 
BRANCH   9  11
HETATM   11  C21 UNL     1       3.772   2.252  -0.975  1.00  0.00     0.131 C 
HETATM   12  C22 UNL     1       3.771   3.572  -0.193  1.00  0.00     0.067 C 
HETATM   13  C23 UNL     1       4.995   3.502   0.700  1.00  0.00     0.153 C 
HETATM   14  C24 UNL     1       5.827   2.383   0.068  1.00  0.00     0.173 C 
HETATM   15  O8  UNL     1       4.862   1.465  -0.459  1.00  0.00    -0.374 OA
BRANCH  13  16
HETATM   16  O5  UNL     1       4.542   3.198   2.024  1.00  0.00    -0.393 OA
HETATM   17  H35 UNL     1       5.334   3.155   2.588  1.00  0.00     0.210 HD
ENDBRANCH  13  16
BRANCH  14  18
HETATM   18  C25 UNL     1       6.725   1.625   1.001  1.00  0.00     0.007 C 
HETATM   19  C26 UNL     1       8.062   1.567   0.891  1.00  0.00    -0.001 C 
BRANCH  19  20
HETATM   20  C27 UNL     1       8.887   0.787   1.788  1.00  0.00    -0.000 C 
HETATM   21  C28 UNL     1      10.215   0.662   1.637  1.00  0.00     0.000 C 
BRANCH  21  22
HETATM   22  C29 UNL     1      11.027  -0.135   2.531  1.00  0.00     0.007 C 
HETATM   23  C30 UNL     1      12.343  -0.381   2.446  1.00  0.00     0.081 C 
BRANCH  23  24
HETATM   24  C31 UNL     1      13.266   0.106   1.410  1.00  0.00     0.165 C 
HETATM   25  O6  UNL     1      13.034   0.831   0.465  1.00  0.00    -0.647 OA
BRANCH  24  26
HETATM   26  O7  UNL     1      14.498  -0.377   1.644  1.00  0.00    -0.773 OA
HETATM   27  H43 UNL     1      15.034  -0.011   0.910  1.00  0.00     0.167 HD
ENDBRANCH  24  26
ENDBRANCH  23  24
ENDBRANCH  21  22
ENDBRANCH  19  20
ENDBRANCH  14  18
ENDBRANCH   9  11
ENDBRANCH   6   9
ENDBRANCH   4   6
ENDBRANCH   2   3
BRANCH   1  28
HETATM   28  C11 UNL     1      -2.241  -3.327  -3.819  1.00  0.00     0.149 C 
BRANCH  28  29
HETATM   29  N1  UNL     1      -3.374  -3.064  -2.972  1.00  0.00    -0.357 N 
HETATM   30  C10 UNL     1      -3.555  -3.693  -1.766  1.00  0.00     0.227 C 
HETATM   31  O3  UNL     1      -2.786  -4.552  -1.341  1.00  0.00    -0.273 OA
HETATM   32  H14 UNL     1      -3.927  -2.224  -3.139  1.00  0.00     0.162 HD
BRANCH  30  33
HETATM   33  C8  UNL     1      -4.813  -3.264  -1.019  1.00  0.00     0.136 C 
HETATM   34  C9  UNL     1      -5.081  -4.224   0.146  1.00  0.00     0.026 C 
BRANCH  33  35
HETATM   35  C7  UNL     1      -4.775  -1.767  -0.613  1.00  0.00     0.176 C 
HETATM   36  O1  UNL     1      -6.045  -1.491  -0.006  1.00  0.00    -0.344 OA
HETATM   37  C6  UNL     1      -6.069  -0.295   0.770  1.00  0.00     0.158 C 
HETATM   38  C34 UNL     1      -5.262  -0.510   2.086  1.00  0.00     0.008 C 
HETATM   39  C33 UNL     1      -4.019  -1.403   1.784  1.00  0.00     0.134 C 
HETATM   40  C35 UNL     1      -4.867   0.868   2.660  1.00  0.00     0.020 C 
HETATM   41  C36 UNL     1      -6.090  -1.242   3.169  1.00  0.00     0.020 C 
HETATM   42  C32 UNL     1      -3.609  -1.372   0.314  1.00  0.00     0.101 C 
BRANCH  37  43
HETATM   43  C5  UNL     1      -7.522   0.058   0.945  1.00  0.00     0.006 C 
HETATM   44  C4  UNL     1      -8.036   1.289   0.784  1.00  0.00    -0.002 C 
BRANCH  44  45
HETATM   45  C3  UNL     1      -9.446   1.563   0.927  1.00  0.00    -0.005 C 
HETATM   46  C2  UNL     1     -10.039   2.763   0.848  1.00  0.00    -0.031 C 
HETATM   47  C1  UNL     1      -9.415   4.100   0.618  1.00  0.00     0.036 C 
ENDBRANCH  44  45
ENDBRANCH  37  43
BRANCH  39  48
HETATM   48  O9  UNL     1      -2.888  -1.027   2.570  1.00  0.00    -0.395 OA
HETATM   49  H47 UNL     1      -3.086  -1.244   3.498  1.00  0.00     0.210 HD
ENDBRANCH  39  48
BRANCH  35  50
HETATM   50  O2  UNL     1      -4.714  -1.010  -1.832  1.00  0.00    -0.364 OA
HETATM   51  H9  UNL     1      -4.437  -0.107  -1.604  1.00  0.00     0.213 HD
ENDBRANCH  35  50
ENDBRANCH  33  35
ENDBRANCH  30  33
ENDBRANCH  28  29
ENDBRANCH   1  28
TORSDOF 19
