REMARK  12 active torsions:
REMARK  status: ('A' for Active; 'I' for Inactive)
REMARK    1  A    between atoms: C2_2  and  C17_19 
REMARK    2  A    between atoms: C3_3  and  C4_4 
REMARK    3  A    between atoms: C4_4  and  C5_5 
REMARK    4  A    between atoms: C5_5  and  C6_6 
REMARK    5  A    between atoms: C12_12  and  O1_13 
REMARK    6  A    between atoms: C17_19  and  C18_20 
REMARK    7  A    between atoms: C19_21  and  C20_22 
REMARK    8  A    between atoms: C20_22  and  C22_24 
REMARK    9  A    between atoms: C22_24  and  C23_26 
REMARK   10  A    between atoms: C23_26  and  O4_27 
REMARK   11  A    between atoms: C23_26  and  C24_28 
REMARK   12  A    between atoms: C24_28  and  C25_29 
ROOT
HETATM    1  C1  UNL     1      -0.015  -1.152  -1.294  1.00  0.00     0.043 C 
HETATM    2  C2  UNL     1       0.166   0.263  -0.809  1.00  0.00    -0.084 C 
HETATM    3  C3  UNL     1       1.355   0.905  -0.794  1.00  0.00    -0.024 C 
ENDROOT
BRANCH   3   4
HETATM    4  C4  UNL     1       2.659   0.395  -1.335  1.00  0.00     0.030 C 
BRANCH   4   5
HETATM    5  C5  UNL     1       3.545  -0.372  -0.349  1.00  0.00     0.042 C 
BRANCH   5   6
HETATM    6  C6  UNL     1       4.173   0.400   0.844  1.00  0.00     0.065 C 
HETATM    7  C7  UNL     1       3.133   0.630   1.955  1.00  0.00     0.046 C 
HETATM    8  C8  UNL     1       4.816   1.746   0.487  1.00  0.00     0.043 C 
HETATM    9  C9  UNL     1       5.976   1.560  -0.480  1.00  0.00     0.044 C 
HETATM   10  C10 UNL     1       6.856   0.430  -0.037  1.00  0.00    -0.021 A 
HETATM   11  C11 UNL     1       8.137   0.297  -0.592  1.00  0.00     0.046 A 
HETATM   12  C16 UNL     1       6.406  -0.516   0.896  1.00  0.00     0.082 A 
HETATM   13  C12 UNL     1       8.955  -0.751  -0.192  1.00  0.00     0.066 A 
HETATM   14  C13 UNL     1       8.527  -1.674   0.753  1.00  0.00     0.046 A 
HETATM   15  C14 UNL     1       7.245  -1.562   1.312  1.00  0.00    -0.025 A 
HETATM   16  C15 UNL     1       6.779  -2.565   2.327  1.00  0.00     0.051 C 
HETATM   17  O2  UNL     1       5.154  -0.475   1.457  1.00  0.00    -0.340 OA
BRANCH  13  18
HETATM   18  O1  UNL     1      10.203  -0.923  -0.722  1.00  0.00    -0.361 OA
HETATM   19  H17 UNL     1      10.356  -0.232  -1.392  1.00  0.00     0.217 HD
ENDBRANCH  13  18
ENDBRANCH   5   6
ENDBRANCH   4   5
ENDBRANCH   3   4
BRANCH   2  20
HETATM   20  C17 UNL     1      -1.096   0.941  -0.305  1.00  0.00     0.060 C 
BRANCH  20  21
HETATM   21  C18 UNL     1      -2.049   1.240  -1.431  1.00  0.00    -0.026 C 
HETATM   22  C19 UNL     1      -3.292   0.767  -1.621  1.00  0.00    -0.019 C 
BRANCH  22  23
HETATM   23  C20 UNL     1      -4.054  -0.202  -0.750  1.00  0.00     0.076 C 
HETATM   24  C21 UNL     1      -4.720  -1.299  -1.572  1.00  0.00     0.022 C 
BRANCH  23  25
HETATM   25  C22 UNL     1      -5.066   0.546   0.128  1.00  0.00     0.162 C 
HETATM   26  O3  UNL     1      -4.929   0.570   1.357  1.00  0.00    -0.294 OA
BRANCH  25  27
HETATM   27  C23 UNL     1      -6.230   1.283  -0.552  1.00  0.00     0.188 C 
BRANCH  27  28
HETATM   28  O4  UNL     1      -6.427   2.576   0.013  1.00  0.00    -0.388 OA
HETATM   29  H31 UNL     1      -6.891   2.462   0.870  1.00  0.00     0.210 HD
ENDBRANCH  27  28
BRANCH  27  30
HETATM   30  C24 UNL     1      -7.547   0.488  -0.583  1.00  0.00     0.043 C 
BRANCH  30  31
HETATM   31  C25 UNL     1      -7.986  -0.277   0.685  1.00  0.00    -0.020 C 
HETATM   32  C26 UNL     1      -9.271  -1.054   0.378  1.00  0.00     0.009 C 
HETATM   33  C27 UNL     1      -8.229   0.615   1.904  1.00  0.00     0.009 C 
ENDBRANCH  30  31
ENDBRANCH  27  30
ENDBRANCH  25  27
ENDBRANCH  23  25
ENDBRANCH  22  23
ENDBRANCH  20  21
ENDBRANCH   2  20
TORSDOF 12
