REMARK  2 active torsions:
REMARK  status: ('A' for Active; 'I' for Inactive)
REMARK    1  A    between atoms: C4_6  and  O3_7 
REMARK    2  A    between atoms: C11_14  and  O4_15 
ROOT
HETATM    1  O1  UNL     1      -1.174   2.031   2.668  1.00  0.00    -0.259 OA
HETATM    2  C1  UNL     1      -0.601   1.378   1.803  1.00  0.00     0.299 A 
HETATM    3  O2  UNL     1       0.781   1.349   1.711  1.00  0.00    -0.274 OA
HETATM    4  C2  UNL     1       1.468   0.608   0.727  1.00  0.00     0.093 A 
HETATM    5  C3  UNL     1       2.861   0.684   0.769  1.00  0.00     0.074 A 
HETATM    6  C4  UNL     1       3.598  -0.020  -0.168  1.00  0.00     0.068 A 
HETATM    7  C5  UNL     1       2.959  -0.788  -1.134  1.00  0.00     0.037 A 
HETATM    8  C6  UNL     1       1.558  -0.850  -1.159  1.00  0.00     0.018 A 
HETATM    9  C7  UNL     1       0.777  -0.149  -0.224  1.00  0.00     0.009 A 
HETATM   10  C8  UNL     1      -0.691  -0.163  -0.183  1.00  0.00    -0.007 A 
HETATM   11  C9  UNL     1      -1.487  -0.889  -1.089  1.00  0.00     0.016 A 
HETATM   12  C10 UNL     1      -2.884  -0.870  -1.010  1.00  0.00     0.037 A 
HETATM   13  C11 UNL     1      -3.510  -0.126  -0.023  1.00  0.00     0.066 A 
HETATM   14  C12 UNL     1      -2.761   0.603   0.887  1.00  0.00     0.055 A 
HETATM   15  C13 UNL     1      -1.357   0.583   0.806  1.00  0.00     0.053 A 
ENDROOT
BRANCH   6  16
HETATM   16  O3  UNL     1       4.956   0.067  -0.110  1.00  0.00    -0.361 OA
HETATM   17  H2  UNL     1       5.338  -0.473  -0.821  1.00  0.00     0.217 HD
ENDBRANCH   6  16
BRANCH  13  18
HETATM   18  O4  UNL     1      -4.871  -0.136   0.016  1.00  0.00    -0.361 OA
HETATM   19  H7  UNL     1      -5.172   0.424   0.752  1.00  0.00     0.217 HD
ENDBRANCH  13  18
TORSDOF 2
