REMARK  15 active torsions:
REMARK  status: ('A' for Active; 'I' for Inactive)
REMARK    1  A    between atoms: C2_2  and  C3_3 
REMARK    2  A    between atoms: C2_2  and  C35_44 
REMARK    3  A    between atoms: C3_3  and  C4_4 
REMARK    4  A    between atoms: C4_4  and  C5_5 
REMARK    5  A    between atoms: C5_5  and  C7_7 
REMARK    6  A    between atoms: C9_9  and  O1_10 
REMARK    7  A    between atoms: C10_11  and  C11_12 
REMARK    8  A    between atoms: C11_12  and  O3_14 
REMARK    9  A    between atoms: C22_25  and  O4_26 
REMARK   10  A    between atoms: O4_26  and  C23_27 
REMARK   11  A    between atoms: C24_29  and  C25_30 
REMARK   12  A    between atoms: C25_30  and  O6_31 
REMARK   13  A    between atoms: C26_32  and  O7_33 
REMARK   14  A    between atoms: C28_35  and  O8_36 
REMARK   15  A    between atoms: C29_37  and  O9_38 
ROOT
HETATM    1  C7  UNL     1      -4.640   1.233   0.981  1.00  0.00     0.001 C 
HETATM    2  C8  UNL     1      -4.510   2.783   0.835  1.00  0.00     0.039 C 
HETATM    3  C9  UNL     1      -3.020   3.150   0.755  1.00  0.00     0.142 C 
HETATM    4  C10 UNL     1      -2.353   1.847   0.245  1.00  0.00     0.102 C 
HETATM    5  C12 UNL     1      -0.841   1.628   0.364  1.00  0.00    -0.054 C 
HETATM    6  C13 UNL     1      -0.330   0.370   0.426  1.00  0.00    -0.067 C 
HETATM    7  C14 UNL     1      -1.228  -0.862   0.475  1.00  0.00     0.036 C 
HETATM    8  C15 UNL     1      -2.758  -0.643   0.490  1.00  0.00     0.015 C 
HETATM    9  C16 UNL     1      -3.146   0.738   1.044  1.00  0.00    -0.016 C 
HETATM   10  C17 UNL     1      -2.779   0.672   2.571  1.00  0.00     0.017 C 
HETATM   11  C18 UNL     1       1.200   0.124   0.526  1.00  0.00    -0.013 C 
HETATM   12  C19 UNL     1       1.480  -0.010   2.047  1.00  0.00     0.021 C 
HETATM   13  C20 UNL     1       1.661  -1.155  -0.223  1.00  0.00     0.017 C 
HETATM   14  C21 UNL     1       3.184  -1.340  -0.346  1.00  0.00     0.037 C 
HETATM   15  C22 UNL     1       4.047  -0.153   0.099  1.00  0.00     0.153 C 
HETATM   16  C30 UNL     1       3.448   1.156  -0.376  1.00  0.00    -0.055 C 
HETATM   17  C31 UNL     1       4.141   2.083  -1.067  1.00  0.00     0.017 C 
HETATM   18  C32 UNL     1       1.942   1.324  -0.162  1.00  0.00     0.029 C 
HETATM   19  C33 UNL     1       1.533   2.631   0.528  1.00  0.00     0.014 C 
HETATM   20  C34 UNL     1       0.031   2.873   0.337  1.00  0.00     0.036 C 
ENDROOT
BRANCH  15  21
HETATM   21  O4  UNL     1       5.362  -0.370  -0.425  1.00  0.00    -0.349 OA
BRANCH  21  22
HETATM   22  C23 UNL     1       6.413   0.143   0.402  1.00  0.00     0.292 C 
HETATM   23  O5  UNL     1       7.384   0.811  -0.405  1.00  0.00    -0.348 OA
HETATM   24  C24 UNL     1       8.046  -0.054  -1.352  1.00  0.00     0.179 C 
HETATM   25  C26 UNL     1       8.774  -1.218  -0.636  1.00  0.00     0.183 C 
HETATM   26  C28 UNL     1       7.750  -1.963   0.240  1.00  0.00     0.183 C 
HETATM   27  C29 UNL     1       7.080  -0.989   1.213  1.00  0.00     0.204 C 
BRANCH  24  28
HETATM   28  C25 UNL     1       9.038   0.810  -2.149  1.00  0.00     0.198 C 
BRANCH  28  29
HETATM   29  O6  UNL     1       8.348   1.694  -3.039  1.00  0.00    -0.398 OA
HETATM   30  H36 UNL     1       8.157   1.200  -3.858  1.00  0.00     0.209 HD
ENDBRANCH  28  29
ENDBRANCH  24  28
BRANCH  25  31
HETATM   31  O7  UNL     1       9.835  -0.655   0.162  1.00  0.00    -0.385 OA
HETATM   32  C27 UNL     1      10.967  -1.507   0.281  1.00  0.00     0.202 C 
ENDBRANCH  25  31
BRANCH  26  33
HETATM   33  O8  UNL     1       8.353  -3.045   0.964  1.00  0.00    -0.390 OA
HETATM   34  H42 UNL     1       7.721  -3.249   1.681  1.00  0.00     0.210 HD
ENDBRANCH  26  33
BRANCH  27  35
HETATM   35  O9  UNL     1       6.155  -1.724   2.037  1.00  0.00    -0.388 OA
HETATM   36  H44 UNL     1       5.720  -1.081   2.621  1.00  0.00     0.210 HD
ENDBRANCH  27  35
ENDBRANCH  21  22
ENDBRANCH  15  21
BRANCH   4  37
HETATM   37  C11 UNL     1      -2.582   1.806  -1.302  1.00  0.00     0.156 C 
HETATM   38  O2  UNL     1      -2.830   0.840  -2.007  1.00  0.00    -0.649 OA
BRANCH  37  39
HETATM   39  O3  UNL     1      -2.384   2.993  -1.925  1.00  0.00    -0.775 OA
HETATM   40  H16 UNL     1      -2.469   2.768  -2.877  1.00  0.00     0.167 HD
ENDBRANCH  37  39
ENDBRANCH   4  37
BRANCH   3  41
HETATM   41  O1  UNL     1      -2.546   3.664   1.996  1.00  0.00    -0.394 OA
HETATM   42  H15 UNL     1      -2.728   3.047   2.715  1.00  0.00     0.210 HD
ENDBRANCH   3  41
BRANCH   1  43
HETATM   43  C5  UNL     1      -5.605   0.544  -0.039  1.00  0.00    -0.013 C 
HETATM   44  C6  UNL     1      -6.875   1.380  -0.272  1.00  0.00     0.010 C 
BRANCH  43  45
HETATM   45  C4  UNL     1      -6.040  -0.856   0.484  1.00  0.00     0.009 C 
BRANCH  45  46
HETATM   46  C3  UNL     1      -6.165  -1.939  -0.601  1.00  0.00     0.034 C 
BRANCH  46  47
HETATM   47  C2  UNL     1      -7.345  -1.835  -1.551  1.00  0.00    -0.086 C 
HETATM   48  C1  UNL     1      -7.170  -1.305  -2.774  1.00  0.00     0.014 C 
BRANCH  47  49
HETATM   49  C35 UNL     1      -8.698  -2.417  -1.154  1.00  0.00     0.005 C 
HETATM   50  C36 UNL     1      -9.458  -1.535  -0.167  1.00  0.00     0.014 C 
HETATM   51  C37 UNL     1      -8.618  -3.857  -0.639  1.00  0.00     0.014 C 
ENDBRANCH  47  49
ENDBRANCH  46  47
ENDBRANCH  45  46
ENDBRANCH  43  45
ENDBRANCH   1  43
TORSDOF 15
