REMARK  10 active torsions:
REMARK  status: ('A' for Active; 'I' for Inactive)
REMARK    1  A    between atoms: C16_18  and  C17_19 
REMARK    2  A    between atoms: C26_30  and  C27_31 
REMARK    3  A    between atoms: C27_31  and  O1_33 
REMARK    4  A    between atoms: C30_35  and  C31_36 
REMARK    5  A    between atoms: C31_36  and  O3_38 
REMARK    6  A    between atoms: C37_44  and  O4_45 
REMARK    7  A    between atoms: C41_49  and  C42_50 
REMARK    8  A    between atoms: C41_49  and  C43_52 
REMARK    9  A    between atoms: C42_50  and  O5_51 
REMARK   10  A    between atoms: C43_52  and  O7_54 
ROOT
HETATM    1  C17 UNL     1      -0.438   1.274   2.291  1.00  0.00     0.013 A 
HETATM    2  C18 UNL     1       0.775   0.924   1.650  1.00  0.00     0.053 A 
HETATM    3  N3  UNL     1       0.976   0.254   0.465  1.00  0.00    -0.357 N 
HETATM    4  C19 UNL     1       2.317   0.118   0.193  1.00  0.00     0.038 A 
HETATM    5  C20 UNL     1       3.008   0.714   1.234  1.00  0.00    -0.020 A 
HETATM    6  C21 UNL     1       4.494   0.827   1.339  1.00  0.00     0.072 C 
HETATM    7  C22 UNL     1       5.234  -0.511   1.181  1.00  0.00     0.277 C 
HETATM    8  N4  UNL     1       4.979  -1.332  -0.011  1.00  0.00     0.096 N 
HETATM    9  C23 UNL     1       4.290  -2.596   0.294  1.00  0.00     0.277 C 
HETATM   10  C24 UNL     1       3.461  -3.044  -0.924  1.00  0.00     0.016 C 
HETATM   11  C25 UNL     1       4.351  -2.983  -2.176  1.00  0.00     0.015 C 
HETATM   12  C26 UNL     1       4.754  -1.514  -2.436  1.00  0.00     0.049 C 
HETATM   13  C29 UNL     1       4.373  -0.650  -1.182  1.00  0.00     0.253 C 
HETATM   14  C30 UNL     1       2.797  -0.589  -1.074  1.00  0.00     0.122 C 
HETATM   15  C33 UNL     1       2.282  -2.066  -1.099  1.00  0.00     0.035 C 
HETATM   16  C34 UNL     1       2.037   1.220   2.158  1.00  0.00    -0.000 A 
HETATM   17  C35 UNL     1       2.115   1.910   3.381  1.00  0.00     0.017 A 
HETATM   18  C36 UNL     1       0.941   2.280   4.046  1.00  0.00     0.038 A 
HETATM   19  C37 UNL     1      -0.316   1.979   3.515  1.00  0.00     0.077 A 
HETATM   20  H19 UNL     1       0.229  -0.102  -0.118  1.00  0.00     0.166 HD
ENDROOT
BRANCH   1  21
HETATM   21  C16 UNL     1      -1.827   0.947   1.682  1.00  0.00     0.075 C 
HETATM   22  C9  UNL     1      -1.907  -0.586   1.379  1.00  0.00     0.025 A 
HETATM   23  C8  UNL     1      -2.313  -1.486   0.369  1.00  0.00    -0.020 A 
HETATM   24  N2  UNL     1      -1.508  -1.395   2.441  1.00  0.00    -0.358 N 
HETATM   25  C7  UNL     1      -2.938  -1.279  -1.012  1.00  0.00     0.079 C 
HETATM   26  C15 UNL     1      -2.060  -2.822   0.851  1.00  0.00    -0.001 A 
HETATM   27  C6  UNL     1      -3.162   0.191  -1.308  1.00  0.00     0.248 C 
HETATM   28  N1  UNL     1      -3.250   0.775  -2.666  1.00  0.00     0.094 N 
HETATM   29  C41 UNL     1      -4.221   0.928  -0.417  1.00  0.00     0.107 C 
HETATM   30  C4  UNL     1      -2.727   2.173  -2.601  1.00  0.00     0.306 C 
HETATM   31  C5  UNL     1      -2.536   0.020  -3.692  1.00  0.00     0.310 C 
HETATM   32  C3  UNL     1      -3.259   3.002  -1.414  1.00  0.00    -0.051 C 
HETATM   33  C2  UNL     1      -3.553   4.306  -1.589  1.00  0.00    -0.026 C 
HETATM   34  C40 UNL     1      -3.470   2.238  -0.080  1.00  0.00     0.039 C 
HETATM   35  C1  UNL     1      -4.065   5.276  -0.573  1.00  0.00     0.036 C 
HETATM   36  C39 UNL     1      -2.071   2.046   0.608  1.00  0.00     0.026 C 
HETATM   37  C10 UNL     1      -1.557  -2.725   2.137  1.00  0.00     0.043 A 
HETATM   38  C14 UNL     1      -2.232  -4.110   0.298  1.00  0.00     0.014 A 
HETATM   39  C11 UNL     1      -1.204  -3.839   2.908  1.00  0.00     0.030 A 
HETATM   40  C12 UNL     1      -1.377  -5.102   2.337  1.00  0.00     0.002 A 
HETATM   41  C13 UNL     1      -1.886  -5.239   1.049  1.00  0.00     0.001 A 
HETATM   42  H13 UNL     1      -1.178  -1.032   3.326  1.00  0.00     0.166 HD
BRANCH  29  43
HETATM   43  C42 UNL     1      -5.582   1.203  -1.158  1.00  0.00     0.186 C 
BRANCH  43  44
HETATM   44  O5  UNL     1      -6.424   2.139  -0.467  1.00  0.00    -0.399 OA
HETATM   45  H51 UNL     1      -6.563   1.834   0.446  1.00  0.00     0.209 HD
ENDBRANCH  43  44
ENDBRANCH  29  43
BRANCH  29  46
HETATM   46  C43 UNL     1      -4.746   0.251   0.858  1.00  0.00     0.272 C 
HETATM   47  O6  UNL     1      -4.889   0.829   1.931  1.00  0.00    -0.264 OA
BRANCH  46  48
HETATM   48  O7  UNL     1      -5.210  -1.008   0.626  1.00  0.00    -0.326 OA
HETATM   49  C44 UNL     1      -5.704  -1.686   1.783  1.00  0.00     0.213 C 
ENDBRANCH  46  48
ENDBRANCH  29  46
ENDBRANCH   1  21
BRANCH  19  50
HETATM   50  O4  UNL     1      -1.499   2.316   4.124  1.00  0.00    -0.355 OA
HETATM   51  C38 UNL     1      -1.444   3.220   5.220  1.00  0.00     0.210 C 
ENDBRANCH  19  50
BRANCH  14  52
HETATM   52  C31 UNL     1       2.179   0.206  -2.248  1.00  0.00     0.275 C 
HETATM   53  O2  UNL     1       1.051   0.005  -2.690  1.00  0.00    -0.264 OA
BRANCH  52  54
HETATM   54  O3  UNL     1       2.994   1.212  -2.672  1.00  0.00    -0.326 OA
HETATM   55  C32 UNL     1       2.445   2.018  -3.715  1.00  0.00     0.213 C 
ENDBRANCH  52  54
ENDBRANCH  14  52
BRANCH  12  56
HETATM   56  C27 UNL     1       6.204  -1.375  -2.948  1.00  0.00     0.120 C 
HETATM   57  C28 UNL     1       7.326  -1.654  -1.957  1.00  0.00     0.040 C 
BRANCH  56  58
HETATM   58  O1  UNL     1       6.384  -0.058  -3.479  1.00  0.00    -0.396 OA
HETATM   59  H34 UNL     1       6.518   0.547  -2.730  1.00  0.00     0.210 HD
ENDBRANCH  56  58
ENDBRANCH  12  56
TORSDOF 10
