REMARK  14 active torsions:
REMARK  status: ('A' for Active; 'I' for Inactive)
REMARK    1  A    between atoms: C19_20  and  O2_21 
REMARK    2  A    between atoms: C19_20  and  C20_22 
REMARK    3  A    between atoms: C20_22  and  C21_24 
REMARK    4  A    between atoms: C21_24  and  O4_25 
REMARK    5  A    between atoms: O4_25  and  C22_26 
REMARK    6  A    between atoms: C22_26  and  C23_28 
REMARK    7  A    between atoms: C23_28  and  C24_29 
REMARK    8  A    between atoms: C24_29  and  C25_30 
REMARK       I    between atoms: C25_30  and  N1_32 
REMARK    9  A    between atoms: N1_32  and  C26_33 
REMARK   10  A    between atoms: C26_33  and  C27_34 
REMARK   11  A    between atoms: C27_34  and  C28_35 
REMARK   12  A    between atoms: C27_34  and  C30_39 
REMARK   13  A    between atoms: C28_35  and  C29_36 
REMARK   14  A    between atoms: C29_36  and  O8_38 
ROOT
HETATM    1  C20 UNL     1      -0.496   0.114   0.745  1.00  0.00     0.185 C 
HETATM    2  O3  UNL     1      -0.544   0.711   1.829  1.00  0.00    -0.292 OA
ENDROOT
BRANCH   1   3
HETATM    3  C19 UNL     1      -1.587   0.390  -0.308  1.00  0.00     0.128 C 
HETATM    4  C14 UNL     1      -2.967  -0.257   0.023  1.00  0.00    -0.002 C 
HETATM    5  C13 UNL     1      -3.796   0.414   1.132  1.00  0.00     0.013 C 
HETATM    6  C15 UNL     1      -2.788  -1.763   0.356  1.00  0.00     0.019 C 
HETATM    7  C16 UNL     1      -3.701  -0.006  -1.317  1.00  0.00     0.002 C 
HETATM    8  C12 UNL     1      -5.249  -0.099   1.164  1.00  0.00     0.007 C 
HETATM    9  C11 UNL     1      -5.965   0.009  -0.205  1.00  0.00     0.002 C 
HETATM   10  C2  UNL     1      -7.439  -0.539  -0.219  1.00  0.00    -0.016 C 
HETATM   11  C10 UNL     1      -5.105  -0.620  -1.360  1.00  0.00    -0.004 C 
HETATM   12  C1  UNL     1      -7.494  -2.062   0.061  1.00  0.00     0.020 C 
HETATM   13  C3  UNL     1      -8.353   0.110   0.860  1.00  0.00     0.022 C 
HETATM   14  C7  UNL     1      -7.977  -0.230  -1.623  1.00  0.00    -0.068 C 
HETATM   15  C4  UNL     1      -8.782   1.527   0.526  1.00  0.00     0.084 C 
HETATM   16  C5  UNL     1      -9.492   1.533  -0.804  1.00  0.00     0.149 C 
HETATM   17  O1  UNL     1     -10.434   2.282  -1.046  1.00  0.00    -0.293 OA
HETATM   18  C6  UNL     1      -8.948   0.666  -1.877  1.00  0.00     0.053 C 
HETATM   19  C8  UNL     1      -7.231  -0.877  -2.763  1.00  0.00     0.035 C 
HETATM   20  C9  UNL     1      -5.772  -0.415  -2.736  1.00  0.00     0.010 C 
HETATM   21  C17 UNL     1      -2.683  -0.434  -2.369  1.00  0.00     0.009 C 
HETATM   22  C18 UNL     1      -1.312  -0.078  -1.756  1.00  0.00     0.047 C 
BRANCH   3  23
HETATM   23  O2  UNL     1      -1.718   1.824  -0.356  1.00  0.00    -0.381 OA
HETATM   24  H27 UNL     1      -1.660   2.137   0.569  1.00  0.00     0.211 HD
ENDBRANCH   3  23
ENDBRANCH   1   3
BRANCH   1  25
HETATM   25  C21 UNL     1       0.601  -0.894   0.427  1.00  0.00     0.260 C 
BRANCH  25  26
HETATM   26  O4  UNL     1       1.537  -1.037   1.496  1.00  0.00    -0.314 OA
BRANCH  26  27
HETATM   27  C22 UNL     1       2.499  -0.073   1.533  1.00  0.00     0.259 C 
HETATM   28  O5  UNL     1       2.590   0.861   0.746  1.00  0.00    -0.265 OA
BRANCH  27  29
HETATM   29  C23 UNL     1       3.430  -0.306   2.698  1.00  0.00     0.120 C 
BRANCH  29  30
HETATM   30  C24 UNL     1       4.853   0.100   2.332  1.00  0.00     0.112 C 
BRANCH  30  31
HETATM   31  C25 UNL     1       5.409  -0.774   1.226  1.00  0.00     0.218 C 
HETATM   32  O6  UNL     1       4.887  -1.827   0.869  1.00  0.00    -0.274 OA
HETATM   33  N1  UNL     1       6.564  -0.279   0.672  1.00  0.00    -0.360 N 
HETATM   34  H34 UNL     1       6.876   0.653   0.942  1.00  0.00     0.162 HD
BRANCH  33  35
HETATM   35  C26 UNL     1       7.187  -0.917  -0.469  1.00  0.00     0.132 C 
BRANCH  35  36
HETATM   36  C27 UNL     1       8.323  -0.093  -1.122  1.00  0.00     0.046 C 
BRANCH  36  37
HETATM   37  C28 UNL     1       7.762   1.066  -1.976  1.00  0.00     0.120 C 
BRANCH  37  38
HETATM   38  C29 UNL     1       6.829   2.010  -1.258  1.00  0.00     0.140 C 
HETATM   39  O7  UNL     1       6.866   2.337  -0.083  1.00  0.00    -0.650 OA
BRANCH  38  40
HETATM   40  O8  UNL     1       5.895   2.524  -2.083  1.00  0.00    -0.776 OA
HETATM   41  H40 UNL     1       5.332   3.087  -1.507  1.00  0.00     0.167 HD
ENDBRANCH  38  40
ENDBRANCH  37  38
ENDBRANCH  36  37
BRANCH  36  42
HETATM   42  C30 UNL     1       9.470   0.223  -0.164  1.00  0.00    -0.052 A 
HETATM   43  C31 UNL     1      10.143  -0.844   0.464  1.00  0.00     0.007 A 
HETATM   44  C32 UNL     1      11.207  -0.618   1.341  1.00  0.00     0.001 A 
HETATM   45  C33 UNL     1      11.628   0.683   1.603  1.00  0.00     0.000 A 
HETATM   46  C34 UNL     1      10.987   1.752   0.982  1.00  0.00     0.001 A 
HETATM   47  C35 UNL     1       9.922   1.523   0.103  1.00  0.00     0.007 A 
ENDBRANCH  36  42
ENDBRANCH  35  36
ENDBRANCH  33  35
ENDBRANCH  30  31
ENDBRANCH  29  30
ENDBRANCH  27  29
ENDBRANCH  26  27
ENDBRANCH  25  26
ENDBRANCH   1  25
TORSDOF 14
