REMARK  12 active torsions:
REMARK  status: ('A' for Active; 'I' for Inactive)
REMARK    1  A    between atoms: C2_2  and  C3_3 
REMARK    2  A    between atoms: C3_3  and  O2_5 
REMARK    3  A    between atoms: C14_16  and  C15_17 
REMARK    4  A    between atoms: C15_17  and  C17_19 
REMARK    5  A    between atoms: C17_19  and  C18_20 
REMARK    6  A    between atoms: C18_20  and  C19_21 
REMARK    7  A    between atoms: C20_22  and  C22_24 
REMARK    8  A    between atoms: C22_24  and  O4_26 
REMARK    9  A    between atoms: C27_31  and  C28_32 
REMARK   10  A    between atoms: C28_32  and  C29_33 
REMARK   11  A    between atoms: C29_33  and  C30_34 
REMARK   12  A    between atoms: C30_34  and  O5_35 
ROOT
HETATM    1  C1  UNL     1      -5.466  -2.181  -0.631  1.00  0.00     0.056 C 
HETATM    2  C2  UNL     1      -4.606  -1.007  -0.999  1.00  0.00     0.014 C 
HETATM    3  C4  UNL     1      -3.914  -0.238  -0.120  1.00  0.00    -0.062 C 
HETATM    4  C5  UNL     1      -3.970  -0.478   1.365  1.00  0.00     0.036 C 
HETATM    5  C6  UNL     1      -2.597  -0.808   1.942  1.00  0.00     0.010 C 
HETATM    6  C7  UNL     1      -1.403  -0.025   1.338  1.00  0.00     0.003 C 
HETATM    7  C8  UNL     1      -1.839   1.256   0.509  1.00  0.00    -0.032 C 
HETATM    8  C9  UNL     1      -2.266   2.342   1.541  1.00  0.00     0.016 C 
HETATM    9  C10 UNL     1      -0.634   1.895  -0.281  1.00  0.00     0.011 C 
HETATM   10  C11 UNL     1       0.421   0.937  -0.864  1.00  0.00     0.011 C 
HETATM   11  C12 UNL     1       0.902  -0.078   0.184  1.00  0.00    -0.032 C 
HETATM   12  C13 UNL     1       1.579   0.702   1.357  1.00  0.00     0.016 C 
HETATM   13  C14 UNL     1       1.886  -1.197  -0.286  1.00  0.00    -0.002 C 
HETATM   14  C23 UNL     1       1.648  -2.311   0.785  1.00  0.00     0.006 C 
HETATM   15  C24 UNL     1       0.318  -1.997   1.500  1.00  0.00     0.011 C 
HETATM   16  C25 UNL     1      -0.355  -0.934   0.612  1.00  0.00    -0.032 C 
HETATM   17  C26 UNL     1      -1.015  -1.735  -0.557  1.00  0.00     0.016 C 
HETATM   18  C27 UNL     1      -3.010   0.934  -0.524  1.00  0.00     0.024 C 
ENDROOT
BRANCH  13  19
HETATM   19  C15 UNL     1       3.407  -0.892  -0.470  1.00  0.00    -0.014 C 
HETATM   20  C16 UNL     1       3.654   0.240  -1.472  1.00  0.00     0.010 C 
BRANCH  19  21
HETATM   21  C17 UNL     1       4.150  -2.180  -0.929  1.00  0.00     0.008 C 
BRANCH  21  22
HETATM   22  C18 UNL     1       5.681  -2.084  -1.021  1.00  0.00     0.028 C 
BRANCH  22  23
HETATM   23  C19 UNL     1       6.326  -1.726   0.289  1.00  0.00    -0.013 C 
HETATM   24  C20 UNL     1       7.176  -0.711   0.547  1.00  0.00     0.008 C 
HETATM   25  C21 UNL     1       7.673   0.305  -0.436  1.00  0.00     0.055 C 
BRANCH  24  26
HETATM   26  C22 UNL     1       7.655  -0.596   1.950  1.00  0.00     0.171 C 
HETATM   27  O3  UNL     1       7.279  -1.249   2.907  1.00  0.00    -0.646 OA
BRANCH  26  28
HETATM   28  O4  UNL     1       8.598   0.351   2.093  1.00  0.00    -0.773 OA
HETATM   29  H33 UNL     1       8.813   0.313   3.048  1.00  0.00     0.167 HD
ENDBRANCH  26  28
ENDBRANCH  24  26
ENDBRANCH  22  23
ENDBRANCH  21  22
ENDBRANCH  19  21
ENDBRANCH  13  19
BRANCH  18  30
HETATM   30  C28 UNL     1      -3.818   2.171  -1.025  1.00  0.00     0.012 C 
BRANCH  30  31
HETATM   31  C29 UNL     1      -5.086   2.535  -0.237  1.00  0.00     0.027 C 
BRANCH  31  32
HETATM   32  C30 UNL     1      -5.719   3.827  -0.746  1.00  0.00     0.164 C 
BRANCH  32  33
HETATM   33  O5  UNL     1      -6.132   3.671  -2.096  1.00  0.00    -0.401 OA
HETATM   34  H48 UNL     1      -6.524   4.516  -2.373  1.00  0.00     0.209 HD
ENDBRANCH  32  33
ENDBRANCH  31  32
ENDBRANCH  30  31
ENDBRANCH  18  30
BRANCH   2  35
HETATM   35  C3  UNL     1      -4.552  -0.741  -2.456  1.00  0.00     0.171 C 
HETATM   36  O1  UNL     1      -3.563  -0.681  -3.160  1.00  0.00    -0.646 OA
BRANCH  35  37
HETATM   37  O2  UNL     1      -5.791  -0.569  -2.948  1.00  0.00    -0.773 OA
HETATM   38  H4  UNL     1      -5.637  -0.347  -3.890  1.00  0.00     0.167 HD
ENDBRANCH  35  37
ENDBRANCH   2  35
TORSDOF 12
