REMARK  11 active torsions:
REMARK  status: ('A' for Active; 'I' for Inactive)
REMARK    1  A    between atoms: O1_2  and  C2_3 
REMARK    2  A    between atoms: C4_5  and  O2_6 
REMARK    3  A    between atoms: O2_6  and  C5_7 
REMARK    4  A    between atoms: C8_10  and  C9_11 
REMARK    5  A    between atoms: N1_12  and  C10_14 
REMARK    6  A    between atoms: C10_14  and  C11_15 
REMARK    7  A    between atoms: C11_15  and  O3_16 
REMARK    8  A    between atoms: C17_22  and  C18_23 
REMARK    9  A    between atoms: C24_31  and  O6_32 
REMARK   10  A    between atoms: C28_36  and  O7_37 
REMARK   11  A    between atoms: C32_42  and  O9_43 
ROOT
HETATM    1  C5  UNL     1      -2.542   0.539   0.569  1.00  0.00     0.127 C 
HETATM    2  C6  UNL     1      -1.740   1.627   1.269  1.00  0.00     0.033 C 
HETATM    3  C7  UNL     1      -0.261   1.275   1.433  1.00  0.00     0.021 C 
HETATM    4  C8  UNL     1       0.300   0.225   0.417  1.00  0.00     0.026 C 
HETATM    5  C12 UNL     1       1.871   0.444   0.300  1.00  0.00     0.009 C 
HETATM    6  C13 UNL     1       2.751  -0.716   0.800  1.00  0.00     0.007 C 
HETATM    7  C14 UNL     1       4.227  -0.320   0.820  1.00  0.00     0.013 C 
HETATM    8  C15 UNL     1       4.758   0.107  -0.567  1.00  0.00    -0.005 C 
HETATM    9  C16 UNL     1       4.881  -1.140  -1.465  1.00  0.00     0.019 C 
HETATM   10  C17 UNL     1       6.125   0.863  -0.465  1.00  0.00     0.028 C 
HETATM   11  C22 UNL     1       5.735   2.293  -0.045  1.00  0.00     0.013 C 
HETATM   12  C23 UNL     1       4.281   2.499  -0.485  1.00  0.00     0.040 C 
HETATM   13  C24 UNL     1       3.849   1.204  -1.198  1.00  0.00     0.070 C 
HETATM   14  C25 UNL     1       2.329   0.881  -1.117  1.00  0.00     0.026 C 
HETATM   15  C26 UNL     1       1.441   2.040  -1.598  1.00  0.00     0.011 C 
HETATM   16  C27 UNL     1      -0.053   1.694  -1.655  1.00  0.00     0.039 C 
HETATM   17  C28 UNL     1      -0.446   0.376  -0.950  1.00  0.00     0.073 C 
HETATM   18  C29 UNL     1      -1.994   0.287  -0.840  1.00  0.00     0.071 C 
ENDROOT
BRANCH   1  19
HETATM   19  O2  UNL     1      -3.907   0.964   0.544  1.00  0.00    -0.356 OA
BRANCH  19  20
HETATM   20  C4  UNL     1      -4.832  -0.058   0.174  1.00  0.00     0.263 C 
HETATM   21  C3  UNL     1      -5.958  -0.062   1.199  1.00  0.00     0.095 C 
HETATM   22  C2  UNL     1      -7.231  -0.604   0.581  1.00  0.00     0.156 C 
HETATM   23  C32 UNL     1      -7.664   0.287  -0.603  1.00  0.00     0.175 C 
HETATM   24  C30 UNL     1      -6.454   0.890  -1.356  1.00  0.00     0.151 C 
HETATM   25  O8  UNL     1      -5.270   0.115  -1.171  1.00  0.00    -0.354 OA
HETATM   26  C31 UNL     1      -6.219   2.363  -1.027  1.00  0.00     0.042 C 
BRANCH  22  27
HETATM   27  O1  UNL     1      -8.221  -0.633   1.626  1.00  0.00    -0.388 OA
HETATM   28  C1  UNL     1      -9.372  -1.399   1.292  1.00  0.00     0.202 C 
ENDBRANCH  22  27
BRANCH  23  29
HETATM   29  O9  UNL     1      -8.429  -0.546  -1.500  1.00  0.00    -0.390 OA
HETATM   30  H49 UNL     1      -8.716   0.010  -2.246  1.00  0.00     0.210 HD
ENDBRANCH  23  29
ENDBRANCH  19  20
ENDBRANCH   1  19
BRANCH  17  31
HETATM   31  O7  UNL     1      -0.045  -0.661  -1.864  1.00  0.00    -0.389 OA
HETATM   32  H41 UNL     1      -0.181  -1.515  -1.397  1.00  0.00     0.210 HD
ENDBRANCH  17  31
BRANCH   4  33
HETATM   33  C9  UNL     1       0.027  -1.163   1.030  1.00  0.00     0.068 C 
HETATM   34  N1  UNL     1      -0.334  -2.165   0.307  1.00  0.00    -0.399 N 
ATOM     35  H1  UNL     1      -0.482  -2.090  -0.699  1.00  0.00     0.158 HD
BRANCH  34  36
HETATM   36  C10 UNL     1      -0.517  -3.425   1.042  1.00  0.00     0.144 C 
BRANCH  36  37
HETATM   37  C11 UNL     1       0.642  -4.374   0.743  1.00  0.00     0.183 C 
BRANCH  37  38
HETATM   38  O3  UNL     1       0.445  -5.618   1.398  1.00  0.00    -0.399 OA
HETATM   39  H18 UNL     1      -0.304  -6.061   0.958  1.00  0.00     0.209 HD
ENDBRANCH  37  38
ENDBRANCH  36  37
ENDBRANCH  34  36
ENDBRANCH   4  33
BRANCH  13  40
HETATM   40  O6  UNL     1       4.224   1.333  -2.577  1.00  0.00    -0.389 OA
HETATM   41  H35 UNL     1       3.743   2.081  -2.966  1.00  0.00     0.210 HD
ENDBRANCH  13  40
BRANCH  10  42
HETATM   42  C18 UNL     1       7.201   0.220   0.369  1.00  0.00    -0.045 A 
HETATM   43  C19 UNL     1       7.555   0.473   1.630  1.00  0.00     0.087 A 
HETATM   44  C20 UNL     1       8.685  -0.393   1.946  1.00  0.00     0.283 A 
HETATM   45  O4  UNL     1       9.246  -0.430   3.025  1.00  0.00    -0.260 OA
HETATM   46  O5  UNL     1       9.002  -1.131   0.851  1.00  0.00    -0.314 OA
HETATM   47  C21 UNL     1       8.100  -0.809  -0.207  1.00  0.00     0.213 A 
ENDBRANCH  10  42
TORSDOF 11
