REMARK  13 active torsions:
REMARK  status: ('A' for Active; 'I' for Inactive)
REMARK    1  A    between atoms: C2_2  and  C3_3 
REMARK    2  A    between atoms: C3_3  and  C4_4 
REMARK    3  A    between atoms: C4_4  and  O2_6 
REMARK    4  A    between atoms: O2_6  and  C5_7 
REMARK    5  A    between atoms: C7_9  and  C8_10 
REMARK    6  A    between atoms: C15_18  and  O4_20 
REMARK    7  A    between atoms: C17_21  and  O5_22 
REMARK    8  A    between atoms: C20_25  and  O6_27 
REMARK    9  A    between atoms: O6_27  and  C22_28 
REMARK   10  A    between atoms: C22_28  and  C23_30 
REMARK   11  A    between atoms: C23_30  and  C24_31 
REMARK   12  A    between atoms: C27_34  and  O8_36 
REMARK   13  A    between atoms: O8_36  and  C29_37 
ROOT
HETATM    1  C5  UNL     1      -2.045   0.697   0.781  1.00  0.00     0.167 C 
HETATM    2  C6  UNL     1      -1.251   1.734  -0.014  1.00  0.00     0.041 C 
HETATM    3  C7  UNL     1       0.184   1.307  -0.361  1.00  0.00    -0.002 C 
HETATM    4  C11 UNL     1       0.533  -0.196  -0.133  1.00  0.00     0.032 C 
HETATM    5  C12 UNL     1       1.361  -0.404   1.164  1.00  0.00     0.161 C 
HETATM    6  O3  UNL     1       0.916  -1.621   1.759  1.00  0.00    -0.377 OA
HETATM    7  C13 UNL     1      -0.255  -2.112   1.144  1.00  0.00     0.132 C 
HETATM    8  C14 UNL     1      -0.105  -3.620   0.848  1.00  0.00     0.072 C 
HETATM    9  C15 UNL     1       0.985  -4.197  -0.101  1.00  0.00     0.082 C 
HETATM   10  C16 UNL     1       0.937  -3.665  -1.539  1.00  0.00     0.049 C 
HETATM   11  C17 UNL     1       2.432  -4.312   0.488  1.00  0.00     0.152 C 
HETATM   12  C18 UNL     1       3.130  -3.137   1.172  1.00  0.00     0.038 C 
HETATM   13  C19 UNL     1       3.350  -1.856   0.350  1.00  0.00     0.043 C 
HETATM   14  C20 UNL     1       2.920  -0.506   1.018  1.00  0.00     0.093 C 
HETATM   15  C21 UNL     1       3.619  -0.408   2.396  1.00  0.00     0.049 C 
HETATM   16  C26 UNL     1      -0.631  -1.213  -0.039  1.00  0.00     0.059 C 
HETATM   17  C27 UNL     1      -2.088  -0.631  -0.012  1.00  0.00     0.100 C 
HETATM   18  C28 UNL     1      -3.108  -1.667   0.503  1.00  0.00     0.050 C 
ENDROOT
BRANCH  14  19
HETATM   19  O6  UNL     1       3.466   0.509   0.121  1.00  0.00    -0.308 OA
BRANCH  19  20
HETATM   20  C22 UNL     1       3.510   1.820   0.476  1.00  0.00     0.259 C 
HETATM   21  O7  UNL     1       2.970   2.311   1.455  1.00  0.00    -0.265 OA
BRANCH  20  22
HETATM   22  C23 UNL     1       4.309   2.601  -0.542  1.00  0.00     0.111 C 
BRANCH  22  23
HETATM   23  C24 UNL     1       5.199   3.636   0.138  1.00  0.00     0.005 C 
HETATM   24  C25 UNL     1       6.052   4.387  -0.872  1.00  0.00     0.005 C 
ENDBRANCH  22  23
ENDBRANCH  20  22
ENDBRANCH  19  20
ENDBRANCH  14  19
BRANCH   3  25
HETATM   25  C8  UNL     1       0.670   1.819  -1.753  1.00  0.00    -0.018 C 
HETATM   26  C9  UNL     1      -0.043   1.184  -2.946  1.00  0.00     0.010 C 
HETATM   27  C10 UNL     1       0.592   3.347  -1.858  1.00  0.00     0.010 C 
ENDBRANCH   3  25
BRANCH  11  28
HETATM   28  O5  UNL     1       3.318  -4.819  -0.526  1.00  0.00    -0.393 OA
HETATM   29  H29 UNL     1       2.893  -5.644  -0.832  1.00  0.00     0.210 HD
ENDBRANCH  11  28
BRANCH  17  30
HETATM   30  O8  UNL     1      -2.373  -0.399  -1.444  1.00  0.00    -0.308 OA
BRANCH  30  31
HETATM   31  C29 UNL     1      -3.593  -0.027  -1.912  1.00  0.00     0.255 C 
HETATM   32  C30 UNL     1      -3.564   0.074  -3.408  1.00  0.00     0.126 C 
HETATM   33  O9  UNL     1      -4.587   0.210  -1.247  1.00  0.00    -0.266 OA
ENDBRANCH  30  31
ENDBRANCH  17  30
BRANCH   9  34
HETATM   34  O4  UNL     1       0.614  -5.609  -0.278  1.00  0.00    -0.388 OA
HETATM   35  H27 UNL     1      -0.280  -5.643  -0.663  1.00  0.00     0.210 HD
ENDBRANCH   9  34
BRANCH   1  36
HETATM   36  O2  UNL     1      -3.343   1.277   1.014  1.00  0.00    -0.313 OA
BRANCH  36  37
HETATM   37  C4  UNL     1      -3.941   0.974   2.196  1.00  0.00     0.259 C 
HETATM   38  O1  UNL     1      -3.482   0.211   3.037  1.00  0.00    -0.265 OA
BRANCH  37  39
HETATM   39  C3  UNL     1      -5.219   1.753   2.385  1.00  0.00     0.111 C 
BRANCH  39  40
HETATM   40  C2  UNL     1      -6.219   1.527   1.258  1.00  0.00     0.005 C 
HETATM   41  C1  UNL     1      -7.567   2.157   1.573  1.00  0.00     0.005 C 
ENDBRANCH  39  40
ENDBRANCH  37  39
ENDBRANCH  36  37
ENDBRANCH   1  36
TORSDOF 13
