REMARK  0 active torsions:
REMARK  status: ('A' for Active; 'I' for Inactive)
ROOT
HETATM    1 CL1  UNL     1       1.911   1.359   0.797  1.00  0.00     0.000 Cl
HETATM    2 RU1  UNL     1       0.418  -0.193  -0.643  1.00  0.00     0.000 Ru
HETATM    3 CL2  UNL     1      -0.767   1.801  -0.405  1.00  0.00     0.000 Cl
HETATM    4 CL3  UNL     1      -1.124   1.082  -1.030  1.00  0.00     0.000 Cl
HETATM    5 CL4  UNL     1      -0.760  -1.147   0.812  1.00  0.00     0.000 Cl
HETATM    6 CL5  UNL     1      -1.815  -1.355   0.772  1.00  0.00     0.000 Cl
HETATM    7 CL6  UNL     1       2.138  -1.546  -0.792  1.00  0.00     0.000 Cl
ENDROOT
TORSDOF 0
