REMARK  8 active torsions:
REMARK  status: ('A' for Active; 'I' for Inactive)
REMARK    1  A    between atoms: C2_2  and  C3_3 
REMARK    2  A    between atoms: C2_2  and  C28_31 
REMARK    3  A    between atoms: C3_3  and  C4_4 
REMARK    4  A    between atoms: C4_4  and  O1_5 
REMARK    5  A    between atoms: C4_4  and  C5_6 
REMARK    6  A    between atoms: C5_6  and  C7_8 
REMARK    7  A    between atoms: C21_22  and  C23_24 
REMARK    8  A    between atoms: C23_24  and  O3_26 
ROOT
HETATM    1  C7  UNL     1       1.862   0.223   1.621  1.00  0.00     0.001 C 
HETATM    2  C8  UNL     1       1.453   0.369   3.124  1.00  0.00     0.007 C 
HETATM    3  C9  UNL     1      -0.084   0.380   3.186  1.00  0.00     0.015 C 
HETATM    4  C10 UNL     1      -0.525  -0.194   1.832  1.00  0.00    -0.013 C 
HETATM    5  C11 UNL     1      -0.415  -1.750   1.933  1.00  0.00     0.021 C 
HETATM    6  C12 UNL     1      -1.948   0.059   1.352  1.00  0.00    -0.068 C 
HETATM    7  C13 UNL     1      -2.204   0.081   0.016  1.00  0.00    -0.068 C 
HETATM    8  C14 UNL     1      -1.105  -0.025  -1.035  1.00  0.00     0.036 C 
HETATM    9  C15 UNL     1       0.346  -0.148  -0.518  1.00  0.00     0.015 C 
HETATM   10  C16 UNL     1       0.522   0.499   0.865  1.00  0.00    -0.029 C 
HETATM   11  C17 UNL     1       0.286   2.030   0.721  1.00  0.00     0.016 C 
HETATM   12  C18 UNL     1      -3.627   0.298  -0.485  1.00  0.00    -0.015 C 
HETATM   13  C19 UNL     1      -3.794   1.818  -0.726  1.00  0.00     0.020 C 
HETATM   14  C20 UNL     1      -4.080  -0.485  -1.741  1.00  0.00     0.034 C 
HETATM   15  C21 UNL     1      -5.620  -0.680  -1.593  1.00  0.00     0.043 C 
HETATM   16  C22 UNL     1      -6.404   0.179  -2.595  1.00  0.00     0.027 C 
HETATM   17  C24 UNL     1      -5.959  -0.258  -0.138  1.00  0.00     0.025 C 
HETATM   18  C25 UNL     1      -4.602  -0.292   0.555  1.00  0.00    -0.001 C 
HETATM   19  C26 UNL     1      -4.467   0.392   1.900  1.00  0.00     0.010 C 
HETATM   20  C27 UNL     1      -3.030   0.204   2.417  1.00  0.00     0.036 C 
ENDROOT
BRANCH   1  21
HETATM   21  C5  UNL     1       3.227   0.924   1.319  1.00  0.00     0.015 C 
HETATM   22  C6  UNL     1       3.288   2.441   1.563  1.00  0.00     0.013 C 
BRANCH  21  23
HETATM   23  C4  UNL     1       3.883   0.603  -0.052  1.00  0.00     0.126 C 
BRANCH  23  24
HETATM   24  C3  UNL     1       3.986  -0.905  -0.358  1.00  0.00     0.065 C 
BRANCH  24  25
HETATM   25  C2  UNL     1       4.914  -1.212  -1.528  1.00  0.00    -0.083 C 
HETATM   26  C1  UNL     1       4.403  -1.483  -2.742  1.00  0.00     0.015 C 
BRANCH  25  27
HETATM   27  C28 UNL     1       6.407  -1.223  -1.214  1.00  0.00     0.005 C 
HETATM   28  C29 UNL     1       6.845  -2.616  -0.753  1.00  0.00     0.014 C 
HETATM   29  C30 UNL     1       7.298  -0.746  -2.368  1.00  0.00     0.014 C 
ENDBRANCH  25  27
ENDBRANCH  24  25
ENDBRANCH  23  24
BRANCH  23  30
HETATM   30  O1  UNL     1       3.183   1.277  -1.095  1.00  0.00    -0.395 OA
HETATM   31  H6  UNL     1       3.661   1.090  -1.923  1.00  0.00     0.210 HD
ENDBRANCH  23  30
ENDBRANCH  21  23
ENDBRANCH   1  21
BRANCH  15  32
HETATM   32  C23 UNL     1      -5.970  -2.145  -1.849  1.00  0.00     0.148 C 
HETATM   33  O2  UNL     1      -6.479  -2.605  -2.859  1.00  0.00    -0.649 OA
BRANCH  32  34
HETATM   34  O3  UNL     1      -5.628  -2.974  -0.845  1.00  0.00    -0.776 OA
HETATM   35  H34 UNL     1      -5.898  -3.860  -1.166  1.00  0.00     0.167 HD
ENDBRANCH  32  34
ENDBRANCH  15  32
TORSDOF 8
