REMARK  11 active torsions:
REMARK  status: ('A' for Active; 'I' for Inactive)
REMARK    1  A    between atoms: C2_2  and  O2_4 
REMARK    2  A    between atoms: O2_4  and  C3_5 
REMARK    3  A    between atoms: C4_6  and  O3_7 
REMARK    4  A    between atoms: O3_7  and  C5_8 
REMARK    5  A    between atoms: C15_18  and  C16_19 
REMARK    6  A    between atoms: C20_23  and  C21_24 
REMARK    7  A    between atoms: C21_24  and  O4_27 
REMARK    8  A    between atoms: C24_29  and  O6_30 
REMARK    9  A    between atoms: C30_36  and  O7_37 
REMARK   10  A    between atoms: C36_44  and  O9_45 
REMARK   11  A    between atoms: C37_46  and  O10_47 
ROOT
HETATM    1  C5  UNL     1       3.850  -1.904  -0.215  1.00  0.00     0.133 C 
HETATM    2  C6  UNL     1       2.865  -2.407   0.851  1.00  0.00     0.034 C 
HETATM    3  C7  UNL     1       1.400  -2.092   0.578  1.00  0.00     0.013 C 
HETATM    4  C8  UNL     1       1.210  -0.699   0.021  1.00  0.00    -0.025 A 
HETATM    5  C9  UNL     1       1.042   0.394   1.046  1.00  0.00     0.021 A 
HETATM    6  C10 UNL     1      -0.160   0.029   0.188  1.00  0.00    -0.027 A 
HETATM    7  C11 UNL     1      -1.282  -0.764   0.894  1.00  0.00     0.011 C 
HETATM    8  C12 UNL     1      -2.711  -0.196   0.939  1.00  0.00     0.011 C 
HETATM    9  C13 UNL     1      -2.866   1.187   0.316  1.00  0.00    -0.028 C 
HETATM   10  C14 UNL     1      -2.298   2.225   1.326  1.00  0.00     0.016 C 
HETATM   11  C15 UNL     1      -4.320   1.564  -0.142  1.00  0.00     0.057 C 
HETATM   12  C24 UNL     1      -4.078   2.648  -1.226  1.00  0.00     0.126 C 
HETATM   13  C25 UNL     1      -2.606   2.511  -1.679  1.00  0.00     0.042 C 
HETATM   14  C26 UNL     1      -2.104   1.185  -1.065  1.00  0.00    -0.029 C 
HETATM   15  C27 UNL     1      -2.527   0.032  -2.030  1.00  0.00     0.016 C 
HETATM   16  C28 UNL     1      -0.571   1.133  -0.821  1.00  0.00     0.006 C 
HETATM   17  C29 UNL     1       0.291   1.195  -2.104  1.00  0.00     0.038 C 
HETATM   18  C30 UNL     1       1.130  -0.042  -2.415  1.00  0.00     0.124 C 
HETATM   19  C31 UNL     1       2.053  -0.385  -1.228  1.00  0.00     0.034 C 
HETATM   20  C32 UNL     1       3.169  -1.452  -1.543  1.00  0.00    -0.015 C 
HETATM   21  C33 UNL     1       4.247  -0.782  -2.443  1.00  0.00     0.018 C 
HETATM   22  C34 UNL     1       2.691  -2.693  -2.331  1.00  0.00     0.018 C 
ENDROOT
BRANCH   1  23
HETATM   23  O3  UNL     1       4.583  -0.787   0.320  1.00  0.00    -0.352 OA
BRANCH  23  24
HETATM   24  C4  UNL     1       5.844  -1.148   0.912  1.00  0.00     0.292 C 
HETATM   25  C3  UNL     1       6.683   0.143   1.014  1.00  0.00     0.218 C 
HETATM   26  C37 UNL     1       8.026  -0.109   1.731  1.00  0.00     0.183 C 
HETATM   27  C36 UNL     1       7.980  -1.344   2.636  1.00  0.00     0.173 C 
HETATM   28  C35 UNL     1       6.567  -1.522   3.186  1.00  0.00     0.205 C 
HETATM   29  O8  UNL     1       5.609  -1.795   2.162  1.00  0.00    -0.356 OA
BRANCH  25  30
HETATM   30  O2  UNL     1       6.921   0.632  -0.338  1.00  0.00    -0.309 OA
BRANCH  30  31
HETATM   31  C2  UNL     1       7.387   1.896  -0.461  1.00  0.00     0.255 C 
HETATM   32  C1  UNL     1       7.512   2.281  -1.903  1.00  0.00     0.126 C 
HETATM   33  O1  UNL     1       7.714   2.615   0.473  1.00  0.00    -0.266 OA
ENDBRANCH  30  31
ENDBRANCH  25  30
BRANCH  26  34
HETATM   34  O10 UNL     1       8.351   1.033   2.546  1.00  0.00    -0.390 OA
HETATM   35  H60 UNL     1       8.313   1.820   1.954  1.00  0.00     0.210 HD
ENDBRANCH  26  34
BRANCH  27  36
HETATM   36  O9  UNL     1       8.355  -2.498   1.872  1.00  0.00    -0.391 OA
HETATM   37  H58 UNL     1       8.241  -3.274   2.449  1.00  0.00     0.210 HD
ENDBRANCH  27  36
ENDBRANCH  23  24
ENDBRANCH   1  23
BRANCH  18  38
HETATM   38  O7  UNL     1       0.287  -1.127  -2.786  1.00  0.00    -0.395 OA
HETATM   39  H47 UNL     1      -0.133  -1.454  -1.973  1.00  0.00     0.210 HD
ENDBRANCH  18  38
BRANCH  11  40
HETATM   40  C16 UNL     1      -5.500   1.787   0.857  1.00  0.00     0.065 C 
HETATM   41  C17 UNL     1      -5.300   2.813   1.971  1.00  0.00     0.046 C 
HETATM   42  C18 UNL     1      -6.824   2.081   0.121  1.00  0.00     0.041 C 
HETATM   43  C19 UNL     1      -7.356   0.708  -0.207  1.00  0.00     0.038 C 
HETATM   44  C20 UNL     1      -6.962  -0.076   1.036  1.00  0.00     0.156 C 
HETATM   45  O5  UNL     1      -5.730   0.510   1.515  1.00  0.00    -0.372 OA
BRANCH  44  46
HETATM   46  C21 UNL     1      -6.825  -1.604   0.832  1.00  0.00     0.076 C 
HETATM   47  C22 UNL     1      -8.173  -2.223   0.457  1.00  0.00     0.048 C 
HETATM   48  C23 UNL     1      -6.267  -2.272   2.094  1.00  0.00     0.048 C 
BRANCH  46  49
HETATM   49  O4  UNL     1      -5.921  -1.874  -0.250  1.00  0.00    -0.388 OA
HETATM   50  H35 UNL     1      -5.748  -2.830  -0.270  1.00  0.00     0.210 HD
ENDBRANCH  46  49
ENDBRANCH  44  46
ENDBRANCH  11  40
BRANCH  12  51
HETATM   51  O6  UNL     1      -4.318   3.961  -0.750  1.00  0.00    -0.395 OA
HETATM   52  H37 UNL     1      -4.086   4.587  -1.456  1.00  0.00     0.210 HD
ENDBRANCH  12  51
TORSDOF 11
