REMARK  5 active torsions:
REMARK  status: ('A' for Active; 'I' for Inactive)
REMARK    1  A    between atoms: C3_3  and  C4_4 
REMARK    2  A    between atoms: C4_4  and  O2_6 
REMARK    3  A    between atoms: O2_6  and  C5_7 
REMARK    4  A    between atoms: C5_7  and  C6_8 
REMARK    5  A    between atoms: C12_14  and  C13_15 
ROOT
HETATM    1  C1  UNL     1       1.555   4.117   0.750  1.00  0.00     0.069 C 
HETATM    2  C2  UNL     1       0.396   3.303   0.239  1.00  0.00     0.018 C 
HETATM    3  C3  UNL     1       0.021   2.104   0.736  1.00  0.00     0.052 C 
HETATM    4  C12 UNL     1      -1.174   1.330   0.196  1.00  0.00     0.104 C 
HETATM    5  C22 UNL     1      -1.969   2.158  -0.817  1.00  0.00     0.024 C 
HETATM    6  C23 UNL     1      -1.525   3.350  -1.268  1.00  0.00     0.020 C 
HETATM    7  C24 UNL     1      -2.305   4.201  -2.239  1.00  0.00     0.058 C 
HETATM    8  C25 UNL     1      -3.799   3.913  -2.163  1.00  0.00     0.014 C 
HETATM    9  C26 UNL     1      -4.066   2.422  -2.307  1.00  0.00     0.084 C 
HETATM   10  C27 UNL     1      -3.282   1.624  -1.287  1.00  0.00     0.158 C 
HETATM   11  O5  UNL     1      -3.689   0.532  -0.892  1.00  0.00    -0.293 OA
HETATM   12  N1  UNL     1      -0.327   3.862  -0.805  1.00  0.00    -0.362 N 
HETATM   13  H22 UNL     1      -0.090   4.813  -1.069  1.00  0.00     0.165 HD
ENDROOT
BRANCH   4  14
HETATM   14  C13 UNL     1      -0.738  -0.006  -0.379  1.00  0.00     0.029 A 
HETATM   15  C14 UNL     1      -0.241  -0.213  -1.610  1.00  0.00     0.154 A 
HETATM   16  O3  UNL     1       0.148  -1.414  -2.151  1.00  0.00    -0.321 OA
HETATM   17  C15 UNL     1      -0.037  -2.541  -1.389  1.00  0.00     0.089 A 
HETATM   18  C16 UNL     1       0.301  -3.765  -1.968  1.00  0.00     0.040 A 
HETATM   19  C20 UNL     1      -0.530  -2.499  -0.086  1.00  0.00     0.050 A 
HETATM   20  C17 UNL     1       0.147  -4.946  -1.235  1.00  0.00     0.026 A 
HETATM   21  C18 UNL     1      -0.340  -4.894   0.073  1.00  0.00     0.035 A 
HETATM   22 CL1  UNL     1      -0.511  -6.349   0.978  1.00  0.00    -0.084 Cl
HETATM   23  C19 UNL     1      -0.684  -3.675   0.654  1.00  0.00     0.042 A 
HETATM   24  C21 UNL     1      -0.865  -1.192   0.504  1.00  0.00     0.194 A 
HETATM   25  O4  UNL     1      -1.208  -1.097   1.676  1.00  0.00    -0.287 OA
ENDBRANCH   4  14
BRANCH   3  26
HETATM   26  C4  UNL     1       0.725   1.526   1.891  1.00  0.00     0.292 C 
HETATM   27  O1  UNL     1       0.546   1.887   3.047  1.00  0.00    -0.259 OA
BRANCH  26  28
HETATM   28  O2  UNL     1       1.625   0.621   1.437  1.00  0.00    -0.313 OA
BRANCH  28  29
HETATM   29  C5  UNL     1       2.393  -0.041   2.446  1.00  0.00     0.217 C 
BRANCH  29  30
HETATM   30  C6  UNL     1       2.627  -1.472   2.025  1.00  0.00    -0.034 A 
HETATM   31  C7  UNL     1       2.298  -2.523   2.895  1.00  0.00     0.009 A 
HETATM   32  C8  UNL     1       2.551  -3.849   2.536  1.00  0.00     0.001 A 
HETATM   33  C9  UNL     1       3.134  -4.140   1.304  1.00  0.00     0.000 A 
HETATM   34  C10 UNL     1       3.455  -3.104   0.423  1.00  0.00     0.001 A 
HETATM   35  C11 UNL     1       3.201  -1.777   0.781  1.00  0.00     0.009 A 
ENDBRANCH  29  30
ENDBRANCH  28  29
ENDBRANCH  26  28
ENDBRANCH   3  26
TORSDOF 5
