REMARK  12 active torsions:
REMARK  status: ('A' for Active; 'I' for Inactive)
REMARK    1  A    between atoms: C2_2  and  C3_3 
REMARK    2  A    between atoms: C2_2  and  C9_10 
REMARK    3  A    between atoms: C3_3  and  C4_4 
REMARK    4  A    between atoms: C5_5  and  C6_6 
REMARK    5  A    between atoms: C6_6  and  O1_9 
REMARK    6  A    between atoms: C27_29  and  O3_30 
REMARK    7  A    between atoms: O3_30  and  C28_31 
REMARK    8  A    between atoms: C29_33  and  C30_34 
REMARK    9  A    between atoms: C30_34  and  O5_35 
REMARK   10  A    between atoms: C31_36  and  O6_37 
REMARK   11  A    between atoms: C32_38  and  O7_39 
REMARK   12  A    between atoms: C33_40  and  O8_41 
ROOT
HETATM    1  C9  UNL     1       3.538  -1.538   0.501  1.00  0.00    -0.002 C 
HETATM    2  C10 UNL     1       3.461  -2.303   1.851  1.00  0.00     0.006 C 
HETATM    3  C11 UNL     1       2.270  -1.702   2.638  1.00  0.00     0.011 C 
HETATM    4  C12 UNL     1       1.504  -0.845   1.606  1.00  0.00    -0.029 C 
HETATM    5  C13 UNL     1       0.602  -1.851   0.818  1.00  0.00     0.016 C 
HETATM    6  C14 UNL     1       0.649   0.325   2.183  1.00  0.00     0.028 C 
HETATM    7  C15 UNL     1      -0.475  -0.151   3.085  1.00  0.00    -0.021 C 
HETATM    8  C16 UNL     1      -1.740   0.279   2.936  1.00  0.00     0.008 C 
HETATM    9  C17 UNL     1      -2.116   1.275   1.846  1.00  0.00     0.092 C 
HETATM   10  O2  UNL     1      -1.541   2.518   2.309  1.00  0.00    -0.374 OA
HETATM   11  C18 UNL     1      -0.243   2.672   1.719  1.00  0.00     0.179 C 
HETATM   12  C19 UNL     1       0.137   1.327   1.051  1.00  0.00    -0.004 C 
HETATM   13  C20 UNL     1       1.185   1.608  -0.062  1.00  0.00     0.014 C 
HETATM   14  C21 UNL     1       2.123   0.455  -0.462  1.00  0.00     0.011 C 
HETATM   15  C22 UNL     1       2.699  -0.254   0.774  1.00  0.00    -0.032 C 
HETATM   16  C23 UNL     1       3.563   0.781   1.556  1.00  0.00     0.016 C 
HETATM   17  C24 UNL     1      -1.278   0.892   0.591  1.00  0.00     0.036 C 
HETATM   18  C25 UNL     1      -1.820   1.527  -0.688  1.00  0.00     0.011 C 
HETATM   19  C26 UNL     1      -3.261   1.089  -0.957  1.00  0.00     0.033 C 
HETATM   20  C27 UNL     1      -4.043   0.645   0.293  1.00  0.00     0.136 C 
HETATM   21  C34 UNL     1      -3.657   1.484   1.549  1.00  0.00     0.014 C 
HETATM   22  C35 UNL     1      -4.004   2.982   1.318  1.00  0.00     0.021 C 
HETATM   23  C36 UNL     1      -4.557   1.056   2.736  1.00  0.00     0.021 C 
ENDROOT
BRANCH  20  24
HETATM   24  O3  UNL     1      -5.456   0.764   0.058  1.00  0.00    -0.352 OA
BRANCH  24  25
HETATM   25  C28 UNL     1      -6.029  -0.317  -0.696  1.00  0.00     0.292 C 
HETATM   26  O4  UNL     1      -5.646  -0.221  -2.062  1.00  0.00    -0.348 OA
HETATM   27  C29 UNL     1      -6.477  -0.931  -3.006  1.00  0.00     0.179 C 
HETATM   28  C31 UNL     1      -7.458  -1.940  -2.386  1.00  0.00     0.180 C 
HETATM   29  C32 UNL     1      -8.265  -1.351  -1.221  1.00  0.00     0.183 C 
HETATM   30  C33 UNL     1      -7.552  -0.175  -0.546  1.00  0.00     0.204 C 
BRANCH  27  31
HETATM   31  C30 UNL     1      -7.189   0.116  -3.874  1.00  0.00     0.198 C 
BRANCH  31  32
HETATM   32  O5  UNL     1      -6.218   0.968  -4.486  1.00  0.00    -0.398 OA
HETATM   33  H46 UNL     1      -5.581   1.191  -3.779  1.00  0.00     0.209 HD
ENDBRANCH  31  32
ENDBRANCH  27  31
BRANCH  28  34
HETATM   34  O6  UNL     1      -6.688  -3.049  -1.888  1.00  0.00    -0.390 OA
HETATM   35  H48 UNL     1      -7.308  -3.789  -1.745  1.00  0.00     0.210 HD
ENDBRANCH  28  34
BRANCH  29  36
HETATM   36  O7  UNL     1      -9.550  -0.920  -1.690  1.00  0.00    -0.390 OA
HETATM   37  H50 UNL     1     -10.009  -0.554  -0.908  1.00  0.00     0.210 HD
ENDBRANCH  29  36
BRANCH  30  38
HETATM   38  O8  UNL     1      -7.956  -0.112   0.832  1.00  0.00    -0.388 OA
HETATM   39  H52 UNL     1      -7.341   0.533   1.238  1.00  0.00     0.210 HD
ENDBRANCH  30  38
ENDBRANCH  24  25
ENDBRANCH  20  24
BRANCH   1  40
HETATM   40  C2  UNL     1       4.953  -1.389  -0.140  1.00  0.00    -0.010 C 
HETATM   41  C1  UNL     1       5.254  -2.655  -0.967  1.00  0.00     0.010 C 
BRANCH  40  42
HETATM   42  C3  UNL     1       6.122  -1.152   0.848  1.00  0.00     0.031 C 
BRANCH  42  43
HETATM   43  C4  UNL     1       7.392  -0.517   0.327  1.00  0.00    -0.027 C 
HETATM   44  C5  UNL     1       7.683  -0.140  -0.932  1.00  0.00     0.006 C 
BRANCH  44  45
HETATM   45  C6  UNL     1       8.950   0.533  -1.411  1.00  0.00     0.068 C 
HETATM   46  C7  UNL     1       9.648  -0.334  -2.462  1.00  0.00     0.050 C 
HETATM   47  C8  UNL     1       8.623   1.911  -1.986  1.00  0.00     0.050 C 
BRANCH  45  48
HETATM   48  O1  UNL     1       9.859   0.729  -0.329  1.00  0.00    -0.387 OA
HETATM   49  H15 UNL     1      10.107  -0.154  -0.004  1.00  0.00     0.211 HD
ENDBRANCH  45  48
ENDBRANCH  44  45
ENDBRANCH  42  43
ENDBRANCH  40  42
ENDBRANCH   1  40
TORSDOF 12
