REMARK  10 active torsions:
REMARK  status: ('A' for Active; 'I' for Inactive)
REMARK    1  A    between atoms: O1_2  and  C2_3 
REMARK    2  A    between atoms: C4_5  and  O2_6 
REMARK    3  A    between atoms: O2_6  and  C5_7 
REMARK    4  A    between atoms: C6_8  and  O3_9 
REMARK    5  A    between atoms: C8_11  and  O4_12 
REMARK    6  A    between atoms: O4_12  and  C9_13 
REMARK    7  A    between atoms: C20_24  and  C21_25 
REMARK    8  A    between atoms: C21_25  and  O5_27 
REMARK    9  A    between atoms: C25_30  and  O6_31 
REMARK   10  A    between atoms: C34_42  and  O9_43 
ROOT
HETATM    1  C9  UNL     1      -0.176   0.841  -0.729  1.00  0.00     0.046 C 
HETATM    2  C10 UNL     1      -0.616   0.830   0.535  1.00  0.00     0.011 C 
HETATM    3  C11 UNL     1      -1.988   0.331   0.891  1.00  0.00     0.019 C 
HETATM    4  C12 UNL     1      -2.958   1.529   0.892  1.00  0.00     0.010 C 
HETATM    5  C13 UNL     1      -4.360   1.165   1.395  1.00  0.00     0.009 C 
HETATM    6  C14 UNL     1      -4.714  -0.319   1.181  1.00  0.00     0.025 C 
HETATM    7  C15 UNL     1      -4.067  -0.781  -0.149  1.00  0.00     0.001 C 
HETATM    8  C16 UNL     1      -4.748  -2.050  -0.662  1.00  0.00     0.007 C 
HETATM    9  C17 UNL     1      -6.191  -1.738  -1.054  1.00  0.00     0.013 C 
HETATM   10  C18 UNL     1      -7.015  -1.023   0.048  1.00  0.00    -0.007 C 
HETATM   11  C19 UNL     1      -8.260  -1.909   0.324  1.00  0.00     0.019 C 
HETATM   12  C20 UNL     1      -7.417   0.431  -0.360  1.00  0.00     0.025 C 
HETATM   13  C23 UNL     1      -7.765   1.119   0.977  1.00  0.00     0.011 C 
HETATM   14  C24 UNL     1      -7.096   0.295   2.079  1.00  0.00     0.039 C 
HETATM   15  C25 UNL     1      -6.215  -0.743   1.364  1.00  0.00     0.070 C 
HETATM   16  C26 UNL     1      -2.497  -0.859  -0.013  1.00  0.00    -0.033 C 
HETATM   17  C27 UNL     1      -2.077  -2.184   0.684  1.00  0.00     0.016 C 
HETATM   18  C28 UNL     1      -1.835  -0.885  -1.438  1.00  0.00     0.016 C 
HETATM   19  C29 UNL     1      -1.054   0.367  -1.841  1.00  0.00     0.065 C 
ENDROOT
BRANCH   1  20
HETATM   20  O4  UNL     1       1.019   1.423  -1.087  1.00  0.00    -0.325 OA
BRANCH  20  21
HETATM   21  C8  UNL     1       2.161   0.580  -0.839  1.00  0.00     0.269 C 
HETATM   22  C7  UNL     1       3.355   1.299  -1.466  1.00  0.00     0.095 C 
HETATM   23  C6  UNL     1       4.669   0.593  -1.166  1.00  0.00     0.154 C 
HETATM   24  C5  UNL     1       4.814   0.259   0.333  1.00  0.00     0.182 C 
HETATM   25  C30 UNL     1       3.525  -0.428   0.821  1.00  0.00     0.152 C 
HETATM   26  O7  UNL     1       2.397   0.412   0.564  1.00  0.00    -0.353 OA
HETATM   27  C31 UNL     1       3.561  -0.689   2.325  1.00  0.00     0.042 C 
BRANCH  23  28
HETATM   28  O3  UNL     1       4.753  -0.604  -1.945  1.00  0.00    -0.393 OA
HETATM   29  H10 UNL     1       5.627  -0.987  -1.718  1.00  0.00     0.210 HD
ENDBRANCH  23  28
BRANCH  24  30
HETATM   30  O2  UNL     1       5.933  -0.600   0.606  1.00  0.00    -0.351 OA
BRANCH  30  31
HETATM   31  C4  UNL     1       7.203   0.008   0.383  1.00  0.00     0.263 C 
HETATM   32  C3  UNL     1       8.232  -0.753   1.216  1.00  0.00     0.095 C 
HETATM   33  C2  UNL     1       9.629  -0.186   0.977  1.00  0.00     0.156 C 
HETATM   34  C34 UNL     1       9.932  -0.164  -0.533  1.00  0.00     0.175 C 
HETATM   35  C32 UNL     1       8.787   0.522  -1.301  1.00  0.00     0.151 C 
HETATM   36  O8  UNL     1       7.534  -0.109  -1.000  1.00  0.00    -0.354 OA
HETATM   37  C33 UNL     1       8.994   0.441  -2.809  1.00  0.00     0.042 C 
BRANCH  33  38
HETATM   38  O1  UNL     1       9.727   1.174   1.449  1.00  0.00    -0.388 OA
HETATM   39  C1  UNL     1       9.907   1.267   2.861  1.00  0.00     0.202 C 
ENDBRANCH  33  38
BRANCH  34  40
HETATM   40  O9  UNL     1      11.168   0.519  -0.754  1.00  0.00    -0.390 OA
HETATM   41  H56 UNL     1      11.142   1.305  -0.173  1.00  0.00     0.210 HD
ENDBRANCH  34  40
ENDBRANCH  30  31
ENDBRANCH  24  30
ENDBRANCH  20  21
ENDBRANCH   1  20
BRANCH  15  42
HETATM   42  O6  UNL     1      -6.193  -1.938   2.160  1.00  0.00    -0.389 OA
HETATM   43  H39 UNL     1      -5.917  -1.691   3.059  1.00  0.00     0.210 HD
ENDBRANCH  15  42
BRANCH  12  44
HETATM   44  C21 UNL     1      -8.502   0.594  -1.444  1.00  0.00     0.119 C 
HETATM   45  C22 UNL     1      -8.601   2.037  -1.932  1.00  0.00     0.040 C 
BRANCH  44  46
HETATM   46  O5  UNL     1      -9.782   0.214  -0.951  1.00  0.00    -0.396 OA
HETATM   47  H34 UNL     1     -10.417   0.288  -1.684  1.00  0.00     0.210 HD
ENDBRANCH  44  46
ENDBRANCH  12  44
TORSDOF 10
