REMARK  11 active torsions:
REMARK  status: ('A' for Active; 'I' for Inactive)
REMARK    1  A    between atoms: C13_13  and  S1_14 
REMARK    2  A    between atoms: C22_26  and  C23_27 
REMARK    3  A    between atoms: C23_27  and  O4_28 
REMARK    4  A    between atoms: C29_34  and  O5_35 
REMARK    5  A    between atoms: C41_48  and  C42_49 
REMARK    6  A    between atoms: C41_48  and  N1_60 
REMARK    7  A    between atoms: C42_49  and  C43_50 
REMARK    8  A    between atoms: C43_50  and  C44_51 
REMARK    9  A    between atoms: C43_50  and  C45_53 
REMARK   10  A    between atoms: C44_51  and  O7_52 
REMARK   11  A    between atoms: C45_53  and  C46_54 
REMARK       I    between atoms: C52_62  and  N2_63 
REMARK       I    between atoms: C52_62  and  N3_64 
ROOT
HETATM    1  C1  UNL     1       1.424   6.217   1.409  1.00  0.00     0.010 C 
HETATM    2  C2  UNL     1       0.173   5.350   1.627  1.00  0.00    -0.010 C 
HETATM    3  C3  UNL     1       0.236   4.611   2.976  1.00  0.00     0.009 C 
HETATM    4  C4  UNL     1       0.993   3.271   2.969  1.00  0.00     0.039 C 
HETATM    5  C5  UNL     1       1.563   2.845   1.645  1.00  0.00    -0.049 C 
HETATM    6  C6  UNL     1       2.605   1.898   1.605  1.00  0.00     0.044 C 
HETATM    7  C7  UNL     1       3.181   1.525   0.390  1.00  0.00     0.073 C 
HETATM    8  C8  UNL     1       2.824   2.204  -0.770  1.00  0.00     0.037 C 
HETATM    9  C9  UNL     1       1.750   3.095  -0.746  1.00  0.00     0.011 C 
HETATM   10  C10 UNL     1       1.070   3.379   0.444  1.00  0.00    -0.047 C 
HETATM   11  C11 UNL     1      -0.086   4.362   0.447  1.00  0.00     0.024 C 
HETATM   12  C12 UNL     1      -1.502   3.729   0.622  1.00  0.00     0.033 C 
HETATM   13  C13 UNL     1      -2.297   3.059  -0.544  1.00  0.00     0.140 C 
HETATM   14  C14 UNL     1      -2.439   1.499  -0.432  1.00  0.00     0.050 C 
HETATM   15  C15 UNL     1      -3.866   1.117   0.000  1.00  0.00    -0.013 C 
HETATM   16  C16 UNL     1      -4.708   0.437  -0.808  1.00  0.00    -0.050 C 
HETATM   17  C17 UNL     1      -4.260   0.136  -2.209  1.00  0.00     0.043 C 
HETATM   18  C18 UNL     1      -2.918  -0.565  -2.037  1.00  0.00     0.013 C 
HETATM   19  C19 UNL     1      -3.018  -1.822  -1.096  1.00  0.00     0.038 C 
HETATM   20  C20 UNL     1      -4.439  -2.419  -0.877  1.00  0.00     0.123 C 
HETATM   21  C21 UNL     1      -4.338  -3.863  -0.321  1.00  0.00     0.039 C 
HETATM   22  C22 UNL     1      -5.672  -4.670  -0.411  1.00  0.00     0.023 C 
HETATM   23  C24 UNL     1      -6.481  -4.696   0.910  1.00  0.00     0.101 C 
HETATM   24  C25 UNL     1      -7.051  -3.390   1.261  1.00  0.00    -0.101 C 
HETATM   25  C26 UNL     1      -7.359  -2.248   1.470  1.00  0.00    -0.066 C 
HETATM   26  C27 UNL     1      -7.502  -0.824   1.592  1.00  0.00     0.029 A 
HETATM   27  C28 UNL     1      -8.383  -0.326   2.559  1.00  0.00     0.057 A 
HETATM   28  C29 UNL     1      -8.568   1.046   2.682  1.00  0.00     0.067 A 
HETATM   29  C30 UNL     1      -7.909   1.926   1.838  1.00  0.00     0.037 A 
HETATM   30  C31 UNL     1      -7.028   1.435   0.871  1.00  0.00     0.014 A 
HETATM   31  C32 UNL     1      -6.769   0.054   0.751  1.00  0.00    -0.006 A 
HETATM   32  C33 UNL     1      -5.820  -0.466  -0.335  1.00  0.00     0.185 C 
HETATM   33  O6  UNL     1      -5.140  -1.655   0.115  1.00  0.00    -0.371 OA
HETATM   34  C34 UNL     1      -1.895   0.542  -1.581  1.00  0.00     0.102 A 
HETATM   35  C35 UNL     1      -0.519  -0.060  -1.312  1.00  0.00     0.081 A 
HETATM   36  C36 UNL     1      -0.122  -0.509  -0.047  1.00  0.00     0.006 C 
HETATM   37  C37 UNL     1       1.207  -0.851   0.202  1.00  0.00     0.010 C 
HETATM   38  C38 UNL     1       2.181  -0.758  -0.805  1.00  0.00    -0.003 C 
HETATM   39  C39 UNL     1       1.736  -0.510  -2.114  1.00  0.00     0.010 C 
HETATM   40  C40 UNL     1       0.407  -0.144  -2.357  1.00  0.00     0.006 C 
HETATM   41  C41 UNL     1       3.687  -0.732  -0.384  1.00  0.00     0.171 C 
HETATM   42  O8  UNL     1       4.056   0.467   0.395  1.00  0.00    -0.316 OA
HETATM   43 NA1  UNL     1       0.000   0.000   0.000  1.00  0.00    -0.223 Na
ENDROOT
BRANCH  41  44
HETATM   44  C42 UNL     1       4.650  -0.709  -1.625  1.00  0.00     0.074 C 
BRANCH  44  45
HETATM   45  C43 UNL     1       6.173  -0.510  -1.357  1.00  0.00     0.018 C 
BRANCH  45  46
HETATM   46  C44 UNL     1       6.872  -0.210  -2.698  1.00  0.00     0.169 C 
BRANCH  46  47
HETATM   47  O7  UNL     1       6.787  -1.326  -3.577  1.00  0.00    -0.400 OA
HETATM   48  H47 UNL     1       7.345  -1.124  -4.349  1.00  0.00     0.209 HD
ENDBRANCH  46  47
ENDBRANCH  45  46
BRANCH  45  49
HETATM   49  C45 UNL     1       6.806  -1.726  -0.647  1.00  0.00     0.045 C 
BRANCH  49  50
HETATM   50  C46 UNL     1       8.308  -1.664  -0.465  1.00  0.00    -0.058 A 
HETATM   51  C47 UNL     1       8.893  -0.691   0.357  1.00  0.00     0.007 A 
HETATM   52  C48 UNL     1      10.276  -0.655   0.535  1.00  0.00     0.001 A 
HETATM   53  C49 UNL     1      11.089  -1.593  -0.099  1.00  0.00     0.000 A 
HETATM   54  C50 UNL     1      10.517  -2.567  -0.917  1.00  0.00     0.001 A 
HETATM   55  C51 UNL     1       9.135  -2.602  -1.100  1.00  0.00     0.007 A 
ENDBRANCH  49  50
ENDBRANCH  45  49
ENDBRANCH  44  45
ENDBRANCH  41  44
BRANCH  41  56
HETATM   56  N1  UNL     1       3.949  -2.051   0.249  1.00  0.00    -0.336 N 
HETATM   57  C52 UNL     1       4.025  -2.198   1.511  1.00  0.00     0.124 C 
HETATM   58  N2  UNL     1       3.987  -1.293   2.521  1.00  0.00    -0.279 NA
HETATM   59  N3  UNL     1       4.257  -3.438   2.003  1.00  0.00    -0.279 NA
HETATM   60  H55 UNL     1       4.927  -1.171   2.884  1.00  0.00     0.126 HD
HETATM   61  H56 UNL     1       3.473  -1.646   3.317  1.00  0.00     0.126 HD
HETATM   62  H57 UNL     1       4.235  -4.093   1.220  1.00  0.00     0.126 HD
HETATM   63  H58 UNL     1       3.579  -3.734   2.694  1.00  0.00     0.126 HD
ATOM     64  H1  UNL     1       4.072  -2.868  -0.349  1.00  0.00     0.165 HD
ENDBRANCH  41  56
BRANCH  13  65
HETATM   65  S1  UNL     1      -2.090   3.806  -2.147  1.00  0.00     0.106 S 
HETATM   66  O1  UNL     1      -3.195   3.269  -2.934  1.00  0.00    -0.595 OA
HETATM   67  O2  UNL     1      -2.211   5.237  -1.867  1.00  0.00    -0.595 OA
HETATM   68  O3  UNL     1      -0.769   3.392  -2.601  1.00  0.00    -0.595 OA
ENDBRANCH  13  65
BRANCH  22  69
HETATM   69  C23 UNL     1      -5.344  -6.117  -0.837  1.00  0.00     0.169 C 
BRANCH  69  70
HETATM   70  O4  UNL     1      -6.517  -6.842  -1.178  1.00  0.00    -0.400 OA
HETATM   71  H29 UNL     1      -6.924  -7.167  -0.358  1.00  0.00     0.209 HD
ENDBRANCH  69  70
ENDBRANCH  22  69
BRANCH  28  72
HETATM   72  O5  UNL     1      -9.398   1.568   3.628  1.00  0.00    -0.361 OA
HETATM   73  H33 UNL     1      -9.697   0.849   4.207  1.00  0.00     0.217 HD
ENDBRANCH  28  72
TORSDOF 11
