REMARK  8 active torsions:
REMARK  status: ('A' for Active; 'I' for Inactive)
REMARK    1  A    between atoms: C2_2  and  C3_3 
REMARK    2  A    between atoms: C2_2  and  C27_30 
REMARK    3  A    between atoms: C3_3  and  C4_4 
REMARK    4  A    between atoms: C4_4  and  C5_5 
REMARK    5  A    between atoms: C5_5  and  C7_7 
REMARK    6  A    between atoms: C26_28  and  O3_29 
REMARK    7  A    between atoms: C27_30  and  C29_32 
REMARK    8  A    between atoms: C29_32  and  O5_34 
ROOT
HETATM    1  C7  UNL     1       1.976   0.859   0.939  1.00  0.00    -0.002 C 
HETATM    2  C8  UNL     1       1.707   0.580   2.442  1.00  0.00     0.006 C 
HETATM    3  C9  UNL     1       0.224   0.208   2.557  1.00  0.00     0.010 C 
HETATM    4  C10 UNL     1      -0.227  -0.018   1.111  1.00  0.00     0.027 C 
HETATM    5  C11 UNL     1      -1.689  -0.124   0.714  1.00  0.00    -0.036 C 
HETATM    6  C12 UNL     1      -2.072   0.111  -0.568  1.00  0.00     0.002 C 
HETATM    7  C13 UNL     1      -1.043   0.640  -1.553  1.00  0.00     0.157 C 
HETATM    8  O1  UNL     1      -1.367   0.955  -2.698  1.00  0.00    -0.293 OA
HETATM    9  C14 UNL     1       0.414   0.754  -1.139  1.00  0.00     0.093 C 
HETATM   10  C15 UNL     1       0.552   1.084   0.344  1.00  0.00    -0.026 C 
HETATM   11  C16 UNL     1      -0.006   2.499   0.618  1.00  0.00     0.016 C 
HETATM   12  C17 UNL     1      -3.509  -0.129  -1.086  1.00  0.00    -0.008 C 
HETATM   13  C18 UNL     1      -4.183   1.265  -1.184  1.00  0.00     0.021 C 
HETATM   14  C19 UNL     1      -3.528  -0.808  -2.497  1.00  0.00     0.022 C 
HETATM   15  C20 UNL     1      -4.688  -1.764  -2.771  1.00  0.00     0.080 C 
HETATM   16  C21 UNL     1      -5.926  -1.386  -2.004  1.00  0.00     0.131 C 
HETATM   17  O2  UNL     1      -7.020  -1.282  -2.558  1.00  0.00    -0.298 OA
HETATM   18  C22 UNL     1      -5.779  -1.228  -0.499  1.00  0.00     0.056 C 
HETATM   19  C23 UNL     1      -6.456  -2.421   0.178  1.00  0.00     0.018 C 
HETATM   20  C24 UNL     1      -4.286  -1.086  -0.113  1.00  0.00     0.012 C 
HETATM   21  C25 UNL     1      -4.123  -0.640   1.339  1.00  0.00     0.042 C 
HETATM   22  C26 UNL     1      -2.655  -0.621   1.764  1.00  0.00     0.148 C 
ENDROOT
BRANCH   1  23
HETATM   23  C5  UNL     1       3.168   1.830   0.706  1.00  0.00    -0.014 C 
HETATM   24  C6  UNL     1       2.980   3.262   1.230  1.00  0.00     0.010 C 
BRANCH  23  25
HETATM   25  C4  UNL     1       3.657   1.908  -0.757  1.00  0.00     0.009 C 
BRANCH  25  26
HETATM   26  C3  UNL     1       4.096   0.594  -1.421  1.00  0.00     0.034 C 
BRANCH  26  27
HETATM   27  C2  UNL     1       5.350  -0.039  -0.838  1.00  0.00    -0.075 C 
HETATM   28  C1  UNL     1       6.555   0.364  -1.286  1.00  0.00     0.015 C 
BRANCH  27  29
HETATM   29  C27 UNL     1       5.158  -1.135   0.210  1.00  0.00     0.107 C 
HETATM   30  C28 UNL     1       6.410  -1.590   0.969  1.00  0.00     0.026 C 
BRANCH  29  31
HETATM   31  C29 UNL     1       4.457  -2.341  -0.403  1.00  0.00     0.147 C 
HETATM   32  O4  UNL     1       3.259  -2.580  -0.328  1.00  0.00    -0.650 OA
BRANCH  31  33
HETATM   33  O5  UNL     1       5.264  -3.154  -1.113  1.00  0.00    -0.776 OA
HETATM   34  H42 UNL     1       4.662  -3.843  -1.465  1.00  0.00     0.167 HD
ENDBRANCH  31  33
ENDBRANCH  29  31
ENDBRANCH  27  29
ENDBRANCH  26  27
ENDBRANCH  25  26
ENDBRANCH  23  25
ENDBRANCH   1  23
BRANCH  22  35
HETATM   35  O3  UNL     1      -2.589   0.219   2.909  1.00  0.00    -0.391 OA
HETATM   36  H37 UNL     1      -2.989  -0.272   3.648  1.00  0.00     0.210 HD
ENDBRANCH  22  35
TORSDOF 8
