REMARK  9 active torsions:
REMARK  status: ('A' for Active; 'I' for Inactive)
REMARK    1  A    between atoms: C2_2  and  C33_38 
REMARK    2  A    between atoms: C3_3  and  C4_4 
REMARK    3  A    between atoms: C4_4  and  O1_5 
REMARK    4  A    between atoms: C4_4  and  C5_6 
REMARK    5  A    between atoms: C5_6  and  C6_7 
REMARK    6  A    between atoms: C6_7  and  C8_9 
REMARK    7  A    between atoms: C10_11  and  O2_12 
REMARK    8  A    between atoms: C32_36  and  O5_37 
REMARK    9  A    between atoms: C33_38  and  O7_40 
ROOT
HETATM    1  C8  UNL     1       2.225   0.679  -1.009  1.00  0.00     0.002 C 
HETATM    2  C9  UNL     1       1.840   0.461  -2.492  1.00  0.00     0.038 C 
HETATM    3  C10 UNL     1       0.304   0.639  -2.566  1.00  0.00     0.132 C 
HETATM    4  C11 UNL     1      -0.108   1.271  -1.197  1.00  0.00     0.017 C 
HETATM    5  C12 UNL     1       0.106   2.818  -1.252  1.00  0.00     0.023 C 
HETATM    6  C13 UNL     1      -1.539   1.074  -0.674  1.00  0.00    -0.029 C 
HETATM    7  C14 UNL     1      -1.773   0.949   0.660  1.00  0.00     0.003 C 
HETATM    8  C15 UNL     1      -0.599   1.171   1.627  1.00  0.00     0.157 C 
HETATM    9  O3  UNL     1      -0.781   1.356   2.829  1.00  0.00    -0.293 OA
HETATM   10  C16 UNL     1       0.833   1.128   1.115  1.00  0.00     0.094 C 
HETATM   11  C17 UNL     1       0.882   0.455  -0.248  1.00  0.00    -0.016 C 
HETATM   12  C18 UNL     1       0.449  -1.085  -0.202  1.00  0.00     0.011 C 
HETATM   13  C19 UNL     1       0.291  -1.794   1.163  1.00  0.00     0.001 C 
HETATM   14  C20 UNL     1      -0.930  -2.723   1.255  1.00  0.00     0.000 C 
HETATM   15  C21 UNL     1      -2.303  -2.090   0.978  1.00  0.00     0.001 C 
HETATM   16  C22 UNL     1      -2.748  -0.959   1.937  1.00  0.00     0.015 C 
HETATM   17  C23 UNL     1      -3.113   0.434   1.262  1.00  0.00    -0.004 C 
HETATM   18  C24 UNL     1      -3.651   1.407   2.366  1.00  0.00     0.022 C 
HETATM   19  C25 UNL     1      -4.680   2.414   1.883  1.00  0.00     0.080 C 
HETATM   20  C26 UNL     1      -5.919   1.712   1.388  1.00  0.00     0.135 C 
HETATM   21  O4  UNL     1      -7.028   2.229   1.534  1.00  0.00    -0.297 OA
HETATM   22  C27 UNL     1      -5.741   0.354   0.706  1.00  0.00     0.018 C 
HETATM   23  C28 UNL     1      -6.772   0.253  -0.443  1.00  0.00     0.023 C 
HETATM   24  C29 UNL     1      -6.118  -0.739   1.725  1.00  0.00     0.023 C 
HETATM   25  C30 UNL     1      -4.261   0.199   0.172  1.00  0.00     0.017 C 
HETATM   26  C31 UNL     1      -4.029   1.067  -1.081  1.00  0.00     0.043 C 
HETATM   27  C32 UNL     1      -2.641   0.915  -1.688  1.00  0.00     0.149 C 
ENDROOT
BRANCH   1  28
HETATM   28  C6  UNL     1       3.573   0.069  -0.523  1.00  0.00    -0.011 C 
HETATM   29  C7  UNL     1       4.719   0.715  -1.326  1.00  0.00     0.010 C 
BRANCH  28  30
HETATM   30  C5  UNL     1       3.695  -1.467  -0.558  1.00  0.00     0.040 C 
BRANCH  30  31
HETATM   31  C4  UNL     1       5.057  -2.058  -0.140  1.00  0.00     0.142 C 
BRANCH  31  32
HETATM   32  C3  UNL     1       5.424  -1.719   1.272  1.00  0.00     0.018 C 
HETATM   33  C2  UNL     1       6.572  -1.174   1.726  1.00  0.00     0.010 C 
HETATM   34  C1  UNL     1       7.772  -0.820   0.902  1.00  0.00     0.055 C 
BRANCH  33  35
HETATM   35  C33 UNL     1       6.642  -0.920   3.189  1.00  0.00     0.171 C 
HETATM   36  O6  UNL     1       5.771  -1.142   4.012  1.00  0.00    -0.646 OA
BRANCH  35  37
HETATM   37  O7  UNL     1       7.812  -0.373   3.557  1.00  0.00    -0.773 OA
HETATM   38  H48 UNL     1       7.715  -0.264   4.526  1.00  0.00     0.167 HD
ENDBRANCH  35  37
ENDBRANCH  33  35
ENDBRANCH  31  32
BRANCH  31  39
HETATM   39  O1  UNL     1       4.956  -3.480  -0.187  1.00  0.00    -0.392 OA
HETATM   40  H6  UNL     1       4.804  -3.732  -1.113  1.00  0.00     0.210 HD
ENDBRANCH  31  39
ENDBRANCH  30  31
ENDBRANCH  28  30
ENDBRANCH   1  28
BRANCH   3  41
HETATM   41  O2  UNL     1      -0.083   1.438  -3.675  1.00  0.00    -0.394 OA
HETATM   42  H17 UNL     1       0.364   1.084  -4.466  1.00  0.00     0.210 HD
ENDBRANCH   3  41
BRANCH  27  43
HETATM   43  O5  UNL     1      -2.573   1.916  -2.696  1.00  0.00    -0.391 OA
HETATM   44  H47 UNL     1      -1.725   1.823  -3.176  1.00  0.00     0.210 HD
ENDBRANCH  27  43
TORSDOF 9
