REMARK  10 active torsions:
REMARK  status: ('A' for Active; 'I' for Inactive)
REMARK    1  A    between atoms: O1_2  and  C2_3 
REMARK    2  A    between atoms: C4_5  and  O2_6 
REMARK    3  A    between atoms: O2_6  and  C5_7 
REMARK    4  A    between atoms: C8_10  and  C9_11 
REMARK    5  A    between atoms: N1_12  and  C10_14 
REMARK    6  A    between atoms: C10_14  and  C11_15 
REMARK    7  A    between atoms: C21_27  and  C22_28 
REMARK    8  A    between atoms: C28_36  and  O5_37 
REMARK    9  A    between atoms: C32_41  and  O6_42 
REMARK   10  A    between atoms: C36_47  and  O8_48 
ROOT
HETATM    1  C5  UNL     1      -2.580   0.840  -0.671  1.00  0.00     0.127 C 
HETATM    2  C6  UNL     1      -1.456   1.247  -1.635  1.00  0.00     0.033 C 
HETATM    3  C7  UNL     1       0.007   0.987  -1.261  1.00  0.00     0.021 C 
HETATM    4  C8  UNL     1       0.319   0.375   0.137  1.00  0.00     0.026 C 
HETATM    5  C16 UNL     1       1.735  -0.344   0.034  1.00  0.00     0.009 C 
HETATM    6  C17 UNL     1       2.839   0.148   0.988  1.00  0.00     0.007 C 
HETATM    7  C18 UNL     1       4.203  -0.431   0.593  1.00  0.00     0.013 C 
HETATM    8  C19 UNL     1       4.231  -1.982   0.590  1.00  0.00    -0.005 C 
HETATM    9  C20 UNL     1       4.251  -2.492   2.052  1.00  0.00     0.019 C 
HETATM   10  C21 UNL     1       5.441  -2.548  -0.220  1.00  0.00     0.028 C 
HETATM   11  C26 UNL     1       5.012  -2.393  -1.690  1.00  0.00     0.013 C 
HETATM   12  C27 UNL     1       3.478  -2.455  -1.701  1.00  0.00     0.040 C 
HETATM   13  C28 UNL     1       3.034  -2.564  -0.226  1.00  0.00     0.070 C 
HETATM   14  C29 UNL     1       1.666  -1.895   0.101  1.00  0.00     0.026 C 
HETATM   15  C30 UNL     1       0.508  -2.414  -0.768  1.00  0.00     0.011 C 
HETATM   16  C31 UNL     1      -0.860  -1.827  -0.402  1.00  0.00     0.039 C 
HETATM   17  C32 UNL     1      -0.808  -0.605   0.535  1.00  0.00     0.073 C 
HETATM   18  C33 UNL     1      -2.165   0.108   0.602  1.00  0.00     0.071 C 
ENDROOT
BRANCH   1  19
HETATM   19  O2  UNL     1      -3.456  -0.016  -1.424  1.00  0.00    -0.356 OA
BRANCH  19  20
HETATM   20  C4  UNL     1      -4.852   0.242  -1.224  1.00  0.00     0.263 C 
HETATM   21  C3  UNL     1      -5.620  -0.674  -2.187  1.00  0.00     0.095 C 
HETATM   22  C2  UNL     1      -7.088  -0.867  -1.790  1.00  0.00     0.156 C 
HETATM   23  C36 UNL     1      -7.528   0.284  -0.868  1.00  0.00     0.175 C 
HETATM   24  C34 UNL     1      -6.631   0.307   0.389  1.00  0.00     0.151 C 
HETATM   25  O7  UNL     1      -5.247   0.015   0.117  1.00  0.00    -0.354 OA
HETATM   26  C35 UNL     1      -6.707   1.659   1.106  1.00  0.00     0.042 C 
BRANCH  22  27
HETATM   27  O1  UNL     1      -7.179  -2.137  -1.128  1.00  0.00    -0.388 OA
HETATM   28  C1  UNL     1      -8.389  -2.832  -1.407  1.00  0.00     0.202 C 
ENDBRANCH  22  27
BRANCH  23  29
HETATM   29  O8  UNL     1      -8.914   0.192  -0.544  1.00  0.00    -0.390 OA
HETATM   30  H50 UNL     1      -9.198   1.026  -0.130  1.00  0.00     0.210 HD
ENDBRANCH  23  29
ENDBRANCH  19  20
ENDBRANCH   1  19
BRANCH  17  31
HETATM   31  O6  UNL     1      -0.545  -1.098   1.864  1.00  0.00    -0.389 OA
HETATM   32  H42 UNL     1      -1.308  -1.648   2.135  1.00  0.00     0.210 HD
ENDBRANCH  17  31
BRANCH   4  33
HETATM   33  C9  UNL     1       0.365   1.477   1.206  1.00  0.00     0.069 C 
HETATM   34  N1  UNL     1       0.025   2.695   0.964  1.00  0.00    -0.397 N 
ATOM     35  H1  UNL     1      -0.308   3.001   0.050  1.00  0.00     0.159 HD
BRANCH  34  36
HETATM   36  C10 UNL     1       0.154   3.610   2.108  1.00  0.00     0.158 C 
BRANCH  36  37
HETATM   37  C11 UNL     1       0.908   4.850   1.721  1.00  0.00    -0.025 A 
HETATM   38  C12 UNL     1       2.299   4.821   1.565  1.00  0.00     0.011 A 
HETATM   39  C13 UNL     1       2.977   5.975   1.194  1.00  0.00     0.018 A 
HETATM   40  C14 UNL     1       2.242   7.136   1.004  1.00  0.00     0.087 A 
HETATM   41  N2  UNL     1       0.900   7.202   1.139  1.00  0.00    -0.375 N 
HETATM   42  C15 UNL     1       0.266   6.058   1.482  1.00  0.00     0.096 A 
ATOM     43  H2  UNL     1       0.390   8.072   0.990  1.00  0.00     0.164 HD
ENDBRANCH  36  37
ENDBRANCH  34  36
ENDBRANCH   4  33
BRANCH  13  44
HETATM   44  O5  UNL     1       2.942  -3.966   0.075  1.00  0.00    -0.389 OA
HETATM   45  H36 UNL     1       2.284  -4.384  -0.507  1.00  0.00     0.210 HD
ENDBRANCH  13  44
BRANCH  10  46
HETATM   46  C22 UNL     1       6.802  -2.002   0.114  1.00  0.00    -0.045 A 
HETATM   47  C23 UNL     1       7.464  -0.975  -0.413  1.00  0.00     0.087 A 
HETATM   48  C24 UNL     1       8.785  -0.939   0.216  1.00  0.00     0.283 A 
HETATM   49  O3  UNL     1       9.660  -0.130  -0.052  1.00  0.00    -0.260 OA
HETATM   50  O4  UNL     1       8.883  -1.951   1.115  1.00  0.00    -0.314 OA
HETATM   51  C25 UNL     1       7.650  -2.677   1.136  1.00  0.00     0.213 A 
ENDBRANCH  10  46
TORSDOF 10
