REMARK  11 active torsions:
REMARK  status: ('A' for Active; 'I' for Inactive)
REMARK    1  A    between atoms: C2_2  and  C4_4 
REMARK    2  A    between atoms: C12_13  and  C13_14 
REMARK    3  A    between atoms: C13_14  and  C15_16 
REMARK    4  A    between atoms: C15_16  and  C16_17 
REMARK    5  A    between atoms: C16_17  and  C17_18 
REMARK    6  A    between atoms: C18_19  and  C20_21 
REMARK    7  A    between atoms: C20_21  and  O3_23 
REMARK    8  A    between atoms: C27_30  and  C28_31 
REMARK    9  A    between atoms: C28_31  and  C29_32 
REMARK   10  A    between atoms: C29_32  and  C30_33 
REMARK   11  A    between atoms: C30_33  and  O5_35 
ROOT
HETATM    1  C4  UNL     1      -4.625  -0.865  -0.157  1.00  0.00     0.054 C 
HETATM    2  C5  UNL     1      -4.174  -1.717   1.000  1.00  0.00     0.160 A 
HETATM    3  O1  UNL     1      -3.656  -1.025   2.145  1.00  0.00    -0.374 OA
HETATM    4  C6  UNL     1      -2.733  -1.827   1.396  1.00  0.00     0.157 A 
HETATM    5  C7  UNL     1      -1.658  -1.113   0.623  1.00  0.00     0.035 C 
HETATM    6  C8  UNL     1      -0.408  -0.724   1.504  1.00  0.00    -0.029 C 
HETATM    7  C9  UNL     1      -0.828  -0.065   2.839  1.00  0.00     0.016 C 
HETATM    8  C10 UNL     1       0.389  -2.025   1.868  1.00  0.00     0.011 C 
HETATM    9  C11 UNL     1       1.766  -1.914   1.228  1.00  0.00     0.006 C 
HETATM   10  C12 UNL     1       2.019  -0.412   1.163  1.00  0.00    -0.002 C 
HETATM   11  C21 UNL     1       0.642   0.171   0.699  1.00  0.00    -0.032 C 
HETATM   12  C22 UNL     1       0.599   1.679   1.044  1.00  0.00     0.016 C 
HETATM   13  C23 UNL     1       0.397   0.022  -0.819  1.00  0.00     0.011 C 
HETATM   14  C24 UNL     1      -1.005   0.458  -1.259  1.00  0.00     0.011 C 
HETATM   15  C25 UNL     1      -2.102   0.042  -0.281  1.00  0.00    -0.024 A 
HETATM   16  C26 UNL     1      -2.962   1.156   0.272  1.00  0.00     0.022 A 
HETATM   17  C27 UNL     1      -3.601   0.174  -0.696  1.00  0.00    -0.021 A 
ENDROOT
BRANCH  10  18
HETATM   18  C13 UNL     1       3.305   0.017   0.393  1.00  0.00    -0.014 C 
HETATM   19  C14 UNL     1       3.641  -0.855  -0.821  1.00  0.00     0.010 C 
BRANCH  18  20
HETATM   20  C15 UNL     1       4.493   0.061   1.395  1.00  0.00     0.008 C 
BRANCH  20  21
HETATM   21  C16 UNL     1       5.815   0.623   0.844  1.00  0.00     0.028 C 
BRANCH  21  22
HETATM   22  C17 UNL     1       6.680  -0.412   0.175  1.00  0.00    -0.013 C 
HETATM   23  C18 UNL     1       7.409  -0.281  -0.952  1.00  0.00     0.008 C 
HETATM   24  C19 UNL     1       8.167  -1.431  -1.547  1.00  0.00     0.055 C 
BRANCH  23  25
HETATM   25  C20 UNL     1       7.526   0.975  -1.726  1.00  0.00     0.171 C 
HETATM   26  O2  UNL     1       7.589   1.053  -2.940  1.00  0.00    -0.646 OA
BRANCH  25  27
HETATM   27  O3  UNL     1       7.661   2.061  -0.948  1.00  0.00    -0.773 OA
HETATM   28  H30 UNL     1       7.775   2.792  -1.589  1.00  0.00     0.167 HD
ENDBRANCH  25  27
ENDBRANCH  23  25
ENDBRANCH  21  22
ENDBRANCH  20  21
ENDBRANCH  18  20
ENDBRANCH  10  18
BRANCH  17  29
HETATM   29  C28 UNL     1      -3.928   0.602  -2.142  1.00  0.00     0.021 C 
BRANCH  29  30
HETATM   30  C29 UNL     1      -3.977   2.098  -2.428  1.00  0.00     0.111 C 
BRANCH  30  31
HETATM   31  C30 UNL     1      -5.104   2.792  -1.719  1.00  0.00     0.139 C 
HETATM   32  O4  UNL     1      -4.995   3.702  -0.914  1.00  0.00    -0.650 OA
BRANCH  31  33
HETATM   33  O5  UNL     1      -6.319   2.348  -2.094  1.00  0.00    -0.776 OA
HETATM   34  H44 UNL     1      -6.934   2.851  -1.522  1.00  0.00     0.167 HD
ENDBRANCH  31  33
ENDBRANCH  30  31
ENDBRANCH  29  30
ENDBRANCH  17  29
BRANCH   1  35
HETATM   35  C2  UNL     1      -6.042  -0.317   0.060  1.00  0.00    -0.086 C 
HETATM   36  C1  UNL     1      -6.327   0.669   0.927  1.00  0.00     0.014 C 
HETATM   37  C3  UNL     1      -7.132  -0.975  -0.743  1.00  0.00     0.043 C 
ENDBRANCH   1  35
TORSDOF 11
