REMARK  20 active torsions:
REMARK  status: ('A' for Active; 'I' for Inactive)
REMARK    1  A    between atoms: C2_2  and  O2_4 
REMARK    2  A    between atoms: O2_4  and  C3_5 
REMARK    3  A    between atoms: C5_7  and  O3_8 
REMARK    4  A    between atoms: C11_14  and  O4_15 
REMARK    5  A    between atoms: O4_15  and  C12_16 
REMARK    6  A    between atoms: C12_16  and  C13_18 
REMARK    7  A    between atoms: C13_18  and  C14_19 
REMARK    8  A    between atoms: C14_19  and  C15_20 
REMARK    9  A    between atoms: C15_20  and  C16_21 
REMARK   10  A    between atoms: C16_21  and  C17_22 
REMARK   11  A    between atoms: C17_22  and  C18_23 
REMARK   12  A    between atoms: C18_23  and  C19_24 
REMARK       I    between atoms: C19_24  and  N1_26 
REMARK   13  A    between atoms: N1_26  and  C20_27 
REMARK   14  A    between atoms: C20_27  and  C21_28 
REMARK   15  A    between atoms: C20_27  and  C25_36 
REMARK   16  A    between atoms: C21_28  and  C22_29 
REMARK   17  A    between atoms: C22_29  and  C23_30 
REMARK   18  A    between atoms: C23_30  and  N2_31 
REMARK       I    between atoms: C24_33  and  N3_34 
REMARK       I    between atoms: C24_33  and  N4_35 
REMARK   19  A    between atoms: C25_36  and  O8_38 
REMARK   20  A    between atoms: C35_48  and  C36_49 
ROOT
HETATM    1  C3  UNL     1      -8.888   0.746  -1.283  1.00  0.00     0.144 C 
HETATM    2  C4  UNL     1      -7.460   1.279  -1.217  1.00  0.00     0.072 C 
HETATM    3  C5  UNL     1      -6.728   0.477  -0.099  1.00  0.00     0.072 C 
HETATM    4  C6  UNL     1      -5.343  -0.031  -0.651  1.00  0.00     0.026 C 
HETATM    5  C7  UNL     1      -4.417   1.116  -1.067  1.00  0.00     0.008 C 
HETATM    6  C8  UNL     1      -3.701   1.790   0.088  1.00  0.00     0.006 C 
HETATM    7  C9  UNL     1      -3.185   0.854   1.202  1.00  0.00    -0.004 C 
HETATM    8  C10 UNL     1      -1.776   1.318   1.640  1.00  0.00     0.038 C 
HETATM    9  C11 UNL     1      -0.718   1.001   0.582  1.00  0.00     0.132 C 
HETATM   10  C26 UNL     1      -0.694  -0.492   0.258  1.00  0.00     0.033 C 
HETATM   11  C27 UNL     1      -2.071  -1.015  -0.149  1.00  0.00     0.012 C 
HETATM   12  C28 UNL     1      -3.217  -0.664   0.855  1.00  0.00    -0.036 C 
HETATM   13  C29 UNL     1      -2.929  -1.481   2.148  1.00  0.00     0.016 C 
HETATM   14  C30 UNL     1      -4.606  -1.090   0.226  1.00  0.00     0.001 C 
HETATM   15  C31 UNL     1      -5.593  -1.766   1.194  1.00  0.00     0.007 C 
HETATM   16  C32 UNL     1      -6.947  -2.000   0.526  1.00  0.00     0.013 C 
HETATM   17  C33 UNL     1      -7.717  -0.675   0.329  1.00  0.00    -0.002 C 
HETATM   18  C34 UNL     1      -8.447  -0.383   1.669  1.00  0.00     0.019 C 
HETATM   19  C35 UNL     1      -8.726  -0.742  -0.871  1.00  0.00     0.059 C 
ENDROOT
BRANCH   9  20
HETATM   20  O4  UNL     1       0.573   1.385   1.094  1.00  0.00    -0.316 OA
BRANCH  20  21
HETATM   21  C12 UNL     1       1.444   1.866   0.160  1.00  0.00     0.259 C 
HETATM   22  O5  UNL     1       1.198   2.037  -1.027  1.00  0.00    -0.265 OA
BRANCH  21  23
HETATM   23  C13 UNL     1       2.810   2.078   0.763  1.00  0.00     0.111 C 
BRANCH  23  24
HETATM   24  C14 UNL     1       3.634   0.794   0.756  1.00  0.00     0.010 C 
BRANCH  24  25
HETATM   25  C15 UNL     1       3.782   0.105  -0.606  1.00  0.00     0.000 C 
BRANCH  25  26
HETATM   26  C16 UNL     1       4.378   0.961  -1.727  1.00  0.00     0.000 C 
BRANCH  26  27
HETATM   27  C17 UNL     1       5.778   1.517  -1.467  1.00  0.00     0.009 C 
BRANCH  27  28
HETATM   28  C18 UNL     1       6.811   0.430  -1.183  1.00  0.00     0.103 C 
BRANCH  28  29
HETATM   29  C19 UNL     1       8.231   0.968  -1.183  1.00  0.00     0.218 C 
HETATM   30  O6  UNL     1       8.522   2.133  -1.426  1.00  0.00    -0.274 OA
HETATM   31  N1  UNL     1       9.164  -0.017  -0.932  1.00  0.00    -0.347 N 
HETATM   32  H29 UNL     1       8.839  -0.804  -0.381  1.00  0.00     0.163 HD
BRANCH  31  33
HETATM   33  C20 UNL     1      10.591   0.311  -0.782  1.00  0.00     0.182 C 
BRANCH  33  34
HETATM   34  C21 UNL     1      11.405  -0.867  -1.334  1.00  0.00     0.038 C 
BRANCH  34  35
HETATM   35  C22 UNL     1      12.741  -0.476  -1.978  1.00  0.00     0.022 C 
BRANCH  35  36
HETATM   36  C23 UNL     1      13.915  -0.316  -1.015  1.00  0.00     0.121 C 
BRANCH  36  37
HETATM   37  N2  UNL     1      14.098  -1.568  -0.290  1.00  0.00    -0.372 N 
HETATM   38  C24 UNL     1      15.238  -1.829   0.226  1.00  0.00     0.121 C 
HETATM   39  N3  UNL     1      15.435  -3.009   0.857  1.00  0.00    -0.279 NA
HETATM   40  N4  UNL     1      16.380  -1.104   0.249  1.00  0.00    -0.279 NA
HETATM   41  H37 UNL     1      14.636  -3.615   0.704  1.00  0.00     0.126 HD
HETATM   42  H38 UNL     1      16.290  -3.460   0.551  1.00  0.00     0.126 HD
HETATM   43  H39 UNL     1      16.245  -0.123   0.024  1.00  0.00     0.126 HD
HETATM   44  H40 UNL     1      16.856  -1.201   1.140  1.00  0.00     0.126 HD
ATOM     45  H2  UNL     1      13.326  -2.228  -0.196  1.00  0.00     0.161 HD
ENDBRANCH  36  37
ENDBRANCH  35  36
ENDBRANCH  34  35
ENDBRANCH  33  34
BRANCH  33  46
HETATM   46  C25 UNL     1      10.896   0.587   0.698  1.00  0.00     0.163 C 
HETATM   47  O7  UNL     1      11.906   1.105   1.149  1.00  0.00    -0.648 OA
BRANCH  46  48
HETATM   48  O8  UNL     1       9.943   0.135   1.547  1.00  0.00    -0.775 OA
HETATM   49  H41 UNL     1      10.318   0.364   2.427  1.00  0.00     0.167 HD
ENDBRANCH  46  48
ENDBRANCH  33  46
ENDBRANCH  31  33
ENDBRANCH  28  29
ENDBRANCH  27  28
ENDBRANCH  26  27
ENDBRANCH  25  26
ENDBRANCH  24  25
ENDBRANCH  23  24
ENDBRANCH  21  23
ENDBRANCH  20  21
ENDBRANCH   9  20
BRANCH   3  50
HETATM   50  O3  UNL     1      -6.468   1.341   1.007  1.00  0.00    -0.389 OA
HETATM   51  H7  UNL     1      -7.266   1.872   1.183  1.00  0.00     0.210 HD
ENDBRANCH   3  50
BRANCH   1  52
HETATM   52  O2  UNL     1      -9.703   1.492  -0.364  1.00  0.00    -0.316 OA
BRANCH  52  53
HETATM   53  C2  UNL     1     -10.225   2.658  -0.850  1.00  0.00     0.255 C 
HETATM   54  C1  UNL     1     -11.103   3.291   0.185  1.00  0.00     0.126 C 
HETATM   55  O1  UNL     1     -10.016   3.118  -1.964  1.00  0.00    -0.266 OA
ENDBRANCH  52  53
ENDBRANCH   1  52
BRANCH  19  56
HETATM   56  C36 UNL     1     -10.004  -1.571  -0.704  1.00  0.00    -0.043 A 
HETATM   57  C37 UNL     1     -11.251  -1.078  -0.688  1.00  0.00     0.090 A 
HETATM   58  C38 UNL     1     -12.453  -1.934  -0.573  1.00  0.00     0.287 A 
HETATM   59  O9  UNL     1     -13.567  -1.429  -0.571  1.00  0.00    -0.260 OA
HETATM   60  O10 UNL     1     -12.256  -3.284  -0.491  1.00  0.00    -0.288 OA
HETATM   61  C39 UNL     1     -10.954  -3.780  -0.551  1.00  0.00     0.146 A 
HETATM   62  C40 UNL     1      -9.867  -3.013  -0.663  1.00  0.00     0.032 A 
ENDBRANCH  19  56
TORSDOF 20
