REMARK  21 active torsions:
REMARK  status: ('A' for Active; 'I' for Inactive)
REMARK    1  A    between atoms: C2_2  and  C3_3 
REMARK    2  A    between atoms: C2_2  and  C29_36 
REMARK    3  A    between atoms: C4_4  and  C5_5 
REMARK    4  A    between atoms: C6_6  and  C7_7 
REMARK    5  A    between atoms: C6_6  and  C10_12 
REMARK    6  A    between atoms: C7_7  and  O1_8 
REMARK    7  A    between atoms: O1_8  and  C8_9 
REMARK    8  A    between atoms: C8_9  and  C9_10 
REMARK    9  A    between atoms: C9_10  and  O2_11 
REMARK   10  A    between atoms: C14_16  and  O3_17 
REMARK   11  A    between atoms: C15_18  and  C16_19 
REMARK   12  A    between atoms: C16_19  and  C17_20 
REMARK   13  A    between atoms: C17_20  and  C18_21 
REMARK   14  A    between atoms: C18_21  and  O4_22 
REMARK   15  A    between atoms: C20_24  and  C22_26 
REMARK   16  A    between atoms: C25_30  and  O6_31 
REMARK   17  A    between atoms: C25_30  and  C26_32 
REMARK   18  A    between atoms: C26_32  and  C27_33 
REMARK   19  A    between atoms: C27_33  and  N1_34 
REMARK   20  A    between atoms: C29_36  and  C30_37 
REMARK   21  A    between atoms: C30_37  and  C31_38 
ROOT
HETATM    1  C10 UNL     1      -0.612   1.923   1.167  1.00  0.00     0.046 C 
HETATM    2  C11 UNL     1      -1.342   1.629   2.487  1.00  0.00     0.013 C 
HETATM    3  C12 UNL     1      -2.086   0.299   2.295  1.00  0.00     0.017 C 
HETATM    4  C13 UNL     1      -1.463  -0.422   1.054  1.00  0.00     0.025 C 
HETATM    5  C14 UNL     1      -0.223   0.489   0.749  1.00  0.00     0.138 C 
HETATM    6  C15 UNL     1      -2.546  -0.413  -0.136  1.00  0.00     0.029 C 
HETATM    7  C19 UNL     1      -2.143  -1.431  -1.209  1.00  0.00    -0.066 C 
HETATM    8  C20 UNL     1      -1.569  -1.257  -2.428  1.00  0.00    -0.021 C 
HETATM    9  C21 UNL     1      -1.359  -2.367  -3.434  1.00  0.00     0.052 C 
HETATM   10  C23 UNL     1      -2.422  -2.834  -0.677  1.00  0.00     0.038 C 
HETATM   11  C24 UNL     1      -2.102  -2.964   0.822  1.00  0.00     0.043 C 
HETATM   12  C25 UNL     1      -1.030  -1.968   1.336  1.00  0.00     0.070 C 
ENDROOT
BRANCH   5  13
HETATM   13  O3  UNL     1       0.897   0.088   1.542  1.00  0.00    -0.394 OA
HETATM   14  H19 UNL     1       1.124  -0.820   1.248  1.00  0.00     0.210 HD
ENDBRANCH   5  13
BRANCH   6  15
HETATM   15  C16 UNL     1      -3.157   0.938  -0.600  1.00  0.00     0.012 C 
BRANCH  15  16
HETATM   16  C17 UNL     1      -4.502   0.828  -1.350  1.00  0.00     0.027 C 
BRANCH  16  17
HETATM   17  C18 UNL     1      -4.411   0.661  -2.861  1.00  0.00     0.164 C 
BRANCH  17  18
HETATM   18  O4  UNL     1      -3.582   1.678  -3.402  1.00  0.00    -0.401 OA
HETATM   19  H27 UNL     1      -3.361   1.427  -4.317  1.00  0.00     0.209 HD
ENDBRANCH  17  18
ENDBRANCH  16  17
ENDBRANCH  15  16
ENDBRANCH   6  15
BRANCH  12  20
HETATM   20  O6  UNL     1       0.205  -2.220   0.619  1.00  0.00    -0.389 OA
HETATM   21  H36 UNL     1       0.005  -2.431  -0.308  1.00  0.00     0.210 HD
ENDBRANCH  12  20
BRANCH  12  22
HETATM   22  C26 UNL     1      -0.703  -2.281   2.829  1.00  0.00     0.068 C 
BRANCH  22  23
HETATM   23  C27 UNL     1      -0.037  -3.642   3.129  1.00  0.00     0.272 C 
BRANCH  23  24
HETATM   24  N1  UNL     1      -0.960  -4.782   3.217  1.00  0.00     0.079 N 
HETATM   25  C28 UNL     1      -1.737  -4.778   4.450  1.00  0.00     0.306 C 
HETATM   26  H41 UNL     1      -0.404  -5.641   3.190  1.00  0.00     0.315 HD
ENDBRANCH  23  24
ENDBRANCH  22  23
ENDBRANCH  12  22
BRANCH   1  27
HETATM   27  C6  UNL     1       0.405   3.077   1.249  1.00  0.00    -0.050 C 
HETATM   28  C5  UNL     1       1.619   3.175   0.659  1.00  0.00     0.005 C 
BRANCH  28  29
HETATM   29  C4  UNL     1       2.324   2.254  -0.208  1.00  0.00     0.001 C 
HETATM   30  C3  UNL     1       3.497   2.550  -0.792  1.00  0.00     0.006 C 
BRANCH  30  31
HETATM   31  C2  UNL     1       4.271   1.664  -1.663  1.00  0.00    -0.067 C 
HETATM   32  C1  UNL     1       5.418   2.130  -2.183  1.00  0.00     0.019 C 
BRANCH  31  33
HETATM   33  C29 UNL     1       3.729   0.262  -1.921  1.00  0.00     0.041 C 
BRANCH  33  34
HETATM   34  C30 UNL     1       4.600  -0.683  -2.761  1.00  0.00     0.032 C 
BRANCH  34  35
HETATM   35  C31 UNL     1       3.919  -2.010  -2.980  1.00  0.00    -0.024 C 
HETATM   36  C32 UNL     1       4.091  -3.145  -2.274  1.00  0.00    -0.091 C 
HETATM   37  C33 UNL     1       3.352  -4.401  -2.657  1.00  0.00     0.042 C 
HETATM   38  C34 UNL     1       4.984  -3.289  -1.072  1.00  0.00     0.042 C 
ENDBRANCH  34  35
ENDBRANCH  33  34
ENDBRANCH  31  33
ENDBRANCH  30  31
ENDBRANCH  28  29
BRANCH  27  39
HETATM   39  C7  UNL     1      -0.142   4.277   2.032  1.00  0.00     0.202 C 
BRANCH  39  40
HETATM   40  O1  UNL     1       0.657   5.451   1.866  1.00  0.00    -0.385 OA
BRANCH  40  41
HETATM   41  C8  UNL     1       0.097   6.602   2.493  1.00  0.00     0.194 C 
BRANCH  41  42
HETATM   42  C9  UNL     1      -0.885   7.327   1.574  1.00  0.00     0.190 C 
BRANCH  42  43
HETATM   43  O2  UNL     1      -1.425   8.480   2.212  1.00  0.00    -0.399 OA
HETATM   44  H12 UNL     1      -1.927   8.182   2.990  1.00  0.00     0.209 HD
ENDBRANCH  42  43
ENDBRANCH  41  42
ENDBRANCH  40  41
ENDBRANCH  39  40
ENDBRANCH  27  39
ENDBRANCH   1  27
BRANCH   8  45
HETATM   45  C22 UNL     1      -1.064   0.057  -2.946  1.00  0.00     0.265 C 
HETATM   46  O5  UNL     1      -0.780   0.234  -4.127  1.00  0.00    -0.302 OA
ENDBRANCH   8  45
TORSDOF 21
