REMARK  9 active torsions:
REMARK  status: ('A' for Active; 'I' for Inactive)
REMARK    1  A    between atoms: C2_2  and  C3_3 
REMARK    2  A    between atoms: C2_2  and  C9_12 
REMARK    3  A    between atoms: C3_3  and  C4_4 
REMARK    4  A    between atoms: C4_4  and  C5_5 
REMARK    5  A    between atoms: C5_5  and  O1_6 
REMARK    6  A    between atoms: C5_5  and  C6_7 
REMARK    7  A    between atoms: C6_7  and  O2_9 
REMARK    8  A    between atoms: C6_7  and  C8_10 
REMARK    9  A    between atoms: C8_10  and  O3_11 
ROOT
HETATM    1  C9  UNL     1       1.825  -0.111   1.309  1.00  0.00    -0.002 C 
HETATM    2  C10 UNL     1       1.423  -0.449   2.771  1.00  0.00     0.007 C 
HETATM    3  C11 UNL     1      -0.101  -0.669   2.782  1.00  0.00     0.015 C 
HETATM    4  C12 UNL     1      -0.485  -0.884   1.305  1.00  0.00    -0.005 C 
HETATM    5  C13 UNL     1      -0.164  -2.374   0.962  1.00  0.00     0.021 C 
HETATM    6  C14 UNL     1      -1.923  -0.690   0.836  1.00  0.00    -0.000 C 
HETATM    7  C15 UNL     1      -2.202  -0.284  -0.432  1.00  0.00    -0.060 C 
HETATM    8  C16 UNL     1      -1.061   0.035  -1.416  1.00  0.00     0.036 C 
HETATM    9  C17 UNL     1       0.389  -0.062  -0.893  1.00  0.00     0.015 C 
HETATM   10  C18 UNL     1       0.458   0.184   0.619  1.00  0.00    -0.028 C 
HETATM   11  C19 UNL     1       0.020   1.651   0.901  1.00  0.00     0.016 C 
HETATM   12  C20 UNL     1      -3.647  -0.115  -0.977  1.00  0.00    -0.014 C 
HETATM   13  C21 UNL     1      -3.928  -1.332  -1.889  1.00  0.00     0.020 C 
HETATM   14  C22 UNL     1      -3.765   1.195  -1.811  1.00  0.00     0.021 C 
HETATM   15  C23 UNL     1      -5.167   1.777  -1.970  1.00  0.00     0.080 C 
HETATM   16  C24 UNL     1      -6.258   0.806  -1.604  1.00  0.00     0.135 C 
HETATM   17  O4  UNL     1      -7.211   0.628  -2.363  1.00  0.00    -0.297 OA
HETATM   18  C25 UNL     1      -6.168   0.142  -0.225  1.00  0.00     0.018 C 
HETATM   19  C26 UNL     1      -6.937  -1.196  -0.260  1.00  0.00     0.023 C 
HETATM   20  C27 UNL     1      -6.903   1.072   0.761  1.00  0.00     0.023 C 
HETATM   21  C28 UNL     1      -4.665   0.001   0.205  1.00  0.00     0.020 C 
HETATM   22  C29 UNL     1      -4.441  -1.104   1.237  1.00  0.00     0.090 C 
HETATM   23  C30 UNL     1      -3.030  -1.083   1.764  1.00  0.00     0.157 C 
HETATM   24  O5  UNL     1      -2.802  -1.451   2.915  1.00  0.00    -0.293 OA
ENDROOT
BRANCH   1  25
HETATM   25  C2  UNL     1       3.061   0.835   1.209  1.00  0.00    -0.014 C 
HETATM   26  C1  UNL     1       2.940   2.204   1.893  1.00  0.00     0.010 C 
BRANCH  25  27
HETATM   27  C3  UNL     1       3.534   0.991  -0.254  1.00  0.00     0.007 C 
BRANCH  27  28
HETATM   28  C4  UNL     1       4.933   1.593  -0.466  1.00  0.00     0.035 C 
BRANCH  28  29
HETATM   29  C5  UNL     1       6.164   0.680  -0.306  1.00  0.00     0.154 C 
BRANCH  29  30
HETATM   30  O1  UNL     1       6.297   0.277   1.064  1.00  0.00    -0.392 OA
HETATM   31  H10 UNL     1       5.626  -0.424   1.191  1.00  0.00     0.210 HD
ENDBRANCH  29  30
BRANCH  29  32
HETATM   32  C6  UNL     1       6.256  -0.583  -1.211  1.00  0.00     0.101 C 
HETATM   33  C7  UNL     1       5.930  -0.286  -2.674  1.00  0.00     0.051 C 
BRANCH  32  34
HETATM   34  O2  UNL     1       5.316  -1.561  -0.721  1.00  0.00    -0.385 OA
HETATM   35  H14 UNL     1       5.847  -2.261  -0.286  1.00  0.00     0.210 HD
ENDBRANCH  32  34
BRANCH  32  36
HETATM   36  C8  UNL     1       7.671  -1.208  -1.116  1.00  0.00     0.204 C 
BRANCH  36  37
HETATM   37  O3  UNL     1       7.893  -1.740   0.192  1.00  0.00    -0.398 OA
HETATM   38  H17 UNL     1       7.742  -1.007   0.826  1.00  0.00     0.209 HD
ENDBRANCH  36  37
ENDBRANCH  32  36
ENDBRANCH  29  32
ENDBRANCH  28  29
ENDBRANCH  27  28
ENDBRANCH  25  27
ENDBRANCH   1  25
TORSDOF 9
