REMARK  9 active torsions:
REMARK  status: ('A' for Active; 'I' for Inactive)
REMARK    1  A    between atoms: C2_2  and  C3_3 
REMARK    2  A    between atoms: C3_3  and  N1_4 
REMARK    3  A    between atoms: N1_4  and  C4_5 
REMARK    4  A    between atoms: C4_5  and  C5_6 
REMARK    5  A    between atoms: C7_8  and  O1_9 
REMARK    6  A    between atoms: C25_28  and  N2_29 
REMARK    7  A    between atoms: C25_28  and  C26_30 
REMARK    8  A    between atoms: C26_30  and  C27_31 
REMARK    9  A    between atoms: C27_31  and  O3_32 
ROOT
HETATM    1  C5  UNL     1       3.734  -1.610   0.807  1.00  0.00    -0.021 A 
HETATM    2  C6  UNL     1       4.074  -2.800   0.134  1.00  0.00     0.045 A 
HETATM    3  C7  UNL     1       3.130  -3.781  -0.120  1.00  0.00     0.066 A 
HETATM    4  C8  UNL     1       1.830  -3.645   0.333  1.00  0.00     0.045 A 
HETATM    5  C9  UNL     1       1.442  -2.504   1.061  1.00  0.00    -0.037 A 
HETATM    6  C10 UNL     1       2.391  -1.447   1.273  1.00  0.00    -0.042 A 
HETATM    7  C11 UNL     1       1.956  -0.106   1.893  1.00  0.00     0.044 C 
HETATM    8  C12 UNL     1       1.291   0.772   0.814  1.00  0.00    -0.010 C 
HETATM    9  C13 UNL     1       2.023   2.047   0.368  1.00  0.00     0.005 C 
HETATM   10  C14 UNL     1       1.282   2.719  -0.813  1.00  0.00     0.001 C 
HETATM   11  C15 UNL     1      -0.256   2.804  -0.673  1.00  0.00     0.007 C 
HETATM   12  C16 UNL     1      -0.839   1.480  -0.137  1.00  0.00     0.022 C 
HETATM   13  C17 UNL     1      -0.130   1.212   1.201  1.00  0.00     0.012 C 
HETATM   14  C18 UNL     1      -2.379   1.316  -0.156  1.00  0.00     0.082 C 
HETATM   15  C19 UNL     1      -3.141   2.491   0.494  1.00  0.00     0.040 C 
HETATM   16  C20 UNL     1      -4.654   2.209   0.411  1.00  0.00     0.013 C 
HETATM   17  C21 UNL     1      -4.910   0.983  -0.523  1.00  0.00     0.059 C 
HETATM   18  C22 UNL     1      -4.138   1.280  -1.854  1.00  0.00     0.061 C 
HETATM   19  C23 UNL     1      -4.369   0.267  -2.990  1.00  0.00     0.046 C 
HETATM   20  C24 UNL     1      -4.507   2.654  -2.461  1.00  0.00     0.046 C 
HETATM   21  O2  UNL     1      -2.727   1.284  -1.567  1.00  0.00    -0.368 OA
HETATM   22  C25 UNL     1      -4.363  -0.321   0.191  1.00  0.00     0.180 C 
HETATM   23  C28 UNL     1      -2.883   0.004   0.572  1.00  0.00     0.139 C 
HETATM   24  C29 UNL     1      -1.930  -1.142   0.559  1.00  0.00    -0.096 C 
HETATM   25  C30 UNL     1      -1.033  -1.872   0.895  1.00  0.00    -0.101 C 
HETATM   26  C31 UNL     1       0.040  -2.549   1.649  1.00  0.00     0.133 C 
ENDROOT
BRANCH  22  27
HETATM   27  N2  UNL     1      -4.534  -1.484  -0.702  1.00  0.00     0.090 N 
HETATM   28  H37 UNL     1      -3.656  -1.678  -1.188  1.00  0.00     0.313 HD
HETATM   29  H38 UNL     1      -4.711  -2.329  -0.147  1.00  0.00     0.313 HD
ENDBRANCH  22  27
BRANCH  22  30
HETATM   30  C26 UNL     1      -5.217  -0.659   1.467  1.00  0.00     0.069 C 
BRANCH  30  31
HETATM   31  C27 UNL     1      -4.716  -1.804   2.358  1.00  0.00     0.166 C 
BRANCH  31  32
HETATM   32  O3  UNL     1      -4.565  -3.019   1.637  1.00  0.00    -0.401 OA
HETATM   33  H43 UNL     1      -3.608  -3.161   1.512  1.00  0.00     0.209 HD
ENDBRANCH  31  32
ENDBRANCH  30  31
ENDBRANCH  22  30
BRANCH   3  34
HETATM   34  O1  UNL     1       3.533  -4.889  -0.806  1.00  0.00    -0.361 OA
HETATM   35  H12 UNL     1       2.761  -5.455  -0.963  1.00  0.00     0.217 HD
ENDBRANCH   3  34
BRANCH   1  36
HETATM   36  C4  UNL     1       4.811  -0.574   1.113  1.00  0.00     0.308 C 
BRANCH  36  37
HETATM   37  N1  UNL     1       6.051  -0.620   0.331  1.00  0.00     0.087 N 
HETATM   38  H8  UNL     1       6.462  -1.549   0.365  1.00  0.00     0.316 HD
BRANCH  37  39
HETATM   39  C3  UNL     1       5.879  -0.157  -1.045  1.00  0.00     0.269 C 
BRANCH  39  40
HETATM   40  C2  UNL     1       7.176  -0.319  -1.844  1.00  0.00     0.025 C 
HETATM   41  C1  UNL     1       8.329   0.515  -1.304  1.00  0.00     0.007 C 
ENDBRANCH  39  40
ENDBRANCH  37  39
ENDBRANCH  36  37
ENDBRANCH   1  36
TORSDOF 9
