REMARK  12 active torsions:
REMARK  status: ('A' for Active; 'I' for Inactive)
REMARK    1  A    between atoms: O1_2  and  C2_3 
REMARK    2  A    between atoms: C2_3  and  C5_6 
REMARK    3  A    between atoms: C6_7  and  C7_8 
REMARK    4  A    between atoms: C7_8  and  C8_9 
REMARK    5  A    between atoms: C8_9  and  C10_11 
REMARK    6  A    between atoms: C28_30  and  O3_31 
REMARK    7  A    between atoms: O3_31  and  C29_32 
REMARK    8  A    between atoms: C30_34  and  C31_35 
REMARK    9  A    between atoms: C31_35  and  O5_36 
REMARK   10  A    between atoms: C32_37  and  O6_38 
REMARK   11  A    between atoms: C33_39  and  O7_40 
REMARK   12  A    between atoms: C34_41  and  O8_42 
ROOT
HETATM    1  C10 UNL     1      -3.446   1.566  -1.102  1.00  0.00    -0.002 C 
HETATM    2  C11 UNL     1      -2.983   3.005  -1.481  1.00  0.00     0.006 C 
HETATM    3  C12 UNL     1      -1.637   3.255  -0.769  1.00  0.00     0.011 C 
HETATM    4  C13 UNL     1      -1.154   1.858  -0.336  1.00  0.00    -0.029 C 
HETATM    5  C14 UNL     1      -0.513   1.225  -1.606  1.00  0.00     0.016 C 
HETATM    6  C15 UNL     1      -0.151   1.842   0.856  1.00  0.00     0.028 C 
HETATM    7  C16 UNL     1       1.176   2.527   0.603  1.00  0.00    -0.021 C 
HETATM    8  C17 UNL     1       2.327   2.026   1.085  1.00  0.00     0.008 C 
HETATM    9  C18 UNL     1       2.368   0.706   1.848  1.00  0.00     0.092 C 
HETATM   10  O2  UNL     1       1.779   0.995   3.131  1.00  0.00    -0.374 OA
HETATM   11  C19 UNL     1       0.375   0.667   3.044  1.00  0.00     0.179 C 
HETATM   12  C20 UNL     1       0.028   0.420   1.531  1.00  0.00    -0.004 C 
HETATM   13  C21 UNL     1      -1.200  -0.530   1.447  1.00  0.00     0.014 C 
HETATM   14  C22 UNL     1      -2.243  -0.294   0.340  1.00  0.00     0.011 C 
HETATM   15  C23 UNL     1      -2.521   1.197   0.103  1.00  0.00    -0.032 C 
HETATM   16  C24 UNL     1      -3.120   1.789   1.408  1.00  0.00     0.016 C 
HETATM   17  C25 UNL     1       1.370  -0.279   1.209  1.00  0.00     0.036 C 
HETATM   18  C26 UNL     1       1.800  -0.675  -0.197  1.00  0.00     0.011 C 
HETATM   19  C27 UNL     1       3.206  -1.288  -0.162  1.00  0.00     0.033 C 
HETATM   20  C28 UNL     1       4.247  -0.403   0.557  1.00  0.00     0.136 C 
HETATM   21  C35 UNL     1       3.784   0.056   1.977  1.00  0.00     0.014 C 
HETATM   22  C36 UNL     1       3.767  -1.141   2.968  1.00  0.00     0.021 C 
HETATM   23  C37 UNL     1       4.819   1.049   2.565  1.00  0.00     0.021 C 
ENDROOT
BRANCH  20  24
HETATM   24  O3  UNL     1       5.465  -1.148   0.681  1.00  0.00    -0.352 OA
BRANCH  24  25
HETATM   25  C29 UNL     1       6.351  -1.026  -0.434  1.00  0.00     0.292 C 
HETATM   26  O4  UNL     1       6.840  -2.328  -0.750  1.00  0.00    -0.348 OA
HETATM   27  C30 UNL     1       7.640  -2.346  -1.949  1.00  0.00     0.179 C 
HETATM   28  C32 UNL     1       8.605  -1.141  -2.038  1.00  0.00     0.180 C 
HETATM   29  C33 UNL     1       8.852  -0.563  -0.643  1.00  0.00     0.183 C 
HETATM   30  C34 UNL     1       7.521  -0.100  -0.016  1.00  0.00     0.204 C 
BRANCH  27  31
HETATM   31  C31 UNL     1       8.403  -3.677  -1.923  1.00  0.00     0.198 C 
BRANCH  31  32
HETATM   32  O5  UNL     1       9.187  -3.852  -3.092  1.00  0.00    -0.398 OA
HETATM   33  H48 UNL     1       9.589  -4.739  -3.037  1.00  0.00     0.209 HD
ENDBRANCH  31  32
ENDBRANCH  27  31
BRANCH  28  34
HETATM   34  O6  UNL     1       8.007  -0.084  -2.827  1.00  0.00    -0.390 OA
HETATM   35  H50 UNL     1       8.747   0.543  -2.981  1.00  0.00     0.210 HD
ENDBRANCH  28  34
BRANCH  29  36
HETATM   36  O7  UNL     1       9.770   0.541  -0.751  1.00  0.00    -0.390 OA
HETATM   37  H52 UNL     1       9.507   1.183  -0.066  1.00  0.00     0.210 HD
ENDBRANCH  29  36
BRANCH  30  38
HETATM   38  O8  UNL     1       7.244   1.267  -0.401  1.00  0.00    -0.388 OA
HETATM   39  H54 UNL     1       7.284   1.272  -1.380  1.00  0.00     0.210 HD
ENDBRANCH  30  38
ENDBRANCH  24  25
ENDBRANCH  20  24
BRANCH   1  40
HETATM   40  C8  UNL     1      -5.000   1.389  -1.075  1.00  0.00    -0.010 C 
HETATM   41  C9  UNL     1      -5.806   2.392  -0.229  1.00  0.00     0.010 C 
BRANCH  40  42
HETATM   42  C7  UNL     1      -5.399  -0.062  -0.722  1.00  0.00     0.031 C 
BRANCH  42  43
HETATM   43  C6  UNL     1      -6.835  -0.403  -1.032  1.00  0.00    -0.027 C 
HETATM   44  C5  UNL     1      -7.732  -0.732  -0.084  1.00  0.00     0.006 C 
BRANCH  44  45
HETATM   45  C2  UNL     1      -9.177  -1.157  -0.268  1.00  0.00     0.070 C 
HETATM   46  C3  UNL     1     -10.069  -0.079   0.368  1.00  0.00     0.050 C 
HETATM   47  C4  UNL     1      -9.628  -1.364  -1.723  1.00  0.00     0.050 C 
BRANCH  45  48
HETATM   48  O1  UNL     1      -9.395  -2.336   0.529  1.00  0.00    -0.382 OA
HETATM   49  C1  UNL     1      -8.818  -3.538   0.037  1.00  0.00     0.202 C 
ENDBRANCH  45  48
ENDBRANCH  44  45
ENDBRANCH  42  43
ENDBRANCH  40  42
ENDBRANCH   1  40
TORSDOF 12
