REMARK  3 active torsions:
REMARK  status: ('A' for Active; 'I' for Inactive)
REMARK    1  A    between atoms: N1_2  and  C4_5 
REMARK    2  A    between atoms: C4_5  and  C5_6 
REMARK    3  A    between atoms: C5_6  and  O2_8 
ROOT
HETATM    1  C4  UNL     1       0.660   0.913   0.195  1.00  0.00     0.345 C 
ENDROOT
BRANCH   1   2
HETATM    2  N1  UNL     1      -0.542  -0.086   0.299  1.00  0.00    -0.069 N 
HETATM    3  C1  UNL     1      -0.240  -1.182   1.315  1.00  0.00     0.272 C 
HETATM    4  C2  UNL     1      -0.833  -0.716  -1.058  1.00  0.00     0.272 C 
HETATM    5  C3  UNL     1      -1.769   0.692   0.758  1.00  0.00     0.272 C 
ENDBRANCH   1   2
BRANCH   1   6
HETATM    6  C5  UNL     1       2.002   0.339  -0.253  1.00  0.00     0.166 C 
HETATM    7  O1  UNL     1       2.240  -0.821  -0.540  1.00  0.00    -0.649 OA
BRANCH   6   8
HETATM    8  O2  UNL     1       2.962   1.281  -0.308  1.00  0.00    -0.775 OA
HETATM    9  H12 UNL     1       3.784   0.826  -0.602  1.00  0.00     0.167 HD
ENDBRANCH   6   8
ENDBRANCH   1   6
TORSDOF 3
