REMARK  11 active torsions:
REMARK  status: ('A' for Active; 'I' for Inactive)
REMARK    1  A    between atoms: C2_2  and  O1_3 
REMARK    2  A    between atoms: O1_3  and  C3_4 
REMARK    3  A    between atoms: C3_4  and  C4_6 
REMARK    4  A    between atoms: N1_9  and  C7_10 
REMARK    5  A    between atoms: C7_10  and  C8_11 
REMARK    6  A    between atoms: C8_11  and  N2_12 
REMARK    7  A    between atoms: C15_20  and  C16_21 
REMARK    8  A    between atoms: C16_21  and  O5_23 
REMARK    9  A    between atoms: O5_23  and  C17_24 
REMARK   10  A    between atoms: C19_26  and  C20_27 
REMARK   11  A    between atoms: C25_32  and  C26_33 
ROOT
HETATM    1  C4  UNL     1      -0.511   0.732   0.900  1.00  0.00     0.052 A 
HETATM    2  C5  UNL     1       0.391   1.001  -0.073  1.00  0.00     0.021 A 
HETATM    3  C6  UNL     1       1.063   2.362  -0.149  1.00  0.00     0.069 C 
HETATM    4  N1  UNL     1       0.730   0.015  -1.049  1.00  0.00    -0.351 N 
HETATM    5  C13 UNL     1       0.166  -1.297  -0.956  1.00  0.00     0.021 A 
HETATM    6  C14 UNL     1       0.623  -2.350  -1.954  1.00  0.00     0.069 C 
HETATM    7  C15 UNL     1      -0.753  -1.597  -0.004  1.00  0.00     0.052 A 
HETATM    8  C19 UNL     1      -1.254  -0.580   1.008  1.00  0.00     0.101 A 
ENDROOT
BRANCH   8   9
HETATM    9  C20 UNL     1      -2.781  -0.385   0.884  1.00  0.00    -0.030 A 
HETATM   10  C21 UNL     1      -3.316  -0.032  -0.376  1.00  0.00     0.009 A 
HETATM   11  C22 UNL     1      -4.686   0.151  -0.557  1.00  0.00     0.001 A 
HETATM   12  C23 UNL     1      -5.553  -0.005   0.515  1.00  0.00     0.001 A 
HETATM   13  C24 UNL     1      -5.050  -0.337   1.772  1.00  0.00     0.017 A 
HETATM   14  C25 UNL     1      -3.667  -0.529   1.982  1.00  0.00     0.055 A 
BRANCH  14  15
HETATM   15  C26 UNL     1      -3.196  -0.846   3.387  1.00  0.00     0.418 C 
HETATM   16  F1  UNL     1      -2.371   0.114   3.884  1.00  0.00    -0.166 F 
HETATM   17  F2  UNL     1      -2.506  -2.015   3.470  1.00  0.00    -0.166 F 
HETATM   18  F3  UNL     1      -4.211  -0.960   4.291  1.00  0.00    -0.166 F 
ENDBRANCH  14  15
ENDBRANCH   8   9
BRANCH   1  19
HETATM   19  C3  UNL     1      -0.722   1.691   2.002  1.00  0.00     0.292 C 
HETATM   20  O2  UNL     1       0.087   1.872   2.898  1.00  0.00    -0.259 OA
BRANCH  19  21
HETATM   21  O1  UNL     1      -1.895   2.341   1.818  1.00  0.00    -0.318 OA
BRANCH  21  22
HETATM   22  C2  UNL     1      -2.239   3.295   2.832  1.00  0.00     0.174 C 
HETATM   23  C1  UNL     1      -1.657   4.654   2.489  1.00  0.00     0.034 C 
ENDBRANCH  21  22
ENDBRANCH  19  21
ENDBRANCH   1  19
BRANCH   7  24
HETATM   24  C16 UNL     1      -1.397  -2.933   0.050  1.00  0.00     0.292 C 
HETATM   25  O4  UNL     1      -1.900  -3.497  -0.910  1.00  0.00    -0.259 OA
BRANCH  24  26
HETATM   26  O5  UNL     1      -1.315  -3.420   1.311  1.00  0.00    -0.318 OA
BRANCH  26  27
HETATM   27  C17 UNL     1      -1.868  -4.731   1.503  1.00  0.00     0.174 C 
HETATM   28  C18 UNL     1      -3.378  -4.669   1.662  1.00  0.00     0.034 C 
ENDBRANCH  26  27
ENDBRANCH  24  26
ENDBRANCH   7  24
BRANCH   4  29
HETATM   29  C7  UNL     1       1.720   0.332  -2.124  1.00  0.00     0.159 C 
BRANCH  29  30
HETATM   30  C8  UNL     1       3.173   0.069  -1.660  1.00  0.00     0.292 C 
BRANCH  30  31
HETATM   31  N2  UNL     1       4.165   0.375  -2.708  1.00  0.00     0.094 N 
HETATM   32  C9  UNL     1       5.442  -0.323  -2.444  1.00  0.00     0.298 C 
HETATM   33  C10 UNL     1       6.586   0.278  -3.272  1.00  0.00     0.198 C 
HETATM   34  O3  UNL     1       6.864   1.645  -2.937  1.00  0.00    -0.388 OA
HETATM   35  C11 UNL     1       5.748   2.317  -2.346  1.00  0.00     0.198 C 
HETATM   36  C12 UNL     1       4.392   1.828  -2.884  1.00  0.00     0.298 C 
ENDBRANCH  30  31
ENDBRANCH  29  30
ENDBRANCH   4  29
TORSDOF 11
