REMARK  15 active torsions:
REMARK  status: ('A' for Active; 'I' for Inactive)
REMARK    1  A    between atoms: C4_5  and  O2_6 
REMARK    2  A    between atoms: C7_10  and  O4_11 
REMARK    3  A    between atoms: O4_11  and  C8_12 
REMARK    4  A    between atoms: C8_12  and  C9_14 
REMARK    5  A    between atoms: C9_14  and  C11_16 
REMARK    6  A    between atoms: C11_16  and  O6_17 
REMARK    7  A    between atoms: C11_16  and  C12_18 
REMARK    8  A    between atoms: C14_20  and  C15_21 
REMARK    9  A    between atoms: C15_21  and  C16_22 
REMARK   10  A    between atoms: C15_21  and  C17_24 
REMARK   11  A    between atoms: C16_22  and  O7_23 
REMARK   12  A    between atoms: C17_24  and  C18_25 
REMARK   13  A    between atoms: C18_25  and  C19_26 
REMARK   14  A    between atoms: C19_26  and  C20_27 
REMARK   15  A    between atoms: C20_27  and  C21_28 
ROOT
HETATM    1  O4  UNL     1      -1.682  -0.636   0.597  1.00  0.00    -0.312 OA
ENDROOT
BRANCH   1   2
HETATM    2  C7  UNL     1      -2.671  -0.575   1.646  1.00  0.00     0.170 C 
HETATM    3  C6  UNL     1      -4.037  -0.213   1.103  1.00  0.00     0.127 A 
HETATM    4  C5  UNL     1      -4.504   1.228   1.155  1.00  0.00     0.223 A 
HETATM    5  O3  UNL     1      -4.913   0.267   2.146  1.00  0.00    -0.360 OA
HETATM    6  C27 UNL     1      -4.730  -1.209   0.168  1.00  0.00    -0.003 C 
HETATM    7  C4  UNL     1      -5.589   1.750   0.265  1.00  0.00     0.199 C 
HETATM    8  O1  UNL     1      -6.575   2.399   1.071  1.00  0.00    -0.348 OA
HETATM    9  C30 UNL     1      -6.319   0.689  -0.585  1.00  0.00     0.082 C 
HETATM   10  C3  UNL     1      -7.815   2.365   0.357  1.00  0.00     0.205 C 
HETATM   11  C2  UNL     1      -7.743   1.186  -0.554  1.00  0.00    -0.056 C 
HETATM   12  C1  UNL     1      -8.778   0.665  -1.226  1.00  0.00     0.017 C 
HETATM   13  C29 UNL     1      -6.204  -0.755  -0.061  1.00  0.00     0.027 C 
HETATM   14  C25 UNL     1      -4.721  -2.619   0.863  1.00  0.00    -0.007 C 
HETATM   15  C28 UNL     1      -4.011  -1.235  -1.200  1.00  0.00     0.019 C 
HETATM   16  C24 UNL     1      -3.322  -3.014   1.381  1.00  0.00     0.007 C 
HETATM   17  C26 UNL     1      -5.270  -3.755  -0.013  1.00  0.00     0.011 C 
HETATM   18  C23 UNL     1      -2.730  -1.953   2.310  1.00  0.00     0.036 C 
BRANCH   7  19
HETATM   19  O2  UNL     1      -5.036   2.728  -0.615  1.00  0.00    -0.363 OA
HETATM   20  H5  UNL     1      -4.561   3.350  -0.042  1.00  0.00     0.213 HD
ENDBRANCH   7  19
ENDBRANCH   1   2
BRANCH   1  21
HETATM   21  C8  UNL     1      -1.182   0.541   0.136  1.00  0.00     0.266 C 
HETATM   22  O5  UNL     1      -1.561   1.641   0.508  1.00  0.00    -0.265 OA
BRANCH  21  23
HETATM   23  C9  UNL     1      -0.168   0.312  -0.972  1.00  0.00     0.114 C 
HETATM   24  C10 UNL     1       0.616  -0.994  -0.806  1.00  0.00     0.023 C 
BRANCH  23  25
HETATM   25  C11 UNL     1       0.748   1.547  -1.141  1.00  0.00     0.159 C 
BRANCH  25  26
HETATM   26  O6  UNL     1       1.244   1.536  -2.490  1.00  0.00    -0.390 OA
HETATM   27  H13 UNL     1       0.576   1.978  -3.041  1.00  0.00     0.210 HD
ENDBRANCH  25  26
BRANCH  25  28
HETATM   28  C12 UNL     1       1.925   1.638  -0.168  1.00  0.00    -0.058 C 
HETATM   29  C13 UNL     1       1.539   2.000   1.245  1.00  0.00     0.046 C 
HETATM   30  C14 UNL     1       3.207   1.451  -0.552  1.00  0.00    -0.015 C 
BRANCH  30  31
HETATM   31  C15 UNL     1       4.443   1.452   0.328  1.00  0.00     0.032 C 
BRANCH  31  32
HETATM   32  C16 UNL     1       5.118   2.836   0.314  1.00  0.00     0.172 C 
BRANCH  32  33
HETATM   33  O7  UNL     1       5.713   3.135  -0.943  1.00  0.00    -0.400 OA
HETATM   34  H21 UNL     1       4.986   3.273  -1.573  1.00  0.00     0.209 HD
ENDBRANCH  32  33
ENDBRANCH  31  32
BRANCH  31  35
HETATM   35  C17 UNL     1       5.394   0.316  -0.112  1.00  0.00     0.010 C 
BRANCH  35  36
HETATM   36  C18 UNL     1       6.476   0.017   0.932  1.00  0.00     0.001 C 
BRANCH  36  37
HETATM   37  C19 UNL     1       7.455  -1.075   0.490  1.00  0.00     0.000 C 
BRANCH  37  38
HETATM   38  C20 UNL     1       8.441  -0.588  -0.575  1.00  0.00    -0.000 C 
BRANCH  38  39
HETATM   39  C21 UNL     1       9.512  -1.640  -0.875  1.00  0.00    -0.005 C 
HETATM   40  C22 UNL     1      10.549  -1.109  -1.856  1.00  0.00     0.005 C 
ENDBRANCH  38  39
ENDBRANCH  37  38
ENDBRANCH  36  37
ENDBRANCH  35  36
ENDBRANCH  31  35
ENDBRANCH  30  31
ENDBRANCH  25  28
ENDBRANCH  23  25
ENDBRANCH  21  23
ENDBRANCH   1  21
TORSDOF 15
