REMARK  14 active torsions:
REMARK  status: ('A' for Active; 'I' for Inactive)
REMARK    1  A    between atoms: C19_20  and  O2_21 
REMARK    2  A    between atoms: C19_20  and  C20_22 
REMARK    3  A    between atoms: C20_22  and  C21_24 
REMARK    4  A    between atoms: C21_24  and  O4_25 
REMARK    5  A    between atoms: O4_25  and  C22_26 
REMARK    6  A    between atoms: C22_26  and  C23_28 
REMARK    7  A    between atoms: C23_28  and  C24_29 
REMARK    8  A    between atoms: C24_29  and  C25_30 
REMARK       I    between atoms: C25_30  and  N1_32 
REMARK    9  A    between atoms: N1_32  and  C26_33 
REMARK   10  A    between atoms: C26_33  and  C27_34 
REMARK   11  A    between atoms: C27_34  and  C28_35 
REMARK   12  A    between atoms: C27_34  and  C30_39 
REMARK   13  A    between atoms: C28_35  and  C29_36 
REMARK   14  A    between atoms: C29_36  and  O8_38 
ROOT
HETATM    1  C20 UNL     1      -0.509   0.120   0.188  1.00  0.00     0.185 C 
HETATM    2  O3  UNL     1      -0.186   0.497  -0.942  1.00  0.00    -0.292 OA
ENDROOT
BRANCH   1   3
HETATM    3  C19 UNL     1      -1.992  -0.026   0.590  1.00  0.00     0.128 C 
HETATM    4  C14 UNL     1      -3.001   0.994  -0.049  1.00  0.00    -0.002 C 
HETATM    5  C13 UNL     1      -3.429   0.661  -1.494  1.00  0.00     0.013 C 
HETATM    6  C15 UNL     1      -2.392   2.424  -0.066  1.00  0.00     0.019 C 
HETATM    7  C16 UNL     1      -4.217   1.028   0.942  1.00  0.00     0.002 C 
HETATM    8  C12 UNL     1      -4.471  -0.445  -1.698  1.00  0.00     0.007 C 
HETATM    9  C11 UNL     1      -5.355  -0.777  -0.479  1.00  0.00     0.002 C 
HETATM   10  C2  UNL     1      -6.745  -1.463  -0.803  1.00  0.00    -0.016 C 
HETATM   11  C10 UNL     1      -5.555   0.474   0.402  1.00  0.00    -0.004 C 
HETATM   12  C1  UNL     1      -6.711  -2.244  -2.137  1.00  0.00     0.020 C 
HETATM   13  C3  UNL     1      -7.063  -2.464   0.348  1.00  0.00     0.022 C 
HETATM   14  C7  UNL     1      -7.864  -0.420  -0.847  1.00  0.00    -0.068 C 
HETATM   15  C4  UNL     1      -8.462  -3.067   0.265  1.00  0.00     0.084 C 
HETATM   16  C5  UNL     1      -9.522  -2.010   0.066  1.00  0.00     0.149 C 
HETATM   17  O1  UNL     1     -10.711  -2.233   0.291  1.00  0.00    -0.293 OA
HETATM   18  C6  UNL     1      -9.123  -0.679  -0.449  1.00  0.00     0.053 C 
HETATM   19  C8  UNL     1      -7.457   0.967  -1.275  1.00  0.00     0.035 C 
HETATM   20  C9  UNL     1      -6.384   1.548  -0.340  1.00  0.00     0.010 C 
HETATM   21  C17 UNL     1      -3.759   0.252   2.192  1.00  0.00     0.009 C 
HETATM   22  C18 UNL     1      -2.247   0.140   2.089  1.00  0.00     0.047 C 
BRANCH   3  23
HETATM   23  O2  UNL     1      -2.318  -1.381   0.252  1.00  0.00    -0.381 OA
HETATM   24  H27 UNL     1      -2.164  -1.477  -0.707  1.00  0.00     0.211 HD
ENDBRANCH   3  23
ENDBRANCH   1   3
BRANCH   1  25
HETATM   25  C21 UNL     1       0.544  -0.450   1.151  1.00  0.00     0.260 C 
BRANCH  25  26
HETATM   26  O4  UNL     1       1.855   0.079   0.971  1.00  0.00    -0.314 OA
BRANCH  26  27
HETATM   27  C22 UNL     1       1.979   1.385   1.337  1.00  0.00     0.259 C 
HETATM   28  O5  UNL     1       1.058   2.069   1.764  1.00  0.00    -0.265 OA
BRANCH  27  29
HETATM   29  C23 UNL     1       3.407   1.861   1.251  1.00  0.00     0.120 C 
BRANCH  29  30
HETATM   30  C24 UNL     1       4.207   1.201   0.133  1.00  0.00     0.112 C 
BRANCH  30  31
HETATM   31  C25 UNL     1       5.608   1.767   0.047  1.00  0.00     0.218 C 
HETATM   32  O6  UNL     1       6.034   2.641   0.797  1.00  0.00    -0.274 OA
HETATM   33  N1  UNL     1       6.361   1.191  -0.955  1.00  0.00    -0.360 N 
HETATM   34  H34 UNL     1       6.036   0.325  -1.367  1.00  0.00     0.162 HD
BRANCH  33  35
HETATM   35  C26 UNL     1       7.768   1.523  -1.128  1.00  0.00     0.132 C 
BRANCH  35  36
HETATM   36  C27 UNL     1       8.688   0.752  -0.153  1.00  0.00     0.046 C 
BRANCH  36  37
HETATM   37  C28 UNL     1      10.157   1.163  -0.325  1.00  0.00     0.120 C 
BRANCH  37  38
HETATM   38  C29 UNL     1      10.376   2.584   0.099  1.00  0.00     0.140 C 
HETATM   39  O7  UNL     1      10.462   3.543  -0.648  1.00  0.00    -0.650 OA
BRANCH  38  40
HETATM   40  O8  UNL     1      10.455   2.727   1.432  1.00  0.00    -0.776 OA
HETATM   41  H40 UNL     1      10.548   3.694   1.570  1.00  0.00     0.167 HD
ENDBRANCH  38  40
ENDBRANCH  37  38
ENDBRANCH  36  37
BRANCH  36  42
HETATM   42  C30 UNL     1       8.550  -0.759  -0.319  1.00  0.00    -0.052 A 
HETATM   43  C31 UNL     1       8.851  -1.400  -1.531  1.00  0.00     0.007 A 
HETATM   44  C32 UNL     1       8.719  -2.784  -1.654  1.00  0.00     0.001 A 
HETATM   45  C33 UNL     1       8.284  -3.544  -0.570  1.00  0.00     0.000 A 
HETATM   46  C34 UNL     1       7.987  -2.921   0.640  1.00  0.00     0.001 A 
HETATM   47  C35 UNL     1       8.118  -1.537   0.765  1.00  0.00     0.007 A 
ENDBRANCH  36  42
ENDBRANCH  35  36
ENDBRANCH  33  35
ENDBRANCH  30  31
ENDBRANCH  29  30
ENDBRANCH  27  29
ENDBRANCH  26  27
ENDBRANCH  25  26
ENDBRANCH   1  25
TORSDOF 14
