REMARK  4 active torsions:
REMARK  status: ('A' for Active; 'I' for Inactive)
REMARK    1  A    between atoms: C4_4  and  C5_5 
REMARK    2  A    between atoms: C5_5  and  C6_7 
REMARK    3  A    between atoms: C6_7  and  C7_8 
REMARK    4  A    between atoms: C7_8  and  C8_9 
ROOT
HETATM    1  C8  UNL     1       2.472   1.357  -1.761  1.00  0.00     0.028 C 
HETATM    2  C9  UNL     1       2.145   0.723  -3.147  1.00  0.00     0.009 C 
HETATM    3  C10 UNL     1       0.872  -0.117  -2.971  1.00  0.00     0.011 C 
HETATM    4  C11 UNL     1       0.140   0.540  -1.790  1.00  0.00    -0.032 C 
HETATM    5  C12 UNL     1      -0.485   1.871  -2.336  1.00  0.00     0.016 C 
HETATM    6  C13 UNL     1       1.347   0.808  -0.848  1.00  0.00     0.001 C 
HETATM    7  C14 UNL     1       0.893   1.645   0.346  1.00  0.00     0.006 C 
HETATM    8  C15 UNL     1      -0.221   0.920   1.122  1.00  0.00     0.006 C 
HETATM    9  C16 UNL     1      -1.428   0.470   0.244  1.00  0.00     0.003 C 
HETATM   10  C17 UNL     1      -2.642  -0.153   1.067  1.00  0.00    -0.035 C 
HETATM   11  C18 UNL     1      -2.122  -1.141   2.145  1.00  0.00     0.016 C 
HETATM   12  C19 UNL     1      -3.351   0.999   1.861  1.00  0.00     0.017 C 
HETATM   13  C20 UNL     1      -4.489   1.668   1.110  1.00  0.00     0.080 C 
HETATM   14  C21 UNL     1      -5.582   0.679   0.782  1.00  0.00     0.135 C 
HETATM   15  O2  UNL     1      -6.750   1.062   0.683  1.00  0.00    -0.297 OA
HETATM   16  C22 UNL     1      -5.186  -0.785   0.561  1.00  0.00     0.017 C 
HETATM   17  C23 UNL     1      -5.452  -1.553   1.871  1.00  0.00     0.023 C 
HETATM   18  C24 UNL     1      -6.138  -1.397  -0.495  1.00  0.00     0.023 C 
HETATM   19  C25 UNL     1      -3.676  -0.872   0.101  1.00  0.00     0.009 C 
HETATM   20  C26 UNL     1      -3.506  -0.377  -1.361  1.00  0.00     0.007 C 
HETATM   21  C27 UNL     1      -2.137  -0.693  -1.950  1.00  0.00     0.011 C 
HETATM   22  C28 UNL     1      -0.943  -0.350  -1.023  1.00  0.00    -0.032 C 
HETATM   23  C29 UNL     1      -0.347  -1.724  -0.598  1.00  0.00     0.016 C 
ENDROOT
BRANCH   1  24
HETATM   24  C7  UNL     1       3.894   1.077  -1.256  1.00  0.00     0.093 A 
HETATM   25  C30 UNL     1       5.031   0.959  -2.269  1.00  0.00     0.207 A 
HETATM   26  O3  UNL     1       4.433  -0.194  -1.653  1.00  0.00    -0.374 OA
BRANCH  24  27
HETATM   27  C6  UNL     1       4.206   1.462   0.177  1.00  0.00     0.123 C 
BRANCH  27  28
HETATM   28  C5  UNL     1       5.661   1.468   0.585  1.00  0.00     0.152 C 
HETATM   29  O1  UNL     1       6.431   2.328   0.145  1.00  0.00    -0.293 OA
BRANCH  28  30
HETATM   30  C4  UNL     1       6.217   0.505   1.584  1.00  0.00     0.052 C 
HETATM   31  C2  UNL     1       5.774  -0.663   2.089  1.00  0.00    -0.084 C 
HETATM   32  C1  UNL     1       6.587  -1.365   3.153  1.00  0.00     0.043 C 
HETATM   33  C3  UNL     1       4.531  -1.413   1.700  1.00  0.00     0.043 C 
ENDBRANCH  28  30
ENDBRANCH  27  28
ENDBRANCH  24  27
ENDBRANCH   1  24
TORSDOF 4
