REMARK  11 active torsions:
REMARK  status: ('A' for Active; 'I' for Inactive)
REMARK    1  A    between atoms: C3_3  and  O1_4 
REMARK    2  A    between atoms: N1_14  and  O2_16 
REMARK    3  A    between atoms: O2_16  and  C13_17 
REMARK    4  A    between atoms: C13_17  and  C14_18 
REMARK       I    between atoms: C14_18  and  N2_20 
REMARK    5  A    between atoms: N2_20  and  C15_21 
REMARK    6  A    between atoms: C15_21  and  C16_22 
REMARK    7  A    between atoms: C15_21  and  C17_25 
REMARK    8  A    between atoms: C16_22  and  O5_24 
REMARK    9  A    between atoms: C17_25  and  O6_26 
REMARK   10  A    between atoms: C17_25  and  C18_27 
REMARK   11  A    between atoms: C22_31  and  N3_32 
ROOT
HETATM    1  C1  UNL     1      -7.765  -0.450   2.549  1.00  0.00     0.015 C 
HETATM    2  C2  UNL     1      -7.530   0.412   1.745  1.00  0.00    -0.078 C 
HETATM    3  C3  UNL     1      -7.273   1.486   0.758  1.00  0.00     0.128 C 
HETATM    4  C4  UNL     1      -8.066   1.207  -0.526  1.00  0.00     0.052 C 
HETATM    5  C5  UNL     1      -7.180   0.222  -1.275  1.00  0.00     0.010 C 
HETATM    6  C6  UNL     1      -5.775   0.812  -1.110  1.00  0.00     0.002 C 
HETATM    7  C7  UNL     1      -4.589  -0.148  -1.367  1.00  0.00    -0.004 C 
HETATM    8  C8  UNL     1      -4.736  -1.584  -0.834  1.00  0.00     0.010 C 
HETATM    9  C9  UNL     1      -3.519  -2.448  -1.173  1.00  0.00     0.035 C 
HETATM   10  C10 UNL     1      -2.194  -1.813  -0.824  1.00  0.00    -0.069 C 
HETATM   11  C11 UNL     1      -1.245  -2.536  -0.203  1.00  0.00     0.030 C 
HETATM   12  C12 UNL     1       0.132  -2.011   0.003  1.00  0.00     0.032 C 
HETATM   13  N1  UNL     1       0.972  -2.749   0.673  1.00  0.00    -0.271 N 
ATOM     14  H1  UNL     1       0.737  -3.646   1.098  1.00  0.00     0.194 HD
HETATM   15  C24 UNL     1       0.484  -0.687  -0.648  1.00  0.00     0.060 C 
HETATM   16  C25 UNL     1      -0.716   0.249  -0.619  1.00  0.00     0.020 C 
HETATM   17  C26 UNL     1      -1.998  -0.363  -1.262  1.00  0.00    -0.016 C 
HETATM   18  C27 UNL     1      -1.803  -0.338  -2.801  1.00  0.00     0.020 C 
HETATM   19  C28 UNL     1      -3.267   0.491  -0.869  1.00  0.00     0.002 C 
HETATM   20  C29 UNL     1      -3.344   0.822   0.646  1.00  0.00     0.007 C 
HETATM   21  C30 UNL     1      -4.746   1.001   1.232  1.00  0.00     0.014 C 
HETATM   22  C31 UNL     1      -5.781   1.581   0.253  1.00  0.00     0.003 C 
HETATM   23  C32 UNL     1      -5.403   3.066  -0.009  1.00  0.00     0.020 C 
ENDROOT
BRANCH   3  24
HETATM   24  O1  UNL     1      -7.724   2.709   1.328  1.00  0.00    -0.377 OA
HETATM   25  H2  UNL     1      -8.611   2.544   1.690  1.00  0.00     0.211 HD
ENDBRANCH   3  24
BRANCH  13  26
HETATM   26  O2  UNL     1       2.239  -2.154   0.736  1.00  0.00    -0.271 OA
BRANCH  26  27
HETATM   27  C13 UNL     1       3.095  -2.950   1.550  1.00  0.00     0.303 C 
BRANCH  27  28
HETATM   28  C14 UNL     1       4.431  -2.244   1.762  1.00  0.00     0.244 C 
HETATM   29  O3  UNL     1       5.240  -2.597   2.618  1.00  0.00    -0.271 OA
HETATM   30  N2  UNL     1       4.668  -1.192   0.909  1.00  0.00    -0.342 N 
HETATM   31  H16 UNL     1       3.892  -0.876   0.335  1.00  0.00     0.163 HD
BRANCH  30  32
HETATM   32  C15 UNL     1       5.818  -0.298   1.070  1.00  0.00     0.216 C 
BRANCH  32  33
HETATM   33  C16 UNL     1       5.571   0.742   2.169  1.00  0.00     0.166 C 
HETATM   34  O4  UNL     1       6.372   1.586   2.545  1.00  0.00    -0.648 OA
BRANCH  33  35
HETATM   35  O5  UNL     1       4.329   0.724   2.700  1.00  0.00    -0.775 OA
HETATM   36  H18 UNL     1       4.353   1.394   3.413  1.00  0.00     0.167 HD
ENDBRANCH  33  35
ENDBRANCH  32  33
BRANCH  32  37
HETATM   37  C17 UNL     1       6.125   0.481  -0.237  1.00  0.00     0.184 C 
BRANCH  37  38
HETATM   38  O6  UNL     1       5.625  -0.214  -1.392  1.00  0.00    -0.388 OA
HETATM   39  H20 UNL     1       6.138   0.083  -2.164  1.00  0.00     0.210 HD
ENDBRANCH  37  38
BRANCH  37  40
HETATM   40  C18 UNL     1       7.605   0.758  -0.438  1.00  0.00    -0.025 A 
HETATM   41  C19 UNL     1       8.091   2.075  -0.355  1.00  0.00     0.010 A 
HETATM   42  C20 UNL     1       9.450   2.348  -0.539  1.00  0.00     0.003 A 
HETATM   43  C21 UNL     1      10.345   1.311  -0.809  1.00  0.00     0.036 A 
HETATM   44  C22 UNL     1       9.870  -0.005  -0.894  1.00  0.00     0.103 A 
HETATM   45  C23 UNL     1       8.508  -0.287  -0.712  1.00  0.00     0.045 A 
BRANCH  44  46
HETATM   46  N3  UNL     1      10.810  -1.098  -1.180  1.00  0.00    -0.116 N 
HETATM   47  O7  UNL     1      10.347  -2.242  -1.296  1.00  0.00    -0.532 OA
HETATM   48  O8  UNL     1      12.011  -0.811  -1.296  1.00  0.00    -0.532 OA
ENDBRANCH  44  46
ENDBRANCH  37  40
ENDBRANCH  32  37
ENDBRANCH  30  32
ENDBRANCH  27  28
ENDBRANCH  26  27
ENDBRANCH  13  26
TORSDOF 11
