REMARK  10 active torsions:
REMARK  status: ('A' for Active; 'I' for Inactive)
REMARK    1  A    between atoms: C2_2  and  C3_3 
REMARK    2  A    between atoms: C4_4  and  O1_5 
REMARK    3  A    between atoms: C12_13  and  C13_14 
REMARK    4  A    between atoms: C13_14  and  C15_16 
REMARK    5  A    between atoms: C15_16  and  C16_17 
REMARK    6  A    between atoms: C16_17  and  C17_18 
REMARK    7  A    between atoms: C26_27  and  C27_28 
REMARK    8  A    between atoms: C27_28  and  C28_29 
REMARK    9  A    between atoms: C28_29  and  C29_30 
REMARK   10  A    between atoms: C29_30  and  O3_32 
ROOT
HETATM    1  C3  UNL     1      -4.563  -1.018   0.496  1.00  0.00     0.045 C 
HETATM    2  C4  UNL     1      -3.626  -1.842   1.411  1.00  0.00     0.127 C 
HETATM    3  C5  UNL     1      -2.259  -2.035   0.769  1.00  0.00     0.038 C 
HETATM    4  C6  UNL     1      -1.520  -0.696   0.699  1.00  0.00     0.006 C 
HETATM    5  C7  UNL     1      -2.325   0.347  -0.111  1.00  0.00    -0.027 A 
HETATM    6  C8  UNL     1      -1.598   1.005  -1.289  1.00  0.00     0.011 C 
HETATM    7  C9  UNL     1      -0.096   1.304  -1.124  1.00  0.00     0.011 C 
HETATM    8  C10 UNL     1       0.575   0.619   0.073  1.00  0.00    -0.032 C 
HETATM    9  C11 UNL     1       0.372   1.529   1.323  1.00  0.00     0.016 C 
HETATM   10  C12 UNL     1       2.100   0.290  -0.071  1.00  0.00    -0.002 C 
HETATM   11  C21 UNL     1       2.285  -0.854   0.961  1.00  0.00     0.006 C 
HETATM   12  C22 UNL     1       0.900  -1.450   1.261  1.00  0.00     0.011 C 
HETATM   13  C23 UNL     1      -0.046  -0.818   0.224  1.00  0.00    -0.032 C 
HETATM   14  C24 UNL     1       0.050  -1.710  -1.054  1.00  0.00     0.016 C 
HETATM   15  C25 UNL     1      -3.237   1.249   0.698  1.00  0.00     0.022 A 
HETATM   16  C26 UNL     1      -3.882   0.198  -0.179  1.00  0.00    -0.022 A 
ENDROOT
BRANCH  10  17
HETATM   17  C13 UNL     1       3.166   1.421   0.074  1.00  0.00    -0.014 C 
HETATM   18  C14 UNL     1       2.906   2.571  -0.912  1.00  0.00     0.010 C 
BRANCH  17  19
HETATM   19  C15 UNL     1       4.613   0.908  -0.183  1.00  0.00     0.008 C 
BRANCH  19  20
HETATM   20  C16 UNL     1       5.332   0.376   1.062  1.00  0.00     0.028 C 
BRANCH  20  21
HETATM   21  C17 UNL     1       6.787   0.109   0.779  1.00  0.00    -0.025 C 
HETATM   22  C18 UNL     1       7.361  -1.075   0.491  1.00  0.00    -0.091 C 
HETATM   23  C19 UNL     1       8.848  -1.175   0.272  1.00  0.00     0.042 C 
HETATM   24  C20 UNL     1       6.623  -2.377   0.345  1.00  0.00     0.042 C 
ENDBRANCH  20  21
ENDBRANCH  19  20
ENDBRANCH  17  19
ENDBRANCH  10  17
BRANCH  16  25
HETATM   25  C27 UNL     1      -4.634   0.665  -1.439  1.00  0.00     0.021 C 
BRANCH  25  26
HETATM   26  C28 UNL     1      -5.681   1.747  -1.168  1.00  0.00     0.111 C 
BRANCH  26  27
HETATM   27  C29 UNL     1      -6.414   2.123  -2.427  1.00  0.00     0.139 C 
HETATM   28  O2  UNL     1      -6.288   1.636  -3.537  1.00  0.00    -0.650 OA
BRANCH  27  29
HETATM   29  O3  UNL     1      -7.294   3.123  -2.216  1.00  0.00    -0.776 OA
HETATM   30  H46 UNL     1      -7.702   3.268  -3.094  1.00  0.00     0.167 HD
ENDBRANCH  27  29
ENDBRANCH  26  27
ENDBRANCH  25  26
ENDBRANCH  16  25
BRANCH   2  31
HETATM   31  O1  UNL     1      -4.171  -3.150   1.636  1.00  0.00    -0.395 OA
HETATM   32  H6  UNL     1      -5.065  -3.027   2.001  1.00  0.00     0.210 HD
ENDBRANCH   2  31
BRANCH   1  33
HETATM   33  C2  UNL     1      -5.811  -0.639   1.278  1.00  0.00    -0.029 C 
HETATM   34  C1  UNL     1      -7.039  -1.111   1.025  1.00  0.00     0.007 C 
ENDBRANCH   1  33
TORSDOF 10
