REMARK  12 active torsions:
REMARK  status: ('A' for Active; 'I' for Inactive)
REMARK    1  A    between atoms: C3_3  and  O1_4 
REMARK    2  A    between atoms: N1_14  and  O2_16 
REMARK    3  A    between atoms: O2_16  and  C13_17 
REMARK    4  A    between atoms: C13_17  and  C14_18 
REMARK       I    between atoms: C14_18  and  N2_20 
REMARK    5  A    between atoms: N2_20  and  C15_21 
REMARK    6  A    between atoms: C15_21  and  C16_22 
REMARK    7  A    between atoms: C15_21  and  C23_33 
REMARK       I    between atoms: C16_22  and  N3_24 
REMARK    8  A    between atoms: N3_24  and  C17_25 
REMARK    9  A    between atoms: C17_25  and  C18_26 
REMARK   10  A    between atoms: C17_25  and  C19_29 
REMARK   11  A    between atoms: C18_26  and  O6_28 
REMARK   12  A    between atoms: C19_29  and  C21_31 
ROOT
HETATM    1  C1  UNL     1      -9.089   3.015  -0.725  1.00  0.00     0.015 C 
HETATM    2  C2  UNL     1      -8.492   2.027  -0.388  1.00  0.00    -0.078 C 
HETATM    3  C3  UNL     1      -7.750   0.825   0.046  1.00  0.00     0.128 C 
HETATM    4  C4  UNL     1      -8.654  -0.119   0.868  1.00  0.00     0.052 C 
HETATM    5  C5  UNL     1      -8.580  -1.496   0.207  1.00  0.00     0.010 C 
HETATM    6  C6  UNL     1      -7.271  -1.507  -0.594  1.00  0.00     0.002 C 
HETATM    7  C7  UNL     1      -6.040  -2.084   0.168  1.00  0.00    -0.004 C 
HETATM    8  C8  UNL     1      -5.939  -1.742   1.668  1.00  0.00     0.010 C 
HETATM    9  C9  UNL     1      -4.751  -2.418   2.343  1.00  0.00     0.035 C 
HETATM   10  C10 UNL     1      -3.460  -2.143   1.619  1.00  0.00    -0.069 C 
HETATM   11  C11 UNL     1      -2.401  -1.670   2.299  1.00  0.00     0.030 C 
HETATM   12  C12 UNL     1      -1.086  -1.489   1.636  1.00  0.00     0.032 C 
HETATM   13  N1  UNL     1      -0.211  -0.726   2.222  1.00  0.00    -0.271 N 
ATOM     14  H1  UNL     1      -0.390  -0.219   3.089  1.00  0.00     0.194 HD
HETATM   15  C26 UNL     1      -0.886  -2.221   0.327  1.00  0.00     0.060 C 
HETATM   16  C27 UNL     1      -2.114  -1.962  -0.541  1.00  0.00     0.020 C 
HETATM   17  C28 UNL     1      -3.449  -2.436   0.117  1.00  0.00    -0.016 C 
HETATM   18  C29 UNL     1      -3.521  -3.976  -0.082  1.00  0.00     0.020 C 
HETATM   19  C30 UNL     1      -4.709  -1.767  -0.579  1.00  0.00     0.002 C 
HETATM   20  C31 UNL     1      -4.609  -0.236  -0.771  1.00  0.00     0.007 C 
HETATM   21  C32 UNL     1      -5.767   0.324  -1.594  1.00  0.00     0.014 C 
HETATM   22  C33 UNL     1      -7.187  -0.049  -1.130  1.00  0.00     0.003 C 
HETATM   23  C34 UNL     1      -8.110   0.056  -2.387  1.00  0.00     0.020 C 
ENDROOT
BRANCH   3  24
HETATM   24  O1  UNL     1      -6.696   1.281   0.889  1.00  0.00    -0.377 OA
HETATM   25  H2  UNL     1      -7.088   1.886   1.541  1.00  0.00     0.211 HD
ENDBRANCH   3  24
BRANCH  13  26
HETATM   26  O2  UNL     1       1.007  -0.678   1.528  1.00  0.00    -0.271 OA
BRANCH  26  27
HETATM   27  C13 UNL     1       1.491   0.658   1.553  1.00  0.00     0.303 C 
BRANCH  27  28
HETATM   28  C14 UNL     1       3.006   0.736   1.739  1.00  0.00     0.244 C 
HETATM   29  O3  UNL     1       3.656  -0.045   2.430  1.00  0.00    -0.271 OA
HETATM   30  N2  UNL     1       3.585   1.818   1.090  1.00  0.00    -0.346 N 
HETATM   31  H16 UNL     1       3.138   2.087   0.219  1.00  0.00     0.163 HD
BRANCH  30  32
HETATM   32  C15 UNL     1       5.038   2.003   1.116  1.00  0.00     0.180 C 
BRANCH  32  33
HETATM   33  C16 UNL     1       5.634   1.205  -0.070  1.00  0.00     0.241 C 
HETATM   34  O4  UNL     1       4.977   0.939  -1.075  1.00  0.00    -0.271 OA
HETATM   35  N3  UNL     1       6.966   0.867   0.069  1.00  0.00    -0.344 N 
HETATM   36  H18 UNL     1       7.315   0.861   1.023  1.00  0.00     0.163 HD
BRANCH  35  37
HETATM   37  C17 UNL     1       7.574  -0.161  -0.792  1.00  0.00     0.186 C 
BRANCH  37  38
HETATM   38  C18 UNL     1       7.475  -1.442   0.042  1.00  0.00     0.163 C 
HETATM   39  O5  UNL     1       7.594  -1.508   1.257  1.00  0.00    -0.648 OA
BRANCH  38  40
HETATM   40  O6  UNL     1       7.277  -2.558  -0.691  1.00  0.00    -0.775 OA
HETATM   41  H20 UNL     1       7.191  -3.271  -0.022  1.00  0.00     0.167 HD
ENDBRANCH  38  40
ENDBRANCH  37  38
BRANCH  37  42
HETATM   42  C19 UNL     1       9.039   0.201  -1.148  1.00  0.00     0.014 C 
HETATM   43  C20 UNL     1       9.886  -1.036  -1.497  1.00  0.00     0.012 C 
BRANCH  42  44
HETATM   44  C21 UNL     1       9.133   1.179  -2.342  1.00  0.00     0.002 C 
HETATM   45  C22 UNL     1       8.523   2.549  -2.092  1.00  0.00     0.005 C 
ENDBRANCH  42  44
ENDBRANCH  37  42
ENDBRANCH  35  37
ENDBRANCH  32  33
BRANCH  32  46
HETATM   46  C23 UNL     1       5.380   3.510   1.103  1.00  0.00     0.009 C 
HETATM   47  C24 UNL     1       6.807   3.787   1.579  1.00  0.00     0.012 C 
HETATM   48  C25 UNL     1       5.130   4.185  -0.247  1.00  0.00     0.012 C 
ENDBRANCH  32  46
ENDBRANCH  30  32
ENDBRANCH  27  28
ENDBRANCH  26  27
ENDBRANCH  13  26
TORSDOF 12
