REMARK  14 active torsions:
REMARK  status: ('A' for Active; 'I' for Inactive)
REMARK    1  A    between atoms: O1_2  and  C2_3 
REMARK    2  A    between atoms: C2_3  and  C3_5 
REMARK    3  A    between atoms: C3_5  and  C4_6 
REMARK    4  A    between atoms: C3_5  and  N2_16 
REMARK    5  A    between atoms: C4_6  and  C5_7 
REMARK       I    between atoms: N2_16  and  C13_17 
REMARK    6  A    between atoms: C13_17  and  C14_19 
REMARK    7  A    between atoms: C14_19  and  C15_20 
REMARK    8  A    between atoms: C15_20  and  C16_21 
REMARK    9  A    between atoms: C16_21  and  O5_23 
REMARK   10  A    between atoms: O5_23  and  C17_24 
REMARK   11  A    between atoms: C17_24  and  C18_25 
REMARK   12  A    between atoms: C18_25  and  C19_27 
REMARK   13  A    between atoms: C19_27  and  O7_28 
REMARK   14  A    between atoms: C34_44  and  O9_45 
ROOT
HETATM    1  C17 UNL     1      -0.577  -0.284   0.612  1.00  0.00     0.260 C 
ENDROOT
BRANCH   1   2
HETATM    2  O5  UNL     1       0.604   0.464   0.309  1.00  0.00    -0.314 OA
BRANCH   2   3
HETATM    3  C16 UNL     1       1.591  -0.254  -0.289  1.00  0.00     0.259 C 
HETATM    4  O4  UNL     1       1.508  -1.437  -0.589  1.00  0.00    -0.265 OA
BRANCH   3   5
HETATM    5  C15 UNL     1       2.786   0.625  -0.548  1.00  0.00     0.120 C 
BRANCH   5   6
HETATM    6  C14 UNL     1       4.018  -0.209  -0.880  1.00  0.00     0.112 C 
BRANCH   6   7
HETATM    7  C13 UNL     1       5.222   0.663  -1.164  1.00  0.00     0.218 C 
HETATM    8  N2  UNL     1       6.385  -0.058  -1.323  1.00  0.00    -0.347 N 
HETATM    9  H13 UNL     1       6.290  -1.042  -1.550  1.00  0.00     0.163 HD
HETATM   10  O3  UNL     1       5.172   1.884  -1.250  1.00  0.00    -0.274 OA
BRANCH   8  11
HETATM   11  C3  UNL     1       7.614   0.602  -1.790  1.00  0.00     0.188 C 
BRANCH  11  12
HETATM   12  C2  UNL     1       7.630   0.541  -3.319  1.00  0.00     0.281 C 
HETATM   13  O2  UNL     1       7.118  -0.356  -3.979  1.00  0.00    -0.263 OA
BRANCH  12  14
HETATM   14  O1  UNL     1       8.341   1.583  -3.836  1.00  0.00    -0.325 OA
HETATM   15  C1  UNL     1       8.411   1.589  -5.262  1.00  0.00     0.213 C 
ENDBRANCH  12  14
ENDBRANCH  11  12
BRANCH  11  16
HETATM   16  C4  UNL     1       8.878  -0.099  -1.281  1.00  0.00     0.076 C 
BRANCH  16  17
HETATM   17  C5  UNL     1       9.128  -0.009   0.198  1.00  0.00    -0.028 A 
HETATM   18  C6  UNL     1       8.481   0.778   1.133  1.00  0.00     0.096 A 
HETATM   19  N1  UNL     1       9.037   0.541   2.362  1.00  0.00    -0.365 N 
HETATM   20  C7  UNL     1      10.049  -0.383   2.258  1.00  0.00     0.042 A 
HETATM   21  H8  UNL     1       8.750   0.983   3.225  1.00  0.00     0.165 HD
HETATM   22  C8  UNL     1      10.887  -0.917   3.244  1.00  0.00     0.030 A 
HETATM   23  C12 UNL     1      10.135  -0.744   0.913  1.00  0.00    -0.002 A 
HETATM   24  C9  UNL     1      11.848  -1.851   2.841  1.00  0.00     0.002 A 
HETATM   25  C10 UNL     1      11.963  -2.230   1.505  1.00  0.00     0.001 A 
HETATM   26  C11 UNL     1      11.115  -1.686   0.533  1.00  0.00     0.014 A 
ENDBRANCH  16  17
ENDBRANCH  11  16
ENDBRANCH   8  11
ENDBRANCH   6   7
ENDBRANCH   5   6
ENDBRANCH   3   5
ENDBRANCH   2   3
ENDBRANCH   1   2
BRANCH   1  27
HETATM   27  C18 UNL     1      -1.444   0.473   1.615  1.00  0.00     0.185 C 
HETATM   28  O6  UNL     1      -1.037   1.487   2.186  1.00  0.00    -0.292 OA
BRANCH  27  29
HETATM   29  C19 UNL     1      -2.854  -0.106   1.892  1.00  0.00     0.128 C 
HETATM   30  C20 UNL     1      -3.419   0.360   3.268  1.00  0.00     0.047 C 
HETATM   31  C21 UNL     1      -4.927   0.603   3.072  1.00  0.00     0.009 C 
HETATM   32  C22 UNL     1      -5.225   0.019   1.698  1.00  0.00     0.002 C 
HETATM   33  C23 UNL     1      -6.536   0.418   1.003  1.00  0.00    -0.002 C 
HETATM   34  C36 UNL     1      -3.955   0.350   0.876  1.00  0.00     0.001 C 
HETATM   35  C24 UNL     1      -7.742   0.133   1.917  1.00  0.00     0.010 C 
HETATM   36  C33 UNL     1      -6.650  -0.372  -0.346  1.00  0.00     0.035 C 
HETATM   37  C25 UNL     1      -9.072   0.395   1.220  1.00  0.00     0.036 C 
HETATM   38  C26 UNL     1      -9.143  -0.382  -0.069  1.00  0.00    -0.064 A 
HETATM   39  C27 UNL     1     -10.118  -1.287  -0.265  1.00  0.00     0.058 A 
HETATM   40  C31 UNL     1      -8.021  -0.101  -1.081  1.00  0.00     0.004 A 
HETATM   41  C28 UNL     1     -10.186  -2.110  -1.490  1.00  0.00     0.172 A 
HETATM   42  O8  UNL     1     -11.081  -2.927  -1.661  1.00  0.00    -0.289 OA
HETATM   43  C29 UNL     1      -9.125  -1.910  -2.495  1.00  0.00     0.052 A 
HETATM   44  C30 UNL     1      -8.154  -1.006  -2.302  1.00  0.00    -0.009 A 
HETATM   45  C32 UNL     1      -8.189   1.347  -1.593  1.00  0.00     0.025 C 
HETATM   46  C34 UNL     1      -5.368  -0.215  -1.217  1.00  0.00     0.124 C 
HETATM   47  C35 UNL     1      -4.053  -0.455  -0.439  1.00  0.00     0.045 C 
HETATM   48  C37 UNL     1      -3.797   1.865   0.580  1.00  0.00     0.019 C 
BRANCH  29  49
HETATM   49  O7  UNL     1      -2.778  -1.536   1.914  1.00  0.00    -0.381 OA
HETATM   50  H20 UNL     1      -2.315  -1.808   2.729  1.00  0.00     0.211 HD
ENDBRANCH  29  49
BRANCH  46  51
HETATM   51  O9  UNL     1      -5.321   1.064  -1.833  1.00  0.00    -0.395 OA
HETATM   52  H39 UNL     1      -4.554   1.083  -2.433  1.00  0.00     0.210 HD
ENDBRANCH  46  51
ENDBRANCH  27  29
ENDBRANCH   1  27
TORSDOF 14
