REMARK  10 active torsions:
REMARK  status: ('A' for Active; 'I' for Inactive)
REMARK    1  A    between atoms: C5_5  and  C6_6 
REMARK    2  A    between atoms: C6_6  and  C8_8 
REMARK    3  A    between atoms: C8_8  and  O1_9 
REMARK    4  A    between atoms: O1_9  and  C9_10 
REMARK    5  A    between atoms: C17_20  and  O4_21 
REMARK    6  A    between atoms: C19_23  and  O5_24 
REMARK    7  A    between atoms: O5_24  and  C20_25 
REMARK    8  A    between atoms: C20_25  and  C21_27 
REMARK    9  A    between atoms: C21_27  and  C22_28 
REMARK   10  A    between atoms: C24_30  and  O7_32 
ROOT
HETATM    1  C1  UNL     1      -2.797   3.987  -0.122  1.00  0.00     0.015 C 
HETATM    2  C2  UNL     1      -2.354   2.855  -0.693  1.00  0.00    -0.082 C 
HETATM    3  C3  UNL     1      -3.126   2.181  -1.799  1.00  0.00     0.034 C 
HETATM    4  C4  UNL     1      -2.829   0.682  -1.904  1.00  0.00     0.010 C 
HETATM    5  C5  UNL     1      -2.554   0.009  -0.544  1.00  0.00    -0.001 C 
HETATM    6  C11 UNL     1      -1.331   0.694   0.179  1.00  0.00     0.033 C 
HETATM    7  C12 UNL     1       0.030   0.041  -0.156  1.00  0.00     0.163 C 
HETATM    8  O3  UNL     1       0.556   0.772  -1.273  1.00  0.00    -0.376 OA
HETATM    9  C13 UNL     1      -0.007   2.084  -1.312  1.00  0.00     0.134 C 
HETATM   10  C14 UNL     1       1.090   3.163  -1.285  1.00  0.00     0.068 C 
HETATM   11  C15 UNL     1       1.864   3.339   0.006  1.00  0.00    -0.058 C 
HETATM   12  C16 UNL     1       1.518   4.342   0.841  1.00  0.00     0.017 C 
HETATM   13  C17 UNL     1       3.097   2.476   0.258  1.00  0.00     0.149 C 
HETATM   14  C18 UNL     1       3.166   1.034  -0.268  1.00  0.00     0.072 C 
HETATM   15  C19 UNL     1       2.548  -0.107   0.573  1.00  0.00     0.171 C 
HETATM   16  C24 UNL     1       1.061   0.014   1.036  1.00  0.00     0.107 C 
HETATM   17  C25 UNL     1       0.712  -1.190   1.940  1.00  0.00     0.051 C 
HETATM   18  C26 UNL     1      -1.094   2.161  -0.228  1.00  0.00     0.050 C 
ENDROOT
BRANCH   5  19
HETATM   19  C6  UNL     1      -3.815  -0.026   0.396  1.00  0.00     0.010 C 
HETATM   20  C7  UNL     1      -5.129  -0.323  -0.344  1.00  0.00     0.012 C 
BRANCH  19  21
HETATM   21  C8  UNL     1      -3.658  -1.042   1.554  1.00  0.00     0.183 C 
BRANCH  21  22
HETATM   22  O1  UNL     1      -3.957  -2.385   1.128  1.00  0.00    -0.321 OA
BRANCH  22  23
HETATM   23  C9  UNL     1      -2.910  -3.215   0.893  1.00  0.00     0.254 C 
HETATM   24  C10 UNL     1      -3.411  -4.566   0.484  1.00  0.00     0.126 C 
HETATM   25  O2  UNL     1      -1.728  -2.920   0.990  1.00  0.00    -0.266 OA
ENDBRANCH  22  23
ENDBRANCH  21  22
ENDBRANCH  19  21
ENDBRANCH   5  19
BRANCH  16  26
HETATM   26  O7  UNL     1       0.937   1.183   1.873  1.00  0.00    -0.385 OA
HETATM   27  H39 UNL     1       0.999   0.899   2.803  1.00  0.00     0.210 HD
ENDBRANCH  16  26
BRANCH  15  28
HETATM   28  O5  UNL     1       2.716  -1.314  -0.217  1.00  0.00    -0.313 OA
BRANCH  28  29
HETATM   29  C20 UNL     1       3.391  -2.351   0.345  1.00  0.00     0.259 C 
HETATM   30  O6  UNL     1       3.828  -2.383   1.486  1.00  0.00    -0.265 OA
BRANCH  29  31
HETATM   31  C21 UNL     1       3.520  -3.485  -0.641  1.00  0.00     0.111 C 
BRANCH  31  32
HETATM   32  C22 UNL     1       4.465  -3.150  -1.790  1.00  0.00     0.005 C 
HETATM   33  C23 UNL     1       5.916  -3.038  -1.340  1.00  0.00     0.005 C 
ENDBRANCH  31  32
ENDBRANCH  29  31
ENDBRANCH  28  29
ENDBRANCH  15  28
BRANCH  13  34
HETATM   34  O4  UNL     1       3.394   2.456   1.656  1.00  0.00    -0.391 OA
HETATM   35  H25 UNL     1       2.538   2.244   2.076  1.00  0.00     0.210 HD
ENDBRANCH  13  34
TORSDOF 10
