REMARK  7 active torsions:
REMARK  status: ('A' for Active; 'I' for Inactive)
REMARK    1  A    between atoms: C7_7  and  O1_8 
REMARK    2  A    between atoms: C19_21  and  O3_22 
REMARK    3  A    between atoms: C20_23  and  C22_25 
REMARK    4  A    between atoms: C22_25  and  O4_26 
REMARK    5  A    between atoms: C22_25  and  C23_27 
REMARK    6  A    between atoms: C23_27  and  O5_28 
REMARK    7  A    between atoms: C32_37  and  O6_38 
ROOT
HETATM    1  C1  UNL     1      -4.890   0.653  -2.842  1.00  0.00     0.015 C 
HETATM    2  C2  UNL     1      -4.813  -0.393  -1.701  1.00  0.00    -0.043 C 
HETATM    3  C3  UNL     1      -5.588  -1.671  -2.215  1.00  0.00     0.010 C 
HETATM    4  C4  UNL     1      -5.829  -2.868  -1.251  1.00  0.00     0.012 C 
HETATM    5  C5  UNL     1      -5.095  -2.734   0.007  1.00  0.00     0.082 C 
HETATM    6  C6  UNL     1      -4.416  -2.236   0.865  1.00  0.00    -0.151 C 
HETATM    7  C7  UNL     1      -3.519  -1.360   1.633  1.00  0.00     0.196 C 
HETATM    8  C8  UNL     1      -3.289   0.073   0.956  1.00  0.00     0.037 C 
HETATM    9  C9  UNL     1      -2.524   0.008  -0.422  1.00  0.00     0.031 C 
HETATM   10  C10 UNL     1      -3.313  -0.746  -1.515  1.00  0.00     0.019 C 
HETATM   11  C11 UNL     1      -1.027  -0.420  -0.345  1.00  0.00    -0.062 C 
HETATM   12  C12 UNL     1      -0.489  -1.317  -1.199  1.00  0.00     0.054 C 
HETATM   13  C13 UNL     1       0.964  -1.632  -1.268  1.00  0.00     0.155 C 
HETATM   14  O2  UNL     1       1.325  -2.550  -2.001  1.00  0.00    -0.293 OA
HETATM   15  C14 UNL     1       1.921  -0.743  -0.464  1.00  0.00     0.077 C 
HETATM   16  C15 UNL     1       3.451  -1.172  -0.497  1.00  0.00    -0.028 C 
HETATM   17  C16 UNL     1       3.624  -2.697  -0.191  1.00  0.00     0.016 C 
HETATM   18  C17 UNL     1       3.972  -0.925  -1.959  1.00  0.00     0.013 C 
HETATM   19  C18 UNL     1       4.470   0.491  -2.194  1.00  0.00     0.033 C 
HETATM   20  C19 UNL     1       5.695   0.825  -1.344  1.00  0.00     0.129 C 
HETATM   21  C20 UNL     1       5.775   0.095   0.033  1.00  0.00     0.014 C 
HETATM   22  C21 UNL     1       6.616  -1.216  -0.054  1.00  0.00     0.021 C 
HETATM   23  C24 UNL     1       4.308  -0.313   0.547  1.00  0.00     0.008 C 
HETATM   24  C25 UNL     1       3.479   0.859   1.113  1.00  0.00     0.007 C 
HETATM   25  C26 UNL     1       2.227   0.357   1.825  1.00  0.00     0.011 C 
HETATM   26  C27 UNL     1       1.270  -0.472   0.933  1.00  0.00    -0.021 C 
HETATM   27  C28 UNL     1       1.056  -1.823   1.680  1.00  0.00     0.017 C 
HETATM   28  C29 UNL     1      -0.146   0.303   0.697  1.00  0.00    -0.010 C 
HETATM   29  C30 UNL     1       0.095   1.740   0.133  1.00  0.00     0.021 C 
HETATM   30  C31 UNL     1      -0.906   0.444   2.039  1.00  0.00     0.047 C 
HETATM   31  C32 UNL     1      -2.359   0.911   1.922  1.00  0.00     0.132 C 
HETATM   32  C33 UNL     1      -4.700   0.842   0.695  1.00  0.00    -0.026 C 
HETATM   33  C34 UNL     1      -5.626   0.916   1.943  1.00  0.00     0.010 C 
HETATM   34  C35 UNL     1      -6.649   2.013   1.641  1.00  0.00     0.001 C 
HETATM   35  C36 UNL     1      -5.952   2.983   0.694  1.00  0.00     0.001 C 
HETATM   36  C37 UNL     1      -4.579   2.369   0.394  1.00  0.00     0.010 C 
HETATM   37  C38 UNL     1      -5.544   0.196  -0.464  1.00  0.00     0.019 C 
ENDROOT
BRANCH  21  38
HETATM   38  C22 UNL     1       6.526   1.018   1.080  1.00  0.00     0.152 C 
BRANCH  38  39
HETATM   39  O4  UNL     1       5.898   2.309   1.182  1.00  0.00    -0.393 OA
HETATM   40  H28 UNL     1       6.462   2.920   0.661  1.00  0.00     0.210 HD
ENDBRANCH  38  39
BRANCH  38  41
HETATM   41  C23 UNL     1       8.015   1.319   0.821  1.00  0.00     0.196 C 
BRANCH  41  42
HETATM   42  O5  UNL     1       8.119   2.298  -0.215  1.00  0.00    -0.398 OA
HETATM   43  H31 UNL     1       8.403   1.825  -1.031  1.00  0.00     0.209 HD
ENDBRANCH  41  42
ENDBRANCH  38  41
ENDBRANCH  21  38
BRANCH  20  44
HETATM   44  O3  UNL     1       6.885   0.584  -2.113  1.00  0.00    -0.395 OA
HETATM   45  H23 UNL     1       6.740  -0.223  -2.639  1.00  0.00     0.210 HD
ENDBRANCH  20  44
BRANCH  31  46
HETATM   46  O6  UNL     1      -2.898   0.967   3.246  1.00  0.00    -0.395 OA
HETATM   47  H46 UNL     1      -2.309   1.525   3.784  1.00  0.00     0.210 HD
ENDBRANCH  31  46
BRANCH   7  48
HETATM   48  O1  UNL     1      -2.298  -2.076   1.808  1.00  0.00    -0.383 OA
HETATM   49  H9  UNL     1      -2.463  -3.007   1.595  1.00  0.00     0.211 HD
ENDBRANCH   7  48
TORSDOF 7
