REMARK  18 active torsions:
REMARK  status: ('A' for Active; 'I' for Inactive)
REMARK    1  A    between atoms: C2_2  and  C4_4 
REMARK    2  A    between atoms: C4_4  and  N1_5 
REMARK    3  A    between atoms: C4_4  and  C30_38 
REMARK       I    between atoms: N1_5  and  C5_6 
REMARK    4  A    between atoms: C5_6  and  C6_8 
REMARK    5  A    between atoms: C6_8  and  C7_9 
REMARK    6  A    between atoms: C7_9  and  C8_10 
REMARK    7  A    between atoms: C8_10  and  O3_12 
REMARK    8  A    between atoms: O3_12  and  C9_13 
REMARK    9  A    between atoms: C9_13  and  C10_14 
REMARK   10  A    between atoms: C10_14  and  C11_16 
REMARK   11  A    between atoms: C11_16  and  O5_17 
REMARK   12  A    between atoms: C26_33  and  O7_34 
REMARK       I    between atoms: C30_38  and  N2_40 
REMARK   13  A    between atoms: N2_40  and  C31_41 
REMARK   14  A    between atoms: C31_41  and  C32_42 
REMARK   15  A    between atoms: C32_42  and  C33_43 
REMARK   16  A    between atoms: C32_42  and  C35_47 
REMARK   17  A    between atoms: C33_43  and  C34_44 
REMARK   18  A    between atoms: C34_44  and  O10_46 
ROOT
HETATM    1  C8  UNL     1      -1.360  -2.591   0.812  1.00  0.00     0.259 C 
HETATM    2  O2  UNL     1      -1.008  -3.559   0.153  1.00  0.00    -0.265 OA
ENDROOT
BRANCH   1   3
HETATM    3  C7  UNL     1      -2.439  -2.626   1.866  1.00  0.00     0.120 C 
BRANCH   3   4
HETATM    4  C6  UNL     1      -3.429  -1.474   1.741  1.00  0.00     0.112 C 
BRANCH   4   5
HETATM    5  C5  UNL     1      -4.247  -1.616   0.476  1.00  0.00     0.218 C 
HETATM    6  N1  UNL     1      -4.059  -0.609  -0.440  1.00  0.00    -0.347 N 
HETATM    7  H9  UNL     1      -3.459   0.175  -0.217  1.00  0.00     0.163 HD
HETATM    8  O1  UNL     1      -5.003  -2.564   0.292  1.00  0.00    -0.274 OA
BRANCH   6   9
HETATM    9  C4  UNL     1      -4.811  -0.551  -1.706  1.00  0.00     0.179 C 
BRANCH   9  10
HETATM   10  C2  UNL     1      -3.892  -0.727  -2.940  1.00  0.00     0.009 C 
HETATM   11  C1  UNL     1      -4.696  -1.098  -4.195  1.00  0.00     0.012 C 
HETATM   12  C3  UNL     1      -2.825  -1.808  -2.730  1.00  0.00     0.012 C 
ENDBRANCH   9  10
BRANCH   9  13
HETATM   13  C30 UNL     1      -5.601   0.790  -1.742  1.00  0.00     0.240 C 
HETATM   14  O8  UNL     1      -5.962   1.346  -2.774  1.00  0.00    -0.271 OA
HETATM   15  N2  UNL     1      -5.969   1.257  -0.493  1.00  0.00    -0.359 N 
HETATM   16  H43 UNL     1      -5.832   0.618   0.284  1.00  0.00     0.162 HD
BRANCH  15  17
HETATM   17  C31 UNL     1      -6.957   2.308  -0.318  1.00  0.00     0.132 C 
BRANCH  17  18
HETATM   18  C32 UNL     1      -8.368   1.722  -0.094  1.00  0.00     0.046 C 
BRANCH  18  19
HETATM   19  C33 UNL     1      -9.426   2.833  -0.138  1.00  0.00     0.120 C 
BRANCH  19  20
HETATM   20  C34 UNL     1     -10.821   2.272  -0.161  1.00  0.00     0.140 C 
HETATM   21  O9  UNL     1     -11.197   1.257  -0.719  1.00  0.00    -0.650 OA
BRANCH  20  22
HETATM   22  O10 UNL     1     -11.699   3.066   0.482  1.00  0.00    -0.776 OA
HETATM   23  H49 UNL     1     -12.554   2.597   0.381  1.00  0.00     0.167 HD
ENDBRANCH  20  22
ENDBRANCH  19  20
ENDBRANCH  18  19
BRANCH  18  24
HETATM   24  C35 UNL     1      -8.397   0.924   1.209  1.00  0.00    -0.052 A 
HETATM   25  C36 UNL     1      -8.279   1.543   2.463  1.00  0.00     0.007 A 
HETATM   26  C37 UNL     1      -8.259   0.781   3.633  1.00  0.00     0.001 A 
HETATM   27  C38 UNL     1      -8.349  -0.607   3.565  1.00  0.00     0.000 A 
HETATM   28  C39 UNL     1      -8.462  -1.235   2.328  1.00  0.00     0.001 A 
HETATM   29  C40 UNL     1      -8.487  -0.476   1.157  1.00  0.00     0.007 A 
ENDBRANCH  18  24
ENDBRANCH  17  18
ENDBRANCH  15  17
ENDBRANCH   9  13
ENDBRANCH   6   9
ENDBRANCH   4   5
ENDBRANCH   3   4
ENDBRANCH   1   3
BRANCH   1  30
HETATM   30  O3  UNL     1      -0.802  -1.350   0.721  1.00  0.00    -0.314 OA
BRANCH  30  31
HETATM   31  C9  UNL     1       0.323  -1.273  -0.162  1.00  0.00     0.260 C 
BRANCH  31  32
HETATM   32  C10 UNL     1       1.610  -1.763   0.489  1.00  0.00     0.185 C 
HETATM   33  O4  UNL     1       1.626  -2.223   1.639  1.00  0.00    -0.292 OA
BRANCH  32  34
HETATM   34  C11 UNL     1       2.931  -1.676  -0.303  1.00  0.00     0.128 C 
HETATM   35  C12 UNL     1       2.835  -1.400  -1.821  1.00  0.00     0.047 C 
HETATM   36  C13 UNL     1       4.067  -0.547  -2.191  1.00  0.00     0.009 C 
HETATM   37  C14 UNL     1       4.925  -0.545  -0.932  1.00  0.00     0.002 C 
HETATM   38  C15 UNL     1       5.997   0.540  -0.771  1.00  0.00    -0.002 C 
HETATM   39  C28 UNL     1       3.889  -0.558   0.216  1.00  0.00     0.001 C 
HETATM   40  C16 UNL     1       6.949   0.560  -1.986  1.00  0.00     0.010 C 
HETATM   41  C25 UNL     1       6.777   0.274   0.569  1.00  0.00     0.031 C 
HETATM   42  C17 UNL     1       8.146   1.492  -1.796  1.00  0.00     0.035 C 
HETATM   43  C18 UNL     1       8.830   1.154  -0.495  1.00  0.00    -0.068 C 
HETATM   44  C19 UNL     1      10.073   0.641  -0.500  1.00  0.00     0.053 C 
HETATM   45  C23 UNL     1       7.956   1.301   0.761  1.00  0.00    -0.014 C 
HETATM   46  C20 UNL     1      10.660   0.053   0.726  1.00  0.00     0.149 C 
HETATM   47  O6  UNL     1      11.831  -0.319   0.721  1.00  0.00    -0.293 OA
HETATM   48  C21 UNL     1       9.743  -0.159   1.904  1.00  0.00     0.084 C 
HETATM   49  C22 UNL     1       8.808   1.031   2.035  1.00  0.00     0.022 C 
HETATM   50  C24 UNL     1       7.478   2.771   0.883  1.00  0.00     0.020 C 
HETATM   51  C26 UNL     1       5.828   0.092   1.789  1.00  0.00     0.124 C 
HETATM   52  C27 UNL     1       4.656  -0.876   1.519  1.00  0.00     0.045 C 
HETATM   53  C29 UNL     1       3.106   0.775   0.351  1.00  0.00     0.019 C 
BRANCH  34  54
HETATM   54  O5  UNL     1       3.556  -2.963  -0.159  1.00  0.00    -0.381 OA
HETATM   55  H16 UNL     1       3.388  -3.259   0.760  1.00  0.00     0.211 HD
ENDBRANCH  34  54
BRANCH  51  56
HETATM   56  O7  UNL     1       5.318   1.339   2.237  1.00  0.00    -0.395 OA
HETATM   57  H37 UNL     1       4.834   1.179   3.067  1.00  0.00     0.210 HD
ENDBRANCH  51  56
ENDBRANCH  32  34
ENDBRANCH  31  32
ENDBRANCH  30  31
ENDBRANCH   1  30
TORSDOF 18
