REMARK  5 active torsions:
REMARK  status: ('A' for Active; 'I' for Inactive)
REMARK       I    between atoms: C1_2  and  N1_3 
REMARK       I    between atoms: C1_2  and  N2_11 
REMARK    1  A    between atoms: N1_3  and  C2_4 
REMARK    2  A    between atoms: C2_4  and  C3_5 
REMARK    3  A    between atoms: N2_11  and  C9_12 
REMARK    4  A    between atoms: C9_12  and  C10_13 
REMARK    5  A    between atoms: C13_17  and  C14_18 
ROOT
HETATM    1  C10 UNL     1       1.357  -1.791   1.243  1.00  0.00     0.158 C 
HETATM    2  C11 UNL     1       0.619  -0.454   1.180  1.00  0.00     0.163 C 
HETATM    3  N3  UNL     1      -0.584  -0.666   0.409  1.00  0.00    -0.340 N 
HETATM    4  C12 UNL     1      -1.837  -0.179   0.601  1.00  0.00     0.122 A 
HETATM    5  C13 UNL     1      -2.592  -0.758  -0.401  1.00  0.00     0.059 A 
HETATM    6  N4  UNL     1      -1.802  -1.595  -1.170  1.00  0.00    -0.342 N 
ATOM      7  H4  UNL     1      -2.096  -2.153  -1.972  1.00  0.00     0.167 HD
HETATM    8  C23 UNL     1      -0.592  -1.523  -0.653  1.00  0.00     0.108 A 
HETATM    9  C24 UNL     1       0.660  -2.196  -1.099  1.00  0.00     0.245 C 
HETATM   10  O4  UNL     1       1.640  -2.352  -0.049  1.00  0.00    -0.375 OA
ENDROOT
BRANCH   1  11
HETATM   11  C9  UNL     1       2.668  -1.712   2.055  1.00  0.00     0.157 C 
BRANCH  11  12
HETATM   12  N2  UNL     1       3.430  -0.469   1.956  1.00  0.00    -0.341 N 
HETATM   13  C1  UNL     1       3.986  -0.051   0.771  1.00  0.00     0.316 C 
HETATM   14  O1  UNL     1       3.794  -0.581  -0.311  1.00  0.00    -0.247 OA
HETATM   15  N1  UNL     1       4.726   1.091   0.936  1.00  0.00    -0.339 N 
HETATM   16  H1  UNL     1       5.016   1.352   1.864  1.00  0.00     0.164 HD
HETATM   17  H9  UNL     1       3.991  -0.246   2.765  1.00  0.00     0.164 HD
BRANCH  15  18
HETATM   18  C2  UNL     1       5.458   1.676  -0.166  1.00  0.00     0.162 C 
BRANCH  18  19
HETATM   19  C3  UNL     1       6.917   1.306  -0.099  1.00  0.00    -0.040 A 
HETATM   20  C4  UNL     1       7.354   0.062  -0.577  1.00  0.00     0.009 A 
HETATM   21  C5  UNL     1       8.705  -0.292  -0.508  1.00  0.00     0.001 A 
HETATM   22  C6  UNL     1       9.629   0.590   0.048  1.00  0.00     0.000 A 
HETATM   23  C7  UNL     1       9.204   1.825   0.538  1.00  0.00     0.001 A 
HETATM   24  C8  UNL     1       7.854   2.182   0.467  1.00  0.00     0.009 A 
ENDBRANCH  18  19
ENDBRANCH  15  18
ENDBRANCH  11  12
ENDBRANCH   1  11
BRANCH   5  25
HETATM   25  C14 UNL     1      -4.008  -0.540  -0.666  1.00  0.00    -0.005 A 
HETATM   26  C15 UNL     1      -4.581  -1.080  -1.826  1.00  0.00     0.017 A 
HETATM   27  C16 UNL     1      -5.933  -0.880  -2.118  1.00  0.00     0.040 A 
HETATM   28  C17 UNL     1      -6.739  -0.144  -1.250  1.00  0.00     0.102 A 
HETATM   29  O2  UNL     1      -8.055  -0.045  -1.626  1.00  0.00    -0.348 OA
HETATM   30  C21 UNL     1      -6.172   0.435  -0.106  1.00  0.00     0.102 A 
HETATM   31  C18 UNL     1      -8.959  -0.066  -0.521  1.00  0.00     0.178 C 
HETATM   32  C19 UNL     1      -9.147   1.323   0.069  1.00  0.00     0.053 C 
HETATM   33  C20 UNL     1      -7.829   2.063   0.201  1.00  0.00     0.178 C 
HETATM   34  O3  UNL     1      -6.832   1.233   0.796  1.00  0.00    -0.348 OA
HETATM   35  C22 UNL     1      -4.822   0.210   0.193  1.00  0.00     0.053 A 
ENDBRANCH   5  25
TORSDOF 5
