REMARK  12 active torsions:
REMARK  status: ('A' for Active; 'I' for Inactive)
REMARK    1  A    between atoms: C3_3  and  O1_4 
REMARK    2  A    between atoms: N1_14  and  O2_16 
REMARK    3  A    between atoms: O2_16  and  C13_17 
REMARK    4  A    between atoms: C13_17  and  C14_18 
REMARK       I    between atoms: C14_18  and  N2_20 
REMARK    5  A    between atoms: N2_20  and  C15_21 
REMARK    6  A    between atoms: C15_21  and  C16_22 
REMARK    7  A    between atoms: C15_21  and  C26_36 
REMARK       I    between atoms: C16_22  and  N3_24 
REMARK    8  A    between atoms: N3_24  and  C17_25 
REMARK    9  A    between atoms: C17_25  and  C18_26 
REMARK   10  A    between atoms: C17_25  and  C25_33 
REMARK   11  A    between atoms: C18_26  and  C19_27 
REMARK   12  A    between atoms: C25_33  and  O6_35 
ROOT
HETATM    1  C1  UNL     1      -9.366   2.352  -2.258  1.00  0.00     0.015 C 
HETATM    2  C2  UNL     1      -8.180   2.289  -2.077  1.00  0.00    -0.078 C 
HETATM    3  C3  UNL     1      -6.716   2.246  -1.847  1.00  0.00     0.128 C 
HETATM    4  C4  UNL     1      -6.394   2.886  -0.488  1.00  0.00     0.052 C 
HETATM    5  C5  UNL     1      -6.268   1.726   0.507  1.00  0.00     0.010 C 
HETATM    6  C6  UNL     1      -6.547   0.422  -0.280  1.00  0.00     0.002 C 
HETATM    7  C7  UNL     1      -5.924  -0.892   0.279  1.00  0.00    -0.004 C 
HETATM    8  C8  UNL     1      -5.816  -0.841   1.819  1.00  0.00     0.010 C 
HETATM    9  C9  UNL     1      -5.153  -2.063   2.434  1.00  0.00     0.035 C 
HETATM   10  C10 UNL     1      -3.801  -2.232   1.793  1.00  0.00    -0.069 C 
HETATM   11  C11 UNL     1      -2.685  -2.108   2.529  1.00  0.00     0.030 C 
HETATM   12  C12 UNL     1      -1.340  -2.090   1.903  1.00  0.00     0.032 C 
HETATM   13  N1  UNL     1      -0.310  -2.161   2.695  1.00  0.00    -0.271 N 
ATOM     14  H1  UNL     1      -0.379  -2.291   3.704  1.00  0.00     0.194 HD
HETATM   15  C29 UNL     1      -1.282  -1.920   0.402  1.00  0.00     0.060 C 
HETATM   16  C30 UNL     1      -2.390  -2.732  -0.264  1.00  0.00     0.020 C 
HETATM   17  C31 UNL     1      -3.825  -2.484   0.293  1.00  0.00    -0.016 C 
HETATM   18  C32 UNL     1      -4.592  -3.816   0.021  1.00  0.00     0.020 C 
HETATM   19  C33 UNL     1      -4.609  -1.332  -0.450  1.00  0.00     0.002 C 
HETATM   20  C34 UNL     1      -3.811  -0.090  -0.853  1.00  0.00     0.007 C 
HETATM   21  C35 UNL     1      -4.574   0.806  -1.849  1.00  0.00     0.014 C 
HETATM   22  C36 UNL     1      -6.131   0.800  -1.718  1.00  0.00     0.003 C 
HETATM   23  C37 UNL     1      -6.735  -0.141  -2.784  1.00  0.00     0.020 C 
ENDROOT
BRANCH   3  24
HETATM   24  O1  UNL     1      -6.085   2.965  -2.898  1.00  0.00    -0.377 OA
HETATM   25  H2  UNL     1      -6.531   3.828  -2.957  1.00  0.00     0.211 HD
ENDBRANCH   3  24
BRANCH  13  26
HETATM   26  O2  UNL     1       0.905  -2.039   2.006  1.00  0.00    -0.271 OA
BRANCH  26  27
HETATM   27  C13 UNL     1       1.943  -2.547   2.836  1.00  0.00     0.303 C 
BRANCH  27  28
HETATM   28  C14 UNL     1       3.282  -1.887   2.526  1.00  0.00     0.244 C 
HETATM   29  O3  UNL     1       4.343  -2.508   2.557  1.00  0.00    -0.271 OA
HETATM   30  N2  UNL     1       3.206  -0.525   2.302  1.00  0.00    -0.346 N 
HETATM   31  H16 UNL     1       2.308  -0.198   1.951  1.00  0.00     0.163 HD
BRANCH  30  32
HETATM   32  C15 UNL     1       4.385   0.236   1.884  1.00  0.00     0.180 C 
BRANCH  32  33
HETATM   33  C16 UNL     1       4.327   0.384   0.345  1.00  0.00     0.241 C 
HETATM   34  O4  UNL     1       3.262   0.435  -0.269  1.00  0.00    -0.271 OA
HETATM   35  N3  UNL     1       5.549   0.459  -0.277  1.00  0.00    -0.345 N 
HETATM   36  H18 UNL     1       6.360   0.680   0.289  1.00  0.00     0.163 HD
BRANCH  35  37
HETATM   37  C17 UNL     1       5.675   0.717  -1.715  1.00  0.00     0.186 C 
BRANCH  37  38
HETATM   38  C18 UNL     1       6.775  -0.148  -2.355  1.00  0.00     0.074 C 
BRANCH  38  39
HETATM   39  C19 UNL     1       8.141  -0.004  -1.717  1.00  0.00    -0.056 A 
HETATM   40  C20 UNL     1       8.515  -0.847  -0.660  1.00  0.00     0.007 A 
HETATM   41  C21 UNL     1       9.762  -0.708  -0.051  1.00  0.00     0.001 A 
HETATM   42  C22 UNL     1      10.647   0.274  -0.489  1.00  0.00     0.000 A 
HETATM   43  C23 UNL     1      10.285   1.116  -1.540  1.00  0.00     0.001 A 
HETATM   44  C24 UNL     1       9.038   0.978  -2.153  1.00  0.00     0.007 A 
ENDBRANCH  38  39
ENDBRANCH  37  38
BRANCH  37  45
HETATM   45  C25 UNL     1       5.909   2.197  -2.030  1.00  0.00     0.163 C 
HETATM   46  O5  UNL     1       6.038   2.679  -3.145  1.00  0.00    -0.648 OA
BRANCH  45  47
HETATM   47  O6  UNL     1       5.990   2.995  -0.944  1.00  0.00    -0.775 OA
HETATM   48  H27 UNL     1       6.121   3.890  -1.320  1.00  0.00     0.167 HD
ENDBRANCH  45  47
ENDBRANCH  37  45
ENDBRANCH  35  37
ENDBRANCH  32  33
BRANCH  32  49
HETATM   49  C26 UNL     1       4.449   1.579   2.646  1.00  0.00     0.009 C 
HETATM   50  C27 UNL     1       3.429   2.612   2.160  1.00  0.00     0.012 C 
HETATM   51  C28 UNL     1       5.856   2.179   2.639  1.00  0.00     0.012 C 
ENDBRANCH  32  49
ENDBRANCH  30  32
ENDBRANCH  27  28
ENDBRANCH  26  27
ENDBRANCH  13  26
TORSDOF 12
