REMARK  5 active torsions:
REMARK  status: ('A' for Active; 'I' for Inactive)
REMARK    1  A    between atoms: C4_4  and  C5_5 
REMARK    2  A    between atoms: C5_5  and  C6_6 
REMARK    3  A    between atoms: C6_6  and  C7_7 
REMARK    4  A    between atoms: C7_7  and  C9_9 
REMARK    5  A    between atoms: C24_24  and  O1_26 
ROOT
HETATM    1  C9  UNL     1       2.447  -0.980  -0.531  1.00  0.00    -0.002 C 
HETATM    2  C10 UNL     1       2.173  -2.209  -1.438  1.00  0.00     0.007 C 
HETATM    3  C11 UNL     1       0.638  -2.334  -1.571  1.00  0.00     0.015 C 
HETATM    4  C12 UNL     1       0.083  -0.999  -1.038  1.00  0.00    -0.013 C 
HETATM    5  C13 UNL     1       0.150   0.022  -2.218  1.00  0.00     0.021 C 
HETATM    6  C14 UNL     1      -1.352  -0.920  -0.537  1.00  0.00    -0.068 C 
HETATM    7  C15 UNL     1      -1.689   0.017   0.391  1.00  0.00    -0.068 C 
HETATM    8  C16 UNL     1      -0.643   0.928   1.037  1.00  0.00     0.036 C 
HETATM    9  C17 UNL     1       0.836   0.700   0.654  1.00  0.00     0.015 C 
HETATM   10  C18 UNL     1       1.072  -0.729   0.152  1.00  0.00    -0.029 C 
HETATM   11  C19 UNL     1       0.877  -1.700   1.355  1.00  0.00     0.016 C 
HETATM   12  C20 UNL     1      -3.153   0.119   0.889  1.00  0.00    -0.016 C 
HETATM   13  C21 UNL     1      -3.246  -0.931   2.031  1.00  0.00     0.020 C 
HETATM   14  C22 UNL     1      -3.571   1.485   1.504  1.00  0.00     0.017 C 
HETATM   15  C23 UNL     1      -4.144   2.444   0.473  1.00  0.00     0.039 C 
HETATM   16  C24 UNL     1      -5.467   1.931  -0.161  1.00  0.00     0.061 C 
HETATM   17  C25 UNL     1      -5.630   2.676  -1.502  1.00  0.00     0.046 C 
HETATM   18  C26 UNL     1      -5.528   0.339  -0.283  1.00  0.00    -0.012 C 
HETATM   19  C27 UNL     1      -6.307  -0.301   0.891  1.00  0.00     0.018 C 
HETATM   20  C28 UNL     1      -6.323  -0.087  -1.547  1.00  0.00     0.018 C 
HETATM   21  C29 UNL     1      -4.051  -0.181  -0.375  1.00  0.00     0.009 C 
HETATM   22  C30 UNL     1      -3.833  -1.631  -0.827  1.00  0.00     0.011 C 
HETATM   23  C31 UNL     1      -2.353  -1.872  -1.169  1.00  0.00     0.036 C 
ENDROOT
BRANCH   1  24
HETATM   24  C7  UNL     1       3.721  -1.035   0.363  1.00  0.00    -0.014 C 
HETATM   25  C8  UNL     1       4.072  -2.422   0.918  1.00  0.00     0.010 C 
BRANCH  24  26
HETATM   26  C6  UNL     1       4.925  -0.462  -0.433  1.00  0.00     0.008 C 
BRANCH  26  27
HETATM   27  C5  UNL     1       6.224  -0.371   0.376  1.00  0.00     0.028 C 
BRANCH  27  28
HETATM   28  C4  UNL     1       7.310   0.298  -0.424  1.00  0.00    -0.025 C 
HETATM   29  C2  UNL     1       7.898   1.487  -0.189  1.00  0.00    -0.091 C 
HETATM   30  C1  UNL     1       9.006   1.983  -1.083  1.00  0.00     0.042 C 
HETATM   31  C3  UNL     1       7.542   2.424   0.932  1.00  0.00     0.042 C 
ENDBRANCH  27  28
ENDBRANCH  26  27
ENDBRANCH  24  26
ENDBRANCH   1  24
BRANCH  16  32
HETATM   32  O1  UNL     1      -6.555   2.368   0.669  1.00  0.00    -0.389 OA
HETATM   33  H41 UNL     1      -6.538   3.339   0.707  1.00  0.00     0.210 HD
ENDBRANCH  16  32
TORSDOF 5
