REMARK  10 active torsions:
REMARK  status: ('A' for Active; 'I' for Inactive)
REMARK    1  A    between atoms: O1_2  and  C2_3 
REMARK    2  A    between atoms: C4_5  and  O2_6 
REMARK    3  A    between atoms: O2_6  and  C5_7 
REMARK    4  A    between atoms: C8_10  and  C9_11 
REMARK    5  A    between atoms: N1_12  and  C10_14 
REMARK    6  A    between atoms: C10_14  and  C11_15 
REMARK    7  A    between atoms: C21_27  and  C22_28 
REMARK    8  A    between atoms: C28_36  and  O5_37 
REMARK    9  A    between atoms: C32_41  and  O6_42 
REMARK   10  A    between atoms: C36_47  and  O8_48 
ROOT
HETATM    1  C5  UNL     1      -2.593   0.175  -0.904  1.00  0.00     0.127 C 
HETATM    2  C6  UNL     1      -1.636  -0.060  -2.064  1.00  0.00     0.033 C 
HETATM    3  C7  UNL     1      -0.152   0.072  -1.726  1.00  0.00     0.021 C 
HETATM    4  C8  UNL     1       0.232  -0.108  -0.221  1.00  0.00     0.026 C 
HETATM    5  C16 UNL     1       1.738  -0.616  -0.159  1.00  0.00     0.009 C 
HETATM    6  C17 UNL     1       2.726   0.235   0.660  1.00  0.00     0.007 C 
HETATM    7  C18 UNL     1       4.166  -0.251   0.460  1.00  0.00     0.013 C 
HETATM    8  C19 UNL     1       4.380  -1.741   0.841  1.00  0.00    -0.005 C 
HETATM    9  C20 UNL     1       4.375  -1.878   2.376  1.00  0.00     0.019 C 
HETATM   10  C21 UNL     1       5.697  -2.316   0.229  1.00  0.00     0.028 C 
HETATM   11  C26 UNL     1       5.318  -2.591  -1.243  1.00  0.00     0.013 C 
HETATM   12  C27 UNL     1       3.805  -2.848  -1.275  1.00  0.00     0.040 C 
HETATM   13  C28 UNL     1       3.306  -2.651   0.169  1.00  0.00     0.070 C 
HETATM   14  C29 UNL     1       1.865  -2.094   0.295  1.00  0.00     0.026 C 
HETATM   15  C30 UNL     1       0.821  -2.960  -0.419  1.00  0.00     0.011 C 
HETATM   16  C31 UNL     1      -0.621  -2.533  -0.115  1.00  0.00     0.039 C 
HETATM   17  C32 UNL     1      -0.764  -1.097   0.452  1.00  0.00     0.073 C 
HETATM   18  C33 UNL     1      -2.233  -0.624   0.355  1.00  0.00     0.071 C 
ENDROOT
BRANCH   1  19
HETATM   19  O2  UNL     1      -3.889  -0.229  -1.359  1.00  0.00    -0.356 OA
BRANCH  19  20
HETATM   20  C4  UNL     1      -4.965   0.568  -0.859  1.00  0.00     0.263 C 
HETATM   21  C3  UNL     1      -6.240  -0.025  -1.451  1.00  0.00     0.095 C 
HETATM   22  C2  UNL     1      -7.478   0.773  -1.051  1.00  0.00     0.156 C 
HETATM   23  C36 UNL     1      -7.202   1.651   0.183  1.00  0.00     0.175 C 
HETATM   24  C34 UNL     1      -6.234   0.969   1.167  1.00  0.00     0.151 C 
HETATM   25  O7  UNL     1      -5.002   0.547   0.566  1.00  0.00    -0.354 OA
HETATM   26  C35 UNL     1      -6.834  -0.232   1.901  1.00  0.00     0.042 C 
BRANCH  22  27
HETATM   27  O1  UNL     1      -8.592  -0.096  -0.750  1.00  0.00    -0.388 OA
HETATM   28  C1  UNL     1      -9.116  -0.756  -1.898  1.00  0.00     0.202 C 
ENDBRANCH  22  27
BRANCH  23  29
HETATM   29  O8  UNL     1      -8.430   2.045   0.797  1.00  0.00    -0.390 OA
HETATM   30  H50 UNL     1      -8.991   1.244   0.786  1.00  0.00     0.210 HD
ENDBRANCH  23  29
ENDBRANCH  19  20
ENDBRANCH   1  19
BRANCH  17  31
HETATM   31  O6  UNL     1      -0.464  -1.177   1.862  1.00  0.00    -0.389 OA
HETATM   32  H42 UNL     1      -1.091  -1.807   2.264  1.00  0.00     0.210 HD
ENDBRANCH  17  31
BRANCH   4  33
HETATM   33  C9  UNL     1       0.100   1.224   0.539  1.00  0.00     0.069 C 
HETATM   34  N1  UNL     1      -0.251   2.314  -0.049  1.00  0.00    -0.397 N 
ATOM     35  H1  UNL     1      -0.458   2.354  -1.047  1.00  0.00     0.159 HD
BRANCH  34  36
HETATM   36  C10 UNL     1      -0.332   3.491   0.817  1.00  0.00     0.158 C 
BRANCH  36  37
HETATM   37  C11 UNL     1       0.696   4.518   0.441  1.00  0.00    -0.025 A 
HETATM   38  C12 UNL     1       1.988   4.492   0.972  1.00  0.00     0.011 A 
HETATM   39  C13 UNL     1       2.916   5.448   0.573  1.00  0.00     0.018 A 
HETATM   40  C14 UNL     1       2.523   6.400  -0.354  1.00  0.00     0.087 A 
HETATM   41  N2  UNL     1       1.288   6.454  -0.896  1.00  0.00    -0.375 N 
HETATM   42  C15 UNL     1       0.409   5.506  -0.495  1.00  0.00     0.096 A 
ATOM     43  H2  UNL     1       1.030   7.172  -1.573  1.00  0.00     0.164 HD
ENDBRANCH  36  37
ENDBRANCH  34  36
ENDBRANCH   4  33
BRANCH  13  44
HETATM   44  O5  UNL     1       3.303  -3.940   0.809  1.00  0.00    -0.389 OA
HETATM   45  H36 UNL     1       4.041  -4.474   0.470  1.00  0.00     0.210 HD
ENDBRANCH  13  44
BRANCH  10  46
HETATM   46  C22 UNL     1       6.960  -1.525   0.435  1.00  0.00    -0.045 A 
HETATM   47  C23 UNL     1       7.585  -0.700  -0.408  1.00  0.00     0.087 A 
HETATM   48  C24 UNL     1       8.800  -0.231   0.255  1.00  0.00     0.283 A 
HETATM   49  O3  UNL     1       9.587   0.562  -0.220  1.00  0.00    -0.260 OA
HETATM   50  O4  UNL     1       8.897  -0.824   1.473  1.00  0.00    -0.314 OA
HETATM   51  C25 UNL     1       7.756  -1.655   1.685  1.00  0.00     0.213 A 
ENDBRANCH  10  46
TORSDOF 10
