REMARK  15 active torsions:
REMARK  status: ('A' for Active; 'I' for Inactive)
REMARK    1  A    between atoms: C2_2  and  C3_3 
REMARK    2  A    between atoms: C2_2  and  C35_44 
REMARK    3  A    between atoms: C3_3  and  C4_4 
REMARK    4  A    between atoms: C4_4  and  C5_5 
REMARK    5  A    between atoms: C5_5  and  C7_7 
REMARK    6  A    between atoms: C9_9  and  O1_10 
REMARK    7  A    between atoms: C10_11  and  C11_12 
REMARK    8  A    between atoms: C11_12  and  O3_14 
REMARK    9  A    between atoms: C22_25  and  O4_26 
REMARK   10  A    between atoms: O4_26  and  C23_27 
REMARK   11  A    between atoms: C24_29  and  C25_30 
REMARK   12  A    between atoms: C25_30  and  O6_31 
REMARK   13  A    between atoms: C26_32  and  O7_33 
REMARK   14  A    between atoms: C28_35  and  O8_36 
REMARK   15  A    between atoms: C29_37  and  O9_38 
ROOT
HETATM    1  C7  UNL     1      -4.087   0.081   0.124  1.00  0.00     0.001 C 
HETATM    2  C8  UNL     1      -4.447   1.493  -0.445  1.00  0.00     0.039 C 
HETATM    3  C9  UNL     1      -3.134   2.160  -0.918  1.00  0.00     0.142 C 
HETATM    4  C10 UNL     1      -2.083   1.024  -0.846  1.00  0.00     0.102 C 
HETATM    5  C12 UNL     1      -0.585   1.351  -0.783  1.00  0.00    -0.054 C 
HETATM    6  C13 UNL     1       0.286   0.498  -0.177  1.00  0.00    -0.067 C 
HETATM    7  C14 UNL     1      -0.213  -0.721   0.608  1.00  0.00     0.036 C 
HETATM    8  C15 UNL     1      -1.718  -1.049   0.519  1.00  0.00     0.015 C 
HETATM    9  C16 UNL     1      -2.564   0.228   0.431  1.00  0.00    -0.016 C 
HETATM   10  C17 UNL     1      -2.381   1.006   1.772  1.00  0.00     0.017 C 
HETATM   11  C18 UNL     1       1.825   0.707  -0.235  1.00  0.00    -0.013 C 
HETATM   12  C19 UNL     1       2.256   1.170   1.185  1.00  0.00     0.021 C 
HETATM   13  C20 UNL     1       2.578  -0.622  -0.587  1.00  0.00     0.017 C 
HETATM   14  C21 UNL     1       3.729  -0.487  -1.596  1.00  0.00     0.037 C 
HETATM   15  C22 UNL     1       4.571   0.785  -1.447  1.00  0.00     0.153 C 
HETATM   16  C30 UNL     1       3.716   2.036  -1.317  1.00  0.00    -0.055 C 
HETATM   17  C31 UNL     1       4.285   3.253  -1.212  1.00  0.00     0.017 C 
HETATM   18  C32 UNL     1       2.213   1.773  -1.321  1.00  0.00     0.029 C 
HETATM   19  C33 UNL     1       1.306   3.002  -1.237  1.00  0.00     0.014 C 
HETATM   20  C34 UNL     1      -0.136   2.591  -1.520  1.00  0.00     0.036 C 
ENDROOT
BRANCH  15  21
HETATM   21  O4  UNL     1       5.392   0.698  -0.276  1.00  0.00    -0.349 OA
BRANCH  21  22
HETATM   22  C23 UNL     1       6.725   0.265  -0.569  1.00  0.00     0.292 C 
HETATM   23  O5  UNL     1       6.753  -1.124  -0.878  1.00  0.00    -0.348 OA
HETATM   24  C24 UNL     1       7.262  -1.941   0.182  1.00  0.00     0.179 C 
HETATM   25  C26 UNL     1       8.746  -1.597   0.462  1.00  0.00     0.183 C 
HETATM   26  C28 UNL     1       8.938  -0.068   0.527  1.00  0.00     0.183 C 
HETATM   27  C29 UNL     1       7.604   0.658   0.635  1.00  0.00     0.204 C 
BRANCH  24  28
HETATM   28  C25 UNL     1       7.041  -3.411  -0.183  1.00  0.00     0.198 C 
BRANCH  28  29
HETATM   29  O6  UNL     1       7.368  -4.274   0.907  1.00  0.00    -0.398 OA
HETATM   30  H36 UNL     1       6.688  -4.146   1.592  1.00  0.00     0.209 HD
ENDBRANCH  28  29
ENDBRANCH  24  28
BRANCH  25  31
HETATM   31  O7  UNL     1       9.564  -2.127  -0.602  1.00  0.00    -0.385 OA
HETATM   32  C27 UNL     1      10.943  -2.223  -0.241  1.00  0.00     0.202 C 
ENDBRANCH  25  31
BRANCH  26  33
HETATM   33  O8  UNL     1       9.756   0.274   1.655  1.00  0.00    -0.390 OA
HETATM   34  H42 UNL     1       9.709   1.250   1.719  1.00  0.00     0.210 HD
ENDBRANCH  26  33
BRANCH  27  35
HETATM   35  O9  UNL     1       7.830   2.077   0.680  1.00  0.00    -0.388 OA
HETATM   36  H44 UNL     1       6.943   2.484   0.683  1.00  0.00     0.210 HD
ENDBRANCH  27  35
ENDBRANCH  21  22
ENDBRANCH  15  21
BRANCH   4  37
HETATM   37  C11 UNL     1      -2.185   0.177  -2.161  1.00  0.00     0.156 C 
HETATM   38  O2  UNL     1      -1.413  -0.691  -2.548  1.00  0.00    -0.649 OA
BRANCH  37  39
HETATM   39  O3  UNL     1      -3.266   0.430  -2.938  1.00  0.00    -0.775 OA
HETATM   40  H16 UNL     1      -3.145  -0.203  -3.681  1.00  0.00     0.167 HD
ENDBRANCH  37  39
ENDBRANCH   4  37
BRANCH   3  41
HETATM   41  O1  UNL     1      -2.834   3.253  -0.048  1.00  0.00    -0.394 OA
HETATM   42  H15 UNL     1      -3.566   3.890  -0.106  1.00  0.00     0.210 HD
ENDBRANCH   3  41
BRANCH   1  43
HETATM   43  C5  UNL     1      -5.075  -0.356   1.249  1.00  0.00    -0.013 C 
HETATM   44  C6  UNL     1      -4.711  -1.723   1.831  1.00  0.00     0.010 C 
BRANCH  43  45
HETATM   45  C4  UNL     1      -6.534  -0.368   0.709  1.00  0.00     0.009 C 
BRANCH  45  46
HETATM   46  C3  UNL     1      -7.600  -0.624   1.788  1.00  0.00     0.034 C 
BRANCH  46  47
HETATM   47  C2  UNL     1      -8.999  -0.265   1.310  1.00  0.00    -0.086 C 
HETATM   48  C1  UNL     1      -9.588   0.857   1.770  1.00  0.00     0.014 C 
BRANCH  47  49
HETATM   49  C35 UNL     1      -9.651  -1.224   0.316  1.00  0.00     0.005 C 
HETATM   50  C36 UNL     1     -10.757  -0.608  -0.555  1.00  0.00     0.014 C 
HETATM   51  C37 UNL     1     -10.191  -2.459   1.042  1.00  0.00     0.014 C 
ENDBRANCH  47  49
ENDBRANCH  46  47
ENDBRANCH  45  46
ENDBRANCH  43  45
ENDBRANCH   1  43
TORSDOF 15
