REMARK  9 active torsions:
REMARK  status: ('A' for Active; 'I' for Inactive)
REMARK    1  A    between atoms: C2_2  and  C3_3 
REMARK    2  A    between atoms: C2_2  and  C11_13 
REMARK    3  A    between atoms: C3_3  and  C4_4 
REMARK    4  A    between atoms: C4_4  and  C5_5 
REMARK    5  A    between atoms: C5_5  and  C8_9 
REMARK    6  A    between atoms: C6_6  and  C7_7 
REMARK    7  A    between atoms: C7_7  and  O1_8 
REMARK    8  A    between atoms: C8_9  and  O2_12 
REMARK    9  A    between atoms: C25_27  and  O3_28 
ROOT
HETATM    1  C11 UNL     1      -1.167  -0.668   0.326  1.00  0.00     0.005 C 
HETATM    2  C12 UNL     1      -1.158  -0.323   1.832  1.00  0.00     0.033 C 
HETATM    3  C13 UNL     1       0.245   0.129   2.056  1.00  0.00    -0.018 C 
HETATM    4  C14 UNL     1       1.059  -0.276   1.072  1.00  0.00    -0.047 C 
HETATM    5  C15 UNL     1       2.478  -0.001   0.912  1.00  0.00    -0.048 C 
HETATM    6  C16 UNL     1       3.098  -0.251  -0.269  1.00  0.00    -0.064 C 
HETATM    7  C17 UNL     1       2.329  -0.796  -1.467  1.00  0.00     0.036 C 
HETATM    8  C18 UNL     1       0.802  -0.719  -1.343  1.00  0.00     0.019 C 
HETATM    9  C19 UNL     1       0.309  -1.120   0.053  1.00  0.00    -0.012 C 
HETATM   10  C20 UNL     1       0.560  -2.613   0.346  1.00  0.00     0.021 C 
HETATM   11  C21 UNL     1       4.624  -0.062  -0.439  1.00  0.00    -0.016 C 
HETATM   12  C22 UNL     1       5.258  -1.464  -0.249  1.00  0.00     0.020 C 
HETATM   13  C23 UNL     1       5.025   0.486  -1.839  1.00  0.00     0.016 C 
HETATM   14  C24 UNL     1       6.519   0.795  -1.970  1.00  0.00     0.033 C 
HETATM   15  C25 UNL     1       7.014   1.735  -0.875  1.00  0.00     0.118 C 
HETATM   16  C26 UNL     1       6.639   1.242   0.521  1.00  0.00     0.037 C 
HETATM   17  C27 UNL     1       5.133   0.973   0.616  1.00  0.00     0.001 C 
HETATM   18  C28 UNL     1       4.722   0.569   2.028  1.00  0.00     0.010 C 
HETATM   19  C29 UNL     1       3.200   0.522   2.139  1.00  0.00     0.040 C 
ENDROOT
BRANCH   1  20
HETATM   20  C2  UNL     1      -2.323  -1.632  -0.055  1.00  0.00    -0.013 C 
HETATM   21  C1  UNL     1      -2.324  -2.004  -1.542  1.00  0.00     0.010 C 
BRANCH  20  22
HETATM   22  C3  UNL     1      -3.720  -1.087   0.358  1.00  0.00     0.009 C 
BRANCH  22  23
HETATM   23  C4  UNL     1      -4.256   0.074  -0.501  1.00  0.00     0.037 C 
BRANCH  23  24
HETATM   24  C5  UNL     1      -5.558   0.667   0.038  1.00  0.00    -0.049 C 
HETATM   25  C6  UNL     1      -5.548   1.643   0.976  1.00  0.00     0.004 C 
BRANCH  25  26
HETATM   26  C7  UNL     1      -4.371   2.291   1.634  1.00  0.00     0.191 C 
BRANCH  26  27
HETATM   27  O1  UNL     1      -4.458   3.689   1.401  1.00  0.00    -0.397 OA
HETATM   28  H12 UNL     1      -4.448   3.812   0.435  1.00  0.00     0.209 HD
ENDBRANCH  26  27
ENDBRANCH  25  26
BRANCH  24  29
HETATM   29  C8  UNL     1      -6.857   0.134  -0.597  1.00  0.00     0.074 C 
HETATM   30  C9  UNL     1      -6.984  -1.391  -0.492  1.00  0.00     0.050 C 
HETATM   31  C10 UNL     1      -8.160   0.756  -0.065  1.00  0.00     0.050 C 
BRANCH  29  32
HETATM   32  O2  UNL     1      -6.802   0.457  -1.992  1.00  0.00    -0.386 OA
HETATM   33  H19 UNL     1      -6.649   1.415  -2.051  1.00  0.00     0.211 HD
ENDBRANCH  29  32
ENDBRANCH  24  29
ENDBRANCH  23  24
ENDBRANCH  22  23
ENDBRANCH  20  22
ENDBRANCH   1  20
BRANCH  15  34
HETATM   34  O3  UNL     1       8.428   1.877  -0.968  1.00  0.00    -0.396 OA
HETATM   35  H39 UNL     1       8.829   1.002  -0.831  1.00  0.00     0.210 HD
ENDBRANCH  15  34
TORSDOF 9
