REMARK  8 active torsions:
REMARK  status: ('A' for Active; 'I' for Inactive)
REMARK    1  A    between atoms: C4_4  and  C5_5 
REMARK    2  A    between atoms: C5_5  and  C6_7 
REMARK    3  A    between atoms: C6_7  and  C7_8 
REMARK    4  A    between atoms: C7_8  and  C9_10 
REMARK    5  A    between atoms: C18_19  and  C20_21 
REMARK    6  A    between atoms: C20_21  and  O2_22 
REMARK    7  A    between atoms: C21_23  and  O3_24 
REMARK    8  A    between atoms: O3_24  and  S1_25 
ROOT
HETATM    1  C9  UNL     1       2.796   0.422   1.318  1.00  0.00    -0.001 C 
HETATM    2  C10 UNL     1       3.090   1.317   0.092  1.00  0.00     0.006 C 
HETATM    3  C11 UNL     1       1.721   1.737  -0.497  1.00  0.00     0.012 C 
HETATM    4  C12 UNL     1       0.657   1.229   0.501  1.00  0.00    -0.016 C 
HETATM    5  C13 UNL     1       0.477   2.355   1.565  1.00  0.00     0.018 C 
HETATM    6  C14 UNL     1      -0.717   0.861  -0.126  1.00  0.00     0.089 A 
HETATM    7  C15 UNL     1      -1.564   2.068  -0.559  1.00  0.00     0.121 A 
HETATM    8  C16 UNL     1      -2.849   1.597  -1.246  1.00  0.00     0.026 C 
HETATM    9  C17 UNL     1      -3.786   0.910  -0.237  1.00  0.00     0.009 C 
HETATM   10  C18 UNL     1      -5.133   0.357  -0.857  1.00  0.00     0.009 C 
HETATM   11  C19 UNL     1      -4.915  -0.307  -2.241  1.00  0.00     0.020 C 
HETATM   12  C21 UNL     1      -5.817  -0.656   0.132  1.00  0.00     0.155 C 
HETATM   13  C22 UNL     1      -5.423  -0.407   1.590  1.00  0.00     0.035 C 
HETATM   14  C23 UNL     1      -3.924  -0.572   1.826  1.00  0.00     0.013 C 
HETATM   15  C24 UNL     1      -3.079  -0.141   0.628  1.00  0.00    -0.025 A 
HETATM   16  C25 UNL     1      -2.242  -1.219  -0.007  1.00  0.00     0.023 A 
HETATM   17  C26 UNL     1      -1.530  -0.116   0.759  1.00  0.00    -0.011 A 
HETATM   18  C27 UNL     1      -0.949  -0.481   2.130  1.00  0.00     0.013 C 
HETATM   19  C28 UNL     1       0.580  -0.578   2.261  1.00  0.00     0.011 C 
HETATM   20  C29 UNL     1       1.345  -0.079   1.033  1.00  0.00    -0.031 C 
HETATM   21  C30 UNL     1       1.387  -1.243   0.000  1.00  0.00     0.016 C 
HETATM   22 NA1  UNL     1       0.000   0.000   0.000  1.00  0.00    -0.415 Na
ATOM     23  HA1 UNL     1       0.626  -0.788   0.165  1.00  0.00     0.153 HD
ENDROOT
BRANCH   1  24
HETATM   24  C7  UNL     1       3.862  -0.634   1.731  1.00  0.00    -0.007 C 
HETATM   25  C8  UNL     1       4.764  -0.079   2.844  1.00  0.00     0.011 C 
BRANCH  24  26
HETATM   26  C6  UNL     1       4.684  -1.311   0.616  1.00  0.00     0.087 C 
BRANCH  26  27
HETATM   27  C5  UNL     1       5.799  -0.520  -0.063  1.00  0.00     0.149 C 
HETATM   28  O1  UNL     1       6.258   0.524   0.385  1.00  0.00    -0.293 OA
BRANCH  27  29
HETATM   29  C4  UNL     1       6.351  -1.156  -1.309  1.00  0.00     0.052 C 
HETATM   30  C2  UNL     1       7.242  -0.608  -2.159  1.00  0.00    -0.084 C 
HETATM   31  C1  UNL     1       7.811   0.775  -2.009  1.00  0.00     0.043 C 
HETATM   32  C3  UNL     1       7.725  -1.375  -3.360  1.00  0.00     0.043 C 
ENDBRANCH  27  29
ENDBRANCH  26  27
ENDBRANCH  24  26
ENDBRANCH   1  24
BRANCH  10  33
HETATM   33  C20 UNL     1      -6.108   1.546  -1.112  1.00  0.00     0.176 C 
BRANCH  33  34
HETATM   34  O2  UNL     1      -6.450   2.262   0.069  1.00  0.00    -0.400 OA
HETATM   35  H33 UNL     1      -7.183   1.777   0.490  1.00  0.00     0.209 HD
ENDBRANCH  33  34
ENDBRANCH  10  33
BRANCH  12  36
HETATM   36  O3  UNL     1      -5.447  -1.992  -0.193  1.00  0.00    -0.251 OA
BRANCH  36  37
HETATM   37  S1  UNL     1      -6.607  -3.090  -0.520  1.00  0.00     0.252 S 
HETATM   38  O4  UNL     1      -5.897  -4.107  -1.292  1.00  0.00    -0.572 OA
HETATM   39  O5  UNL     1      -7.054  -3.525   0.802  1.00  0.00    -0.572 OA
HETATM   40  O6  UNL     1      -7.610  -2.348  -1.285  1.00  0.00    -0.572 OA
ENDBRANCH  36  37
ENDBRANCH  12  36
TORSDOF 8
