REMARK  13 active torsions:
REMARK  status: ('A' for Active; 'I' for Inactive)
REMARK    1  A    between atoms: C4_4  and  C5_5 
REMARK    2  A    between atoms: C5_5  and  C6_6 
REMARK    3  A    between atoms: C6_6  and  C7_7 
REMARK    4  A    between atoms: C7_7  and  C9_9 
REMARK    5  A    between atoms: C18_18  and  C20_20 
REMARK    6  A    between atoms: C20_20  and  O2_22 
REMARK    7  A    between atoms: C21_23  and  O3_24 
REMARK    8  A    between atoms: O3_24  and  C22_25 
REMARK    9  A    between atoms: C23_27  and  C24_28 
REMARK   10  A    between atoms: C24_28  and  O5_29 
REMARK   11  A    between atoms: C25_30  and  O6_31 
REMARK   12  A    between atoms: C26_32  and  O7_33 
REMARK   13  A    between atoms: C28_35  and  O8_36 
ROOT
HETATM    1  C9  UNL     1       4.007  -0.648  -0.281  1.00  0.00    -0.002 C 
HETATM    2  C10 UNL     1       4.301   0.875  -0.352  1.00  0.00     0.006 C 
HETATM    3  C11 UNL     1       2.977   1.622  -0.121  1.00  0.00     0.011 C 
HETATM    4  C12 UNL     1       1.981   0.543   0.340  1.00  0.00    -0.032 C 
HETATM    5  C13 UNL     1       2.178   0.401   1.883  1.00  0.00     0.016 C 
HETATM    6  C14 UNL     1       0.495   0.856   0.004  1.00  0.00     0.004 C 
HETATM    7  C15 UNL     1      -0.119   1.953   0.875  1.00  0.00     0.007 C 
HETATM    8  C16 UNL     1      -1.525   2.307   0.409  1.00  0.00     0.007 C 
HETATM    9  C17 UNL     1      -2.557   1.154   0.438  1.00  0.00     0.018 C 
HETATM   10  C18 UNL     1      -3.640   1.228   1.579  1.00  0.00     0.072 C 
HETATM   11  C19 UNL     1      -4.325   2.624   1.585  1.00  0.00     0.030 C 
HETATM   12  C21 UNL     1      -4.729   0.111   1.350  1.00  0.00     0.146 C 
HETATM   13  C27 UNL     1      -4.217  -1.123   0.594  1.00  0.00     0.066 C 
HETATM   14  C28 UNL     1      -2.744  -1.389   0.817  1.00  0.00     0.130 C 
HETATM   15  C29 UNL     1      -1.917  -0.247   0.247  1.00  0.00    -0.001 A 
HETATM   16  C30 UNL     1      -1.368  -0.513  -1.141  1.00  0.00     0.024 A 
HETATM   17  C31 UNL     1      -0.387  -0.410   0.004  1.00  0.00    -0.025 A 
HETATM   18  C32 UNL     1       0.274  -1.710   0.459  1.00  0.00     0.011 C 
HETATM   19  C33 UNL     1       1.735  -1.942   0.030  1.00  0.00     0.011 C 
HETATM   20  C34 UNL     1       2.460  -0.699  -0.500  1.00  0.00    -0.032 C 
HETATM   21  C35 UNL     1       2.165  -0.580  -2.026  1.00  0.00     0.016 C 
ENDROOT
BRANCH  12  22
HETATM   22  O3  UNL     1      -5.842   0.663   0.609  1.00  0.00    -0.352 OA
BRANCH  22  23
HETATM   23  C22 UNL     1      -7.074  -0.032   0.806  1.00  0.00     0.292 C 
HETATM   24  O4  UNL     1      -7.075  -1.305   0.141  1.00  0.00    -0.348 OA
HETATM   25  C23 UNL     1      -8.025  -1.257  -0.947  1.00  0.00     0.179 C 
HETATM   26  C25 UNL     1      -9.066  -0.251  -0.480  1.00  0.00     0.182 C 
HETATM   27  C26 UNL     1      -8.206   0.808   0.186  1.00  0.00     0.204 C 
BRANCH  25  28
HETATM   28  C24 UNL     1      -7.319  -0.879  -2.259  1.00  0.00     0.198 C 
BRANCH  28  29
HETATM   29  O5  UNL     1      -6.468  -1.947  -2.681  1.00  0.00    -0.398 OA
HETATM   30  H39 UNL     1      -6.037  -1.653  -3.502  1.00  0.00     0.209 HD
ENDBRANCH  28  29
ENDBRANCH  25  28
BRANCH  26  31
HETATM   31  O6  UNL     1      -9.882   0.289  -1.511  1.00  0.00    -0.390 OA
HETATM   32  H41 UNL     1     -10.348   1.054  -1.109  1.00  0.00     0.210 HD
ENDBRANCH  26  31
BRANCH  27  33
HETATM   33  O7  UNL     1      -8.991   1.581   1.102  1.00  0.00    -0.388 OA
HETATM   34  H43 UNL     1      -8.956   1.166   1.979  1.00  0.00     0.210 HD
ENDBRANCH  27  33
ENDBRANCH  22  23
ENDBRANCH  12  22
BRANCH  10  35
HETATM   35  C20 UNL     1      -3.049   1.095   2.984  1.00  0.00     0.151 C 
HETATM   36  O1  UNL     1      -1.883   1.193   3.328  1.00  0.00    -0.649 OA
BRANCH  35  37
HETATM   37  O2  UNL     1      -3.980   0.958   3.954  1.00  0.00    -0.776 OA
HETATM   38  H33 UNL     1      -3.431   0.881   4.761  1.00  0.00     0.167 HD
ENDBRANCH  35  37
ENDBRANCH  10  35
BRANCH  14  39
HETATM   39  O8  UNL     1      -2.496  -1.531   2.207  1.00  0.00    -0.395 OA
HETATM   40  H47 UNL     1      -1.836  -2.242   2.310  1.00  0.00     0.210 HD
ENDBRANCH  14  39
BRANCH   1  41
HETATM   41  C7  UNL     1       4.963  -1.490  -1.178  1.00  0.00    -0.014 C 
HETATM   42  C8  UNL     1       4.607  -2.984  -1.144  1.00  0.00     0.010 C 
BRANCH  41  43
HETATM   43  C6  UNL     1       6.445  -1.344  -0.729  1.00  0.00     0.008 C 
BRANCH  43  44
HETATM   44  C5  UNL     1       7.235  -0.319  -1.547  1.00  0.00     0.028 C 
BRANCH  44  45
HETATM   45  C4  UNL     1       8.689  -0.322  -1.160  1.00  0.00    -0.025 C 
HETATM   46  C2  UNL     1       9.344   0.599  -0.424  1.00  0.00    -0.091 C 
HETATM   47  C1  UNL     1       8.709   1.806   0.206  1.00  0.00     0.042 C 
HETATM   48  C3  UNL     1      10.821   0.464  -0.163  1.00  0.00     0.042 C 
ENDBRANCH  44  45
ENDBRANCH  43  44
ENDBRANCH  41  43
ENDBRANCH   1  41
TORSDOF 13
