REMARK  7 active torsions:
REMARK  status: ('A' for Active; 'I' for Inactive)
REMARK    1  A    between atoms: C2_2  and  C4_4 
REMARK    2  A    between atoms: C7_7  and  C8_8 
REMARK    3  A    between atoms: C8_8  and  O2_10 
REMARK    4  A    between atoms: C15_17  and  O3_18 
REMARK    5  A    between atoms: C21_24  and  O4_25 
REMARK    6  A    between atoms: C22_26  and  C24_28 
REMARK    7  A    between atoms: C24_28  and  O5_29 
ROOT
HETATM    1  C4  UNL     1      -4.569  -0.677   0.428  1.00  0.00     0.019 C 
HETATM    2  C5  UNL     1      -5.864   0.110   0.088  1.00  0.00     0.011 C 
HETATM    3  C6  UNL     1      -5.428   1.391  -0.642  1.00  0.00     0.021 C 
HETATM    4  C7  UNL     1      -3.973   1.590  -0.207  1.00  0.00     0.050 C 
HETATM    5  C9  UNL     1      -3.122   2.462  -1.138  1.00  0.00     0.022 C 
HETATM    6  C10 UNL     1      -1.634   2.396  -0.737  1.00  0.00     0.011 C 
HETATM    7  C11 UNL     1      -1.034   0.946  -0.655  1.00  0.00    -0.032 C 
HETATM    8  C12 UNL     1      -0.972   0.441  -2.137  1.00  0.00     0.016 C 
HETATM    9  C13 UNL     1      -1.990   0.024   0.196  1.00  0.00     0.003 C 
HETATM   10  C14 UNL     1      -1.463  -1.409   0.249  1.00  0.00     0.038 C 
HETATM   11  C15 UNL     1      -0.019  -1.523   0.762  1.00  0.00     0.124 C 
HETATM   12  C16 UNL     1       0.993  -0.576   0.043  1.00  0.00     0.032 C 
HETATM   13  C17 UNL     1       2.548  -0.737   0.448  1.00  0.00    -0.033 C 
HETATM   14  C18 UNL     1       2.767  -0.485   1.959  1.00  0.00     0.016 C 
HETATM   15  C19 UNL     1       3.034  -2.191   0.152  1.00  0.00     0.012 C 
HETATM   16  C20 UNL     1       4.551  -2.393   0.191  1.00  0.00     0.033 C 
HETATM   17  C21 UNL     1       5.292  -1.434  -0.731  1.00  0.00     0.128 C 
HETATM   18  C22 UNL     1       4.954   0.064  -0.467  1.00  0.00     0.007 C 
HETATM   19  C23 UNL     1       5.599   0.514   0.860  1.00  0.00     0.020 C 
HETATM   20  C25 UNL     1       3.380   0.236  -0.488  1.00  0.00     0.007 C 
HETATM   21  C26 UNL     1       2.894   1.690  -0.357  1.00  0.00     0.007 C 
HETATM   22  C27 UNL     1       1.425   1.825  -0.757  1.00  0.00     0.011 C 
HETATM   23  C28 UNL     1       0.443   0.920   0.031  1.00  0.00    -0.030 C 
HETATM   24  C29 UNL     1       0.366   1.500   1.478  1.00  0.00     0.016 C 
HETATM   25  C30 UNL     1      -3.458   0.132  -0.283  1.00  0.00     0.017 C 
ENDROOT
BRANCH   4  26
HETATM   26  C8  UNL     1      -3.997   2.217   1.197  1.00  0.00     0.149 C 
HETATM   27  O1  UNL     1      -3.696   1.692   2.255  1.00  0.00    -0.649 OA
BRANCH  26  28
HETATM   28  O2  UNL     1      -4.438   3.492   1.196  1.00  0.00    -0.776 OA
HETATM   29  H11 UNL     1      -4.412   3.751   2.141  1.00  0.00     0.167 HD
ENDBRANCH  26  28
ENDBRANCH   4  26
BRANCH   1  30
HETATM   30  C2  UNL     1      -4.747  -2.152   0.101  1.00  0.00    -0.088 C 
HETATM   31  C1  UNL     1      -4.406  -2.734  -1.061  1.00  0.00     0.014 C 
HETATM   32  C3  UNL     1      -5.372  -2.971   1.203  1.00  0.00     0.043 C 
ENDBRANCH   1  30
BRANCH  11  33
HETATM   33  O3  UNL     1       0.338  -2.896   0.611  1.00  0.00    -0.395 OA
HETATM   34  H23 UNL     1       0.314  -3.106  -0.339  1.00  0.00     0.210 HD
ENDBRANCH  11  33
BRANCH  18  35
HETATM   35  C24 UNL     1       5.615   0.878  -1.629  1.00  0.00     0.176 C 
BRANCH  35  36
HETATM   36  O5  UNL     1       5.766   2.266  -1.341  1.00  0.00    -0.400 OA
HETATM   37  H39 UNL     1       6.519   2.362  -0.734  1.00  0.00     0.209 HD
ENDBRANCH  35  36
ENDBRANCH  18  35
BRANCH  17  38
HETATM   38  O4  UNL     1       4.969  -1.774  -2.084  1.00  0.00    -0.395 OA
HETATM   39  H33 UNL     1       5.192  -2.712  -2.215  1.00  0.00     0.210 HD
ENDBRANCH  17  38
TORSDOF 7
