REMARK  9 active torsions:
REMARK  status: ('A' for Active; 'I' for Inactive)
REMARK    1  A    between atoms: O1_2  and  C2_3 
REMARK    2  A    between atoms: C2_3  and  C3_4 
REMARK    3  A    between atoms: C3_4  and  C4_5 
REMARK    4  A    between atoms: C4_5  and  O2_6 
REMARK    5  A    between atoms: O2_6  and  C5_7 
REMARK    6  A    between atoms: C15_18  and  O4_19 
REMARK    7  A    between atoms: C21_25  and  O5_27 
REMARK    8  A    between atoms: C23_28  and  O6_29 
REMARK    9  A    between atoms: C29_37  and  O8_38 
ROOT
HETATM    1  C5  UNL     1       4.991  -1.913   0.561  1.00  0.00     0.122 C 
HETATM    2  C6  UNL     1       4.702  -1.714   2.060  1.00  0.00     0.033 C 
HETATM    3  C7  UNL     1       3.292  -1.195   2.339  1.00  0.00     0.014 C 
HETATM    4  C8  UNL     1       2.990   0.179   1.634  1.00  0.00    -0.010 C 
HETATM    5  C9  UNL     1       3.639   1.267   2.538  1.00  0.00     0.018 C 
HETATM    6  C10 UNL     1       3.799   0.285   0.295  1.00  0.00     0.073 C 
HETATM    7  C11 UNL     1       4.068  -1.080  -0.343  1.00  0.00     0.045 C 
HETATM    8  C12 UNL     1       3.302   1.310  -0.716  1.00  0.00     0.161 C 
HETATM    9  O3  UNL     1       4.019   1.648  -1.662  1.00  0.00    -0.292 OA
HETATM   10  C13 UNL     1       1.943   1.910  -0.594  1.00  0.00    -0.005 C 
HETATM   11  C14 UNL     1       1.097   1.470   0.359  1.00  0.00    -0.013 C 
HETATM   12  C15 UNL     1      -0.347   1.876   0.239  1.00  0.00     0.095 C 
HETATM   13  C16 UNL     1      -0.643   3.163  -0.525  1.00  0.00     0.026 C 
HETATM   14  C17 UNL     1       0.029   3.129  -1.887  1.00  0.00     0.013 C 
HETATM   15  C18 UNL     1       1.545   2.885  -1.701  1.00  0.00     0.043 C 
HETATM   16  C19 UNL     1      -2.187   3.255  -0.444  1.00  0.00     0.016 C 
HETATM   17  C20 UNL     1      -2.618   2.299   0.743  1.00  0.00     0.034 C 
HETATM   18  C21 UNL     1      -4.018   2.578   1.384  1.00  0.00     0.087 C 
HETATM   19  C22 UNL     1      -4.267   4.091   1.610  1.00  0.00     0.049 C 
HETATM   20  C23 UNL     1      -5.216   2.036   0.475  1.00  0.00     0.181 C 
HETATM   21  C24 UNL     1      -5.583   0.514   0.314  1.00  0.00     0.158 C 
HETATM   22  O7  UNL     1      -6.452   0.447  -0.895  1.00  0.00    -0.373 OA
HETATM   23  C25 UNL     1      -5.603   0.066  -2.035  1.00  0.00     0.185 C 
HETATM   24  C26 UNL     1      -4.198  -0.078  -1.452  1.00  0.00     0.028 C 
HETATM   25  C27 UNL     1      -3.292  -0.909  -2.336  1.00  0.00     0.053 C 
HETATM   26  C28 UNL     1      -3.820  -2.314  -2.607  1.00  0.00     0.309 C 
HETATM   27  N1  UNL     1      -5.276  -2.451  -2.358  1.00  0.00     0.128 N 
HETATM   28  C29 UNL     1      -6.050  -1.269  -2.733  1.00  0.00     0.384 C 
HETATM   29  C30 UNL     1      -2.964  -3.325  -1.795  1.00  0.00     0.233 C 
HETATM   30  O9  UNL     1      -3.385  -4.030  -0.883  1.00  0.00    -0.277 OA
HETATM   31  N2  UNL     1      -1.643  -3.351  -2.280  1.00  0.00    -0.243 NA
HETATM   32  C31 UNL     1      -0.847  -4.529  -2.127  1.00  0.00     0.120 A 
HETATM   33  C32 UNL     1      -0.447  -3.238  -1.481  1.00  0.00     0.090 A 
HETATM   34  C33 UNL     1      -0.390  -3.171   0.015  1.00  0.00     0.115 C 
HETATM   35  C34 UNL     1       0.339  -1.931   0.364  1.00  0.00    -0.104 C 
HETATM   36  C35 UNL     1       0.867  -0.921   0.766  1.00  0.00    -0.090 C 
HETATM   37  C36 UNL     1       1.398   0.367   1.387  1.00  0.00     0.062 C 
HETATM   38  C37 UNL     1       0.493   0.627   2.693  1.00  0.00     0.012 C 
HETATM   39  C38 UNL     1       0.878   1.874   3.523  1.00  0.00     0.007 C 
HETATM   40  C39 UNL     1      -0.267   2.832   3.784  1.00  0.00     0.001 C 
HETATM   41  C40 UNL     1      -0.895   3.239   2.453  1.00  0.00     0.013 C 
HETATM   42  C41 UNL     1      -1.253   2.040   1.518  1.00  0.00     0.002 C 
HETATM   43  C42 UNL     1      -1.033   0.742   2.320  1.00  0.00     0.020 C 
HETATM   44  C43 UNL     1      -4.577  -0.557  -0.053  1.00  0.00     0.020 C 
HETATM   45  C44 UNL     1      -3.549  -0.952   0.964  1.00  0.00     0.013 C 
HETATM   46  H42 UNL     1      -5.623  -3.272  -2.846  1.00  0.00     0.320 HD
ENDROOT
BRANCH   1  47
HETATM   47  O2  UNL     1       6.336  -1.485   0.309  1.00  0.00    -0.386 OA
BRANCH  47  48
HETATM   48  C4  UNL     1       7.330  -2.466   0.575  1.00  0.00     0.170 C 
BRANCH  48  49
HETATM   49  C3  UNL     1       7.550  -3.422  -0.598  1.00  0.00     0.052 C 
BRANCH  49  50
HETATM   50  C2  UNL     1       7.786  -2.690  -1.916  1.00  0.00     0.169 C 
BRANCH  50  51
HETATM   51  O1  UNL     1       6.534  -2.480  -2.568  1.00  0.00    -0.396 OA
HETATM   52  C1  UNL     1       6.651  -1.570  -3.655  1.00  0.00     0.201 C 
ENDBRANCH  50  51
ENDBRANCH  49  50
ENDBRANCH  48  49
ENDBRANCH  47  48
ENDBRANCH   1  47
BRANCH  12  53
HETATM   53  O4  UNL     1      -0.908   0.810  -0.584  1.00  0.00    -0.384 OA
HETATM   54  H21 UNL     1      -0.236   0.501  -1.212  1.00  0.00     0.211 HD
ENDBRANCH  12  53
BRANCH  18  55
HETATM   55  O5  UNL     1      -4.088   1.948   2.664  1.00  0.00    -0.387 OA
HETATM   56  H33 UNL     1      -5.005   2.079   2.973  1.00  0.00     0.210 HD
ENDBRANCH  18  55
BRANCH  20  57
HETATM   57  O6  UNL     1      -6.447   2.625   0.986  1.00  0.00    -0.390 OA
HETATM   58  H35 UNL     1      -7.154   2.302   0.389  1.00  0.00     0.210 HD
ENDBRANCH  20  57
BRANCH  28  59
HETATM   59  O8  UNL     1      -5.941  -1.118  -4.139  1.00  0.00    -0.366 OA
HETATM   60  H44 UNL     1      -6.815  -1.327  -4.508  1.00  0.00     0.212 HD
ENDBRANCH  28  59
TORSDOF 9
