REMARK  11 active torsions:
REMARK  status: ('A' for Active; 'I' for Inactive)
REMARK    1  A    between atoms: C2_2  and  C3_3 
REMARK    2  A    between atoms: C2_2  and  C4_5 
REMARK    3  A    between atoms: C3_3  and  O1_4 
REMARK    4  A    between atoms: C8_9  and  O2_10 
REMARK    5  A    between atoms: C9_11  and  C10_12 
REMARK    6  A    between atoms: C10_12  and  O3_13 
REMARK    7  A    between atoms: O3_13  and  C11_14 
REMARK    8  A    between atoms: C11_14  and  C12_16 
REMARK    9  A    between atoms: C19_23  and  O5_24 
REMARK   10  A    between atoms: C24_29  and  C25_30 
REMARK   11  A    between atoms: C25_30  and  O6_31 
ROOT
HETATM    1  C4  UNL     1      -3.517   0.488   0.298  1.00  0.00    -0.070 C 
HETATM    2  C5  UNL     1      -2.737  -0.331  -0.437  1.00  0.00    -0.061 C 
HETATM    3  C6  UNL     1      -1.316  -0.238  -0.979  1.00  0.00     0.029 C 
HETATM    4  C7  UNL     1      -0.645   1.139  -1.106  1.00  0.00     0.046 C 
HETATM    5  C8  UNL     1       0.342   1.595  -0.032  1.00  0.00     0.149 C 
HETATM    6  C9  UNL     1       1.699   0.909   0.003  1.00  0.00    -0.029 C 
HETATM    7  C18 UNL     1       1.945  -0.336  -0.461  1.00  0.00     0.013 C 
HETATM    8  C19 UNL     1       0.996  -1.383  -0.977  1.00  0.00     0.150 C 
HETATM    9  C20 UNL     1      -0.455  -1.408  -0.411  1.00  0.00    -0.007 C 
HETATM   10  C21 UNL     1      -0.405  -1.449   1.142  1.00  0.00     0.019 C 
HETATM   11  C22 UNL     1      -1.143  -2.734  -0.896  1.00  0.00     0.014 C 
HETATM   12  C23 UNL     1      -2.608  -2.865  -0.452  1.00  0.00     0.017 C 
HETATM   13  C24 UNL     1      -3.477  -1.630  -0.795  1.00  0.00     0.005 C 
HETATM   14  C26 UNL     1      -4.709  -1.570   0.129  1.00  0.00     0.020 C 
HETATM   15  C27 UNL     1      -4.896  -0.100   0.476  1.00  0.00     0.036 C 
ENDROOT
BRANCH   6  16
HETATM   16  C10 UNL     1       2.785   1.749   0.671  1.00  0.00     0.215 C 
BRANCH  16  17
HETATM   17  O3  UNL     1       3.996   1.010   0.901  1.00  0.00    -0.313 OA
BRANCH  17  18
HETATM   18  C11 UNL     1       5.009   1.236   0.030  1.00  0.00     0.293 C 
HETATM   19  O4  UNL     1       4.975   1.969  -0.946  1.00  0.00    -0.259 OA
BRANCH  18  20
HETATM   20  C12 UNL     1       6.205   0.432   0.407  1.00  0.00     0.039 A 
HETATM   21  C13 UNL     1       7.346   0.526  -0.403  1.00  0.00     0.017 A 
HETATM   22  C14 UNL     1       8.490  -0.213  -0.096  1.00  0.00     0.001 A 
HETATM   23  C15 UNL     1       8.502  -1.048   1.020  1.00  0.00     0.000 A 
HETATM   24  C16 UNL     1       7.372  -1.147   1.831  1.00  0.00     0.001 A 
HETATM   25  C17 UNL     1       6.225  -0.410   1.528  1.00  0.00     0.017 A 
ENDBRANCH  18  20
ENDBRANCH  17  18
ENDBRANCH  16  17
ENDBRANCH   6  16
BRANCH   5  26
HETATM   26  O2  UNL     1       0.571   2.990  -0.286  1.00  0.00    -0.391 OA
HETATM   27  H12 UNL     1       0.889   3.065  -1.203  1.00  0.00     0.210 HD
ENDBRANCH   5  26
BRANCH   8  28
HETATM   28  O5  UNL     1       0.983  -1.305  -2.400  1.00  0.00    -0.391 OA
HETATM   29  H22 UNL     1       1.880  -1.069  -2.693  1.00  0.00     0.210 HD
ENDBRANCH   8  28
BRANCH   1  30
HETATM   30  C2  UNL     1      -3.230   1.841   0.905  1.00  0.00     0.034 C 
HETATM   31  C1  UNL     1      -4.079   2.930   0.239  1.00  0.00     0.017 C 
BRANCH  30  32
HETATM   32  C3  UNL     1      -3.418   1.835   2.434  1.00  0.00     0.172 C 
BRANCH  32  33
HETATM   33  O1  UNL     1      -2.786   2.958   3.043  1.00  0.00    -0.400 OA
HETATM   34  H7  UNL     1      -3.206   3.761   2.693  1.00  0.00     0.209 HD
ENDBRANCH  32  33
ENDBRANCH  30  32
ENDBRANCH   1  30
BRANCH  13  35
HETATM   35  C25 UNL     1      -3.909  -1.688  -2.286  1.00  0.00     0.178 C 
BRANCH  35  36
HETATM   36  O6  UNL     1      -4.830  -0.654  -2.622  1.00  0.00    -0.400 OA
HETATM   37  H32 UNL     1      -4.945  -0.679  -3.587  1.00  0.00     0.209 HD
ENDBRANCH  35  36
ENDBRANCH  13  35
TORSDOF 11
