REMARK  8 active torsions:
REMARK  status: ('A' for Active; 'I' for Inactive)
REMARK    1  A    between atoms: C3_3  and  O1_4 
REMARK    2  A    between atoms: N1_14  and  O2_16 
REMARK    3  A    between atoms: O2_16  and  C13_17 
REMARK    4  A    between atoms: C13_17  and  C14_18 
REMARK       I    between atoms: C14_18  and  N2_20 
REMARK    5  A    between atoms: N2_20  and  C15_21 
REMARK    6  A    between atoms: C15_21  and  C16_22 
REMARK    7  A    between atoms: C16_22  and  O4_23 
REMARK    8  A    between atoms: C16_22  and  C17_24 
ROOT
HETATM    1  C1  UNL     1      -9.297   2.311   0.782  1.00  0.00     0.015 C 
HETATM    2  C2  UNL     1      -8.420   1.510   0.959  1.00  0.00    -0.078 C 
HETATM    3  C3  UNL     1      -7.354   0.526   1.195  1.00  0.00     0.128 C 
HETATM    4  C4  UNL     1      -7.877  -0.927   1.141  1.00  0.00     0.052 C 
HETATM    5  C5  UNL     1      -6.706  -1.782   0.620  1.00  0.00     0.010 C 
HETATM    6  C6  UNL     1      -5.529  -0.808   0.482  1.00  0.00     0.002 C 
HETATM    7  C7  UNL     1      -4.397  -1.213  -0.482  1.00  0.00    -0.004 C 
HETATM    8  C8  UNL     1      -3.626  -2.416   0.102  1.00  0.00     0.010 C 
HETATM    9  C9  UNL     1      -2.412  -2.007   0.921  1.00  0.00     0.035 C 
HETATM   10  C10 UNL     1      -1.454  -1.106   0.180  1.00  0.00    -0.069 C 
HETATM   11  C11 UNL     1      -0.223  -0.924   0.694  1.00  0.00     0.030 C 
HETATM   12  C12 UNL     1       0.766   0.002   0.065  1.00  0.00     0.032 C 
HETATM   13  N1  UNL     1       1.887   0.393   0.596  1.00  0.00    -0.271 N 
ATOM     14  H1  UNL     1       2.569   0.989   0.128  1.00  0.00     0.194 HD
HETATM   15  C23 UNL     1       0.415   0.539  -1.308  1.00  0.00     0.060 C 
HETATM   16  C24 UNL     1      -1.077   0.870  -1.337  1.00  0.00     0.020 C 
HETATM   17  C25 UNL     1      -1.972  -0.377  -1.060  1.00  0.00    -0.016 C 
HETATM   18  C26 UNL     1      -1.849  -1.291  -2.313  1.00  0.00     0.020 C 
HETATM   19  C27 UNL     1      -3.484   0.020  -0.849  1.00  0.00     0.002 C 
HETATM   20  C28 UNL     1      -3.705   1.191   0.148  1.00  0.00     0.007 C 
HETATM   21  C29 UNL     1      -5.166   1.661   0.287  1.00  0.00     0.014 C 
HETATM   22  C30 UNL     1      -6.204   0.536   0.139  1.00  0.00     0.003 C 
HETATM   23  C31 UNL     1      -6.777   0.564  -1.305  1.00  0.00     0.020 C 
ENDROOT
BRANCH   3  24
HETATM   24  O1  UNL     1      -6.836   0.724   2.514  1.00  0.00    -0.377 OA
HETATM   25  H2  UNL     1      -6.805   1.682   2.675  1.00  0.00     0.211 HD
ENDBRANCH   3  24
BRANCH  13  26
HETATM   26  O2  UNL     1       2.036  -0.111   1.896  1.00  0.00    -0.271 OA
BRANCH  26  27
HETATM   27  C13 UNL     1       2.881   0.741   2.659  1.00  0.00     0.303 C 
BRANCH  27  28
HETATM   28  C14 UNL     1       4.370   0.488   2.448  1.00  0.00     0.243 C 
HETATM   29  O3  UNL     1       5.187   0.557   3.365  1.00  0.00    -0.271 OA
HETATM   30  N2  UNL     1       4.736   0.244   1.144  1.00  0.00    -0.356 N 
HETATM   31  H16 UNL     1       3.955   0.053   0.512  1.00  0.00     0.162 HD
BRANCH  30  32
HETATM   32  C15 UNL     1       6.078  -0.180   0.761  1.00  0.00     0.159 C 
BRANCH  32  33
HETATM   33  C16 UNL     1       7.170   0.890   0.995  1.00  0.00     0.170 C 
BRANCH  33  34
HETATM   34  O4  UNL     1       7.587   0.930   2.362  1.00  0.00    -0.389 OA
HETATM   35  H20 UNL     1       6.775   0.866   2.912  1.00  0.00     0.210 HD
ENDBRANCH  33  34
BRANCH  33  36
HETATM   36  C17 UNL     1       8.392   0.618   0.154  1.00  0.00    -0.013 A 
HETATM   37  C18 UNL     1       9.389  -0.276   0.551  1.00  0.00     0.013 A 
HETATM   38  C19 UNL     1      10.497  -0.491  -0.262  1.00  0.00     0.025 A 
HETATM   39  C20 UNL     1      10.588   0.193  -1.468  1.00  0.00     0.005 A 
HETATM   40  C21 UNL     1      11.778  -0.006  -2.360  1.00  0.00     0.068 C 
HETATM   41  N3  UNL     1       9.626   1.043  -1.893  1.00  0.00    -0.369 N 
HETATM   42  C22 UNL     1       8.563   1.240  -1.077  1.00  0.00     0.097 A 
ATOM     43  H3  UNL     1       9.698   1.517  -2.793  1.00  0.00     0.165 HD
ENDBRANCH  33  36
ENDBRANCH  32  33
ENDBRANCH  30  32
ENDBRANCH  27  28
ENDBRANCH  26  27
ENDBRANCH  13  26
TORSDOF 8
