REMARK  10 active torsions:
REMARK  status: ('A' for Active; 'I' for Inactive)
REMARK    1  A    between atoms: C2_2  and  C3_4 
REMARK    2  A    between atoms: C3_4  and  O2_5 
REMARK    3  A    between atoms: N1_15  and  O3_17 
REMARK    4  A    between atoms: O3_17  and  C13_18 
REMARK    5  A    between atoms: C13_18  and  C14_19 
REMARK       I    between atoms: C14_19  and  N2_21 
REMARK    6  A    between atoms: N2_21  and  C15_22 
REMARK    7  A    between atoms: C15_22  and  C16_23 
REMARK    8  A    between atoms: C15_22  and  C25_33 
REMARK    9  A    between atoms: C16_23  and  C17_24 
REMARK   10  A    between atoms: C25_33  and  O6_35 
ROOT
HETATM    1  C3  UNL     1      -7.822   0.934  -0.336  1.00  0.00     0.125 C 
HETATM    2  C4  UNL     1      -8.463  -0.409   0.130  1.00  0.00     0.047 C 
HETATM    3  C5  UNL     1      -7.301  -1.362   0.475  1.00  0.00     0.009 C 
HETATM    4  C6  UNL     1      -6.058  -0.480   0.426  1.00  0.00     0.002 C 
HETATM    5  C7  UNL     1      -4.675  -1.134   0.288  1.00  0.00    -0.004 C 
HETATM    6  C8  UNL     1      -4.402  -2.260   1.303  1.00  0.00     0.010 C 
HETATM    7  C9  UNL     1      -3.341  -1.914   2.341  1.00  0.00     0.035 C 
HETATM    8  C10 UNL     1      -2.059  -1.368   1.751  1.00  0.00    -0.069 C 
HETATM    9  C11 UNL     1      -0.912  -1.514   2.436  1.00  0.00     0.030 C 
HETATM   10  C12 UNL     1       0.348  -0.858   2.004  1.00  0.00     0.032 C 
HETATM   11  N1  UNL     1       1.437  -1.165   2.650  1.00  0.00    -0.271 N 
ATOM     12  H1  UNL     1       1.476  -1.836   3.418  1.00  0.00     0.194 HD
HETATM   13  C26 UNL     1       0.299   0.126   0.853  1.00  0.00     0.060 C 
HETATM   14  C27 UNL     1      -1.121   0.593   0.532  1.00  0.00     0.020 C 
HETATM   15  C28 UNL     1      -2.154  -0.561   0.453  1.00  0.00    -0.016 C 
HETATM   16  C29 UNL     1      -1.817  -1.470  -0.753  1.00  0.00     0.020 C 
HETATM   17  C30 UNL     1      -3.610   0.008   0.353  1.00  0.00     0.002 C 
HETATM   18  C31 UNL     1      -3.859   1.041  -0.770  1.00  0.00     0.007 C 
HETATM   19  C32 UNL     1      -5.291   1.612  -0.716  1.00  0.00     0.013 C 
HETATM   20  C33 UNL     1      -6.370   0.510  -0.732  1.00  0.00    -0.002 C 
HETATM   21  C34 UNL     1      -6.371  -0.165  -2.135  1.00  0.00     0.019 C 
ENDROOT
BRANCH  11  22
HETATM   22  O3  UNL     1       2.551  -0.462   2.163  1.00  0.00    -0.271 OA
BRANCH  22  23
HETATM   23  C13 UNL     1       3.631  -0.671   3.064  1.00  0.00     0.303 C 
BRANCH  23  24
HETATM   24  C14 UNL     1       4.868   0.100   2.614  1.00  0.00     0.244 C 
HETATM   25  O4  UNL     1       5.467   0.883   3.346  1.00  0.00    -0.271 OA
HETATM   26  N2  UNL     1       5.295  -0.204   1.335  1.00  0.00    -0.344 N 
HETATM   27  H18 UNL     1       4.929  -1.060   0.931  1.00  0.00     0.163 HD
BRANCH  26  28
HETATM   28  C15 UNL     1       6.603   0.259   0.851  1.00  0.00     0.186 C 
BRANCH  28  29
HETATM   29  C16 UNL     1       6.617   0.296  -0.683  1.00  0.00     0.077 C 
BRANCH  29  30
HETATM   30  C17 UNL     1       7.840   0.935  -1.265  1.00  0.00    -0.028 A 
HETATM   31  C18 UNL     1       8.010   2.279  -1.525  1.00  0.00     0.096 A 
HETATM   32  N3  UNL     1       9.259   2.459  -2.058  1.00  0.00    -0.365 N 
HETATM   33  C19 UNL     1       9.917   1.254  -2.153  1.00  0.00     0.042 A 
HETATM   34  H23 UNL     1       9.652   3.345  -2.342  1.00  0.00     0.165 HD
HETATM   35  C20 UNL     1      11.201   0.966  -2.631  1.00  0.00     0.030 A 
HETATM   36  C24 UNL     1       9.049   0.276  -1.670  1.00  0.00    -0.002 A 
HETATM   37  C21 UNL     1      11.615  -0.368  -2.609  1.00  0.00     0.002 A 
HETATM   38  C22 UNL     1      10.773  -1.371  -2.135  1.00  0.00     0.001 A 
HETATM   39  C23 UNL     1       9.489  -1.065  -1.665  1.00  0.00     0.014 A 
ENDBRANCH  29  30
ENDBRANCH  28  29
BRANCH  28  40
HETATM   40  C25 UNL     1       7.649  -0.735   1.350  1.00  0.00     0.163 C 
HETATM   41  O5  UNL     1       7.538  -1.953   1.335  1.00  0.00    -0.648 OA
BRANCH  40  42
HETATM   42  O6  UNL     1       8.770  -0.153   1.811  1.00  0.00    -0.775 OA
HETATM   43  H28 UNL     1       9.365  -0.890   2.048  1.00  0.00     0.167 HD
ENDBRANCH  40  42
ENDBRANCH  28  40
ENDBRANCH  26  28
ENDBRANCH  23  24
ENDBRANCH  22  23
ENDBRANCH  11  22
BRANCH   1  44
HETATM   44  C2  UNL     1      -8.637   1.575  -1.491  1.00  0.00     0.158 C 
HETATM   45  C1  UNL     1      -8.555   3.072  -1.651  1.00  0.00     0.094 C 
HETATM   46  O1  UNL     1      -9.312   0.910  -2.282  1.00  0.00    -0.295 OA
ENDBRANCH   1  44
BRANCH   1  47
HETATM   47  O2  UNL     1      -7.810   1.774   0.823  1.00  0.00    -0.381 OA
HETATM   48  H4  UNL     1      -7.430   2.636   0.598  1.00  0.00     0.211 HD
ENDBRANCH   1  47
TORSDOF 10
