REMARK  7 active torsions:
REMARK  status: ('A' for Active; 'I' for Inactive)
REMARK    1  A    between atoms: C2_2  and  C4_4 
REMARK    2  A    between atoms: C4_4  and  C6_6 
REMARK    3  A    between atoms: C7_7  and  C8_8 
REMARK    4  A    between atoms: C8_8  and  O1_10 
REMARK    5  A    between atoms: C8_8  and  C10_11 
REMARK    6  A    between atoms: C15_16  and  O2_17 
REMARK    7  A    between atoms: C26_29  and  O4_30 
ROOT
HETATM    1  C10 UNL     1      -1.299  -1.705   0.835  1.00  0.00     0.034 C 
HETATM    2  C11 UNL     1      -1.287  -2.269  -0.612  1.00  0.00     0.009 C 
HETATM    3  C12 UNL     1       0.033  -1.807  -1.253  1.00  0.00     0.006 C 
HETATM    4  C13 UNL     1       0.800  -1.157  -0.106  1.00  0.00     0.003 C 
HETATM    5  C14 UNL     1       1.966  -0.215  -0.451  1.00  0.00     0.024 C 
HETATM    6  C15 UNL     1       3.013  -0.891  -1.358  1.00  0.00     0.123 C 
HETATM    7  C16 UNL     1       4.219   0.017  -1.607  1.00  0.00     0.038 C 
HETATM    8  C17 UNL     1       4.848   0.494  -0.289  1.00  0.00     0.003 C 
HETATM    9  C18 UNL     1       6.129   1.291  -0.554  1.00  0.00     0.083 C 
HETATM   10  C19 UNL     1       6.764   1.709   0.752  1.00  0.00     0.127 C 
HETATM   11  O3  UNL     1       7.980   1.628   0.926  1.00  0.00    -0.298 OA
HETATM   12  C20 UNL     1       5.864   2.354   1.779  1.00  0.00     0.079 C 
HETATM   13  C21 UNL     1       4.561   1.578   1.956  1.00  0.00     0.017 C 
HETATM   14  C22 UNL     1       3.828   1.255   0.621  1.00  0.00    -0.035 C 
HETATM   15  C23 UNL     1       3.356   2.584  -0.020  1.00  0.00     0.016 C 
HETATM   16  C24 UNL     1       2.607   0.292   0.884  1.00  0.00     0.003 C 
HETATM   17  C25 UNL     1       1.544   0.863   1.856  1.00  0.00     0.038 C 
HETATM   18  C26 UNL     1       0.345  -0.078   2.082  1.00  0.00     0.127 C 
HETATM   19  C27 UNL     1      -0.312  -0.491   0.750  1.00  0.00    -0.007 C 
HETATM   20  C28 UNL     1      -0.947   0.738   0.052  1.00  0.00     0.019 C 
ENDROOT
BRANCH   1  21
HETATM   21  C8  UNL     1      -2.717  -1.594   1.477  1.00  0.00     0.076 C 
HETATM   22  C9  UNL     1      -3.334  -3.004   1.593  1.00  0.00     0.051 C 
BRANCH  21  23
HETATM   23  C7  UNL     1      -3.668  -0.614   0.822  1.00  0.00     0.007 C 
HETATM   24  C6  UNL     1      -4.635  -0.882  -0.075  1.00  0.00    -0.023 C 
BRANCH  24  25
HETATM   25  C4  UNL     1      -5.616   0.097  -0.697  1.00  0.00     0.007 C 
HETATM   26  C5  UNL     1      -5.612   1.496  -0.061  1.00  0.00     0.014 C 
BRANCH  25  27
HETATM   27  C2  UNL     1      -5.485   0.195  -2.246  1.00  0.00    -0.015 C 
HETATM   28  C1  UNL     1      -4.109   0.676  -2.719  1.00  0.00     0.010 C 
HETATM   29  C3  UNL     1      -5.831  -1.128  -2.940  1.00  0.00     0.010 C 
ENDBRANCH  25  27
ENDBRANCH  24  25
ENDBRANCH  21  23
BRANCH  21  30
HETATM   30  O1  UNL     1      -2.583  -1.163   2.837  1.00  0.00    -0.386 OA
HETATM   31  H17 UNL     1      -2.027  -0.356   2.837  1.00  0.00     0.211 HD
ENDBRANCH  21  30
ENDBRANCH   1  21
BRANCH  18  32
HETATM   32  O4  UNL     1      -0.612   0.578   2.914  1.00  0.00    -0.395 OA
HETATM   33  H43 UNL     1      -0.158   0.808   3.746  1.00  0.00     0.210 HD
ENDBRANCH  18  32
BRANCH   6  34
HETATM   34  O2  UNL     1       3.458  -2.104  -0.754  1.00  0.00    -0.395 OA
HETATM   35  H26 UNL     1       4.077  -2.533  -1.370  1.00  0.00     0.210 HD
ENDBRANCH   6  34
TORSDOF 7
