REMARK  8 active torsions:
REMARK  status: ('A' for Active; 'I' for Inactive)
REMARK    1  A    between atoms: C3_3  and  C4_4 
REMARK    2  A    between atoms: C4_4  and  O1_5 
REMARK    3  A    between atoms: C6_9  and  C7_10 
REMARK    4  A    between atoms: C7_10  and  O4_12 
REMARK    5  A    between atoms: C7_10  and  C9_13 
REMARK    6  A    between atoms: C12_16  and  O5_17 
REMARK    7  A    between atoms: C15_20  and  O6_21 
REMARK    8  A    between atoms: C16_22  and  O7_23 
ROOT
HETATM    1  C9  UNL     1       1.553  -0.339  -0.119  1.00  0.00     0.033 C 
HETATM    2  C10 UNL     1       1.417  -1.436  -1.219  1.00  0.00     0.011 C 
HETATM    3  C11 UNL     1      -0.084  -1.693  -1.448  1.00  0.00     0.039 C 
HETATM    4  C12 UNL     1      -0.776  -0.579  -0.670  1.00  0.00     0.070 C 
HETATM    5  C13 UNL     1      -2.274  -0.826  -0.320  1.00  0.00     0.028 C 
HETATM    6  C14 UNL     1      -3.139  -0.783  -1.609  1.00  0.00     0.043 C 
HETATM    7  C15 UNL     1      -4.627  -0.509  -1.420  1.00  0.00     0.154 C 
HETATM    8  C16 UNL     1      -4.858   0.661  -0.431  1.00  0.00     0.098 C 
HETATM    9  C17 UNL     1      -6.355   1.041  -0.379  1.00  0.00     0.042 C 
HETATM   10  C18 UNL     1      -6.727   1.975   0.780  1.00  0.00     0.010 C 
HETATM   11  C19 UNL     1      -5.534   2.589   1.489  1.00  0.00     0.079 C 
HETATM   12  C20 UNL     1      -4.603   1.491   1.956  1.00  0.00     0.138 C 
HETATM   13  O8  UNL     1      -4.154   1.513   3.106  1.00  0.00    -0.297 OA
HETATM   14  C21 UNL     1      -4.270   0.343   0.973  1.00  0.00     0.054 C 
HETATM   15  C22 UNL     1      -4.938  -0.903   1.635  1.00  0.00     0.027 C 
HETATM   16  C23 UNL     1      -2.721   0.078   0.896  1.00  0.00     0.011 C 
HETATM   17  C24 UNL     1      -1.787   1.299   1.086  1.00  0.00     0.007 C 
HETATM   18  C25 UNL     1      -0.300   0.911   1.283  1.00  0.00     0.013 C 
HETATM   19  C26 UNL     1       0.135  -0.395   0.573  1.00  0.00    -0.006 C 
HETATM   20  C27 UNL     1       0.064  -1.590   1.561  1.00  0.00     0.019 C 
ENDROOT
BRANCH   1  21
HETATM   21  C7  UNL     1       2.876  -0.424   0.726  1.00  0.00     0.085 C 
HETATM   22  C8  UNL     1       2.846   0.598   1.877  1.00  0.00     0.049 C 
BRANCH  21  23
HETATM   23  C6  UNL     1       4.146  -0.157  -0.180  1.00  0.00     0.170 C 
HETATM   24  O3  UNL     1       4.204  -1.130  -1.248  1.00  0.00    -0.309 OA
HETATM   25  C5  UNL     1       5.251  -1.164  -2.107  1.00  0.00     0.292 C 
HETATM   26  C3  UNL     1       6.490  -0.453  -1.685  1.00  0.00     0.042 C 
HETATM   27  O2  UNL     1       5.184  -1.784  -3.161  1.00  0.00    -0.260 OA
HETATM   28  C2  UNL     1       6.625  -0.048  -0.402  1.00  0.00    -0.067 C 
HETATM   29  C1  UNL     1       7.868   0.566   0.182  1.00  0.00     0.044 C 
HETATM   30  C28 UNL     1       5.480  -0.210   0.570  1.00  0.00     0.070 C 
BRANCH  26  31
HETATM   31  C4  UNL     1       7.569  -0.367  -2.730  1.00  0.00     0.209 C 
BRANCH  31  32
HETATM   32  O1  UNL     1       7.767   0.979  -3.161  1.00  0.00    -0.396 OA
HETATM   33  H6  UNL     1       7.284   1.578  -2.565  1.00  0.00     0.209 HD
ENDBRANCH  31  32
ENDBRANCH  26  31
ENDBRANCH  21  23
BRANCH  21  34
HETATM   34  O4  UNL     1       2.983  -1.734   1.303  1.00  0.00    -0.387 OA
HETATM   35  H11 UNL     1       3.547  -1.692   2.095  1.00  0.00     0.210 HD
ENDBRANCH  21  34
ENDBRANCH   1  21
BRANCH   4  36
HETATM   36  O5  UNL     1      -0.632   0.596  -1.502  1.00  0.00    -0.389 OA
HETATM   37  H17 UNL     1      -1.456   1.115  -1.500  1.00  0.00     0.210 HD
ENDBRANCH   4  36
BRANCH   7  38
HETATM   38  O6  UNL     1      -5.314  -1.700  -1.048  1.00  0.00    -0.392 OA
HETATM   39  H22 UNL     1      -5.032  -2.406  -1.657  1.00  0.00     0.210 HD
ENDBRANCH   7  38
BRANCH   8  40
HETATM   40  O7  UNL     1      -4.137   1.798  -0.966  1.00  0.00    -0.386 OA
HETATM   41  H23 UNL     1      -4.607   2.126  -1.750  1.00  0.00     0.210 HD
ENDBRANCH   8  40
TORSDOF 8
