REMARK  13 active torsions:
REMARK  status: ('A' for Active; 'I' for Inactive)
REMARK    1  A    between atoms: C2_2  and  C3_3 
REMARK    2  A    between atoms: C2_2  and  C14_14 
REMARK    3  A    between atoms: C4_4  and  C5_5 
REMARK    4  A    between atoms: C6_6  and  C8_8 
REMARK    5  A    between atoms: C8_8  and  C9_9 
REMARK    6  A    between atoms: C9_9  and  C10_10 
REMARK    7  A    between atoms: C18_18  and  C19_19 
REMARK    8  A    between atoms: C19_19  and  C20_20 
REMARK    9  A    between atoms: C20_20  and  C21_21 
REMARK   10  A    between atoms: C21_21  and  O1_22 
REMARK   11  A    between atoms: C23_24  and  C25_26 
REMARK   12  A    between atoms: C28_30  and  O3_32 
REMARK   13  A    between atoms: C30_33  and  O4_34 
ROOT
HETATM    1  C14 UNL     1      -1.197  -2.472   0.392  1.00  0.00     0.047 C 
HETATM    2  C15 UNL     1      -2.639  -2.937   0.633  1.00  0.00     0.013 C 
HETATM    3  C16 UNL     1      -3.143  -1.903   1.633  1.00  0.00     0.017 C 
HETATM    4  C17 UNL     1      -2.552  -0.524   1.179  1.00  0.00     0.024 C 
HETATM    5  C18 UNL     1      -3.657   0.439   0.558  1.00  0.00     0.029 C 
HETATM    6  C22 UNL     1      -3.050   1.831   0.215  1.00  0.00    -0.066 C 
HETATM    7  C23 UNL     1      -2.959   2.492  -0.971  1.00  0.00    -0.021 C 
HETATM    8  C24 UNL     1      -2.509   3.929  -1.110  1.00  0.00     0.052 C 
HETATM    9  C26 UNL     1      -2.495   2.478   1.480  1.00  0.00     0.038 C 
HETATM   10  C27 UNL     1      -1.405   1.604   2.087  1.00  0.00     0.042 C 
HETATM   11  C28 UNL     1      -1.902   0.190   2.443  1.00  0.00     0.065 C 
HETATM   12  C29 UNL     1      -2.841   0.277   3.670  1.00  0.00     0.047 C 
HETATM   13  C30 UNL     1      -1.420  -0.952   0.162  1.00  0.00     0.138 C 
ENDROOT
BRANCH   5  14
HETATM   14  C19 UNL     1      -4.652  -0.225  -0.438  1.00  0.00     0.012 C 
BRANCH  14  15
HETATM   15  C20 UNL     1      -5.915   0.616  -0.699  1.00  0.00     0.027 C 
BRANCH  15  16
HETATM   16  C21 UNL     1      -6.641   0.195  -1.973  1.00  0.00     0.164 C 
BRANCH  16  17
HETATM   17  O1  UNL     1      -6.860  -1.208  -2.018  1.00  0.00    -0.401 OA
HETATM   18  H32 UNL     1      -7.437  -1.435  -1.271  1.00  0.00     0.209 HD
ENDBRANCH  16  17
ENDBRANCH  15  16
ENDBRANCH  14  15
ENDBRANCH   5  14
BRANCH  11  19
HETATM   19  O3  UNL     1      -0.757  -0.562   2.882  1.00  0.00    -0.389 OA
HETATM   20  H44 UNL     1      -0.347  -0.078   3.622  1.00  0.00     0.210 HD
ENDBRANCH  11  19
BRANCH  13  21
HETATM   21  O4  UNL     1      -1.801  -0.706  -1.190  1.00  0.00    -0.394 OA
HETATM   22  H46 UNL     1      -1.139  -1.138  -1.760  1.00  0.00     0.210 HD
ENDBRANCH  13  21
BRANCH   1  23
HETATM   23  C2  UNL     1      -0.390  -3.209  -0.676  1.00  0.00    -0.061 C 
HETATM   24  C1  UNL     1      -0.934  -4.121  -1.503  1.00  0.00     0.019 C 
BRANCH  23  25
HETATM   25  C3  UNL     1       1.040  -2.934  -0.812  1.00  0.00     0.007 C 
HETATM   26  C4  UNL     1       1.780  -2.096  -0.068  1.00  0.00     0.001 C 
BRANCH  26  27
HETATM   27  C5  UNL     1       3.185  -1.855  -0.340  1.00  0.00     0.002 C 
HETATM   28  C6  UNL     1       3.969  -0.928   0.243  1.00  0.00    -0.084 C 
HETATM   29  C7  UNL     1       3.535   0.001   1.347  1.00  0.00     0.043 C 
BRANCH  28  30
HETATM   30  C8  UNL     1       5.414  -0.770  -0.201  1.00  0.00     0.037 C 
BRANCH  30  31
HETATM   31  C9  UNL     1       5.684   0.586  -0.859  1.00  0.00     0.031 C 
BRANCH  31  32
HETATM   32  C10 UNL     1       7.092   0.684  -1.385  1.00  0.00    -0.024 C 
HETATM   33  C11 UNL     1       8.166   1.177  -0.739  1.00  0.00    -0.091 C 
HETATM   34  C12 UNL     1       8.157   1.683   0.678  1.00  0.00     0.042 C 
HETATM   35  C13 UNL     1       9.508   1.245  -1.413  1.00  0.00     0.042 C 
ENDBRANCH  31  32
ENDBRANCH  30  31
ENDBRANCH  28  30
ENDBRANCH  26  27
ENDBRANCH  23  25
ENDBRANCH   1  23
BRANCH   7  36
HETATM   36  C25 UNL     1      -3.268   1.887  -2.301  1.00  0.00     0.265 C 
HETATM   37  O2  UNL     1      -3.543   2.553  -3.296  1.00  0.00    -0.302 OA
ENDBRANCH   7  36
TORSDOF 13
