REMARK  6 active torsions:
REMARK  status: ('A' for Active; 'I' for Inactive)
REMARK    1  A    between atoms: C2_2  and  C3_3 
REMARK    2  A    between atoms: C3_3  and  C4_4 
REMARK    3  A    between atoms: C3_3  and  C27_28 
REMARK    4  A    between atoms: C5_5  and  C6_6 
REMARK    5  A    between atoms: C6_6  and  C8_8 
REMARK    6  A    between atoms: C16_16  and  O1_17 
ROOT
HETATM    1  C8  UNL     1       1.475  -1.813   0.498  1.00  0.00    -0.002 C 
HETATM    2  C9  UNL     1       0.794  -0.454   0.765  1.00  0.00     0.040 C 
HETATM    3  C10 UNL     1      -0.583  -0.687   0.214  1.00  0.00    -0.068 C 
HETATM    4  C11 UNL     1      -1.749  -0.410   0.824  1.00  0.00    -0.072 C 
HETATM    5  C12 UNL     1      -1.905   0.538   1.986  1.00  0.00     0.035 C 
HETATM    6  C13 UNL     1      -2.934   1.623   1.640  1.00  0.00     0.010 C 
HETATM    7  C14 UNL     1      -4.260   1.019   1.142  1.00  0.00    -0.003 C 
HETATM    8  C15 UNL     1      -5.318   2.099   0.888  1.00  0.00     0.037 C 
HETATM    9  C16 UNL     1      -6.661   1.471   0.517  1.00  0.00     0.118 C 
HETATM   10  C17 UNL     1      -6.544   0.490  -0.647  1.00  0.00     0.032 C 
HETATM   11  C18 UNL     1      -5.453  -0.560  -0.422  1.00  0.00     0.012 C 
HETATM   12  C19 UNL     1      -4.067   0.053  -0.086  1.00  0.00    -0.033 C 
HETATM   13  C20 UNL     1      -3.545   0.806  -1.333  1.00  0.00     0.016 C 
HETATM   14  C21 UNL     1      -3.055  -1.051   0.381  1.00  0.00     0.023 C 
HETATM   15  C22 UNL     1      -2.821  -2.286  -0.515  1.00  0.00     0.011 C 
HETATM   16  C23 UNL     1      -1.742  -2.118  -1.577  1.00  0.00     0.014 C 
HETATM   17  C24 UNL     1      -0.435  -1.496  -1.053  1.00  0.00    -0.020 C 
HETATM   18  C25 UNL     1       0.159  -0.640  -2.198  1.00  0.00     0.020 C 
HETATM   19  C26 UNL     1       0.610  -2.521  -0.585  1.00  0.00     0.019 C 
ENDROOT
BRANCH   1  20
HETATM   20  C6  UNL     1       2.977  -1.696   0.142  1.00  0.00     0.008 C 
HETATM   21  C7  UNL     1       3.624  -3.082   0.005  1.00  0.00     0.014 C 
BRANCH  20  22
HETATM   22  C5  UNL     1       3.733  -0.927   1.206  1.00  0.00    -0.026 C 
HETATM   23  C4  UNL     1       4.438   0.211   1.070  1.00  0.00    -0.025 C 
BRANCH  23  24
HETATM   24  C3  UNL     1       4.638   1.051  -0.176  1.00  0.00     0.011 C 
BRANCH  24  25
HETATM   25  C2  UNL     1       4.329   2.540   0.117  1.00  0.00     0.004 C 
HETATM   26  C1  UNL     1       2.861   2.809   0.425  1.00  0.00     0.006 C 
ENDBRANCH  24  25
BRANCH  24  27
HETATM   27  C27 UNL     1       6.065   0.896  -0.785  1.00  0.00    -0.015 C 
HETATM   28  C28 UNL     1       6.325  -0.532  -1.277  1.00  0.00     0.010 C 
HETATM   29  C29 UNL     1       7.201   1.329   0.149  1.00  0.00     0.010 C 
ENDBRANCH  24  27
ENDBRANCH  23  24
ENDBRANCH  20  22
ENDBRANCH   1  20
BRANCH   9  30
HETATM   30  O1  UNL     1      -7.570   2.513   0.177  1.00  0.00    -0.396 OA
HETATM   31  H24 UNL     1      -8.420   2.098  -0.052  1.00  0.00     0.210 HD
ENDBRANCH   9  30
TORSDOF 6
