REMARK  7 active torsions:
REMARK  status: ('A' for Active; 'I' for Inactive)
REMARK    1  A    between atoms: C3_3  and  C4_4 
REMARK    2  A    between atoms: C5_6  and  C6_7 
REMARK    3  A    between atoms: C6_7  and  C7_9 
REMARK    4  A    between atoms: C7_9  and  O3_10 
REMARK    5  A    between atoms: O3_10  and  C8_11 
REMARK    6  A    between atoms: C8_11  and  C9_13 
REMARK    7  A    between atoms: C28_36  and  O7_37 
ROOT
HETATM    1  C4  UNL     1      -0.129   2.721   0.004  1.00  0.00     0.286 C 
HETATM    2  O1  UNL     1       1.229   2.310  -0.025  1.00  0.00    -0.338 OA
HETATM    3  C5  UNL     1       1.541   1.204  -0.868  1.00  0.00     0.137 C 
HETATM    4  C14 UNL     1       1.268   1.597  -2.347  1.00  0.00     0.050 C 
HETATM    5  C15 UNL     1      -0.196   1.183  -2.602  1.00  0.00     0.043 C 
HETATM    6  C16 UNL     1      -0.676   0.672  -1.236  1.00  0.00     0.079 C 
HETATM    7  O5  UNL     1      -1.101   1.800  -0.456  1.00  0.00    -0.346 OA
HETATM    8  C17 UNL     1      -1.877  -0.299  -1.225  1.00  0.00     0.029 C 
HETATM    9  C18 UNL     1      -3.123   0.240  -1.966  1.00  0.00     0.012 C 
HETATM   10  C19 UNL     1      -4.311   0.546  -1.060  1.00  0.00     0.036 C 
HETATM   11  C20 UNL     1      -4.670  -0.582  -0.116  1.00  0.00    -0.068 C 
HETATM   12  C21 UNL     1      -5.928  -0.679   0.349  1.00  0.00     0.053 C 
HETATM   13  C22 UNL     1      -6.306  -1.680   1.374  1.00  0.00     0.149 C 
HETATM   14  O6  UNL     1      -7.491  -1.815   1.671  1.00  0.00    -0.293 OA
HETATM   15  C23 UNL     1      -5.224  -2.520   2.010  1.00  0.00     0.084 C 
HETATM   16  C24 UNL     1      -3.834  -1.916   1.820  1.00  0.00     0.022 C 
HETATM   17  C25 UNL     1      -3.539  -1.509   0.352  1.00  0.00    -0.014 C 
HETATM   18  C26 UNL     1      -3.538  -2.779  -0.532  1.00  0.00     0.020 C 
HETATM   19  C27 UNL     1      -2.203  -0.690   0.262  1.00  0.00     0.034 C 
HETATM   20  C28 UNL     1      -0.965  -1.274   0.992  1.00  0.00     0.124 C 
HETATM   21  C29 UNL     1       0.294  -0.386   0.841  1.00  0.00     0.048 C 
HETATM   22  C30 UNL     1       0.583   0.012  -0.626  1.00  0.00     0.029 C 
HETATM   23  C31 UNL     1       1.084  -1.244  -1.403  1.00  0.00     0.022 C 
ENDROOT
BRANCH   3  24
HETATM   24  C6  UNL     1       3.025   0.858  -0.644  1.00  0.00     0.186 C 
HETATM   25  O2  UNL     1       3.731   0.382  -1.540  1.00  0.00    -0.292 OA
BRANCH  24  26
HETATM   26  C7  UNL     1       3.592   1.114   0.754  1.00  0.00     0.260 C 
BRANCH  26  27
HETATM   27  O3  UNL     1       4.843   0.455   0.966  1.00  0.00    -0.310 OA
BRANCH  27  28
HETATM   28  C8  UNL     1       4.740  -0.883   1.159  1.00  0.00     0.295 C 
HETATM   29  O4  UNL     1       3.695  -1.507   1.261  1.00  0.00    -0.259 OA
BRANCH  28  30
HETATM   30  C9  UNL     1       6.075  -1.511   1.251  1.00  0.00     0.054 A 
HETATM   31  C10 UNL     1       6.174  -2.883   1.498  1.00  0.00     0.020 A 
HETATM   32  C11 UNL     1       7.431  -3.477   1.586  1.00  0.00     0.018 A 
HETATM   33  C12 UNL     1       8.550  -2.676   1.427  1.00  0.00     0.087 A 
HETATM   34  N1  UNL     1       8.492  -1.347   1.188  1.00  0.00    -0.374 N 
HETATM   35  C13 UNL     1       7.255  -0.795   1.100  1.00  0.00     0.105 A 
ATOM     36  H1  UNL     1       9.337  -0.786   1.079  1.00  0.00     0.164 HD
ENDBRANCH  28  30
ENDBRANCH  27  28
ENDBRANCH  26  27
ENDBRANCH  24  26
ENDBRANCH   3  24
BRANCH   1  37
HETATM   37  C3  UNL     1      -0.304   4.039  -0.694  1.00  0.00     0.029 C 
HETATM   38  C2  UNL     1      -0.658   5.185  -0.089  1.00  0.00    -0.030 C 
HETATM   39  C1  UNL     1      -0.845   6.483  -0.805  1.00  0.00     0.036 C 
ENDBRANCH   1  37
BRANCH  20  40
HETATM   40  O7  UNL     1      -0.694  -2.592   0.542  1.00  0.00    -0.395 OA
HETATM   41  H32 UNL     1       0.091  -2.916   1.021  1.00  0.00     0.210 HD
ENDBRANCH  20  40
TORSDOF 7
