REMARK  15 active torsions:
REMARK  status: ('A' for Active; 'I' for Inactive)
REMARK    1  A    between atoms: O1_2  and  C2_3 
REMARK    2  A    between atoms: C3_4  and  O2_5 
REMARK    3  A    between atoms: C4_6  and  O3_7 
REMARK    4  A    between atoms: C5_8  and  O4_9 
REMARK    5  A    between atoms: O4_9  and  C6_10 
REMARK    6  A    between atoms: C6_10  and  C7_11 
REMARK    7  A    between atoms: C6_10  and  C17_22 
REMARK    8  A    between atoms: C7_11  and  C8_12 
REMARK    9  A    between atoms: C19_24  and  C20_25 
REMARK   10  A    between atoms: C20_25  and  C21_26 
REMARK   11  A    between atoms: C22_27  and  O6_28 
REMARK   12  A    between atoms: C26_33  and  C27_34 
REMARK   13  A    between atoms: C28_36  and  O8_37 
REMARK   14  A    between atoms: C29_39  and  C30_40 
REMARK   15  A    between atoms: C30_40  and  O10_41 
ROOT
HETATM    1  C6  UNL     1      -0.084   0.840   0.747  1.00  0.00     0.153 C 
ENDROOT
BRANCH   1   2
HETATM    2  O4  UNL     1      -1.098  -0.142   0.469  1.00  0.00    -0.349 OA
BRANCH   2   3
HETATM    3  C5  UNL     1      -1.231  -1.157   1.468  1.00  0.00     0.292 C 
HETATM    4  C4  UNL     1      -2.721  -1.536   1.684  1.00  0.00     0.204 C 
HETATM    5  C3  UNL     1      -3.196  -2.692   0.781  1.00  0.00     0.183 C 
HETATM    6  C2  UNL     1      -2.361  -2.725  -0.503  1.00  0.00     0.183 C 
HETATM    7  C29 UNL     1      -0.890  -2.970  -0.080  1.00  0.00     0.179 C 
HETATM    8  O9  UNL     1      -0.487  -2.324   1.138  1.00  0.00    -0.348 OA
BRANCH   4   9
HETATM    9  O3  UNL     1      -2.967  -1.931   3.048  1.00  0.00    -0.388 OA
HETATM   10  H8  UNL     1      -2.309  -2.615   3.277  1.00  0.00     0.210 HD
ENDBRANCH   4   9
BRANCH   5  11
HETATM   11  O2  UNL     1      -4.594  -2.506   0.519  1.00  0.00    -0.390 OA
HETATM   12  H6  UNL     1      -5.037  -2.474   1.389  1.00  0.00     0.210 HD
ENDBRANCH   5  11
BRANCH   6  13
HETATM   13  O1  UNL     1      -2.698  -3.773  -1.431  1.00  0.00    -0.385 OA
HETATM   14  C1  UNL     1      -3.978  -3.616  -2.039  1.00  0.00     0.202 C 
ENDBRANCH   6  13
BRANCH   7  15
HETATM   15  C30 UNL     1       0.062  -2.609  -1.220  1.00  0.00     0.198 C 
BRANCH  15  16
HETATM   16  O10 UNL     1      -0.037  -3.480  -2.349  1.00  0.00    -0.398 OA
HETATM   17  H43 UNL     1      -0.965  -3.795  -2.388  1.00  0.00     0.209 HD
ENDBRANCH  15  16
ENDBRANCH   7  15
ENDBRANCH   2   3
ENDBRANCH   1   2
BRANCH   1  18
HETATM   18  C7  UNL     1      -0.581   2.244   0.281  1.00  0.00     0.047 C 
BRANCH  18  19
HETATM   19  C8  UNL     1      -1.611   3.051   1.164  1.00  0.00    -0.028 C 
HETATM   20  C9  UNL     1      -2.707   2.112   1.715  1.00  0.00     0.016 C 
HETATM   21  C10 UNL     1      -0.862   3.819   2.335  1.00  0.00    -0.009 C 
HETATM   22  C11 UNL     1      -0.076   2.954   3.328  1.00  0.00     0.011 C 
HETATM   23  C12 UNL     1      -1.812   4.728   3.142  1.00  0.00     0.012 C 
HETATM   24  C13 UNL     1      -2.481   5.764   2.258  1.00  0.00     0.079 C 
HETATM   25  C14 UNL     1      -3.159   5.092   1.093  1.00  0.00     0.131 C 
HETATM   26  O5  UNL     1      -4.331   5.347   0.819  1.00  0.00    -0.298 OA
HETATM   27  C15 UNL     1      -2.284   4.160   0.251  1.00  0.00     0.060 C 
HETATM   28  C16 UNL     1      -3.094   3.653  -0.949  1.00  0.00     0.018 C 
ENDBRANCH  18  19
ENDBRANCH   1  18
BRANCH   1  29
HETATM   29  C17 UNL     1       1.229   0.465   0.037  1.00  0.00    -0.059 C 
HETATM   30  C18 UNL     1       2.304  -0.092   0.927  1.00  0.00     0.046 C 
HETATM   31  C19 UNL     1       1.440   0.707  -1.277  1.00  0.00    -0.017 C 
BRANCH  31  32
HETATM   32  C20 UNL     1       2.704   0.642  -2.109  1.00  0.00     0.072 C 
BRANCH  32  33
HETATM   33  C21 UNL     1       3.483  -0.653  -2.153  1.00  0.00     0.014 A 
HETATM   34  C22 UNL     1       2.994  -1.770  -2.845  1.00  0.00     0.097 A 
HETATM   35  C23 UNL     1       3.708  -2.985  -2.901  1.00  0.00     0.074 A 
HETATM   36 CL1  UNL     1       2.985  -4.315  -3.755  1.00  0.00    -0.081 Cl
HETATM   37  C24 UNL     1       4.975  -3.096  -2.299  1.00  0.00    -0.021 A 
HETATM   38  C25 UNL     1       5.792  -4.361  -2.373  1.00  0.00     0.051 C 
HETATM   39  C26 UNL     1       5.478  -1.962  -1.622  1.00  0.00     0.043 A 
HETATM   40  C28 UNL     1       4.737  -0.768  -1.538  1.00  0.00     0.088 A 
BRANCH  34  41
HETATM   41  O6  UNL     1       1.785  -1.646  -3.491  1.00  0.00    -0.358 OA
HETATM   42  H34 UNL     1       1.352  -2.528  -3.461  1.00  0.00     0.217 HD
ENDBRANCH  34  41
BRANCH  39  43
HETATM   43  C27 UNL     1       6.832  -1.976  -1.028  1.00  0.00     0.273 C 
HETATM   44  O7  UNL     1       7.225  -2.886  -0.308  1.00  0.00    -0.301 OA
ENDBRANCH  39  43
BRANCH  40  45
HETATM   45  O8  UNL     1       5.209   0.329  -0.862  1.00  0.00    -0.359 OA
HETATM   46  H39 UNL     1       5.816   0.067  -0.145  1.00  0.00     0.217 HD
ENDBRANCH  40  45
ENDBRANCH  32  33
ENDBRANCH  31  32
ENDBRANCH   1  29
TORSDOF 15
