REMARK  8 active torsions:
REMARK  status: ('A' for Active; 'I' for Inactive)
REMARK    1  A    between atoms: C2_2  and  C4_4 
REMARK    2  A    between atoms: C4_4  and  O1_6 
REMARK    3  A    between atoms: C4_4  and  C6_7 
REMARK    4  A    between atoms: C7_9  and  C8_10 
REMARK    5  A    between atoms: C8_10  and  O3_12 
REMARK    6  A    between atoms: C8_10  and  C10_13 
REMARK    7  A    between atoms: C17_20  and  O4_21 
REMARK    8  A    between atoms: C23_28  and  O6_29 
ROOT
HETATM    1  C10 UNL     1       0.965   1.412   0.833  1.00  0.00     0.034 C 
HETATM    2  C11 UNL     1       1.047   2.036  -0.590  1.00  0.00     0.021 C 
HETATM    3  C12 UNL     1      -0.215   1.561  -1.394  1.00  0.00    -0.004 C 
HETATM    4  C13 UNL     1      -0.817   2.714  -2.223  1.00  0.00     0.013 C 
HETATM    5  C14 UNL     1       0.144   2.891  -3.386  1.00  0.00     0.001 C 
HETATM    6  C15 UNL     1       0.628   1.489  -3.713  1.00  0.00     0.001 C 
HETATM    7  C16 UNL     1       0.247   0.602  -2.517  1.00  0.00     0.013 C 
HETATM    8  C17 UNL     1      -1.155   1.046  -0.252  1.00  0.00     0.097 C 
HETATM    9  C18 UNL     1      -2.427   0.225  -0.414  1.00  0.00    -0.036 C 
HETATM   10  C19 UNL     1      -2.906  -0.233  -1.579  1.00  0.00     0.057 C 
HETATM   11  C20 UNL     1      -4.027  -1.197  -1.639  1.00  0.00     0.154 C 
HETATM   12  O5  UNL     1      -4.437  -1.544  -2.748  1.00  0.00    -0.293 OA
HETATM   13  C21 UNL     1      -4.560  -1.776  -0.332  1.00  0.00     0.071 C 
HETATM   14  C22 UNL     1      -5.945  -2.413  -0.546  1.00  0.00     0.045 C 
HETATM   15  C23 UNL     1      -7.096  -1.403  -0.623  1.00  0.00     0.119 C 
HETATM   16  C24 UNL     1      -6.653   0.056  -0.650  1.00  0.00     0.032 C 
HETATM   17  C25 UNL     1      -5.612   0.423   0.413  1.00  0.00     0.013 C 
HETATM   18  C26 UNL     1      -4.574  -0.697   0.772  1.00  0.00    -0.026 C 
HETATM   19  C27 UNL     1      -5.016  -1.319   2.121  1.00  0.00     0.016 C 
HETATM   20  C28 UNL     1      -3.142  -0.050   0.927  1.00  0.00     0.026 C 
HETATM   21  C29 UNL     1      -2.164  -0.770   1.882  1.00  0.00     0.011 C 
HETATM   22  C30 UNL     1      -0.864   0.035   2.074  1.00  0.00     0.014 C 
HETATM   23  C31 UNL     1      -0.154   0.321   0.729  1.00  0.00    -0.002 C 
HETATM   24  C32 UNL     1       0.347  -1.037   0.184  1.00  0.00     0.019 C 
ENDROOT
BRANCH   1  25
HETATM   25  C8  UNL     1       2.328   1.160   1.548  1.00  0.00     0.087 C 
HETATM   26  C9  UNL     1       3.106   2.489   1.624  1.00  0.00     0.049 C 
BRANCH  25  27
HETATM   27  C7  UNL     1       3.155   0.025   0.990  1.00  0.00     0.188 A 
HETATM   28  C6  UNL     1       4.652   0.111   0.691  1.00  0.00     0.188 A 
HETATM   29  O2  UNL     1       3.656   0.191  -0.340  1.00  0.00    -0.369 OA
BRANCH  28  30
HETATM   30  C4  UNL     1       5.596  -1.074   0.563  1.00  0.00     0.086 C 
HETATM   31  C5  UNL     1       4.862  -2.425   0.622  1.00  0.00     0.049 C 
BRANCH  30  32
HETATM   32  C2  UNL     1       6.462  -0.948  -0.738  1.00  0.00     0.014 C 
HETATM   33  C1  UNL     1       7.452  -2.110  -0.919  1.00  0.00     0.012 C 
HETATM   34  C3  UNL     1       7.269   0.360  -0.791  1.00  0.00     0.012 C 
ENDBRANCH  30  32
BRANCH  30  35
HETATM   35  O1  UNL     1       6.476  -1.034   1.696  1.00  0.00    -0.387 OA
HETATM   36  H11 UNL     1       5.937  -1.159   2.498  1.00  0.00     0.210 HD
ENDBRANCH  30  35
ENDBRANCH  28  30
ENDBRANCH  25  27
BRANCH  25  37
HETATM   37  O3  UNL     1       2.020   0.796   2.906  1.00  0.00    -0.387 OA
HETATM   38  H17 UNL     1       2.830   0.891   3.434  1.00  0.00     0.210 HD
ENDBRANCH  25  37
ENDBRANCH   1  25
BRANCH   8  39
HETATM   39  O4  UNL     1      -1.627   2.252   0.406  1.00  0.00    -0.384 OA
HETATM   40  H29 UNL     1      -2.351   2.616  -0.133  1.00  0.00     0.211 HD
ENDBRANCH   8  39
BRANCH  15  41
HETATM   41  O6  UNL     1      -7.963  -1.584   0.499  1.00  0.00    -0.396 OA
HETATM   42  H35 UNL     1      -8.345  -2.478   0.426  1.00  0.00     0.210 HD
ENDBRANCH  15  41
TORSDOF 8
