REMARK  10 active torsions:
REMARK  status: ('A' for Active; 'I' for Inactive)
REMARK    1  A    between atoms: C3_3  and  O1_4 
REMARK    2  A    between atoms: N1_14  and  O2_16 
REMARK    3  A    between atoms: O2_16  and  C13_17 
REMARK    4  A    between atoms: C13_17  and  C14_18 
REMARK       I    between atoms: C14_18  and  N2_20 
REMARK    5  A    between atoms: N2_20  and  C15_21 
REMARK    6  A    between atoms: C15_21  and  C16_22 
REMARK       I    between atoms: C16_22  and  N3_24 
REMARK    7  A    between atoms: N3_24  and  C17_25 
REMARK    8  A    between atoms: C17_25  and  C18_26 
REMARK    9  A    between atoms: C17_25  and  C19_29 
REMARK   10  A    between atoms: C18_26  and  O6_28 
ROOT
HETATM    1  C1  UNL     1      -9.038  -3.061  -1.762  1.00  0.00     0.015 C 
HETATM    2  C2  UNL     1      -8.322  -2.099  -1.695  1.00  0.00    -0.078 C 
HETATM    3  C3  UNL     1      -7.441  -0.922  -1.637  1.00  0.00     0.128 C 
HETATM    4  C4  UNL     1      -8.231   0.390  -1.658  1.00  0.00     0.052 C 
HETATM    5  C5  UNL     1      -7.172   1.416  -1.271  1.00  0.00     0.010 C 
HETATM    6  C6  UNL     1      -6.416   0.740  -0.121  1.00  0.00     0.002 C 
HETATM    7  C7  UNL     1      -4.996   1.274   0.179  1.00  0.00    -0.004 C 
HETATM    8  C8  UNL     1      -4.096   1.575  -1.031  1.00  0.00     0.010 C 
HETATM    9  C9  UNL     1      -2.736   2.131  -0.607  1.00  0.00     0.035 C 
HETATM   10  C10 UNL     1      -2.045   1.324   0.471  1.00  0.00    -0.069 C 
HETATM   11  C11 UNL     1      -0.733   1.044   0.359  1.00  0.00     0.030 C 
HETATM   12  C12 UNL     1       0.029   0.394   1.466  1.00  0.00     0.032 C 
HETATM   13  N1  UNL     1       1.272   0.023   1.420  1.00  0.00    -0.271 N 
ATOM     14  H1  UNL     1       1.775  -0.389   2.206  1.00  0.00     0.194 HD
HETATM   15  C22 UNL     1      -0.691   0.215   2.788  1.00  0.00     0.060 C 
HETATM   16  C23 UNL     1      -2.153  -0.135   2.553  1.00  0.00     0.020 C 
HETATM   17  C24 UNL     1      -2.897   0.911   1.670  1.00  0.00    -0.016 C 
HETATM   18  C25 UNL     1      -3.149   2.166   2.547  1.00  0.00     0.020 C 
HETATM   19  C26 UNL     1      -4.276   0.325   1.172  1.00  0.00     0.002 C 
HETATM   20  C27 UNL     1      -4.166  -1.110   0.589  1.00  0.00     0.007 C 
HETATM   21  C28 UNL     1      -5.190  -1.489  -0.485  1.00  0.00     0.014 C 
HETATM   22  C29 UNL     1      -6.559  -0.805  -0.341  1.00  0.00     0.003 C 
HETATM   23  C30 UNL     1      -7.280  -1.402   0.899  1.00  0.00     0.020 C 
ENDROOT
BRANCH   3  24
HETATM   24  O1  UNL     1      -6.618  -0.932  -2.807  1.00  0.00    -0.377 OA
HETATM   25  H2  UNL     1      -7.205  -1.083  -3.567  1.00  0.00     0.211 HD
ENDBRANCH   3  24
BRANCH  13  26
HETATM   26  O2  UNL     1       1.840   0.258   0.157  1.00  0.00    -0.271 OA
BRANCH  26  27
HETATM   27  C13 UNL     1       3.223  -0.051   0.218  1.00  0.00     0.303 C 
BRANCH  27  28
HETATM   28  C14 UNL     1       3.914   0.258  -1.108  1.00  0.00     0.244 C 
HETATM   29  O3  UNL     1       3.328   0.373  -2.180  1.00  0.00    -0.271 OA
HETATM   30  N2  UNL     1       5.289   0.381  -0.999  1.00  0.00    -0.350 N 
HETATM   31  H16 UNL     1       5.672   0.584  -0.083  1.00  0.00     0.163 HD
BRANCH  30  32
HETATM   32  C15 UNL     1       6.071   0.834  -2.144  1.00  0.00     0.225 C 
BRANCH  32  33
HETATM   33  C16 UNL     1       7.567   0.576  -1.953  1.00  0.00     0.236 C 
HETATM   34  O4  UNL     1       8.428   1.177  -2.587  1.00  0.00    -0.272 OA
HETATM   35  N3  UNL     1       7.858  -0.442  -1.073  1.00  0.00    -0.345 N 
HETATM   36  H19 UNL     1       7.105  -1.087  -0.841  1.00  0.00     0.163 HD
BRANCH  35  37
HETATM   37  C17 UNL     1       9.224  -0.935  -0.860  1.00  0.00     0.185 C 
BRANCH  37  38
HETATM   38  C18 UNL     1       9.170  -2.399  -0.393  1.00  0.00     0.163 C 
HETATM   39  O5  UNL     1      10.116  -3.131  -0.156  1.00  0.00    -0.648 OA
BRANCH  38  40
HETATM   40  O6  UNL     1       7.907  -2.868  -0.241  1.00  0.00    -0.775 OA
HETATM   41  H21 UNL     1       8.045  -3.801   0.037  1.00  0.00     0.167 HD
ENDBRANCH  38  40
ENDBRANCH  37  38
BRANCH  37  42
HETATM   42  C19 UNL     1       9.987  -0.013   0.118  1.00  0.00     0.010 C 
HETATM   43  C20 UNL     1      11.493  -0.290   0.116  1.00  0.00     0.012 C 
HETATM   44  C21 UNL     1       9.438  -0.073   1.547  1.00  0.00     0.012 C 
ENDBRANCH  37  42
ENDBRANCH  35  37
ENDBRANCH  32  33
ENDBRANCH  30  32
ENDBRANCH  27  28
ENDBRANCH  26  27
ENDBRANCH  13  26
TORSDOF 10
