REMARK  8 active torsions:
REMARK  status: ('A' for Active; 'I' for Inactive)
REMARK    1  A    between atoms: C3_3  and  O1_4 
REMARK    2  A    between atoms: N1_14  and  O2_16 
REMARK    3  A    between atoms: O2_16  and  C13_17 
REMARK    4  A    between atoms: C13_17  and  C14_18 
REMARK       I    between atoms: C14_18  and  N2_20 
REMARK    5  A    between atoms: N2_20  and  C15_21 
REMARK    6  A    between atoms: C15_21  and  C16_22 
REMARK    7  A    between atoms: C16_22  and  O4_23 
REMARK    8  A    between atoms: C16_22  and  C17_24 
ROOT
HETATM    1  C1  UNL     1      -9.986   0.359   1.613  1.00  0.00     0.015 C 
HETATM    2  C2  UNL     1      -8.797   0.519   1.547  1.00  0.00    -0.078 C 
HETATM    3  C3  UNL     1      -7.338   0.722   1.483  1.00  0.00     0.128 C 
HETATM    4  C4  UNL     1      -6.735   0.870   2.882  1.00  0.00     0.052 C 
HETATM    5  C5  UNL     1      -5.246   0.670   2.634  1.00  0.00     0.010 C 
HETATM    6  C6  UNL     1      -5.206  -0.537   1.693  1.00  0.00     0.002 C 
HETATM    7  C7  UNL     1      -3.927  -0.700   0.851  1.00  0.00    -0.004 C 
HETATM    8  C8  UNL     1      -2.671  -0.781   1.731  1.00  0.00     0.010 C 
HETATM    9  C9  UNL     1      -1.438  -1.085   0.887  1.00  0.00     0.035 C 
HETATM   10  C10 UNL     1      -1.245  -0.089  -0.232  1.00  0.00    -0.069 C 
HETATM   11  C11 UNL     1      -0.025   0.444  -0.440  1.00  0.00     0.030 C 
HETATM   12  C12 UNL     1       0.258   1.342  -1.595  1.00  0.00     0.032 C 
HETATM   13  N1  UNL     1       1.399   1.896  -1.871  1.00  0.00    -0.271 N 
ATOM     14  H1  UNL     1       1.553   2.508  -2.672  1.00  0.00     0.194 HD
HETATM   15  C23 UNL     1      -0.871   1.598  -2.571  1.00  0.00     0.060 C 
HETATM   16  C24 UNL     1      -2.221   1.554  -1.876  1.00  0.00     0.020 C 
HETATM   17  C25 UNL     1      -2.471   0.226  -1.101  1.00  0.00    -0.016 C 
HETATM   18  C26 UNL     1      -2.642  -0.935  -2.109  1.00  0.00     0.020 C 
HETATM   19  C27 UNL     1      -3.757   0.417  -0.203  1.00  0.00     0.002 C 
HETATM   20  C28 UNL     1      -5.056   0.660  -1.007  1.00  0.00     0.007 C 
HETATM   21  C29 UNL     1      -6.214  -0.283  -0.667  1.00  0.00     0.014 C 
HETATM   22  C30 UNL     1      -6.520  -0.462   0.840  1.00  0.00     0.003 C 
HETATM   23  C31 UNL     1      -7.252  -1.820   1.000  1.00  0.00     0.020 C 
ENDROOT
BRANCH   3  24
HETATM   24  O1  UNL     1      -7.103   1.960   0.808  1.00  0.00    -0.377 OA
HETATM   25  H2  UNL     1      -7.633   1.936  -0.004  1.00  0.00     0.211 HD
ENDBRANCH   3  24
BRANCH  13  26
HETATM   26  O2  UNL     1       2.398   1.559  -0.943  1.00  0.00    -0.271 OA
BRANCH  26  27
HETATM   27  C13 UNL     1       3.581   2.281  -1.273  1.00  0.00     0.303 C 
BRANCH  27  28
HETATM   28  C14 UNL     1       4.772   1.748  -0.488  1.00  0.00     0.243 C 
HETATM   29  O3  UNL     1       5.579   2.479   0.083  1.00  0.00    -0.271 OA
HETATM   30  N2  UNL     1       4.922   0.374  -0.542  1.00  0.00    -0.356 N 
HETATM   31  H16 UNL     1       4.367  -0.141  -1.217  1.00  0.00     0.162 HD
BRANCH  30  32
HETATM   32  C15 UNL     1       6.107  -0.267   0.005  1.00  0.00     0.159 C 
BRANCH  32  33
HETATM   33  C16 UNL     1       7.343  -0.087  -0.899  1.00  0.00     0.170 C 
BRANCH  33  34
HETATM   34  O4  UNL     1       7.153  -0.837  -2.110  1.00  0.00    -0.389 OA
HETATM   35  H20 UNL     1       8.029  -0.919  -2.528  1.00  0.00     0.210 HD
ENDBRANCH  33  34
BRANCH  33  36
HETATM   36  C17 UNL     1       8.608  -0.538  -0.217  1.00  0.00    -0.013 A 
HETATM   37  C18 UNL     1       8.924  -1.888  -0.034  1.00  0.00     0.013 A 
HETATM   38  C19 UNL     1      10.090  -2.241   0.645  1.00  0.00     0.025 A 
HETATM   39  C20 UNL     1      10.918  -1.233   1.123  1.00  0.00     0.005 A 
HETATM   40  C21 UNL     1      12.158  -1.574   1.891  1.00  0.00     0.068 C 
HETATM   41  N3  UNL     1      10.637   0.081   0.954  1.00  0.00    -0.369 N 
HETATM   42  C22 UNL     1       9.496   0.397   0.305  1.00  0.00     0.097 A 
ATOM     43  H3  UNL     1      11.264   0.805   1.304  1.00  0.00     0.165 HD
ENDBRANCH  33  36
ENDBRANCH  32  33
ENDBRANCH  30  32
ENDBRANCH  27  28
ENDBRANCH  26  27
ENDBRANCH  13  26
TORSDOF 8
