REMARK  14 active torsions:
REMARK  status: ('A' for Active; 'I' for Inactive)
REMARK    1  A    between atoms: O1_2  and  C2_3 
REMARK    2  A    between atoms: C2_3  and  C5_6 
REMARK    3  A    between atoms: C6_7  and  C7_8 
REMARK    4  A    between atoms: C7_8  and  C8_9 
REMARK    5  A    between atoms: C8_9  and  C10_11 
REMARK    6  A    between atoms: C22_23  and  O2_24 
REMARK    7  A    between atoms: O2_24  and  C23_25 
REMARK    8  A    between atoms: C24_27  and  C25_28 
REMARK    9  A    between atoms: C25_28  and  O4_29 
REMARK   10  A    between atoms: C26_30  and  O5_31 
REMARK   11  A    between atoms: C27_32  and  O6_33 
REMARK   12  A    between atoms: C28_34  and  O7_35 
REMARK   13  A    between atoms: C32_39  and  C33_40 
REMARK   14  A    between atoms: C33_40  and  O8_41 
ROOT
HETATM    1  C10 UNL     1       3.218   0.697  -0.122  1.00  0.00    -0.002 C 
HETATM    2  C11 UNL     1       3.814  -0.360  -1.087  1.00  0.00     0.006 C 
HETATM    3  C12 UNL     1       2.827  -1.553  -1.119  1.00  0.00     0.011 C 
HETATM    4  C13 UNL     1       1.560  -1.061  -0.377  1.00  0.00    -0.032 C 
HETATM    5  C14 UNL     1       0.723  -0.294  -1.450  1.00  0.00     0.016 C 
HETATM    6  C15 UNL     1       0.700  -2.174   0.309  1.00  0.00     0.009 C 
HETATM    7  C16 UNL     1       0.121  -3.216  -0.666  1.00  0.00     0.033 C 
HETATM    8  C17 UNL     1      -1.249  -2.921  -1.177  1.00  0.00    -0.022 C 
HETATM    9  C18 UNL     1      -2.111  -2.038  -0.643  1.00  0.00    -0.068 C 
HETATM   10  C19 UNL     1      -1.767  -1.260   0.619  1.00  0.00     0.026 C 
HETATM   11  C20 UNL     1      -2.970  -1.271   1.603  1.00  0.00     0.012 C 
HETATM   12  C21 UNL     1      -4.349  -1.058   0.976  1.00  0.00     0.034 C 
HETATM   13  C22 UNL     1      -4.308  -0.677  -0.499  1.00  0.00     0.136 C 
HETATM   14  C29 UNL     1      -3.472  -1.731  -1.319  1.00  0.00     0.002 C 
HETATM   15  C30 UNL     1      -4.274  -3.049  -1.501  1.00  0.00     0.022 C 
HETATM   16  C31 UNL     1      -3.228  -1.129  -2.730  1.00  0.00     0.022 C 
HETATM   17  C32 UNL     1      -0.383  -1.619   1.334  1.00  0.00    -0.007 C 
HETATM   18  C34 UNL     1       0.105  -0.334   2.125  1.00  0.00     0.013 C 
HETATM   19  C35 UNL     1       1.082   0.622   1.418  1.00  0.00     0.011 C 
HETATM   20  C36 UNL     1       2.213  -0.149   0.729  1.00  0.00    -0.032 C 
HETATM   21  C37 UNL     1       2.993  -0.925   1.832  1.00  0.00     0.016 C 
ENDROOT
BRANCH  13  22
HETATM   22  O2  UNL     1      -5.639  -0.617  -1.036  1.00  0.00    -0.352 OA
BRANCH  22  23
HETATM   23  C23 UNL     1      -6.351   0.599  -0.795  1.00  0.00     0.292 C 
HETATM   24  O3  UNL     1      -6.783   0.653   0.564  1.00  0.00    -0.348 OA
HETATM   25  C24 UNL     1      -7.361   1.919   0.922  1.00  0.00     0.179 C 
HETATM   26  C26 UNL     1      -8.362   2.424  -0.137  1.00  0.00     0.180 C 
HETATM   27  C27 UNL     1      -8.794   1.266  -1.045  1.00  0.00     0.183 C 
HETATM   28  C28 UNL     1      -7.584   0.614  -1.734  1.00  0.00     0.204 C 
BRANCH  25  29
HETATM   29  C25 UNL     1      -8.032   1.735   2.293  1.00  0.00     0.198 C 
BRANCH  29  30
HETATM   30  O4  UNL     1      -8.646   2.923   2.778  1.00  0.00    -0.398 OA
HETATM   31  H40 UNL     1      -8.028   3.665   2.627  1.00  0.00     0.209 HD
ENDBRANCH  29  30
ENDBRANCH  25  29
BRANCH  26  32
HETATM   32  O5  UNL     1      -7.706   3.435  -0.921  1.00  0.00    -0.390 OA
HETATM   33  H42 UNL     1      -8.050   3.361  -1.835  1.00  0.00     0.210 HD
ENDBRANCH  26  32
BRANCH  27  34
HETATM   34  O6  UNL     1      -9.701   1.739  -2.055  1.00  0.00    -0.390 OA
HETATM   35  H44 UNL     1     -10.540   1.970  -1.606  1.00  0.00     0.210 HD
ENDBRANCH  27  34
BRANCH  28  36
HETATM   36  O7  UNL     1      -7.295   1.317  -2.960  1.00  0.00    -0.388 OA
HETATM   37  H46 UNL     1      -8.174   1.432  -3.382  1.00  0.00     0.210 HD
ENDBRANCH  28  36
ENDBRANCH  22  23
ENDBRANCH  13  22
BRANCH  17  38
HETATM   38  C33 UNL     1      -0.570  -2.725   2.436  1.00  0.00     0.174 C 
BRANCH  38  39
HETATM   39  O8  UNL     1      -1.178  -3.907   1.945  1.00  0.00    -0.400 OA
HETATM   40  H55 UNL     1      -1.258  -4.531   2.690  1.00  0.00     0.209 HD
ENDBRANCH  38  39
ENDBRANCH  17  38
BRANCH   1  41
HETATM   41  C8  UNL     1       4.223   1.640   0.607  1.00  0.00    -0.010 C 
HETATM   42  C9  UNL     1       4.526   2.869  -0.273  1.00  0.00     0.010 C 
BRANCH  41  43
HETATM   43  C7  UNL     1       5.535   1.028   1.165  1.00  0.00     0.031 C 
BRANCH  43  44
HETATM   44  C6  UNL     1       6.733   0.945   0.252  1.00  0.00    -0.027 C 
HETATM   45  C5  UNL     1       7.989   1.055   0.719  1.00  0.00     0.006 C 
BRANCH  45  46
HETATM   46  C2  UNL     1       9.293   0.956  -0.054  1.00  0.00     0.070 C 
HETATM   47  C3  UNL     1      10.130  -0.174   0.581  1.00  0.00     0.050 C 
HETATM   48  C4  UNL     1       9.159   0.649  -1.555  1.00  0.00     0.050 C 
BRANCH  46  49
HETATM   49  O1  UNL     1      10.053   2.156   0.174  1.00  0.00    -0.382 OA
HETATM   50  C1  UNL     1       9.587   3.319  -0.504  1.00  0.00     0.202 C 
ENDBRANCH  46  49
ENDBRANCH  45  46
ENDBRANCH  43  44
ENDBRANCH  41  43
ENDBRANCH   1  41
TORSDOF 14
