REMARK  10 active torsions:
REMARK  status: ('A' for Active; 'I' for Inactive)
REMARK    1  A    between atoms: C2_2  and  C3_3 
REMARK    2  A    between atoms: C2_2  and  C4_6 
REMARK    3  A    between atoms: C3_3  and  O2_5 
REMARK    4  A    between atoms: C4_6  and  C5_8 
REMARK    5  A    between atoms: C5_8  and  O4_9 
REMARK    6  A    between atoms: C5_8  and  C6_10 
REMARK    7  A    between atoms: C6_10  and  C7_11 
REMARK    8  A    between atoms: C7_11  and  C9_13 
REMARK    9  A    between atoms: C11_15  and  O5_16 
REMARK   10  A    between atoms: C30_37  and  O8_38 
ROOT
HETATM    1  C9  UNL     1       1.806   0.153   1.073  1.00  0.00     0.001 C 
HETATM    2  C10 UNL     1       1.640   1.657   1.448  1.00  0.00     0.038 C 
HETATM    3  C11 UNL     1       0.152   2.016   1.283  1.00  0.00     0.132 C 
HETATM    4  C12 UNL     1      -0.575   0.650   1.201  1.00  0.00     0.017 C 
HETATM    5  C13 UNL     1      -0.785   0.098   2.650  1.00  0.00     0.023 C 
HETATM    6  C14 UNL     1      -1.940   0.586   0.505  1.00  0.00    -0.029 C 
HETATM    7  C15 UNL     1      -2.358  -0.561  -0.088  1.00  0.00     0.002 C 
HETATM    8  C16 UNL     1      -1.488  -1.786   0.105  1.00  0.00     0.157 C 
HETATM    9  O6  UNL     1      -1.997  -2.908   0.111  1.00  0.00    -0.293 OA
HETATM   10  C17 UNL     1       0.017  -1.633   0.330  1.00  0.00     0.094 C 
HETATM   11  C18 UNL     1       0.466  -0.166   0.333  1.00  0.00    -0.019 C 
HETATM   12  C19 UNL     1       0.571   0.321  -1.148  1.00  0.00     0.017 C 
HETATM   13  C20 UNL     1      -3.661  -0.698  -0.909  1.00  0.00    -0.008 C 
HETATM   14  C21 UNL     1      -3.330  -1.437  -2.234  1.00  0.00     0.021 C 
HETATM   15  C22 UNL     1      -4.688  -1.535  -0.096  1.00  0.00     0.022 C 
HETATM   16  C23 UNL     1      -6.158  -1.217  -0.351  1.00  0.00     0.080 C 
HETATM   17  C24 UNL     1      -6.381  -0.603  -1.708  1.00  0.00     0.135 C 
HETATM   18  O7  UNL     1      -7.180  -1.098  -2.503  1.00  0.00    -0.297 OA
HETATM   19  C25 UNL     1      -5.645   0.707  -1.999  1.00  0.00     0.018 C 
HETATM   20  C26 UNL     1      -5.445   0.857  -3.527  1.00  0.00     0.023 C 
HETATM   21  C27 UNL     1      -6.604   1.842  -1.579  1.00  0.00     0.023 C 
HETATM   22  C28 UNL     1      -4.246   0.730  -1.267  1.00  0.00     0.016 C 
HETATM   23  C29 UNL     1      -4.214   1.612  -0.004  1.00  0.00     0.043 C 
HETATM   24  C30 UNL     1      -2.781   1.835   0.479  1.00  0.00     0.149 C 
ENDROOT
BRANCH   1  25
HETATM   25  C7  UNL     1       3.184  -0.126   0.388  1.00  0.00    -0.011 C 
HETATM   26  C8  UNL     1       3.332  -1.590  -0.021  1.00  0.00     0.010 C 
BRANCH  25  27
HETATM   27  C6  UNL     1       4.342   0.297   1.343  1.00  0.00     0.044 C 
BRANCH  27  28
HETATM   28  C5  UNL     1       5.787   0.200   0.811  1.00  0.00     0.188 C 
BRANCH  28  29
HETATM   29  C4  UNL     1       6.432  -1.196   0.977  1.00  0.00     0.169 C 
HETATM   30  O3  UNL     1       5.990  -2.019   1.791  1.00  0.00    -0.294 OA
BRANCH  29  31
HETATM   31  C2  UNL     1       7.646  -1.558   0.136  1.00  0.00     0.152 C 
HETATM   32  C1  UNL     1       7.228  -1.941  -1.285  1.00  0.00     0.029 C 
BRANCH  31  33
HETATM   33  C3  UNL     1       8.746  -0.534   0.111  1.00  0.00     0.150 C 
HETATM   34  O1  UNL     1       9.641  -0.458  -0.719  1.00  0.00    -0.649 OA
BRANCH  33  35
HETATM   35  O2  UNL     1       8.760   0.304   1.165  1.00  0.00    -0.776 OA
HETATM   36  H5  UNL     1       9.588   0.818   1.037  1.00  0.00     0.167 HD
ENDBRANCH  33  35
ENDBRANCH  31  33
ENDBRANCH  29  31
ENDBRANCH  28  29
BRANCH  28  37
HETATM   37  O4  UNL     1       5.838   0.716  -0.506  1.00  0.00    -0.388 OA
HETATM   38  H7  UNL     1       6.372   1.532  -0.482  1.00  0.00     0.210 HD
ENDBRANCH  28  37
ENDBRANCH  27  28
ENDBRANCH  25  27
ENDBRANCH   1  25
BRANCH   3  39
HETATM   39  O5  UNL     1      -0.258   2.836   2.364  1.00  0.00    -0.394 OA
HETATM   40  H18 UNL     1      -1.236   2.919   2.298  1.00  0.00     0.210 HD
ENDBRANCH   3  39
BRANCH  24  41
HETATM   41  O8  UNL     1      -2.840   2.404   1.782  1.00  0.00    -0.391 OA
HETATM   42  H44 UNL     1      -3.320   1.775   2.351  1.00  0.00     0.210 HD
ENDBRANCH  24  41
TORSDOF 10
