REMARK  14 active torsions:
REMARK  status: ('A' for Active; 'I' for Inactive)
REMARK    1  A    between atoms: C19_21  and  O3_22 
REMARK    2  A    between atoms: C19_21  and  C20_23 
REMARK    3  A    between atoms: C20_23  and  C21_25 
REMARK    4  A    between atoms: C21_25  and  O5_26 
REMARK    5  A    between atoms: O5_26  and  C22_27 
REMARK    6  A    between atoms: C22_27  and  C23_29 
REMARK    7  A    between atoms: C23_29  and  C24_30 
REMARK    8  A    between atoms: C24_30  and  C25_31 
REMARK       I    between atoms: C25_31  and  N1_33 
REMARK    9  A    between atoms: N1_33  and  C26_34 
REMARK   10  A    between atoms: C26_34  and  C27_35 
REMARK   11  A    between atoms: C26_34  and  C30_40 
REMARK   12  A    between atoms: C27_35  and  C28_36 
REMARK   13  A    between atoms: C28_36  and  C29_37 
REMARK       I    between atoms: C29_37  and  N2_38 
REMARK   14  A    between atoms: C30_40  and  O10_42 
ROOT
HETATM    1  C20 UNL     1      -0.172   2.074  -2.686  1.00  0.00     0.185 C 
HETATM    2  O4  UNL     1      -0.561   2.501  -3.778  1.00  0.00    -0.292 OA
ENDROOT
BRANCH   1   3
HETATM    3  C19 UNL     1      -1.072   2.127  -1.417  1.00  0.00     0.128 C 
HETATM    4  C14 UNL     1      -2.092   0.948  -1.302  1.00  0.00     0.005 C 
HETATM    5  C13 UNL     1      -1.570  -0.341  -0.659  1.00  0.00     0.091 C 
HETATM    6  C15 UNL     1      -2.709   0.603  -2.685  1.00  0.00     0.019 C 
HETATM    7  C16 UNL     1      -3.117   1.567  -0.315  1.00  0.00     0.002 C 
HETATM    8  C12 UNL     1      -2.735  -1.273  -0.346  1.00  0.00     0.133 C 
HETATM    9  C11 UNL     1      -3.875  -0.692   0.515  1.00  0.00     0.072 C 
HETATM   10  O2  UNL     1      -2.694  -2.443  -0.721  1.00  0.00    -0.297 OA
HETATM   11  C2  UNL     1      -5.068  -1.671   0.818  1.00  0.00    -0.009 C 
HETATM   12  C10 UNL     1      -4.342   0.674  -0.070  1.00  0.00     0.003 C 
HETATM   13  C1  UNL     1      -5.751  -2.186  -0.469  1.00  0.00     0.021 C 
HETATM   14  C3  UNL     1      -4.532  -2.879   1.646  1.00  0.00     0.022 C 
HETATM   15  C7  UNL     1      -6.134  -0.921   1.641  1.00  0.00    -0.067 C 
HETATM   16  C4  UNL     1      -5.624  -3.696   2.323  1.00  0.00     0.084 C 
HETATM   17  C5  UNL     1      -6.472  -2.811   3.195  1.00  0.00     0.149 C 
HETATM   18  O1  UNL     1      -7.007  -3.215   4.224  1.00  0.00    -0.293 OA
HETATM   19  C6  UNL     1      -6.729  -1.427   2.736  1.00  0.00     0.053 C 
HETATM   20  C8  UNL     1      -6.541   0.449   1.147  1.00  0.00     0.035 C 
HETATM   21  C9  UNL     1      -5.335   1.343   0.891  1.00  0.00     0.010 C 
HETATM   22  C17 UNL     1      -3.355   2.963  -0.875  1.00  0.00     0.009 C 
HETATM   23  C18 UNL     1      -1.993   3.384  -1.458  1.00  0.00     0.047 C 
BRANCH   3  24
HETATM   24  O3  UNL     1      -0.336   2.241  -0.196  1.00  0.00    -0.381 OA
HETATM   25  H25 UNL     1       0.365   1.567  -0.184  1.00  0.00     0.211 HD
ENDBRANCH   3  24
ENDBRANCH   1   3
BRANCH   1  26
HETATM   26  C21 UNL     1       1.157   1.320  -2.594  1.00  0.00     0.260 C 
BRANCH  26  27
HETATM   27  O5  UNL     1       1.945   1.590  -1.437  1.00  0.00    -0.314 OA
BRANCH  27  28
HETATM   28  C22 UNL     1       2.560   2.809  -1.460  1.00  0.00     0.259 C 
HETATM   29  O6  UNL     1       2.363   3.664  -2.311  1.00  0.00    -0.265 OA
BRANCH  28  30
HETATM   30  C23 UNL     1       3.425   3.032  -0.240  1.00  0.00     0.120 C 
BRANCH  30  31
HETATM   31  C24 UNL     1       4.113   1.782   0.296  1.00  0.00     0.112 C 
BRANCH  31  32
HETATM   32  C25 UNL     1       5.109   1.207  -0.691  1.00  0.00     0.218 C 
HETATM   33  O7  UNL     1       5.188   1.572  -1.858  1.00  0.00    -0.274 OA
HETATM   34  N1  UNL     1       5.893   0.209  -0.149  1.00  0.00    -0.347 N 
HETATM   35  H32 UNL     1       6.017   0.251   0.856  1.00  0.00     0.163 HD
BRANCH  34  36
HETATM   36  C26 UNL     1       7.034  -0.311  -0.911  1.00  0.00     0.182 C 
BRANCH  36  37
HETATM   37  C27 UNL     1       7.340  -1.771  -0.563  1.00  0.00     0.045 C 
BRANCH  37  38
HETATM   38  C28 UNL     1       7.697  -2.014   0.907  1.00  0.00     0.105 C 
BRANCH  38  39
HETATM   39  C29 UNL     1       8.035  -3.467   1.169  1.00  0.00     0.215 C 
HETATM   40  N2  UNL     1       8.332  -3.743   2.472  1.00  0.00    -0.370 N 
HETATM   41  H38 UNL     1       8.641  -4.686   2.677  1.00  0.00     0.159 HD
HETATM   42  H39 UNL     1       8.548  -3.019   3.144  1.00  0.00     0.159 HD
HETATM   43  O8  UNL     1       8.045  -4.346   0.318  1.00  0.00    -0.274 OA
ENDBRANCH  38  39
ENDBRANCH  37  38
ENDBRANCH  36  37
BRANCH  36  44
HETATM   44  C30 UNL     1       8.247   0.582  -0.651  1.00  0.00     0.163 C 
HETATM   45  O9  UNL     1       8.422   1.283   0.337  1.00  0.00    -0.648 OA
BRANCH  44  46
HETATM   46  O10 UNL     1       9.189   0.496  -1.610  1.00  0.00    -0.775 OA
HETATM   47  H40 UNL     1       9.887   1.127  -1.337  1.00  0.00     0.167 HD
ENDBRANCH  44  46
ENDBRANCH  36  44
ENDBRANCH  34  36
ENDBRANCH  31  32
ENDBRANCH  30  31
ENDBRANCH  28  30
ENDBRANCH  27  28
ENDBRANCH  26  27
ENDBRANCH   1  26
TORSDOF 14
