REMARK  12 active torsions:
REMARK  status: ('A' for Active; 'I' for Inactive)
REMARK    1  A    between atoms: C2_2  and  C3_3 
REMARK    2  A    between atoms: C6_6  and  C7_7 
REMARK    3  A    between atoms: C7_7  and  C8_8 
REMARK    4  A    between atoms: C15_19  and  C16_20 
REMARK    5  A    between atoms: C16_20  and  C17_21 
REMARK    6  A    between atoms: C18_22  and  C19_23 
REMARK    7  A    between atoms: C21_25  and  C22_26 
REMARK    8  A    between atoms: C23_28  and  C24_29 
REMARK    9  A    between atoms: C27_34  and  C28_35 
REMARK   10  A    between atoms: C28_35  and  C29_36 
REMARK   11  A    between atoms: C29_36  and  C30_37 
REMARK   12  A    between atoms: C30_37  and  O5_39 
ROOT
HETATM    1  C8  UNL     1      -2.672  -1.406   0.268  1.00  0.00     0.016 C 
HETATM    2  N1  UNL     1      -1.925  -1.457   1.334  1.00  0.00    -0.362 N 
ATOM      3  H1  UNL     1      -2.098  -2.021   2.166  1.00  0.00     0.165 HD
HETATM    4  C9  UNL     1      -0.858  -0.610   1.131  1.00  0.00     0.023 C 
HETATM    5  C10 UNL     1       0.276  -0.762   1.833  1.00  0.00    -0.000 A 
HETATM    6  C11 UNL     1       0.433  -1.787   2.987  1.00  0.00     0.127 A 
HETATM    7  C12 UNL     1       1.869  -1.445   3.485  1.00  0.00     0.166 A 
HETATM    8  O1  UNL     1       2.451  -1.980   4.419  1.00  0.00    -0.292 OA
HETATM    9  C13 UNL     1       2.411  -0.393   2.648  1.00  0.00     0.045 A 
HETATM   10  C14 UNL     1       1.478  -0.040   1.718  1.00  0.00     0.055 A 
HETATM   11  N2  UNL     1       1.991   0.900   0.900  1.00  0.00    -0.357 N 
HETATM   12  C15 UNL     1       3.275   1.205   1.350  1.00  0.00     0.022 A 
HETATM   13  C25 UNL     1       3.561   0.391   2.454  1.00  0.00    -0.023 A 
HETATM   14  C26 UNL     1       4.800   0.327   3.270  1.00  0.00     0.051 C 
HETATM   15  C27 UNL     1      -1.171   0.353   0.008  1.00  0.00     0.046 C 
HETATM   16  C32 UNL     1      -2.139  -0.511  -0.829  1.00  0.00     0.041 C 
HETATM   17  C33 UNL     1      -1.403  -1.337  -1.883  1.00  0.00     0.017 C 
HETATM   18  H10 UNL     1       1.555   1.315   0.089  1.00  0.00     0.166 HD
ENDROOT
BRANCH  15  19
HETATM   19  C28 UNL     1      -1.893   1.631   0.490  1.00  0.00     0.021 C 
BRANCH  19  20
HETATM   20  C29 UNL     1      -1.078   2.501   1.448  1.00  0.00     0.112 C 
BRANCH  20  21
HETATM   21  C30 UNL     1      -1.818   3.772   1.800  1.00  0.00     0.258 C 
HETATM   22  O4  UNL     1      -2.688   4.287   1.114  1.00  0.00    -0.265 OA
BRANCH  21  23
HETATM   23  O5  UNL     1      -1.330   4.283   2.965  1.00  0.00    -0.326 OA
HETATM   24  C31 UNL     1      -1.952   5.503   3.372  1.00  0.00     0.213 C 
ENDBRANCH  21  23
ENDBRANCH  20  21
ENDBRANCH  19  20
ENDBRANCH  15  19
BRANCH   1  25
HETATM   25  C7  UNL     1      -3.914  -2.207   0.190  1.00  0.00     0.055 C 
BRANCH  25  26
HETATM   26  C6  UNL     1      -4.837  -2.319  -0.771  1.00  0.00     0.043 A 
HETATM   27  C4  UNL     1      -6.037  -3.148  -0.735  1.00  0.00    -0.019 A 
HETATM   28  C3  UNL     1      -6.741  -3.030  -1.883  1.00  0.00     0.039 A 
HETATM   29  C5  UNL     1      -6.368  -3.987   0.458  1.00  0.00     0.052 C 
HETATM   30  C34 UNL     1      -5.965  -2.065  -2.724  1.00  0.00     0.256 A 
HETATM   31  N4  UNL     1      -4.867  -1.702  -1.979  1.00  0.00    -0.322 N 
HETATM   32  O6  UNL     1      -6.220  -1.663  -3.844  1.00  0.00    -0.267 OA
HETATM   33  H36 UNL     1      -4.199  -1.056  -2.361  1.00  0.00     0.169 HD
BRANCH  28  34
HETATM   34  C2  UNL     1      -7.976  -3.679  -2.248  1.00  0.00     0.007 C 
HETATM   35  C1  UNL     1      -8.632  -3.550  -3.408  1.00  0.00     0.012 C 
ENDBRANCH  28  34
ENDBRANCH  25  26
ENDBRANCH   1  25
BRANCH  12  36
HETATM   36  C16 UNL     1       4.090   2.259   0.665  1.00  0.00     0.115 C 
BRANCH  36  37
HETATM   37  C17 UNL     1       4.505   1.845  -0.715  1.00  0.00     0.022 A 
HETATM   38  C18 UNL     1       5.577   1.087  -1.169  1.00  0.00    -0.020 A 
HETATM   39  C21 UNL     1       5.463   1.012  -2.604  1.00  0.00     0.040 A 
HETATM   40  C23 UNL     1       4.325   1.721  -2.964  1.00  0.00     0.084 A 
HETATM   41  N3  UNL     1       3.783   2.238  -1.813  1.00  0.00    -0.356 N 
HETATM   42  H20 UNL     1       2.956   2.825  -1.806  1.00  0.00     0.166 HD
BRANCH  38  43
HETATM   43  C19 UNL     1       6.646   0.464  -0.320  1.00  0.00     0.037 C 
HETATM   44  C20 UNL     1       6.398  -1.015  -0.062  1.00  0.00     0.010 C 
ENDBRANCH  38  43
BRANCH  39  45
HETATM   45  C22 UNL     1       6.358   0.324  -3.524  1.00  0.00     0.273 C 
HETATM   46  O2  UNL     1       6.199   0.305  -4.740  1.00  0.00    -0.301 OA
ENDBRANCH  39  45
BRANCH  40  47
HETATM   47  C24 UNL     1       3.710   1.963  -4.249  1.00  0.00     0.288 C 
HETATM   48  O3  UNL     1       2.652   2.577  -4.366  1.00  0.00    -0.300 OA
ENDBRANCH  40  47
ENDBRANCH  36  37
ENDBRANCH  12  36
TORSDOF 12
