REMARK  8 active torsions:
REMARK  status: ('A' for Active; 'I' for Inactive)
REMARK    1  A    between atoms: C12_14  and  C13_15 
REMARK    2  A    between atoms: C13_15  and  C15_17 
REMARK    3  A    between atoms: C15_17  and  C16_18 
REMARK    4  A    between atoms: C16_18  and  C17_19 
REMARK    5  A    between atoms: C26_28  and  C27_29 
REMARK    6  A    between atoms: C27_29  and  C28_30 
REMARK    7  A    between atoms: C28_30  and  C29_31 
REMARK    8  A    between atoms: C29_31  and  O4_33 
ROOT
HETATM    1  C1  UNL     1      -6.161  -0.260   2.076  1.00  0.00     0.025 C 
HETATM    2  C2  UNL     1      -5.112  -1.079   2.212  1.00  0.00     0.015 C 
HETATM    3  C3  UNL     1      -4.840  -1.760   3.501  1.00  0.00     0.289 C 
HETATM    4  O1  UNL     1      -5.585  -1.826   4.461  1.00  0.00    -0.260 OA
HETATM    5  O2  UNL     1      -3.605  -2.322   3.418  1.00  0.00    -0.311 OA
HETATM    6  C4  UNL     1      -2.941  -1.884   2.218  1.00  0.00     0.142 C 
HETATM    7  C5  UNL     1      -1.975  -0.764   2.587  1.00  0.00     0.039 C 
HETATM    8  C6  UNL     1      -1.282  -0.065   1.407  1.00  0.00     0.006 C 
HETATM    9  C7  UNL     1      -2.226   0.224   0.213  1.00  0.00    -0.027 A 
HETATM   10  C8  UNL     1      -1.518   0.873  -0.995  1.00  0.00     0.011 C 
HETATM   11  C9  UNL     1      -0.162   0.261  -1.373  1.00  0.00     0.011 C 
HETATM   12  C10 UNL     1       0.764   0.170  -0.151  1.00  0.00    -0.032 C 
HETATM   13  C11 UNL     1       1.069   1.612   0.367  1.00  0.00     0.016 C 
HETATM   14  C12 UNL     1       2.125  -0.577  -0.335  1.00  0.00    -0.002 C 
HETATM   15  C21 UNL     1       2.435  -1.058   1.117  1.00  0.00     0.006 C 
HETATM   16  C22 UNL     1       1.141  -0.933   1.945  1.00  0.00     0.011 C 
HETATM   17  C23 UNL     1       0.028  -0.756   0.902  1.00  0.00    -0.032 C 
HETATM   18  C24 UNL     1      -0.302  -2.182   0.356  1.00  0.00     0.016 C 
HETATM   19  C25 UNL     1      -3.536   0.929   0.476  1.00  0.00     0.022 A 
HETATM   20  C26 UNL     1      -3.592  -0.543   0.124  1.00  0.00    -0.021 A 
HETATM   21  C31 UNL     1      -4.042  -1.488   1.249  1.00  0.00     0.063 C 
ENDROOT
BRANCH  14  22
HETATM   22  C13 UNL     1       3.347   0.150  -0.983  1.00  0.00    -0.014 C 
HETATM   23  C14 UNL     1       3.039   0.648  -2.398  1.00  0.00     0.010 C 
BRANCH  22  24
HETATM   24  C15 UNL     1       4.578  -0.802  -1.007  1.00  0.00     0.008 C 
BRANCH  24  25
HETATM   25  C16 UNL     1       5.887  -0.224  -1.564  1.00  0.00     0.028 C 
BRANCH  25  26
HETATM   26  C17 UNL     1       6.310   1.062  -0.909  1.00  0.00    -0.025 C 
HETATM   27  C18 UNL     1       7.097   1.210   0.175  1.00  0.00    -0.091 C 
HETATM   28  C19 UNL     1       7.678   0.075   0.973  1.00  0.00     0.042 C 
HETATM   29  C20 UNL     1       7.442   2.582   0.694  1.00  0.00     0.042 C 
ENDBRANCH  25  26
ENDBRANCH  24  25
ENDBRANCH  22  24
ENDBRANCH  14  22
BRANCH  20  30
HETATM   30  C27 UNL     1      -4.032  -1.027  -1.263  1.00  0.00     0.021 C 
BRANCH  30  31
HETATM   31  C28 UNL     1      -5.513  -0.837  -1.572  1.00  0.00     0.112 C 
BRANCH  31  32
HETATM   32  C29 UNL     1      -5.853   0.593  -1.904  1.00  0.00     0.258 C 
HETATM   33  O3  UNL     1      -6.582   1.304  -1.227  1.00  0.00    -0.265 OA
BRANCH  32  34
HETATM   34  O4  UNL     1      -5.244   0.975  -3.062  1.00  0.00    -0.326 OA
HETATM   35  C30 UNL     1      -5.516   2.324  -3.442  1.00  0.00     0.213 C 
ENDBRANCH  32  34
ENDBRANCH  31  32
ENDBRANCH  30  31
ENDBRANCH  20  30
TORSDOF 8
