REMARK  12 active torsions:
REMARK  status: ('A' for Active; 'I' for Inactive)
REMARK    1  A    between atoms: O1_2  and  C2_3 
REMARK    2  A    between atoms: C2_3  and  C3_4 
REMARK    3  A    between atoms: C3_4  and  C4_5 
REMARK    4  A    between atoms: C4_5  and  O2_6 
REMARK    5  A    between atoms: O2_6  and  C5_7 
REMARK    6  A    between atoms: C20_23  and  C21_24 
REMARK    7  A    between atoms: C21_24  and  O4_26 
REMARK    8  A    between atoms: C21_24  and  C23_27 
REMARK    9  A    between atoms: C23_27  and  O5_28 
REMARK   10  A    between atoms: C23_27  and  C24_29 
REMARK   11  A    between atoms: C30_36  and  O7_37 
REMARK   12  A    between atoms: C35_42  and  O8_43 
ROOT
HETATM    1  C5  UNL     1       5.738   0.166   0.358  1.00  0.00     0.122 C 
HETATM    2  C6  UNL     1       5.516   0.651   1.790  1.00  0.00     0.033 C 
HETATM    3  C7  UNL     1       4.036   0.711   2.176  1.00  0.00     0.013 C 
HETATM    4  C8  UNL     1       3.150   1.507   1.164  1.00  0.00    -0.026 C 
HETATM    5  C9  UNL     1       3.576   2.996   1.221  1.00  0.00     0.016 C 
HETATM    6  C10 UNL     1       3.384   0.937  -0.259  1.00  0.00     0.071 C 
HETATM    7  C11 UNL     1       4.873   0.935  -0.645  1.00  0.00     0.045 C 
HETATM    8  C12 UNL     1       2.819  -0.477  -0.402  1.00  0.00     0.154 C 
HETATM    9  O3  UNL     1       3.310  -1.325  -1.144  1.00  0.00    -0.293 OA
HETATM   10  C13 UNL     1       1.573  -0.822   0.314  1.00  0.00     0.057 C 
HETATM   11  C14 UNL     1       1.003   0.034   1.174  1.00  0.00    -0.037 C 
HETATM   12  C15 UNL     1       1.636   1.368   1.584  1.00  0.00     0.026 C 
HETATM   13  C16 UNL     1       0.698   2.520   1.132  1.00  0.00     0.011 C 
HETATM   14  C17 UNL     1      -0.767   2.337   1.597  1.00  0.00     0.014 C 
HETATM   15  C18 UNL     1      -1.339   0.963   1.201  1.00  0.00    -0.002 C 
HETATM   16  C19 UNL     1      -1.443   0.897  -0.348  1.00  0.00     0.019 C 
HETATM   17  C20 UNL     1      -2.660   0.546   1.926  1.00  0.00     0.034 C 
HETATM   18  C33 UNL     1      -2.661  -1.006   1.826  1.00  0.00     0.012 C 
HETATM   19  C34 UNL     1      -1.210  -1.431   1.503  1.00  0.00     0.044 C 
HETATM   20  C35 UNL     1      -0.382  -0.161   1.742  1.00  0.00     0.089 C 
ENDROOT
BRANCH  17  21
HETATM   21  C21 UNL     1      -4.042   1.287   1.793  1.00  0.00     0.087 C 
HETATM   22  C22 UNL     1      -3.996   2.548   2.704  1.00  0.00     0.049 C 
BRANCH  21  23
HETATM   23  O4  UNL     1      -5.027   0.433   2.401  1.00  0.00    -0.387 OA
HETATM   24  H34 UNL     1      -4.757   0.274   3.322  1.00  0.00     0.210 HD
ENDBRANCH  21  23
BRANCH  21  25
HETATM   25  C23 UNL     1      -4.559   1.745   0.381  1.00  0.00     0.181 C 
BRANCH  25  26
HETATM   26  O5  UNL     1      -5.557   2.787   0.513  1.00  0.00    -0.390 OA
HETATM   27  H36 UNL     1      -5.724   3.153  -0.372  1.00  0.00     0.210 HD
ENDBRANCH  25  26
BRANCH  25  28
HETATM   28  C24 UNL     1      -5.096   0.727  -0.655  1.00  0.00     0.158 C 
HETATM   29  O6  UNL     1      -4.341  -0.482  -0.783  1.00  0.00    -0.374 OA
HETATM   30  C25 UNL     1      -5.265  -1.579  -0.941  1.00  0.00     0.159 C 
HETATM   31  C26 UNL     1      -6.549  -0.962  -1.495  1.00  0.00     0.027 C 
HETATM   32  C30 UNL     1      -4.674  -2.730  -1.777  1.00  0.00     0.170 C 
HETATM   33  C27 UNL     1      -6.505  -0.706  -3.017  1.00  0.00     0.034 C 
HETATM   34  C31 UNL     1      -6.599   0.359  -0.713  1.00  0.00     0.020 C 
HETATM   35  C28 UNL     1      -5.755  -1.735  -3.803  1.00  0.00    -0.028 C 
HETATM   36  C29 UNL     1      -4.934  -2.635  -3.248  1.00  0.00     0.003 C 
HETATM   37  C32 UNL     1      -7.323   0.168   0.618  1.00  0.00     0.013 C 
BRANCH  32  38
HETATM   38  O7  UNL     1      -5.238  -3.974  -1.353  1.00  0.00    -0.389 OA
HETATM   39  H45 UNL     1      -6.143  -4.013  -1.708  1.00  0.00     0.210 HD
ENDBRANCH  32  38
ENDBRANCH  25  28
ENDBRANCH  21  25
ENDBRANCH  17  21
BRANCH  20  40
HETATM   40  O8  UNL     1      -0.224  -0.055   3.168  1.00  0.00    -0.384 OA
HETATM   41  H54 UNL     1       0.308  -0.819   3.452  1.00  0.00     0.211 HD
ENDBRANCH  20  40
BRANCH   1  42
HETATM   42  O2  UNL     1       7.108   0.398   0.012  1.00  0.00    -0.386 OA
BRANCH  42  43
HETATM   43  C4  UNL     1       7.918  -0.779   0.024  1.00  0.00     0.170 C 
BRANCH  43  44
HETATM   44  C3  UNL     1       7.740  -1.564  -1.272  1.00  0.00     0.052 C 
BRANCH  44  45
HETATM   45  C2  UNL     1       8.708  -2.739  -1.347  1.00  0.00     0.169 C 
BRANCH  45  46
HETATM   46  O1  UNL     1       8.439  -3.581  -2.469  1.00  0.00    -0.396 OA
HETATM   47  C1  UNL     1       8.886  -3.037  -3.704  1.00  0.00     0.201 C 
ENDBRANCH  45  46
ENDBRANCH  44  45
ENDBRANCH  43  44
ENDBRANCH  42  43
ENDBRANCH   1  42
TORSDOF 12
