REMARK  13 active torsions:
REMARK  status: ('A' for Active; 'I' for Inactive)
REMARK    1  A    between atoms: C3_3  and  O1_4 
REMARK    2  A    between atoms: N1_14  and  O2_16 
REMARK    3  A    between atoms: O2_16  and  C13_17 
REMARK    4  A    between atoms: C13_17  and  C14_18 
REMARK       I    between atoms: C14_18  and  N2_20 
REMARK    5  A    between atoms: N2_20  and  C15_21 
REMARK    6  A    between atoms: C15_21  and  C16_22 
REMARK    7  A    between atoms: C15_21  and  C21_33 
REMARK       I    between atoms: C16_22  and  N3_24 
REMARK    8  A    between atoms: N3_24  and  C17_25 
REMARK    9  A    between atoms: C17_25  and  C18_26 
REMARK   10  A    between atoms: C17_25  and  C20_30 
REMARK   11  A    between atoms: C18_26  and  C19_27 
REMARK   12  A    between atoms: C19_27  and  O6_29 
REMARK   13  A    between atoms: C20_30  and  O8_32 
ROOT
HETATM    1  C1  UNL     1     -10.717  -0.548   1.304  1.00  0.00     0.015 C 
HETATM    2  C2  UNL     1      -9.548  -0.796   1.165  1.00  0.00    -0.078 C 
HETATM    3  C3  UNL     1      -8.121  -1.125   1.003  1.00  0.00     0.128 C 
HETATM    4  C4  UNL     1      -7.920  -2.558   0.509  1.00  0.00     0.052 C 
HETATM    5  C5  UNL     1      -6.452  -2.574   0.096  1.00  0.00     0.010 C 
HETATM    6  C6  UNL     1      -6.194  -1.195  -0.543  1.00  0.00     0.002 C 
HETATM    7  C7  UNL     1      -4.779  -0.652  -0.243  1.00  0.00    -0.004 C 
HETATM    8  C8  UNL     1      -3.692  -1.580  -0.841  1.00  0.00     0.010 C 
HETATM    9  C9  UNL     1      -2.492  -0.845  -1.448  1.00  0.00     0.035 C 
HETATM   10  C10 UNL     1      -2.105   0.323  -0.585  1.00  0.00    -0.069 C 
HETATM   11  C11 UNL     1      -0.899   0.373   0.011  1.00  0.00     0.030 C 
HETATM   12  C12 UNL     1      -0.559   1.483   0.946  1.00  0.00     0.032 C 
HETATM   13  N1  UNL     1       0.637   1.817   1.326  1.00  0.00    -0.271 N 
ATOM     14  H1  UNL     1       0.837   2.575   1.978  1.00  0.00     0.194 HD
HETATM   15  C24 UNL     1      -1.700   2.326   1.493  1.00  0.00     0.060 C 
HETATM   16  C25 UNL     1      -3.086   1.805   1.119  1.00  0.00     0.020 C 
HETATM   17  C26 UNL     1      -3.186   1.383  -0.369  1.00  0.00    -0.016 C 
HETATM   18  C27 UNL     1      -2.899   2.584  -1.304  1.00  0.00     0.020 C 
HETATM   19  C28 UNL     1      -4.606   0.803  -0.744  1.00  0.00     0.002 C 
HETATM   20  C29 UNL     1      -5.789   1.729  -0.376  1.00  0.00     0.007 C 
HETATM   21  C30 UNL     1      -6.832   1.063   0.518  1.00  0.00     0.014 C 
HETATM   22  C31 UNL     1      -7.362  -0.266  -0.065  1.00  0.00     0.003 C 
HETATM   23  C32 UNL     1      -8.256   0.043  -1.300  1.00  0.00     0.020 C 
ENDROOT
BRANCH   3  24
HETATM   24  O1  UNL     1      -7.473  -1.028   2.276  1.00  0.00    -0.377 OA
HETATM   25  H2  UNL     1      -8.143  -1.187   2.965  1.00  0.00     0.211 HD
ENDBRANCH   3  24
BRANCH  13  26
HETATM   26  O2  UNL     1       1.622   1.011   0.733  1.00  0.00    -0.271 OA
BRANCH  26  27
HETATM   27  C13 UNL     1       2.826   1.765   0.636  1.00  0.00     0.303 C 
BRANCH  27  28
HETATM   28  C14 UNL     1       3.882   0.896  -0.032  1.00  0.00     0.244 C 
HETATM   29  O3  UNL     1       4.053   0.903  -1.250  1.00  0.00    -0.271 OA
HETATM   30  N2  UNL     1       4.589   0.081   0.841  1.00  0.00    -0.346 N 
HETATM   31  H16 UNL     1       4.515   0.317   1.821  1.00  0.00     0.163 HD
BRANCH  30  32
HETATM   32  C15 UNL     1       5.799  -0.654   0.438  1.00  0.00     0.180 C 
BRANCH  32  33
HETATM   33  C16 UNL     1       6.968   0.381   0.397  1.00  0.00     0.241 C 
HETATM   34  O4  UNL     1       6.784   1.600   0.410  1.00  0.00    -0.271 OA
HETATM   35  N3  UNL     1       8.248  -0.146   0.430  1.00  0.00    -0.344 N 
HETATM   36  H18 UNL     1       8.370  -1.104   0.142  1.00  0.00     0.163 HD
BRANCH  35  37
HETATM   37  C17 UNL     1       9.405   0.746   0.259  1.00  0.00     0.192 C 
BRANCH  37  38
HETATM   38  C18 UNL     1      10.683   0.099   0.787  1.00  0.00     0.146 C 
BRANCH  38  39
HETATM   39  C19 UNL     1      10.964   0.532   2.197  1.00  0.00     0.141 C 
HETATM   40  O5  UNL     1      10.156   0.879   3.039  1.00  0.00    -0.650 OA
BRANCH  39  41
HETATM   41  O6  UNL     1      12.273   0.446   2.498  1.00  0.00    -0.776 OA
HETATM   42  H22 UNL     1      12.333   0.742   3.431  1.00  0.00     0.167 HD
ENDBRANCH  39  41
ENDBRANCH  38  39
ENDBRANCH  37  38
BRANCH  37  43
HETATM   43  C20 UNL     1       9.628   1.107  -1.216  1.00  0.00     0.164 C 
HETATM   44  O7  UNL     1      10.434   1.924  -1.637  1.00  0.00    -0.648 OA
BRANCH  43  45
HETATM   45  O8  UNL     1       8.896   0.376  -2.080  1.00  0.00    -0.775 OA
HETATM   46  H23 UNL     1       9.101   0.764  -2.958  1.00  0.00     0.167 HD
ENDBRANCH  43  45
ENDBRANCH  37  43
ENDBRANCH  35  37
ENDBRANCH  32  33
BRANCH  32  47
HETATM   47  C21 UNL     1       5.607  -1.553  -0.816  1.00  0.00     0.009 C 
HETATM   48  C22 UNL     1       4.336  -2.410  -0.690  1.00  0.00     0.012 C 
HETATM   49  C23 UNL     1       6.779  -2.503  -1.086  1.00  0.00     0.012 C 
ENDBRANCH  32  47
ENDBRANCH  30  32
ENDBRANCH  27  28
ENDBRANCH  26  27
ENDBRANCH  13  26
TORSDOF 13
