REMARK  15 active torsions:
REMARK  status: ('A' for Active; 'I' for Inactive)
REMARK    1  A    between atoms: O1_2  and  C2_3 
REMARK    2  A    between atoms: C3_4  and  O2_5 
REMARK    3  A    between atoms: C5_7  and  O3_8 
REMARK    4  A    between atoms: O3_8  and  C6_9 
REMARK    5  A    between atoms: C12_15  and  O4_16 
REMARK    6  A    between atoms: C13_17  and  O5_18 
REMARK    7  A    between atoms: C15_20  and  O6_21 
REMARK    8  A    between atoms: C21_27  and  C22_28 
REMARK    9  A    between atoms: C22_28  and  C24_30 
REMARK   10  A    between atoms: C25_31  and  C26_32 
REMARK   11  A    between atoms: C26_32  and  C28_34 
REMARK   12  A    between atoms: C28_34  and  C30_36 
REMARK   13  A    between atoms: C30_36  and  O7_37 
REMARK   14  A    between atoms: C32_39  and  O8_40 
REMARK   15  A    between atoms: C35_44  and  O10_45 
ROOT
HETATM    1  C6  UNL     1      -4.066  -1.272  -0.306  1.00  0.00     0.154 C 
HETATM    2  C7  UNL     1      -3.442  -1.683  -1.641  1.00  0.00     0.035 C 
HETATM    3  C8  UNL     1      -1.911  -1.564  -1.635  1.00  0.00     0.012 C 
HETATM    4  C9  UNL     1      -1.398  -0.141  -1.234  1.00  0.00    -0.029 C 
HETATM    5  C10 UNL     1      -1.811   0.795  -2.396  1.00  0.00     0.016 C 
HETATM    6  C11 UNL     1      -2.035   0.178   0.163  1.00  0.00     0.054 C 
HETATM    7  C12 UNL     1      -3.576   0.116   0.175  1.00  0.00     0.154 C 
HETATM    8  C13 UNL     1      -1.506   1.458   0.835  1.00  0.00     0.128 C 
HETATM    9  C14 UNL     1       0.014   1.412   1.001  1.00  0.00     0.071 C 
HETATM   10  C15 UNL     1       0.755   1.119  -0.319  1.00  0.00     0.071 C 
HETATM   11  C16 UNL     1       0.169  -0.162  -1.016  1.00  0.00     0.029 C 
HETATM   12  C17 UNL     1       0.988  -0.549  -2.271  1.00  0.00     0.009 C 
HETATM   13  C18 UNL     1       2.494  -0.703  -1.980  1.00  0.00     0.010 C 
HETATM   14  C19 UNL     1       3.102   0.554  -1.336  1.00  0.00    -0.031 C 
HETATM   15  C20 UNL     1       3.167   1.688  -2.386  1.00  0.00     0.016 C 
HETATM   16  C21 UNL     1       4.495   0.370  -0.651  1.00  0.00     0.004 C 
HETATM   17  C31 UNL     1       4.534   1.546   0.365  1.00  0.00     0.038 C 
HETATM   18  C32 UNL     1       3.074   1.940   0.645  1.00  0.00     0.126 C 
HETATM   19  C33 UNL     1       2.257   0.866  -0.067  1.00  0.00     0.058 C 
ENDROOT
BRANCH   1  20
HETATM   20  O3  UNL     1      -5.488  -1.325  -0.460  1.00  0.00    -0.351 OA
BRANCH  20  21
HETATM   21  C5  UNL     1      -6.208  -1.406   0.769  1.00  0.00     0.291 C 
HETATM   22  C3  UNL     1      -6.932  -0.084   1.130  1.00  0.00     0.207 C 
HETATM   23  C2  UNL     1      -8.216   0.126   0.290  1.00  0.00     0.185 C 
HETATM   24  C35 UNL     1      -9.058  -1.156   0.178  1.00  0.00     0.176 C 
HETATM   25  C34 UNL     1      -8.162  -2.334  -0.220  1.00  0.00     0.205 C 
HETATM   26  O9  UNL     1      -7.099  -2.528   0.716  1.00  0.00    -0.356 OA
BRANCH  22  27
HETATM   27  O2  UNL     1      -7.197  -0.106   2.550  1.00  0.00    -0.383 OA
HETATM   28  C4  UNL     1      -7.452   1.179   3.100  1.00  0.00     0.202 C 
ENDBRANCH  22  27
BRANCH  23  29
HETATM   29  O1  UNL     1      -7.908   0.566  -1.050  1.00  0.00    -0.385 OA
HETATM   30  C1  UNL     1      -7.650   1.964  -1.127  1.00  0.00     0.202 C 
ENDBRANCH  23  29
BRANCH  24  31
HETATM   31  O10 UNL     1      -9.716  -1.379   1.435  1.00  0.00    -0.386 OA
HETATM   32  C36 UNL     1     -10.840  -2.248   1.351  1.00  0.00     0.202 C 
ENDBRANCH  24  31
ENDBRANCH  20  21
ENDBRANCH   1  20
BRANCH   7  33
HETATM   33  O4  UNL     1      -4.154   1.173  -0.593  1.00  0.00    -0.393 OA
HETATM   34  H20 UNL     1      -3.567   1.954  -0.499  1.00  0.00     0.210 HD
ENDBRANCH   7  33
BRANCH   8  35
HETATM   35  O5  UNL     1      -1.890   2.616   0.093  1.00  0.00    -0.395 OA
HETATM   36  H22 UNL     1      -1.607   3.393   0.621  1.00  0.00     0.210 HD
ENDBRANCH   8  35
BRANCH  10  37
HETATM   37  O6  UNL     1       0.629   2.279  -1.136  1.00  0.00    -0.389 OA
HETATM   38  H25 UNL     1      -0.298   2.577  -1.087  1.00  0.00     0.210 HD
ENDBRANCH  10  37
BRANCH  18  39
HETATM   39  O8  UNL     1       2.822   1.923   2.046  1.00  0.00    -0.395 OA
HETATM   40  H55 UNL     1       3.420   2.579   2.443  1.00  0.00     0.210 HD
ENDBRANCH  18  39
BRANCH  16  41
HETATM   41  C22 UNL     1       5.777   0.307  -1.523  1.00  0.00     0.009 C 
HETATM   42  C23 UNL     1       5.751  -0.824  -2.558  1.00  0.00     0.014 C 
BRANCH  41  43
HETATM   43  C24 UNL     1       7.017   0.247  -0.639  1.00  0.00    -0.026 C 
HETATM   44  C25 UNL     1       7.679  -0.854  -0.242  1.00  0.00    -0.026 C 
BRANCH  44  45
HETATM   45  C26 UNL     1       8.908  -0.905   0.656  1.00  0.00     0.009 C 
HETATM   46  C27 UNL     1       9.657   0.429   0.757  1.00  0.00     0.014 C 
BRANCH  45  47
HETATM   47  C28 UNL     1       8.541  -1.545   2.030  1.00  0.00     0.012 C 
HETATM   48  C29 UNL     1       7.488  -0.751   2.814  1.00  0.00     0.012 C 
BRANCH  47  49
HETATM   49  C30 UNL     1       9.773  -1.837   2.907  1.00  0.00     0.168 C 
BRANCH  49  50
HETATM   50  O7  UNL     1      10.323  -0.667   3.493  1.00  0.00    -0.400 OA
HETATM   51  H51 UNL     1       9.694  -0.339   4.164  1.00  0.00     0.209 HD
ENDBRANCH  49  50
ENDBRANCH  47  49
ENDBRANCH  45  47
ENDBRANCH  44  45
ENDBRANCH  41  43
ENDBRANCH  16  41
TORSDOF 15
