REMARK  11 active torsions:
REMARK  status: ('A' for Active; 'I' for Inactive)
REMARK    1  A    between atoms: C3_4  and  O2_5 
REMARK    2  A    between atoms: O2_5  and  C4_6 
REMARK    3  A    between atoms: C7_9  and  C8_10 
REMARK    4  A    between atoms: N1_11  and  C9_13 
REMARK    5  A    between atoms: C9_13  and  C10_14 
REMARK    6  A    between atoms: C10_14  and  O3_15 
REMARK    7  A    between atoms: C16_21  and  C17_22 
REMARK    8  A    between atoms: C23_30  and  O6_31 
REMARK    9  A    between atoms: C27_35  and  O7_36 
REMARK   10  A    between atoms: C30_39  and  O8_40 
REMARK   11  A    between atoms: C31_41  and  O9_42 
ROOT
HETATM    1  C4  UNL     1       2.628  -0.303   0.465  1.00  0.00     0.127 C 
HETATM    2  C5  UNL     1       2.220   1.103   0.025  1.00  0.00     0.033 C 
HETATM    3  C6  UNL     1       0.709   1.328  -0.098  1.00  0.00     0.021 C 
HETATM    4  C7  UNL     1      -0.142   0.079  -0.439  1.00  0.00     0.026 C 
HETATM    5  C11 UNL     1      -1.671   0.444  -0.294  1.00  0.00     0.009 C 
HETATM    6  C12 UNL     1      -2.208   1.516  -1.244  1.00  0.00     0.007 C 
HETATM    7  C13 UNL     1      -3.581   1.978  -0.757  1.00  0.00     0.013 C 
HETATM    8  C14 UNL     1      -4.602   0.831  -0.534  1.00  0.00    -0.005 C 
HETATM    9  C15 UNL     1      -5.821   1.133  -1.448  1.00  0.00     0.019 C 
HETATM   10  C16 UNL     1      -5.042   0.680   0.960  1.00  0.00     0.028 C 
HETATM   11  C21 UNL     1      -5.651  -0.737   1.029  1.00  0.00     0.013 C 
HETATM   12  C22 UNL     1      -5.044  -1.532  -0.135  1.00  0.00     0.040 C 
HETATM   13  C23 UNL     1      -4.017  -0.598  -0.801  1.00  0.00     0.070 C 
HETATM   14  C24 UNL     1      -2.539  -0.837  -0.329  1.00  0.00     0.026 C 
HETATM   15  C25 UNL     1      -2.298  -1.623   0.974  1.00  0.00     0.011 C 
HETATM   16  C26 UNL     1      -0.900  -1.400   1.570  1.00  0.00     0.039 C 
HETATM   17  C27 UNL     1       0.210  -1.132   0.526  1.00  0.00     0.073 C 
HETATM   18  C28 UNL     1       1.526  -0.925   1.312  1.00  0.00     0.071 C 
ENDROOT
BRANCH   1  19
HETATM   19  O2  UNL     1       3.804  -0.236   1.280  1.00  0.00    -0.356 OA
BRANCH  19  20
HETATM   20  C3  UNL     1       5.019  -0.095   0.540  1.00  0.00     0.263 C 
HETATM   21  O1  UNL     1       5.917  -1.109   1.008  1.00  0.00    -0.354 OA
HETATM   22  C2  UNL     1       7.169  -1.079   0.322  1.00  0.00     0.151 C 
HETATM   23  C1  UNL     1       7.984  -2.277   0.796  1.00  0.00     0.042 C 
HETATM   24  C31 UNL     1       7.892   0.247   0.612  1.00  0.00     0.175 C 
HETATM   25  C30 UNL     1       6.994   1.428   0.217  1.00  0.00     0.154 C 
HETATM   26  C29 UNL     1       5.604   1.288   0.811  1.00  0.00     0.095 C 
BRANCH  24  27
HETATM   27  O9  UNL     1       9.110   0.355  -0.132  1.00  0.00    -0.390 OA
HETATM   28  H47 UNL     1       9.762  -0.228   0.296  1.00  0.00     0.210 HD
ENDBRANCH  24  27
BRANCH  25  29
HETATM   29  O8  UNL     1       6.896   1.495  -1.214  1.00  0.00    -0.393 OA
HETATM   30  H45 UNL     1       7.810   1.327  -1.523  1.00  0.00     0.210 HD
ENDBRANCH  25  29
ENDBRANCH  19  20
ENDBRANCH   1  19
BRANCH  17  31
HETATM   31  O7  UNL     1       0.317  -2.351  -0.241  1.00  0.00    -0.389 OA
HETATM   32  H39 UNL     1       0.798  -3.007   0.296  1.00  0.00     0.210 HD
ENDBRANCH  17  31
BRANCH   4  33
HETATM   33  C8  UNL     1       0.114  -0.314  -1.902  1.00  0.00     0.068 C 
HETATM   34  N1  UNL     1       1.309  -0.448  -2.376  1.00  0.00    -0.399 N 
ATOM     35  H1  UNL     1       2.145  -0.202  -1.846  1.00  0.00     0.158 HD
BRANCH  34  36
HETATM   36  C9  UNL     1       1.362  -0.986  -3.746  1.00  0.00     0.144 C 
BRANCH  36  37
HETATM   37  C10 UNL     1       1.740  -2.468  -3.680  1.00  0.00     0.183 C 
BRANCH  37  38
HETATM   38  O3  UNL     1       0.735  -3.218  -2.997  1.00  0.00    -0.399 OA
HETATM   39  H16 UNL     1       0.633  -2.790  -2.122  1.00  0.00     0.209 HD
ENDBRANCH  37  38
ENDBRANCH  36  37
ENDBRANCH  34  36
ENDBRANCH   4  33
BRANCH  13  40
HETATM   40  O6  UNL     1      -3.987  -0.846  -2.214  1.00  0.00    -0.389 OA
HETATM   41  H33 UNL     1      -4.890  -1.025  -2.530  1.00  0.00     0.210 HD
ENDBRANCH  13  40
BRANCH  10  42
HETATM   42  C17 UNL     1      -5.900   1.761   1.560  1.00  0.00    -0.045 A 
HETATM   43  C18 UNL     1      -5.453   2.823   2.230  1.00  0.00     0.087 A 
HETATM   44  C19 UNL     1      -6.616   3.601   2.651  1.00  0.00     0.283 A 
HETATM   45  O4  UNL     1      -6.569   4.630   3.301  1.00  0.00    -0.260 OA
HETATM   46  O5  UNL     1      -7.743   2.985   2.206  1.00  0.00    -0.314 OA
HETATM   47  C20 UNL     1      -7.383   1.773   1.542  1.00  0.00     0.213 A 
ENDBRANCH  10  42
TORSDOF 11
