REMARK  9 active torsions:
REMARK  status: ('A' for Active; 'I' for Inactive)
REMARK    1  A    between atoms: C6_6  and  C8_8 
REMARK    2  A    between atoms: C8_8  and  O2_10 
REMARK    3  A    between atoms: O2_10  and  C9_11 
REMARK    4  A    between atoms: C9_11  and  C10_12 
REMARK    5  A    between atoms: C10_12  and  O3_13 
REMARK    6  A    between atoms: C27_33  and  O7_34 
REMARK    7  A    between atoms: C38_45  and  O8_46 
REMARK    8  A    between atoms: C38_45  and  C39_47 
REMARK    9  A    between atoms: C39_47  and  O9_48 
ROOT
HETATM    1  O2  UNL     1       0.244   0.025  -0.962  1.00  0.00    -0.317 OA
ENDROOT
BRANCH   1   2
HETATM    2  C8  UNL     1       0.927  -0.955  -1.623  1.00  0.00     0.267 C 
HETATM    3  O1  UNL     1       0.460  -2.073  -1.810  1.00  0.00    -0.264 OA
BRANCH   2   4
HETATM    4  C6  UNL     1       2.302  -0.470  -2.126  1.00  0.00     0.049 C 
HETATM    5  C5  UNL     1       2.848  -1.508  -3.140  1.00  0.00     0.020 C 
HETATM    6  C4  UNL     1       3.379  -2.777  -2.487  1.00  0.00     0.002 C 
HETATM    7  C3  UNL     1       4.487  -2.454  -1.498  1.00  0.00     0.010 C 
HETATM    8  C2  UNL     1       4.068  -1.462  -0.377  1.00  0.00    -0.035 C 
HETATM    9  C1  UNL     1       3.143  -2.200   0.617  1.00  0.00     0.016 C 
HETATM   10  C29 UNL     1       3.377  -0.202  -1.003  1.00  0.00     0.012 C 
HETATM   11  C37 UNL     1       5.381  -0.963   0.339  1.00  0.00     0.010 C 
HETATM   12  C30 UNL     1       2.884   0.742   0.103  1.00  0.00     0.008 C 
HETATM   13  C31 UNL     1       3.873   1.044   1.229  1.00  0.00     0.018 C 
HETATM   14  C32 UNL     1       5.207   0.294   1.248  1.00  0.00     0.028 C 
HETATM   15  C33 UNL     1       5.635   0.010   2.709  1.00  0.00     0.026 C 
HETATM   16  C40 UNL     1       6.354   1.241   0.855  1.00  0.00     0.172 C 
HETATM   17  C34 UNL     1       7.146  -0.205   2.563  1.00  0.00     0.031 C 
HETATM   18  C35 UNL     1       7.387  -1.553   1.848  1.00  0.00     0.009 C 
HETATM   19  C38 UNL     1       7.561   1.060   1.767  1.00  0.00     0.143 C 
HETATM   20  C36 UNL     1       6.178  -2.078   1.059  1.00  0.00     0.007 C 
HETATM   21  O10 UNL     1       6.316   2.034  -0.082  1.00  0.00    -0.294 OA
HETATM   22  C7  UNL     1       2.041   0.826  -2.942  1.00  0.00     0.026 C 
BRANCH  19  23
HETATM   23  O8  UNL     1       7.584   2.178   2.669  1.00  0.00    -0.379 OA
HETATM   24  H53 UNL     1       7.775   2.972   2.135  1.00  0.00     0.211 HD
ENDBRANCH  19  23
BRANCH  19  25
HETATM   25  C39 UNL     1       8.866   1.001   0.969  1.00  0.00     0.210 C 
BRANCH  25  26
HETATM   26  O9  UNL     1       9.931   0.499   1.773  1.00  0.00    -0.397 OA
HETATM   27  H56 UNL     1      10.757   0.750   1.334  1.00  0.00     0.209 HD
ENDBRANCH  25  26
ENDBRANCH  19  25
ENDBRANCH   2   4
ENDBRANCH   1   2
BRANCH   1  28
HETATM   28  C9  UNL     1      -1.053  -0.346  -0.463  1.00  0.00     0.227 C 
BRANCH  28  29
HETATM   29  C10 UNL     1      -2.138  -0.139  -1.522  1.00  0.00     0.171 C 
HETATM   30  C11 UNL     1      -3.538  -0.501  -1.019  1.00  0.00     0.175 C 
HETATM   31  O4  UNL     1      -3.779  -1.500  -0.355  1.00  0.00    -0.294 OA
HETATM   32  C12 UNL     1      -4.588   0.553  -1.437  1.00  0.00     0.037 C 
HETATM   33  C13 UNL     1      -5.880  -0.085  -1.974  1.00  0.00     0.019 C 
HETATM   34  C23 UNL     1      -4.808   1.563  -0.253  1.00  0.00     0.003 C 
HETATM   35  C28 UNL     1      -3.793   1.187  -2.601  1.00  0.00     0.059 C 
HETATM   36  C14 UNL     1      -7.048  -0.124  -0.983  1.00  0.00     0.010 C 
HETATM   37  C15 UNL     1      -6.565  -0.290   0.454  1.00  0.00     0.040 C 
HETATM   38  C16 UNL     1      -7.638  -0.234   1.550  1.00  0.00     0.051 C 
HETATM   39  C21 UNL     1      -5.649   0.858   0.915  1.00  0.00     0.084 C 
HETATM   40  C17 UNL     1      -8.971  -0.877   1.193  1.00  0.00     0.026 C 
HETATM   41  C18 UNL     1      -7.087  -0.777   2.887  1.00  0.00     0.020 C 
HETATM   42  C22 UNL     1      -7.776   1.256   1.741  1.00  0.00     0.268 C 
HETATM   43  C19 UNL     1      -5.559  -0.701   3.004  1.00  0.00     0.004 C 
HETATM   44  C20 UNL     1      -4.850   0.370   2.153  1.00  0.00     0.040 C 
HETATM   45  O5  UNL     1      -6.584   1.843   1.434  1.00  0.00    -0.308 OA
HETATM   46  O6  UNL     1      -8.756   1.860   2.141  1.00  0.00    -0.264 OA
HETATM   47  C24 UNL     1      -5.574   2.828  -0.775  1.00  0.00     0.019 C 
HETATM   48  C25 UNL     1      -3.424   2.117   0.230  1.00  0.00     0.016 C 
HETATM   49  C26 UNL     1      -2.418   2.394  -0.904  1.00  0.00     0.042 C 
HETATM   50  C27 UNL     1      -2.392   1.312  -2.000  1.00  0.00     0.099 C 
BRANCH  29  51
HETATM   51  O3  UNL     1      -1.869  -0.939  -2.692  1.00  0.00    -0.377 OA
HETATM   52  H15 UNL     1      -1.485  -1.789  -2.387  1.00  0.00     0.211 HD
ENDBRANCH  29  51
BRANCH  50  53
HETATM   53  O7  UNL     1      -1.474   1.694  -3.021  1.00  0.00    -0.386 OA
HETATM   54  H37 UNL     1      -1.290   0.881  -3.534  1.00  0.00     0.210 HD
ENDBRANCH  50  53
ENDBRANCH  28  29
ENDBRANCH   1  28
TORSDOF 9
