REMARK  11 active torsions:
REMARK  status: ('A' for Active; 'I' for Inactive)
REMARK    1  A    between atoms: O1_2  and  C2_3 
REMARK    2  A    between atoms: C4_5  and  O2_6 
REMARK    3  A    between atoms: O2_6  and  C5_7 
REMARK    4  A    between atoms: C8_10  and  C9_11 
REMARK    5  A    between atoms: N1_12  and  C10_14 
REMARK    6  A    between atoms: C10_14  and  C11_15 
REMARK    7  A    between atoms: C11_15  and  O3_16 
REMARK    8  A    between atoms: C17_22  and  C18_23 
REMARK    9  A    between atoms: C24_31  and  O6_32 
REMARK   10  A    between atoms: C28_36  and  O7_37 
REMARK   11  A    between atoms: C32_42  and  O9_43 
ROOT
HETATM    1  C5  UNL     1      -2.968  -0.733   0.495  1.00  0.00     0.127 C 
HETATM    2  C6  UNL     1      -2.231  -1.346   1.698  1.00  0.00     0.033 C 
HETATM    3  C7  UNL     1      -0.728  -1.062   1.695  1.00  0.00     0.021 C 
HETATM    4  C8  UNL     1       0.023  -1.450   0.371  1.00  0.00     0.026 C 
HETATM    5  C12 UNL     1       1.273  -0.476   0.247  1.00  0.00     0.009 C 
HETATM    6  C13 UNL     1       2.330  -0.700   1.359  1.00  0.00     0.007 C 
HETATM    7  C14 UNL     1       3.520   0.254   1.260  1.00  0.00     0.013 C 
HETATM    8  C15 UNL     1       4.207   0.217  -0.124  1.00  0.00    -0.005 C 
HETATM    9  C16 UNL     1       4.962  -1.126  -0.300  1.00  0.00     0.019 C 
HETATM   10  C17 UNL     1       5.161   1.445  -0.337  1.00  0.00     0.028 C 
HETATM   11  C22 UNL     1       4.197   2.606  -0.695  1.00  0.00     0.013 C 
HETATM   12  C23 UNL     1       2.894   1.970  -1.196  1.00  0.00     0.040 C 
HETATM   13  C24 UNL     1       3.168   0.454  -1.267  1.00  0.00     0.070 C 
HETATM   14  C25 UNL     1       1.916  -0.461  -1.161  1.00  0.00     0.026 C 
HETATM   15  C26 UNL     1       0.839  -0.120  -2.199  1.00  0.00     0.011 C 
HETATM   16  C27 UNL     1      -0.237  -1.191  -2.202  1.00  0.00     0.039 C 
HETATM   17  C28 UNL     1      -0.954  -1.375  -0.859  1.00  0.00     0.073 C 
HETATM   18  C29 UNL     1      -2.011  -0.283  -0.614  1.00  0.00     0.071 C 
ENDROOT
BRANCH   1  19
HETATM   19  O2  UNL     1      -3.802   0.350   0.928  1.00  0.00    -0.356 OA
BRANCH  19  20
HETATM   20  C4  UNL     1      -5.013   0.449   0.170  1.00  0.00     0.263 C 
HETATM   21  C3  UNL     1      -6.099   1.100   1.023  1.00  0.00     0.095 C 
HETATM   22  C2  UNL     1      -7.189   1.650   0.116  1.00  0.00     0.156 C 
HETATM   23  C32 UNL     1      -6.590   2.747  -0.791  1.00  0.00     0.175 C 
HETATM   24  C30 UNL     1      -5.118   2.476  -1.156  1.00  0.00     0.151 C 
HETATM   25  O8  UNL     1      -4.816   1.077  -1.093  1.00  0.00    -0.354 OA
HETATM   26  C31 UNL     1      -4.086   3.302  -0.387  1.00  0.00     0.042 C 
BRANCH  22  27
HETATM   27  O1  UNL     1      -8.285   2.244   0.849  1.00  0.00    -0.388 OA
HETATM   28  C1  UNL     1      -9.115   1.282   1.493  1.00  0.00     0.202 C 
ENDBRANCH  22  27
BRANCH  23  29
HETATM   29  O9  UNL     1      -6.744   4.038  -0.194  1.00  0.00    -0.390 OA
HETATM   30  H49 UNL     1      -7.527   3.949   0.390  1.00  0.00     0.210 HD
ENDBRANCH  23  29
ENDBRANCH  19  20
ENDBRANCH   1  19
BRANCH  17  31
HETATM   31  O7  UNL     1      -1.687  -2.615  -0.975  1.00  0.00    -0.389 OA
HETATM   32  H41 UNL     1      -2.234  -2.565  -1.781  1.00  0.00     0.210 HD
ENDBRANCH  17  31
BRANCH   4  33
HETATM   33  C9  UNL     1       0.446  -2.920   0.499  1.00  0.00     0.068 C 
HETATM   34  N1  UNL     1       1.441  -3.419  -0.159  1.00  0.00    -0.399 N 
ATOM     35  H1  UNL     1       2.045  -2.852  -0.754  1.00  0.00     0.158 HD
BRANCH  34  36
HETATM   36  C10 UNL     1       1.635  -4.862   0.015  1.00  0.00     0.144 C 
BRANCH  36  37
HETATM   37  C11 UNL     1       3.064  -5.223  -0.398  1.00  0.00     0.183 C 
BRANCH  37  38
HETATM   38  O3  UNL     1       3.200  -6.624  -0.616  1.00  0.00    -0.399 OA
HETATM   39  H18 UNL     1       2.616  -6.860  -1.359  1.00  0.00     0.209 HD
ENDBRANCH  37  38
ENDBRANCH  36  37
ENDBRANCH  34  36
ENDBRANCH   4  33
BRANCH  13  40
HETATM   40  O6  UNL     1       3.828   0.197  -2.523  1.00  0.00    -0.389 OA
HETATM   41  H35 UNL     1       3.248   0.484  -3.241  1.00  0.00     0.210 HD
ENDBRANCH  13  40
BRANCH  10  42
HETATM   42  C18 UNL     1       6.177   1.750   0.733  1.00  0.00    -0.045 A 
HETATM   43  C19 UNL     1       6.201   2.742   1.626  1.00  0.00     0.087 A 
HETATM   44  C20 UNL     1       7.461   2.638   2.358  1.00  0.00     0.283 A 
HETATM   45  O4  UNL     1       7.808   3.394   3.251  1.00  0.00    -0.260 OA
HETATM   46  O5  UNL     1       8.180   1.599   1.864  1.00  0.00    -0.314 OA
HETATM   47  C21 UNL     1       7.435   0.965   0.826  1.00  0.00     0.213 A 
ENDBRANCH  10  42
TORSDOF 11
