REMARK  12 active torsions:
REMARK  status: ('A' for Active; 'I' for Inactive)
REMARK    1  A    between atoms: C2_2  and  C4_4 
REMARK    2  A    between atoms: C4_4  and  C6_6 
REMARK    3  A    between atoms: C7_8  and  C8_9 
REMARK    4  A    between atoms: C8_9  and  O2_11 
REMARK    5  A    between atoms: C8_9  and  C10_12 
REMARK    6  A    between atoms: C13_15  and  O3_16 
REMARK    7  A    between atoms: C24_28  and  O5_29 
REMARK    8  A    between atoms: C25_30  and  O6_31 
REMARK    9  A    between atoms: C29_35  and  C30_36 
REMARK   10  A    between atoms: C30_36  and  C31_37 
REMARK   11  A    between atoms: C31_37  and  C32_38 
REMARK   12  A    between atoms: C36_42  and  O7_43 
ROOT
HETATM    1  C10 UNL     1       1.804  -0.591  -0.996  1.00  0.00     0.034 C 
HETATM    2  C11 UNL     1       1.679  -2.086  -1.442  1.00  0.00     0.012 C 
HETATM    3  C12 UNL     1       0.188  -2.467  -1.365  1.00  0.00     0.044 C 
HETATM    4  C13 UNL     1      -0.514  -1.123  -1.185  1.00  0.00     0.090 C 
HETATM    5  C14 UNL     1      -1.953  -1.006  -0.762  1.00  0.00    -0.037 C 
HETATM    6  C15 UNL     1      -2.673  -2.054  -0.341  1.00  0.00     0.057 C 
HETATM    7  C16 UNL     1      -4.007  -1.881   0.256  1.00  0.00     0.155 C 
HETATM    8  O4  UNL     1      -4.606  -2.880   0.652  1.00  0.00    -0.293 OA
HETATM    9  C17 UNL     1      -4.573  -0.479   0.420  1.00  0.00     0.075 C 
HETATM   10  C18 UNL     1      -6.118  -0.491   0.291  1.00  0.00     0.029 C 
HETATM   11  C19 UNL     1      -6.713   0.936   0.425  1.00  0.00     0.008 C 
HETATM   12  C20 UNL     1      -5.694   1.978   0.860  1.00  0.00     0.001 C 
HETATM   13  C21 UNL     1      -4.411   1.979   0.015  1.00  0.00     0.011 C 
HETATM   14  C22 UNL     1      -4.022   0.576  -0.571  1.00  0.00    -0.019 C 
HETATM   15  C23 UNL     1      -4.763   0.443  -1.971  1.00  0.00     0.045 C 
HETATM   16  C24 UNL     1      -5.537  -0.861  -2.185  1.00  0.00     0.148 C 
HETATM   17  C25 UNL     1      -6.532  -1.166  -1.042  1.00  0.00     0.151 C 
HETATM   18  C26 UNL     1      -2.462   0.435  -0.803  1.00  0.00     0.027 C 
HETATM   19  C27 UNL     1      -1.534   1.323   0.060  1.00  0.00     0.011 C 
HETATM   20  C28 UNL     1      -0.015   1.123  -0.163  1.00  0.00     0.014 C 
HETATM   21  C29 UNL     1       0.445  -0.352  -0.203  1.00  0.00     0.002 C 
ENDROOT
BRANCH   1  22
HETATM   22  C8  UNL     1       3.201  -0.262  -0.375  1.00  0.00     0.087 C 
HETATM   23  C9  UNL     1       3.256   1.173   0.175  1.00  0.00     0.049 C 
BRANCH  22  24
HETATM   24  C7  UNL     1       4.286  -0.384  -1.443  1.00  0.00     0.185 A 
HETATM   25  C6  UNL     1       5.670  -0.975  -1.187  1.00  0.00     0.158 A 
HETATM   26  O1  UNL     1       4.630  -1.718  -1.839  1.00  0.00    -0.372 OA
BRANCH  25  27
HETATM   27  C4  UNL     1       6.843  -0.635  -2.082  1.00  0.00     0.017 C 
HETATM   28  C5  UNL     1       7.499  -1.936  -2.568  1.00  0.00     0.013 C 
BRANCH  27  29
HETATM   29  C2  UNL     1       7.866   0.276  -1.342  1.00  0.00    -0.016 C 
HETATM   30  C1  UNL     1       7.205   1.540  -0.773  1.00  0.00     0.010 C 
HETATM   31  C3  UNL     1       9.030   0.695  -2.249  1.00  0.00     0.010 C 
ENDBRANCH  27  29
ENDBRANCH  25  27
ENDBRANCH  22  24
BRANCH  22  32
HETATM   32  O2  UNL     1       3.478  -1.154   0.707  1.00  0.00    -0.387 OA
HETATM   33  H17 UNL     1       4.309  -0.872   1.121  1.00  0.00     0.210 HD
ENDBRANCH  22  32
ENDBRANCH   1  22
BRANCH  21  34
HETATM   34  C30 UNL     1       0.596  -0.966   1.248  1.00  0.00     0.018 C 
BRANCH  34  35
HETATM   35  C31 UNL     1      -0.531  -0.963   2.296  1.00  0.00     0.039 C 
BRANCH  35  36
HETATM   36  C32 UNL     1      -0.691   0.224   3.225  1.00  0.00    -0.056 A 
HETATM   37  C33 UNL     1       0.372   1.041   3.633  1.00  0.00     0.007 A 
HETATM   38  C34 UNL     1       0.158   2.104   4.519  1.00  0.00     0.003 A 
HETATM   39  C35 UNL     1      -1.117   2.359   5.021  1.00  0.00     0.036 A 
HETATM   40  C36 UNL     1      -2.169   1.536   4.645  1.00  0.00     0.066 A 
HETATM   41  C37 UNL     1      -1.963   0.473   3.771  1.00  0.00     0.043 A 
BRANCH  40  42
HETATM   42  O7  UNL     1      -3.434   1.738   5.112  1.00  0.00    -0.361 OA
HETATM   43  H51 UNL     1      -3.420   2.496   5.719  1.00  0.00     0.217 HD
ENDBRANCH  40  42
ENDBRANCH  35  36
ENDBRANCH  34  35
ENDBRANCH  21  34
BRANCH   4  44
HETATM   44  O3  UNL     1      -0.475  -0.512  -2.495  1.00  0.00    -0.384 OA
HETATM   45  H23 UNL     1      -1.028  -1.055  -3.084  1.00  0.00     0.211 HD
ENDBRANCH   4  44
BRANCH  16  46
HETATM   46  O5  UNL     1      -6.222  -0.803  -3.438  1.00  0.00    -0.393 OA
HETATM   47  H36 UNL     1      -7.160  -0.631  -3.201  1.00  0.00     0.210 HD
ENDBRANCH  16  46
BRANCH  17  48
HETATM   48  O6  UNL     1      -7.854  -0.778  -1.448  1.00  0.00    -0.393 OA
HETATM   49  H38 UNL     1      -8.461  -1.077  -0.745  1.00  0.00     0.210 HD
ENDBRANCH  17  48
TORSDOF 12
