REMARK  12 active torsions:
REMARK  status: ('A' for Active; 'I' for Inactive)
REMARK    1  A    between atoms: O1_2  and  C2_3 
REMARK    2  A    between atoms: C2_3  and  C5_6 
REMARK    3  A    between atoms: C6_7  and  C7_8 
REMARK    4  A    between atoms: C7_8  and  C8_9 
REMARK    5  A    between atoms: C8_9  and  C10_11 
REMARK    6  A    between atoms: C28_30  and  O3_31 
REMARK    7  A    between atoms: O3_31  and  C29_32 
REMARK    8  A    between atoms: C30_34  and  C31_35 
REMARK    9  A    between atoms: C31_35  and  O5_36 
REMARK   10  A    between atoms: C32_37  and  O6_38 
REMARK   11  A    between atoms: C33_39  and  O7_40 
REMARK   12  A    between atoms: C34_41  and  O8_42 
ROOT
HETATM    1  C10 UNL     1      -3.861  -0.081  -1.115  1.00  0.00    -0.002 C 
HETATM    2  C11 UNL     1      -3.994   1.416  -1.552  1.00  0.00     0.006 C 
HETATM    3  C12 UNL     1      -2.574   1.955  -1.822  1.00  0.00     0.011 C 
HETATM    4  C13 UNL     1      -1.693   0.696  -1.867  1.00  0.00    -0.029 C 
HETATM    5  C14 UNL     1      -1.886   0.104  -3.301  1.00  0.00     0.016 C 
HETATM    6  C15 UNL     1      -0.185   0.917  -1.551  1.00  0.00     0.028 C 
HETATM    7  C16 UNL     1       0.558   1.845  -2.480  1.00  0.00    -0.021 C 
HETATM    8  C17 UNL     1       1.853   1.628  -2.760  1.00  0.00     0.008 C 
HETATM    9  C18 UNL     1       2.652   0.484  -2.132  1.00  0.00     0.092 C 
HETATM   10  O2  UNL     1       2.401  -0.610  -3.043  1.00  0.00    -0.374 OA
HETATM   11  C19 UNL     1       1.066  -1.116  -2.715  1.00  0.00     0.179 C 
HETATM   12  C20 UNL     1       0.601  -0.437  -1.375  1.00  0.00    -0.004 C 
HETATM   13  C21 UNL     1      -0.152  -1.444  -0.473  1.00  0.00     0.014 C 
HETATM   14  C22 UNL     1      -1.673  -1.552  -0.714  1.00  0.00     0.011 C 
HETATM   15  C23 UNL     1      -2.353  -0.168  -0.714  1.00  0.00    -0.032 C 
HETATM   16  C24 UNL     1      -2.196   0.442   0.717  1.00  0.00     0.016 C 
HETATM   17  C25 UNL     1       2.013  -0.124  -0.864  1.00  0.00     0.036 C 
HETATM   18  C26 UNL     1       2.284   0.734   0.355  1.00  0.00     0.011 C 
HETATM   19  C27 UNL     1       3.793   0.691   0.652  1.00  0.00     0.033 C 
HETATM   20  C28 UNL     1       4.665   0.212  -0.539  1.00  0.00     0.136 C 
HETATM   21  C35 UNL     1       4.183   0.819  -1.907  1.00  0.00     0.014 C 
HETATM   22  C36 UNL     1       5.037   0.233  -3.052  1.00  0.00     0.021 C 
HETATM   23  C37 UNL     1       4.470   2.348  -1.873  1.00  0.00     0.021 C 
ENDROOT
BRANCH  20  24
HETATM   24  O3  UNL     1       6.041   0.568  -0.319  1.00  0.00    -0.352 OA
BRANCH  24  25
HETATM   25  C29 UNL     1       6.772  -0.365   0.484  1.00  0.00     0.292 C 
HETATM   26  O4  UNL     1       6.339  -0.338   1.838  1.00  0.00    -0.348 OA
HETATM   27  C30 UNL     1       7.055  -1.260   2.676  1.00  0.00     0.179 C 
HETATM   28  C32 UNL     1       8.548  -0.906   2.702  1.00  0.00     0.180 C 
HETATM   29  C33 UNL     1       9.094  -0.861   1.273  1.00  0.00     0.183 C 
HETATM   30  C34 UNL     1       8.250   0.059   0.399  1.00  0.00     0.204 C 
BRANCH  27  31
HETATM   31  C31 UNL     1       6.451  -1.202   4.088  1.00  0.00     0.198 C 
BRANCH  31  32
HETATM   32  O5  UNL     1       5.114  -1.713   4.091  1.00  0.00    -0.398 OA
HETATM   33  H48 UNL     1       5.162  -2.651   3.842  1.00  0.00     0.209 HD
ENDBRANCH  31  32
ENDBRANCH  27  31
BRANCH  28  34
HETATM   34  O6  UNL     1       9.288  -1.873   3.451  1.00  0.00    -0.390 OA
HETATM   35  H50 UNL     1      10.230  -1.671   3.267  1.00  0.00     0.210 HD
ENDBRANCH  28  34
BRANCH  29  36
HETATM   36  O7  UNL     1      10.458  -0.412   1.306  1.00  0.00    -0.390 OA
HETATM   37  H52 UNL     1      10.689  -0.234   0.372  1.00  0.00     0.210 HD
ENDBRANCH  29  36
BRANCH  30  38
HETATM   38  O8  UNL     1       8.741  -0.002  -0.949  1.00  0.00    -0.388 OA
HETATM   39  H54 UNL     1       8.094   0.510  -1.477  1.00  0.00     0.210 HD
ENDBRANCH  30  38
ENDBRANCH  24  25
ENDBRANCH  20  24
BRANCH   1  40
HETATM   40  C8  UNL     1      -4.977  -0.487  -0.104  1.00  0.00    -0.010 C 
HETATM   41  C9  UNL     1      -4.824  -1.936   0.373  1.00  0.00     0.010 C 
BRANCH  40  42
HETATM   42  C7  UNL     1      -6.378  -0.278  -0.743  1.00  0.00     0.031 C 
BRANCH  42  43
HETATM   43  C6  UNL     1      -7.526  -0.488   0.210  1.00  0.00    -0.027 C 
HETATM   44  C5  UNL     1      -8.208   0.521   0.779  1.00  0.00     0.006 C 
BRANCH  44  45
HETATM   45  C2  UNL     1      -9.380   0.424   1.738  1.00  0.00     0.070 C 
HETATM   46  C3  UNL     1      -9.807  -1.001   2.127  1.00  0.00     0.050 C 
HETATM   47  C4  UNL     1     -10.584   1.117   1.077  1.00  0.00     0.050 C 
BRANCH  45  48
HETATM   48  O1  UNL     1      -9.083   1.221   2.899  1.00  0.00    -0.382 OA
HETATM   49  C1  UNL     1      -8.093   0.700   3.778  1.00  0.00     0.202 C 
ENDBRANCH  45  48
ENDBRANCH  44  45
ENDBRANCH  42  43
ENDBRANCH  40  42
ENDBRANCH   1  40
TORSDOF 12
