REMARK  9 active torsions:
REMARK  status: ('A' for Active; 'I' for Inactive)
REMARK    1  A    between atoms: C2_2  and  C3_3 
REMARK    2  A    between atoms: C2_2  and  C9_12 
REMARK    3  A    between atoms: C3_3  and  C4_4 
REMARK    4  A    between atoms: C4_4  and  C5_5 
REMARK    5  A    between atoms: C5_5  and  O1_6 
REMARK    6  A    between atoms: C5_5  and  C6_7 
REMARK    7  A    between atoms: C6_7  and  O2_9 
REMARK    8  A    between atoms: C6_7  and  C8_10 
REMARK    9  A    between atoms: C8_10  and  O3_11 
ROOT
HETATM    1  C9  UNL     1       1.730   0.709   0.468  1.00  0.00    -0.002 C 
HETATM    2  C10 UNL     1       1.524   2.143   1.029  1.00  0.00     0.006 C 
HETATM    3  C11 UNL     1       0.011   2.337   1.236  1.00  0.00     0.011 C 
HETATM    4  C12 UNL     1      -0.609   0.931   1.085  1.00  0.00    -0.032 C 
HETATM    5  C13 UNL     1      -0.491   0.228   2.474  1.00  0.00     0.016 C 
HETATM    6  C14 UNL     1      -2.090   0.933   0.619  1.00  0.00     0.004 C 
HETATM    7  C15 UNL     1      -3.097   1.369   1.697  1.00  0.00     0.007 C 
HETATM    8  C16 UNL     1      -4.499   1.453   1.096  1.00  0.00     0.007 C 
HETATM    9  C17 UNL     1      -5.019   0.049   0.746  1.00  0.00     0.010 C 
HETATM   10  C18 UNL     1      -6.432   0.016   0.071  1.00  0.00     0.018 C 
HETATM   11  C19 UNL     1      -7.522   0.338   1.108  1.00  0.00     0.023 C 
HETATM   12  C20 UNL     1      -6.578   0.990  -1.114  1.00  0.00     0.023 C 
HETATM   13  C21 UNL     1      -6.703  -1.408  -0.447  1.00  0.00     0.135 C 
HETATM   14  O4  UNL     1      -7.561  -1.648  -1.296  1.00  0.00    -0.297 OA
HETATM   15  C22 UNL     1      -5.895  -2.521   0.171  1.00  0.00     0.080 C 
HETATM   16  C23 UNL     1      -4.413  -2.286  -0.089  1.00  0.00     0.018 C 
HETATM   17  C24 UNL     1      -4.016  -0.805  -0.040  1.00  0.00    -0.026 A 
HETATM   18  C25 UNL     1      -3.360  -0.260  -1.285  1.00  0.00     0.021 A 
HETATM   19  C26 UNL     1      -2.510  -0.410  -0.034  1.00  0.00    -0.027 A 
HETATM   20  C27 UNL     1      -1.487  -1.553  -0.019  1.00  0.00     0.011 C 
HETATM   21  C28 UNL     1       0.005  -1.188  -0.123  1.00  0.00     0.011 C 
HETATM   22  C29 UNL     1       0.304   0.314  -0.041  1.00  0.00    -0.032 C 
HETATM   23  C30 UNL     1       0.054   0.921  -1.448  1.00  0.00     0.016 C 
ENDROOT
BRANCH   1  24
HETATM   24  C2  UNL     1       3.032   0.568  -0.376  1.00  0.00    -0.014 C 
HETATM   25  C1  UNL     1       3.107   1.363  -1.686  1.00  0.00     0.010 C 
BRANCH  24  26
HETATM   26  C3  UNL     1       3.405  -0.916  -0.609  1.00  0.00     0.007 C 
BRANCH  26  27
HETATM   27  C4  UNL     1       4.775  -1.298  -0.019  1.00  0.00     0.035 C 
BRANCH  27  28
HETATM   28  C5  UNL     1       5.974  -0.773  -0.827  1.00  0.00     0.154 C 
BRANCH  28  29
HETATM   29  O1  UNL     1       6.025  -1.519  -2.053  1.00  0.00    -0.392 OA
HETATM   30  H10 UNL     1       5.325  -1.196  -2.643  1.00  0.00     0.210 HD
ENDBRANCH  28  29
BRANCH  28  31
HETATM   31  C6  UNL     1       7.355  -0.903  -0.097  1.00  0.00     0.101 C 
HETATM   32  C7  UNL     1       8.485  -0.474  -1.053  1.00  0.00     0.051 C 
BRANCH  31  33
HETATM   33  O2  UNL     1       7.653  -2.263   0.267  1.00  0.00    -0.385 OA
HETATM   34  H14 UNL     1       6.825  -2.697   0.535  1.00  0.00     0.210 HD
ENDBRANCH  31  33
BRANCH  31  35
HETATM   35  C8  UNL     1       7.406  -0.042   1.185  1.00  0.00     0.204 C 
BRANCH  35  36
HETATM   36  O3  UNL     1       7.043   1.316   0.952  1.00  0.00    -0.398 OA
HETATM   37  H17 UNL     1       7.775   1.733   0.466  1.00  0.00     0.209 HD
ENDBRANCH  35  36
ENDBRANCH  31  35
ENDBRANCH  28  31
ENDBRANCH  27  28
ENDBRANCH  26  27
ENDBRANCH  24  26
ENDBRANCH   1  24
TORSDOF 9
