REMARK  14 active torsions:
REMARK  status: ('A' for Active; 'I' for Inactive)
REMARK    1  A    between atoms: C12_13  and  O2_14 
REMARK    2  A    between atoms: C19_21  and  O3_22 
REMARK    3  A    between atoms: C19_21  and  C20_23 
REMARK    4  A    between atoms: C20_23  and  C21_25 
REMARK    5  A    between atoms: C21_25  and  O5_26 
REMARK    6  A    between atoms: O5_26  and  C22_27 
REMARK    7  A    between atoms: C22_27  and  C23_29 
REMARK    8  A    between atoms: C23_29  and  C24_30 
REMARK    9  A    between atoms: C24_30  and  C25_31 
REMARK       I    between atoms: C25_31  and  N1_33 
REMARK   10  A    between atoms: N1_33  and  C26_34 
REMARK   11  A    between atoms: C26_34  and  C27_35 
REMARK   12  A    between atoms: C26_34  and  C36_45 
REMARK   13  A    between atoms: C27_35  and  C28_36 
REMARK   14  A    between atoms: C36_45  and  O9_47 
ROOT
HETATM    1  C20 UNL     1       0.277  -1.060  -0.970  1.00  0.00     0.185 C 
HETATM    2  O4  UNL     1       0.705  -2.190  -1.235  1.00  0.00    -0.292 OA
ENDROOT
BRANCH   1   3
HETATM    3  C19 UNL     1      -1.110  -0.557  -1.472  1.00  0.00     0.128 C 
HETATM    4  C14 UNL     1      -2.264  -0.629  -0.408  1.00  0.00     0.001 C 
HETATM    5  C13 UNL     1      -2.418   0.579   0.546  1.00  0.00     0.045 C 
HETATM    6  C15 UNL     1      -2.136  -1.949   0.401  1.00  0.00     0.019 C 
HETATM    7  C16 UNL     1      -3.499  -0.607  -1.341  1.00  0.00     0.002 C 
HETATM    8  C12 UNL     1      -3.753   0.592   1.323  1.00  0.00     0.124 C 
HETATM    9  C11 UNL     1      -5.003   0.417   0.411  1.00  0.00     0.031 C 
HETATM   10  C2  UNL     1      -6.395   0.387   1.163  1.00  0.00    -0.014 C 
HETATM   11  C10 UNL     1      -4.841  -0.756  -0.606  1.00  0.00    -0.002 C 
HETATM   12  C1  UNL     1      -6.544  -0.791   2.153  1.00  0.00     0.020 C 
HETATM   13  C3  UNL     1      -6.554   1.727   1.942  1.00  0.00     0.022 C 
HETATM   14  C7  UNL     1      -7.524   0.251   0.129  1.00  0.00    -0.068 C 
HETATM   15  C4  UNL     1      -7.978   2.008   2.395  1.00  0.00     0.084 C 
HETATM   16  C5  UNL     1      -8.915   1.976   1.217  1.00  0.00     0.149 C 
HETATM   17  O1  UNL     1      -9.927   2.670   1.162  1.00  0.00    -0.293 OA
HETATM   18  C6  UNL     1      -8.639   1.004   0.135  1.00  0.00     0.053 C 
HETATM   19  C8  UNL     1      -7.356  -0.834  -0.907  1.00  0.00     0.035 C 
HETATM   20  C9  UNL     1      -6.008  -0.750  -1.608  1.00  0.00     0.010 C 
HETATM   21  C17 UNL     1      -3.158  -1.630  -2.416  1.00  0.00     0.009 C 
HETATM   22  C18 UNL     1      -1.640  -1.480  -2.617  1.00  0.00     0.047 C 
BRANCH   8  23
HETATM   23  O2  UNL     1      -3.710  -0.396   2.340  1.00  0.00    -0.395 OA
HETATM   24  H16 UNL     1      -3.000  -0.159   2.962  1.00  0.00     0.210 HD
ENDBRANCH   8  23
BRANCH   3  25
HETATM   25  O3  UNL     1      -1.023   0.741  -2.061  1.00  0.00    -0.381 OA
HETATM   26  H27 UNL     1      -0.829   1.405  -1.370  1.00  0.00     0.211 HD
ENDBRANCH   3  25
ENDBRANCH   1   3
BRANCH   1  27
HETATM   27  C21 UNL     1       1.111  -0.140  -0.090  1.00  0.00     0.260 C 
BRANCH  27  28
HETATM   28  O5  UNL     1       1.934   0.750  -0.839  1.00  0.00    -0.314 OA
BRANCH  28  29
HETATM   29  C22 UNL     1       1.496   2.027  -0.934  1.00  0.00     0.259 C 
HETATM   30  O6  UNL     1       0.410   2.406  -0.504  1.00  0.00    -0.265 OA
BRANCH  29  31
HETATM   31  C23 UNL     1       2.467   2.946  -1.638  1.00  0.00     0.120 C 
BRANCH  31  32
HETATM   32  C24 UNL     1       3.591   2.238  -2.386  1.00  0.00     0.112 C 
BRANCH  32  33
HETATM   33  C25 UNL     1       4.683   1.759  -1.451  1.00  0.00     0.218 C 
HETATM   34  O7  UNL     1       4.680   1.963  -0.243  1.00  0.00    -0.274 OA
HETATM   35  N1  UNL     1       5.684   1.078  -2.098  1.00  0.00    -0.346 N 
HETATM   36  H34 UNL     1       5.594   0.851  -3.084  1.00  0.00     0.163 HD
BRANCH  35  37
HETATM   37  C26 UNL     1       6.809   0.476  -1.371  1.00  0.00     0.186 C 
BRANCH  37  38
HETATM   38  C27 UNL     1       6.412  -0.872  -0.757  1.00  0.00     0.077 C 
BRANCH  38  39
HETATM   39  C28 UNL     1       7.410  -1.393   0.229  1.00  0.00    -0.028 A 
HETATM   40  C29 UNL     1       8.319  -2.412   0.022  1.00  0.00     0.096 A 
HETATM   41  N2  UNL     1       9.043  -2.582   1.172  1.00  0.00    -0.365 N 
HETATM   42  C30 UNL     1       8.626  -1.691   2.133  1.00  0.00     0.042 A 
HETATM   43  H39 UNL     1       9.778  -3.261   1.304  1.00  0.00     0.165 HD
HETATM   44  C31 UNL     1       9.077  -1.503   3.446  1.00  0.00     0.030 A 
HETATM   45  C35 UNL     1       7.598  -0.933   1.573  1.00  0.00    -0.002 A 
HETATM   46  C32 UNL     1       8.456  -0.508   4.207  1.00  0.00     0.002 A 
HETATM   47  C33 UNL     1       7.426   0.265   3.676  1.00  0.00     0.001 A 
HETATM   48  C34 UNL     1       6.988   0.063   2.362  1.00  0.00     0.014 A 
ENDBRANCH  38  39
ENDBRANCH  37  38
BRANCH  37  49
HETATM   49  C36 UNL     1       7.926   0.279  -2.389  1.00  0.00     0.163 C 
HETATM   50  O8  UNL     1       7.771  -0.037  -3.561  1.00  0.00    -0.648 OA
BRANCH  49  51
HETATM   51  O9  UNL     1       9.160   0.505  -1.900  1.00  0.00    -0.775 OA
HETATM   52  H44 UNL     1       9.762   0.337  -2.652  1.00  0.00     0.167 HD
ENDBRANCH  49  51
ENDBRANCH  37  49
ENDBRANCH  35  37
ENDBRANCH  32  33
ENDBRANCH  31  32
ENDBRANCH  29  31
ENDBRANCH  28  29
ENDBRANCH  27  28
ENDBRANCH   1  27
TORSDOF 14
