REMARK  15 active torsions:
REMARK  status: ('A' for Active; 'I' for Inactive)
REMARK    1  A    between atoms: C2_2  and  O2_4 
REMARK    2  A    between atoms: O2_4  and  C3_5 
REMARK    3  A    between atoms: C3_5  and  C4_6 
REMARK    4  A    between atoms: C4_6  and  C5_8 
REMARK    5  A    between atoms: C5_8  and  O4_9 
REMARK    6  A    between atoms: O4_9  and  C6_10 
REMARK    7  A    between atoms: C6_10  and  C7_12 
REMARK    8  A    between atoms: C7_12  and  C8_13 
REMARK    9  A    between atoms: C8_13  and  C9_14 
REMARK       I    between atoms: C9_14  and  N1_16 
REMARK   10  A    between atoms: N1_16  and  C10_17 
REMARK   11  A    between atoms: C10_17  and  C11_18 
REMARK   12  A    between atoms: C11_18  and  C12_19 
REMARK   13  A    between atoms: C12_19  and  C13_20 
REMARK   14  A    between atoms: C13_20  and  C14_21 
REMARK   15  A    between atoms: C14_21  and  O8_23 
ROOT
HETATM    1  C3  UNL     1      -1.232   0.188  -1.164  1.00  0.00     0.140 C 
HETATM    2  C15 UNL     1      -0.885  -1.300  -0.827  1.00  0.00     0.048 C 
HETATM    3  C16 UNL     1      -2.152  -1.943  -0.228  1.00  0.00     0.009 C 
HETATM    4  C17 UNL     1      -3.222  -0.863  -0.338  1.00  0.00     0.002 C 
HETATM    5  C18 UNL     1      -4.458  -0.954   0.571  1.00  0.00    -0.004 C 
HETATM    6  C19 UNL     1      -5.195  -2.306   0.499  1.00  0.00     0.010 C 
HETATM    7  C20 UNL     1      -6.616  -2.221  -0.052  1.00  0.00     0.035 C 
HETATM    8  C21 UNL     1      -7.460  -1.117   0.547  1.00  0.00    -0.068 C 
HETATM    9  C22 UNL     1      -8.800  -1.231   0.527  1.00  0.00     0.053 C 
HETATM   10  C23 UNL     1      -9.686  -0.124   0.957  1.00  0.00     0.149 C 
HETATM   11  O9  UNL     1     -10.895  -0.326   1.045  1.00  0.00    -0.293 OA
HETATM   12  C24 UNL     1      -9.073   1.214   1.294  1.00  0.00     0.084 C 
HETATM   13  C25 UNL     1      -7.658   1.364   0.739  1.00  0.00     0.022 C 
HETATM   14  C26 UNL     1      -6.746   0.146   1.038  1.00  0.00    -0.016 C 
HETATM   15  C27 UNL     1      -6.517   0.051   2.565  1.00  0.00     0.020 C 
HETATM   16  C28 UNL     1      -5.393   0.255   0.256  1.00  0.00     0.002 C 
HETATM   17  C29 UNL     1      -4.635   1.595   0.406  1.00  0.00     0.007 C 
HETATM   18  C30 UNL     1      -3.360   1.628  -0.461  1.00  0.00     0.013 C 
HETATM   19  C31 UNL     1      -2.412   0.455  -0.152  1.00  0.00    -0.001 C 
HETATM   20  C32 UNL     1      -1.885   0.623   1.306  1.00  0.00     0.019 C 
ENDROOT
BRANCH   1  21
HETATM   21  O2  UNL     1      -1.718   0.129  -2.534  1.00  0.00    -0.301 OA
BRANCH  21  22
HETATM   22  C2  UNL     1      -1.826   1.265  -3.269  1.00  0.00     0.256 C 
HETATM   23  C1  UNL     1      -2.428   0.958  -4.606  1.00  0.00     0.126 C 
HETATM   24  O1  UNL     1      -1.462   2.373  -2.913  1.00  0.00    -0.266 OA
ENDBRANCH  21  22
ENDBRANCH   1  21
BRANCH   1  25
HETATM   25  C4  UNL     1       0.058   1.044  -1.004  1.00  0.00     0.186 C 
HETATM   26  O3  UNL     1       0.181   1.922  -0.148  1.00  0.00    -0.292 OA
BRANCH  25  27
HETATM   27  C5  UNL     1       1.201   0.750  -1.984  1.00  0.00     0.260 C 
BRANCH  27  28
HETATM   28  O4  UNL     1       2.469   1.201  -1.503  1.00  0.00    -0.314 OA
BRANCH  28  29
HETATM   29  C6  UNL     1       2.979   0.439  -0.498  1.00  0.00     0.259 C 
HETATM   30  O5  UNL     1       2.497  -0.618  -0.111  1.00  0.00    -0.265 OA
BRANCH  29  31
HETATM   31  C7  UNL     1       4.253   1.030   0.031  1.00  0.00     0.120 C 
BRANCH  31  32
HETATM   32  C8  UNL     1       5.440   0.253  -0.514  1.00  0.00     0.112 C 
BRANCH  32  33
HETATM   33  C9  UNL     1       6.736   0.690   0.129  1.00  0.00     0.217 C 
HETATM   34  O6  UNL     1       6.806   1.560   0.988  1.00  0.00    -0.274 OA
HETATM   35  N1  UNL     1       7.832   0.005  -0.354  1.00  0.00    -0.361 N 
HETATM   36  H10 UNL     1       7.686  -0.776  -0.980  1.00  0.00     0.162 HD
BRANCH  35  37
HETATM   37  C10 UNL     1       9.156   0.201   0.202  1.00  0.00     0.122 C 
BRANCH  37  38
HETATM   38  C11 UNL     1       9.381  -0.696   1.418  1.00  0.00     0.020 C 
BRANCH  38  39
HETATM   39  C12 UNL     1      10.727  -0.468   2.109  1.00  0.00     0.012 C 
BRANCH  39  40
HETATM   40  C13 UNL     1      11.928  -0.799   1.224  1.00  0.00     0.110 C 
BRANCH  40  41
HETATM   41  C14 UNL     1      13.221  -0.737   1.994  1.00  0.00     0.139 C 
HETATM   42  O7  UNL     1      13.368  -0.587   3.193  1.00  0.00    -0.650 OA
BRANCH  41  43
HETATM   43  O8  UNL     1      14.291  -0.890   1.188  1.00  0.00    -0.776 OA
HETATM   44  H19 UNL     1      15.056  -0.841   1.799  1.00  0.00     0.167 HD
ENDBRANCH  41  43
ENDBRANCH  40  41
ENDBRANCH  39  40
ENDBRANCH  38  39
ENDBRANCH  37  38
ENDBRANCH  35  37
ENDBRANCH  32  33
ENDBRANCH  31  32
ENDBRANCH  29  31
ENDBRANCH  28  29
ENDBRANCH  27  28
ENDBRANCH  25  27
ENDBRANCH   1  25
TORSDOF 15
