REMARK  10 active torsions:
REMARK  status: ('A' for Active; 'I' for Inactive)
REMARK    1  A    between atoms: N1_6  and  O1_8 
REMARK    2  A    between atoms: O1_8  and  C6_9 
REMARK    3  A    between atoms: C6_9  and  C7_10 
REMARK       I    between atoms: C7_10  and  N2_12 
REMARK    4  A    between atoms: N2_12  and  C8_13 
REMARK    5  A    between atoms: C8_13  and  C9_14 
REMARK    6  A    between atoms: C20_27  and  O3_28 
REMARK    7  A    between atoms: C27_35  and  O4_36 
REMARK    8  A    between atoms: C27_35  and  C28_37 
REMARK    9  A    between atoms: C28_37  and  C29_39 
REMARK   10  A    between atoms: C29_39  and  O6_40 
ROOT
HETATM    1  C1  UNL     1      -1.144  -2.212   3.112  1.00  0.00     0.020 C 
HETATM    2  C2  UNL     1      -1.476  -1.480   1.781  1.00  0.00    -0.014 C 
HETATM    3  C3  UNL     1      -1.098  -2.412   0.598  1.00  0.00     0.020 C 
HETATM    4  C4  UNL     1       0.388  -2.742   0.493  1.00  0.00     0.060 C 
HETATM    5  C5  UNL     1       1.266  -1.515   0.571  1.00  0.00     0.032 C 
HETATM    6  N1  UNL     1       2.484  -1.649   0.139  1.00  0.00    -0.271 N 
ATOM      7  H1  UNL     1       2.847  -2.504  -0.284  1.00  0.00     0.194 HD
HETATM    8  C14 UNL     1       0.680  -0.284   1.170  1.00  0.00     0.030 C 
HETATM    9  C15 UNL     1      -0.550  -0.254   1.725  1.00  0.00    -0.069 C 
HETATM   10  C16 UNL     1      -0.997   1.054   2.319  1.00  0.00     0.035 C 
HETATM   11  C17 UNL     1      -2.496   1.321   2.361  1.00  0.00     0.010 C 
HETATM   12  C18 UNL     1      -3.385   0.373   1.561  1.00  0.00    -0.002 C 
HETATM   13  C19 UNL     1      -3.027  -1.103   1.832  1.00  0.00     0.031 C 
HETATM   14  C20 UNL     1      -4.071  -1.991   1.117  1.00  0.00     0.124 C 
HETATM   15  C21 UNL     1      -4.250  -1.669  -0.370  1.00  0.00     0.045 C 
HETATM   16  C22 UNL     1      -4.606  -0.177  -0.662  1.00  0.00     0.001 C 
HETATM   17  C23 UNL     1      -6.077   0.047  -0.255  1.00  0.00     0.019 C 
HETATM   18  C24 UNL     1      -3.631   0.764   0.087  1.00  0.00     0.002 C 
HETATM   19  C25 UNL     1      -2.417   0.896  -0.842  1.00  0.00     0.009 C 
HETATM   20  C26 UNL     1      -2.861   0.462  -2.244  1.00  0.00     0.047 C 
HETATM   21  C27 UNL     1      -4.365   0.188  -2.161  1.00  0.00     0.128 C 
ENDROOT
BRANCH   6  22
HETATM   22  O1  UNL     1       3.244  -0.482   0.321  1.00  0.00    -0.271 OA
BRANCH  22  23
HETATM   23  C6  UNL     1       4.556  -0.723  -0.160  1.00  0.00     0.303 C 
BRANCH  23  24
HETATM   24  C7  UNL     1       5.524   0.368   0.294  1.00  0.00     0.244 C 
HETATM   25  O2  UNL     1       5.174   1.483   0.670  1.00  0.00    -0.271 OA
HETATM   26  N2  UNL     1       6.848  -0.024   0.241  1.00  0.00    -0.355 N 
HETATM   27  H10 UNL     1       7.085  -0.902  -0.199  1.00  0.00     0.162 HD
BRANCH  26  28
HETATM   28  C8  UNL     1       7.932   0.862   0.595  1.00  0.00     0.161 C 
BRANCH  28  29
HETATM   29  C9  UNL     1       8.705   1.268  -0.631  1.00  0.00    -0.038 A 
HETATM   30  C10 UNL     1       8.248   2.308  -1.446  1.00  0.00     0.025 A 
HETATM   31  C11 UNL     1       8.977   2.634  -2.579  1.00  0.00     0.088 A 
HETATM   32  N3  UNL     1      10.109   2.000  -2.952  1.00  0.00    -0.375 N 
HETATM   33  C12 UNL     1      10.529   0.994  -2.158  1.00  0.00     0.088 A 
ATOM     34  H3  UNL     1      10.621   2.268  -3.792  1.00  0.00     0.164 HD
HETATM   35  C13 UNL     1       9.870   0.593  -1.004  1.00  0.00     0.025 A 
ENDBRANCH  28  29
ENDBRANCH  26  28
ENDBRANCH  23  24
ENDBRANCH  22  23
ENDBRANCH   6  22
BRANCH  14  36
HETATM   36  O3  UNL     1      -3.817  -3.376   1.287  1.00  0.00    -0.395 OA
HETATM   37  H25 UNL     1      -3.904  -3.577   2.234  1.00  0.00     0.210 HD
ENDBRANCH  14  36
BRANCH  21  38
HETATM   38  O4  UNL     1      -4.656  -0.953  -2.986  1.00  0.00    -0.381 OA
HETATM   39  H36 UNL     1      -5.360  -0.687  -3.616  1.00  0.00     0.211 HD
ENDBRANCH  21  38
BRANCH  21  40
HETATM   40  C28 UNL     1      -5.186   1.364  -2.757  1.00  0.00     0.184 C 
HETATM   41  O5  UNL     1      -6.016   1.151  -3.657  1.00  0.00    -0.292 OA
BRANCH  40  42
HETATM   42  C29 UNL     1      -4.954   2.792  -2.273  1.00  0.00     0.245 C 
BRANCH  42  43
HETATM   43  O6  UNL     1      -5.782   3.714  -2.982  1.00  0.00    -0.393 OA
HETATM   44  H39 UNL     1      -6.286   3.185  -3.638  1.00  0.00     0.209 HD
ENDBRANCH  42  43
ENDBRANCH  40  42
ENDBRANCH  21  40
TORSDOF 10
