REMARK  4 active torsions:
REMARK  status: ('A' for Active; 'I' for Inactive)
REMARK    1  A    between atoms: C2_2  and  C4_4 
REMARK    2  A    between atoms: C7_7  and  C8_8 
REMARK    3  A    between atoms: C8_8  and  O1_9 
REMARK    4  A    between atoms: C10_11  and  O2_12 
ROOT
HETATM    1  C4  UNL     1      -4.035  -1.172   0.623  1.00  0.00     0.018 C 
HETATM    2  C5  UNL     1      -5.393  -0.423   0.532  1.00  0.00     0.010 C 
HETATM    3  C6  UNL     1      -5.065   1.045   0.213  1.00  0.00     0.013 C 
HETATM    4  C7  UNL     1      -3.607   1.215   0.668  1.00  0.00    -0.012 C 
HETATM    5  C9  UNL     1      -2.874   2.373  -0.020  1.00  0.00     0.044 C 
HETATM    6  C10 UNL     1      -1.355   2.331   0.263  1.00  0.00     0.128 C 
HETATM    7  C11 UNL     1      -0.660   0.951  -0.088  1.00  0.00    -0.006 C 
HETATM    8  C12 UNL     1      -0.671   0.836  -1.654  1.00  0.00     0.019 C 
HETATM    9  C13 UNL     1      -1.515  -0.237   0.542  1.00  0.00     0.002 C 
HETATM   10  C14 UNL     1      -0.905  -1.609   0.235  1.00  0.00     0.006 C 
HETATM   11  C15 UNL     1       0.557  -1.717   0.672  1.00  0.00     0.006 C 
HETATM   12  C16 UNL     1       1.448  -0.588   0.107  1.00  0.00     0.003 C 
HETATM   13  C17 UNL     1       3.001  -0.851   0.301  1.00  0.00    -0.035 C 
HETATM   14  C18 UNL     1       3.378  -1.119   1.786  1.00  0.00     0.016 C 
HETATM   15  C19 UNL     1       3.377  -2.161  -0.469  1.00  0.00     0.017 C 
HETATM   16  C20 UNL     1       4.834  -2.209  -0.894  1.00  0.00     0.080 C 
HETATM   17  C21 UNL     1       5.110  -1.117  -1.896  1.00  0.00     0.135 C 
HETATM   18  O3  UNL     1       5.895  -1.323  -2.825  1.00  0.00    -0.297 OA
HETATM   19  C22 UNL     1       4.403   0.238  -1.704  1.00  0.00     0.017 C 
HETATM   20  C23 UNL     1       5.469   1.327  -1.983  1.00  0.00     0.023 C 
HETATM   21  C24 UNL     1       3.330   0.349  -2.794  1.00  0.00     0.023 C 
HETATM   22  C25 UNL     1       3.887   0.348  -0.217  1.00  0.00     0.009 C 
HETATM   23  C26 UNL     1       3.296   1.714   0.185  1.00  0.00     0.007 C 
HETATM   24  C27 UNL     1       1.813   1.911  -0.119  1.00  0.00     0.011 C 
HETATM   25  C28 UNL     1       0.876   0.834   0.486  1.00  0.00    -0.030 C 
HETATM   26  C29 UNL     1       0.870   1.061   2.028  1.00  0.00     0.016 C 
HETATM   27  C30 UNL     1      -3.005  -0.117   0.152  1.00  0.00     0.009 C 
ENDROOT
BRANCH   1  28
HETATM   28  C2  UNL     1      -4.069  -2.491  -0.130  1.00  0.00    -0.089 C 
HETATM   29  C1  UNL     1      -4.083  -3.663   0.530  1.00  0.00     0.014 C 
HETATM   30  C3  UNL     1      -4.112  -2.465  -1.636  1.00  0.00     0.043 C 
ENDBRANCH   1  28
BRANCH   4  31
HETATM   31  C8  UNL     1      -3.576   1.393   2.215  1.00  0.00     0.174 C 
BRANCH  31  32
HETATM   32  O1  UNL     1      -4.147   2.648   2.572  1.00  0.00    -0.400 OA
HETATM   33  H13 UNL     1      -4.183   2.682   3.544  1.00  0.00     0.209 HD
ENDBRANCH  31  32
ENDBRANCH   4  31
BRANCH   6  34
HETATM   34  O2  UNL     1      -0.751   3.401  -0.464  1.00  0.00    -0.395 OA
HETATM   35  H17 UNL     1      -1.209   4.221  -0.213  1.00  0.00     0.210 HD
ENDBRANCH   6  34
TORSDOF 4
