REMARK  5 active torsions:
REMARK  status: ('A' for Active; 'I' for Inactive)
REMARK    1  A    between atoms: C2_2  and  C3_3 
REMARK    2  A    between atoms: C20_20  and  O1_21 
REMARK    3  A    between atoms: O1_21  and  C21_22 
REMARK    4  A    between atoms: C21_22  and  C22_24 
REMARK    5  A    between atoms: C22_24  and  C23_25 
ROOT
HETATM    1  C3  UNL     1      -6.124  -0.998   0.146  1.00  0.00     0.012 C 
HETATM    2  C4  UNL     1      -7.455  -0.302  -0.244  1.00  0.00     0.009 C 
HETATM    3  C5  UNL     1      -7.088   1.099  -0.762  1.00  0.00     0.010 C 
HETATM    4  C6  UNL     1      -5.686   1.359  -0.195  1.00  0.00    -0.039 C 
HETATM    5  C7  UNL     1      -5.830   1.809   1.282  1.00  0.00     0.015 C 
HETATM    6  C8  UNL     1      -4.872   2.400  -0.972  1.00  0.00     0.010 C 
HETATM    7  C9  UNL     1      -3.395   2.410  -0.528  1.00  0.00     0.011 C 
HETATM    8  C10 UNL     1      -2.689   1.006  -0.551  1.00  0.00    -0.032 C 
HETATM    9  C11 UNL     1      -2.531   0.655  -2.071  1.00  0.00     0.016 C 
HETATM   10  C12 UNL     1      -3.605  -0.072   0.164  1.00  0.00    -0.000 C 
HETATM   11  C13 UNL     1      -2.962  -1.463   0.128  1.00  0.00     0.006 C 
HETATM   12  C14 UNL     1      -1.550  -1.485   0.719  1.00  0.00     0.006 C 
HETATM   13  C15 UNL     1      -0.605  -0.422   0.113  1.00  0.00     0.003 C 
HETATM   14  C16 UNL     1       0.922  -0.556   0.559  1.00  0.00    -0.035 C 
HETATM   15  C17 UNL     1       1.091  -0.435   2.093  1.00  0.00     0.016 C 
HETATM   16  C18 UNL     1       1.445  -1.965   0.141  1.00  0.00     0.012 C 
HETATM   17  C19 UNL     1       2.960  -2.128   0.231  1.00  0.00     0.034 C 
HETATM   18  C20 UNL     1       3.716  -1.061  -0.557  1.00  0.00     0.140 C 
HETATM   19  C26 UNL     1       3.311   0.396  -0.172  1.00  0.00    -0.017 C 
HETATM   20  C27 UNL     1       3.963   1.344  -1.217  1.00  0.00     0.018 C 
HETATM   21  C28 UNL     1       3.899   0.806   1.194  1.00  0.00     0.018 C 
HETATM   22  C29 UNL     1       1.743   0.515  -0.255  1.00  0.00     0.004 C 
HETATM   23  C30 UNL     1       1.187   1.935  -0.026  1.00  0.00     0.007 C 
HETATM   24  C31 UNL     1      -0.273   2.041  -0.477  1.00  0.00     0.011 C 
HETATM   25  C32 UNL     1      -1.240   1.026   0.194  1.00  0.00    -0.032 C 
HETATM   26  C33 UNL     1      -1.411   1.488   1.673  1.00  0.00     0.016 C 
HETATM   27  C34 UNL     1      -5.045  -0.036  -0.396  1.00  0.00     0.006 C 
ENDROOT
BRANCH  18  28
HETATM   28  O1  UNL     1       5.121  -1.282  -0.300  1.00  0.00    -0.315 OA
BRANCH  28  29
HETATM   29  C21 UNL     1       5.920  -1.573  -1.361  1.00  0.00     0.259 C 
HETATM   30  O2  UNL     1       5.569  -1.621  -2.532  1.00  0.00    -0.265 OA
BRANCH  29  31
HETATM   31  C22 UNL     1       7.325  -1.869  -0.894  1.00  0.00     0.115 C 
BRANCH  31  32
HETATM   32  C23 UNL     1       8.011  -0.663  -0.241  1.00  0.00    -0.013 C 
HETATM   33  C24 UNL     1       9.317  -1.099   0.423  1.00  0.00     0.010 C 
HETATM   34  C25 UNL     1       8.294   0.441  -1.263  1.00  0.00     0.010 C 
ENDBRANCH  31  32
ENDBRANCH  29  31
ENDBRANCH  28  29
ENDBRANCH  18  28
BRANCH   1  35
HETATM   35  C2  UNL     1      -6.066  -2.388  -0.431  1.00  0.00    -0.032 C 
HETATM   36  C1  UNL     1      -6.095  -3.509   0.304  1.00  0.00     0.007 C 
ENDBRANCH   1  35
TORSDOF 5
