REMARK  9 active torsions:
REMARK  status: ('A' for Active; 'I' for Inactive)
REMARK    1  A    between atoms: C2_2  and  C30_35 
REMARK    2  A    between atoms: C3_3  and  C4_4 
REMARK    3  A    between atoms: C4_4  and  O1_5 
REMARK    4  A    between atoms: C4_4  and  C5_6 
REMARK    5  A    between atoms: C5_6  and  C6_7 
REMARK    6  A    between atoms: C6_7  and  C8_9 
REMARK    7  A    between atoms: C10_11  and  O2_12 
REMARK    8  A    between atoms: C29_33  and  O5_34 
REMARK    9  A    between atoms: C30_35  and  O7_37 
ROOT
HETATM    1  C8  UNL     1       1.852  -1.725  -0.451  1.00  0.00     0.001 C 
HETATM    2  C9  UNL     1       1.279  -3.156  -0.258  1.00  0.00     0.038 C 
HETATM    3  C10 UNL     1      -0.192  -2.994   0.167  1.00  0.00     0.132 C 
HETATM    4  C11 UNL     1      -0.558  -1.533  -0.220  1.00  0.00     0.017 C 
HETATM    5  C12 UNL     1      -0.886  -1.494  -1.749  1.00  0.00     0.023 C 
HETATM    6  C13 UNL     1      -1.740  -0.829   0.460  1.00  0.00    -0.029 C 
HETATM    7  C14 UNL     1      -1.805   0.530   0.489  1.00  0.00     0.002 C 
HETATM    8  C15 UNL     1      -0.593   1.327   0.020  1.00  0.00     0.157 C 
HETATM    9  O3  UNL     1      -0.631   2.555  -0.040  1.00  0.00    -0.293 OA
HETATM   10  C16 UNL     1       0.707   0.623  -0.354  1.00  0.00     0.094 C 
HETATM   11  C17 UNL     1       0.772  -0.801   0.194  1.00  0.00    -0.019 C 
HETATM   12  C18 UNL     1       0.969  -0.717   1.736  1.00  0.00     0.017 C 
HETATM   13  C19 UNL     1      -3.012   1.298   1.065  1.00  0.00    -0.008 C 
HETATM   14  C20 UNL     1      -2.634   1.712   2.512  1.00  0.00     0.021 C 
HETATM   15  C21 UNL     1      -3.415   2.592   0.310  1.00  0.00     0.022 C 
HETATM   16  C22 UNL     1      -3.693   2.362  -1.166  1.00  0.00     0.080 C 
HETATM   17  C23 UNL     1      -4.329   1.016  -1.420  1.00  0.00     0.135 C 
HETATM   18  O4  UNL     1      -4.257   0.509  -2.540  1.00  0.00    -0.297 OA
HETATM   19  C24 UNL     1      -5.129   0.371  -0.276  1.00  0.00     0.018 C 
HETATM   20  C25 UNL     1      -6.426   1.208  -0.109  1.00  0.00     0.023 C 
HETATM   21  C26 UNL     1      -5.607  -1.018  -0.745  1.00  0.00     0.023 C 
HETATM   22  C27 UNL     1      -4.308   0.387   1.084  1.00  0.00     0.016 C 
HETATM   23  C28 UNL     1      -3.982  -0.976   1.724  1.00  0.00     0.043 C 
HETATM   24  C29 UNL     1      -2.776  -1.704   1.127  1.00  0.00     0.149 C 
ENDROOT
BRANCH   1  25
HETATM   25  C6  UNL     1       3.374  -1.620  -0.127  1.00  0.00    -0.011 C 
HETATM   26  C7  UNL     1       3.796  -1.977   1.303  1.00  0.00     0.010 C 
BRANCH  25  27
HETATM   27  C5  UNL     1       3.953  -0.253  -0.574  1.00  0.00     0.040 C 
BRANCH  27  28
HETATM   28  C4  UNL     1       5.488  -0.215  -0.643  1.00  0.00     0.142 C 
BRANCH  28  29
HETATM   29  C3  UNL     1       5.979   0.932  -1.486  1.00  0.00     0.018 C 
HETATM   30  C2  UNL     1       6.214   2.214  -1.132  1.00  0.00     0.010 C 
HETATM   31  C1  UNL     1       5.955   2.818   0.216  1.00  0.00     0.055 C 
BRANCH  30  32
HETATM   32  C30 UNL     1       6.742   3.101  -2.200  1.00  0.00     0.171 C 
HETATM   33  O6  UNL     1       6.882   2.817  -3.377  1.00  0.00    -0.646 OA
BRANCH  32  34
HETATM   34  O7  UNL     1       7.092   4.311  -1.736  1.00  0.00    -0.773 OA
HETATM   35  H44 UNL     1       7.416   4.778  -2.534  1.00  0.00     0.167 HD
ENDBRANCH  32  34
ENDBRANCH  30  32
ENDBRANCH  28  29
BRANCH  28  36
HETATM   36  O1  UNL     1       6.044  -0.128   0.660  1.00  0.00    -0.392 OA
HETATM   37  H6  UNL     1       7.009  -0.071   0.554  1.00  0.00     0.210 HD
ENDBRANCH  28  36
ENDBRANCH  27  28
ENDBRANCH  25  27
ENDBRANCH   1  25
BRANCH   3  38
HETATM   38  O2  UNL     1      -0.975  -3.985  -0.478  1.00  0.00    -0.394 OA
HETATM   39  H17 UNL     1      -1.910  -3.702  -0.385  1.00  0.00     0.210 HD
ENDBRANCH   3  38
BRANCH  24  40
HETATM   40  O5  UNL     1      -3.197  -2.712   0.219  1.00  0.00    -0.391 OA
HETATM   41  H43 UNL     1      -3.939  -3.193   0.629  1.00  0.00     0.210 HD
ENDBRANCH  24  40
TORSDOF 9
