REMARK  4 active torsions:
REMARK  status: ('A' for Active; 'I' for Inactive)
REMARK    1  A    between atoms: N1_1  and  C1_2 
REMARK    2  A    between atoms: C2_5  and  O1_6 
REMARK    3  A    between atoms: O1_6  and  C3_7 
REMARK    4  A    between atoms: C3_7  and  C4_8 
ROOT
HETATM    1  C1  UNL     1      -2.650  -1.253  -0.500  1.00  0.00     0.158 A 
HETATM    2  N2  UNL     1      -1.320  -1.061  -0.459  1.00  0.00    -0.311 N 
ATOM      3  H2  UNL     1      -0.686  -1.718  -0.914  1.00  0.00     0.170 HD
HETATM    4  C2  UNL     1      -0.837   0.025   0.200  1.00  0.00     0.176 A 
HETATM    5  C8  UNL     1      -1.729   0.916   0.798  1.00  0.00     0.129 A 
HETATM    6  N3  UNL     1      -1.585   2.083   1.520  1.00  0.00    -0.346 N 
ATOM      7  H3  UNL     1      -0.716   2.555   1.771  1.00  0.00     0.167 HD
HETATM    8  C9  UNL     1      -2.813   2.455   1.814  1.00  0.00     0.182 A 
HETATM    9  N4  UNL     1      -3.743   1.584   1.314  1.00  0.00    -0.337 N 
HETATM   10  C10 UNL     1      -3.067   0.595   0.661  1.00  0.00     0.140 A 
HETATM   11  N5  UNL     1      -3.595  -0.458   0.026  1.00  0.00    -0.317 N 
ATOM     12  H5  UNL     1      -4.597  -0.635  -0.049  1.00  0.00     0.170 HD
HETATM   13  H8  UNL     1      -4.745   1.645   1.405  1.00  0.00     0.168 HD
ENDROOT
BRANCH   4  14
HETATM   14  O1  UNL     1       0.522   0.253   0.265  1.00  0.00    -0.329 OA
BRANCH  14  15
HETATM   15  C3  UNL     1       1.292  -0.817  -0.280  1.00  0.00     0.223 C 
BRANCH  15  16
HETATM   16  C4  UNL     1       2.742  -0.473  -0.078  1.00  0.00     0.008 A 
HETATM   17  C5  UNL     1       3.322   0.389   0.837  1.00  0.00     0.036 A 
HETATM   18  C6  UNL     1       4.731   0.423   0.709  1.00  0.00     0.018 A 
HETATM   19 BR1  UNL     1       5.808   1.510   1.811  1.00  0.00    -0.051 Br
HETATM   20  C7  UNL     1       5.207  -0.402  -0.278  1.00  0.00     0.069 A 
HETATM   21  S1  UNL     1       3.931  -1.232  -1.060  1.00  0.00    -0.103 SA
ENDBRANCH  15  16
ENDBRANCH  14  15
ENDBRANCH   4  14
BRANCH   1  22
HETATM   22  N1  UNL     1      -3.088  -2.365  -1.189  1.00  0.00    -0.274 NA
HETATM   23  H1  UNL     1      -4.032  -2.223  -1.521  1.00  0.00     0.127 HD
HETATM   24  H2  UNL     1      -2.396  -2.652  -1.867  1.00  0.00     0.127 HD
ENDBRANCH   1  22
TORSDOF 4
