REMARK  7 active torsions:
REMARK  status: ('A' for Active; 'I' for Inactive)
REMARK    1  A    between atoms: C2_2  and  C4_4 
REMARK    2  A    between atoms: C7_7  and  O1_9 
REMARK    3  A    between atoms: C9_10  and  C10_11 
REMARK    4  A    between atoms: C11_12  and  C12_13 
REMARK    5  A    between atoms: C14_15  and  C15_16 
REMARK    6  A    between atoms: C24_26  and  C26_28 
REMARK    7  A    between atoms: C29_32  and  O4_34 
ROOT
HETATM    1  C15 UNL     1      -0.506   0.963   1.323  1.00  0.00     0.149 C 
HETATM    2  C16 UNL     1      -1.548   1.423   0.297  1.00  0.00     0.054 C 
HETATM    3  C17 UNL     1      -2.750   0.454   0.437  1.00  0.00     0.050 C 
HETATM    4  C18 UNL     1      -2.522   0.010   1.905  1.00  0.00     0.272 C 
HETATM    5  O2  UNL     1      -2.949   0.957   2.882  1.00  0.00    -0.360 OA
HETATM    6  C19 UNL     1      -4.303   0.811   3.265  1.00  0.00     0.171 C 
HETATM    7  C20 UNL     1      -5.204   1.708   2.436  1.00  0.00     0.027 C 
HETATM    8  C21 UNL     1      -4.574   2.246   1.154  1.00  0.00     0.012 C 
HETATM    9  C22 UNL     1      -4.107   1.197   0.120  1.00  0.00     0.032 C 
HETATM   10  C23 UNL     1      -5.261   0.256  -0.293  1.00  0.00    -0.066 C 
HETATM   11  C24 UNL     1      -6.325   0.622  -1.053  1.00  0.00    -0.021 C 
HETATM   12  C25 UNL     1      -7.460  -0.291  -1.427  1.00  0.00     0.052 C 
HETATM   13  C27 UNL     1      -5.088  -1.166   0.183  1.00  0.00     0.038 C 
HETATM   14  C28 UNL     1      -3.786  -1.789  -0.313  1.00  0.00     0.042 C 
HETATM   15  C29 UNL     1      -2.631  -0.785  -0.551  1.00  0.00     0.067 C 
HETATM   16  C30 UNL     1      -2.595  -0.388  -2.045  1.00  0.00     0.047 C 
HETATM   17  O5  UNL     1      -1.101  -0.101   2.068  1.00  0.00    -0.351 OA
ENDROOT
BRANCH   1  18
HETATM   18  C14 UNL     1       0.777   0.470   0.716  1.00  0.00     0.011 C 
HETATM   19  C12 UNL     1       2.030   0.581   1.208  1.00  0.00    -0.064 C 
HETATM   20  C13 UNL     1       2.347   1.210   2.541  1.00  0.00     0.048 C 
BRANCH  19  21
HETATM   21  C11 UNL     1       3.135   0.030   0.425  1.00  0.00     0.003 C 
HETATM   22  C10 UNL     1       4.425  -0.033   0.797  1.00  0.00    -0.018 C 
BRANCH  22  23
HETATM   23  C9  UNL     1       5.572  -0.627   0.003  1.00  0.00     0.050 C 
HETATM   24  C4  UNL     1       5.516  -0.541  -1.556  1.00  0.00     0.024 C 
HETATM   25  C5  UNL     1       6.420  -1.709  -1.984  1.00  0.00     0.013 C 
HETATM   26  C6  UNL     1       6.014  -2.829  -1.040  1.00  0.00     0.039 C 
HETATM   27  C7  UNL     1       5.864  -2.136   0.323  1.00  0.00     0.062 C 
HETATM   28  C8  UNL     1       4.836  -2.873   1.181  1.00  0.00     0.046 C 
BRANCH  24  29
HETATM   29  C2  UNL     1       5.886   0.821  -2.145  1.00  0.00    -0.088 C 
HETATM   30  C1  UNL     1       6.936   1.044  -2.957  1.00  0.00     0.014 C 
HETATM   31  C3  UNL     1       4.961   1.966  -1.814  1.00  0.00     0.043 C 
ENDBRANCH  24  29
BRANCH  27  32
HETATM   32  O1  UNL     1       7.111  -2.230   1.029  1.00  0.00    -0.390 OA
HETATM   33  H14 UNL     1       7.811  -1.852   0.470  1.00  0.00     0.210 HD
ENDBRANCH  27  32
ENDBRANCH  22  23
ENDBRANCH  19  21
ENDBRANCH   1  18
BRANCH  15  34
HETATM   34  O4  UNL     1      -1.416  -1.509  -0.338  1.00  0.00    -0.389 OA
HETATM   35  H44 UNL     1      -1.414  -2.300  -0.904  1.00  0.00     0.210 HD
ENDBRANCH  15  34
BRANCH  11  36
HETATM   36  C26 UNL     1      -6.486   2.004  -1.603  1.00  0.00     0.265 C 
HETATM   37  O3  UNL     1      -5.577   2.654  -2.100  1.00  0.00    -0.302 OA
ENDBRANCH  11  36
TORSDOF 7
