REMARK  10 active torsions:
REMARK  status: ('A' for Active; 'I' for Inactive)
REMARK    1  A    between atoms: C2_2  and  O1_3 
REMARK    2  A    between atoms: O1_3  and  C3_4 
REMARK    3  A    between atoms: C3_4  and  C4_6 
REMARK    4  A    between atoms: C4_6  and  C5_7 
REMARK    5  A    between atoms: C5_7  and  C6_8 
REMARK    6  A    between atoms: C6_8  and  C8_10 
REMARK    7  A    between atoms: C13_15  and  O3_16 
REMARK    8  A    between atoms: C17_21  and  O4_22 
REMARK    9  A    between atoms: C24_29  and  O5_30 
REMARK   10  A    between atoms: O5_30  and  C25_31 
ROOT
HETATM    1  C8  UNL     1       1.594   0.235   1.541  1.00  0.00     0.000 C 
HETATM    2  C9  UNL     1       1.374   1.646   2.159  1.00  0.00     0.006 C 
HETATM    3  C10 UNL     1      -0.032   2.107   1.772  1.00  0.00     0.006 C 
HETATM    4  C11 UNL     1      -0.666   0.887   1.122  1.00  0.00     0.003 C 
HETATM    5  C12 UNL     1      -1.955   1.070   0.291  1.00  0.00     0.025 C 
HETATM    6  C13 UNL     1      -2.172   2.441  -0.386  1.00  0.00     0.137 C 
HETATM    7  C14 UNL     1      -3.139   2.322  -1.582  1.00  0.00     0.092 C 
HETATM    8 BR1  UNL     1      -3.796   4.079  -2.139  1.00  0.00    -0.088 Br
HETATM    9  C15 UNL     1      -4.279   1.302  -1.386  1.00  0.00     0.013 C 
HETATM   10  C16 UNL     1      -5.267   1.677  -0.264  1.00  0.00     0.038 C 
HETATM   11  C17 UNL     1      -6.438   0.695  -0.186  1.00  0.00     0.118 C 
HETATM   12  C18 UNL     1      -6.027  -0.770  -0.327  1.00  0.00     0.032 C 
HETATM   13  C19 UNL     1      -4.521  -0.969  -0.158  1.00  0.00     0.012 C 
HETATM   14  C20 UNL     1      -3.676  -0.153  -1.177  1.00  0.00    -0.035 C 
HETATM   15  C21 UNL     1      -3.725  -0.885  -2.546  1.00  0.00     0.016 C 
HETATM   16  C22 UNL     1      -2.161  -0.075  -0.732  1.00  0.00     0.003 C 
HETATM   17  C23 UNL     1      -1.540  -1.375  -0.205  1.00  0.00     0.039 C 
HETATM   18  C24 UNL     1      -0.002  -1.282   0.017  1.00  0.00     0.141 C 
HETATM   19  C27 UNL     1       0.500   0.152   0.411  1.00  0.00    -0.009 C 
HETATM   20  C28 UNL     1       0.991   0.911  -0.848  1.00  0.00     0.018 C 
ENDROOT
BRANCH   1  21
HETATM   21  C6  UNL     1       3.093  -0.001   1.172  1.00  0.00    -0.013 C 
HETATM   22  C7  UNL     1       3.981   0.173   2.418  1.00  0.00     0.010 C 
BRANCH  21  23
HETATM   23  C5  UNL     1       3.339  -1.388   0.533  1.00  0.00     0.014 C 
BRANCH  23  24
HETATM   24  C4  UNL     1       4.775  -1.659   0.074  1.00  0.00     0.111 C 
BRANCH  24  25
HETATM   25  C3  UNL     1       5.237  -0.699  -0.997  1.00  0.00     0.258 C 
HETATM   26  O2  UNL     1       4.520  -0.223  -1.866  1.00  0.00    -0.265 OA
BRANCH  25  27
HETATM   27  O1  UNL     1       6.572  -0.468  -0.867  1.00  0.00    -0.322 OA
BRANCH  27  28
HETATM   28  C2  UNL     1       7.114   0.419  -1.854  1.00  0.00     0.174 C 
HETATM   29  C1  UNL     1       8.582   0.633  -1.543  1.00  0.00     0.034 C 
ENDBRANCH  27  28
ENDBRANCH  25  27
ENDBRANCH  24  25
ENDBRANCH  23  24
ENDBRANCH  21  23
ENDBRANCH   1  21
BRANCH  18  30
HETATM   30  O5  UNL     1       0.321  -2.226   1.064  1.00  0.00    -0.316 OA
BRANCH  30  31
HETATM   31  C25 UNL     1       0.394  -3.537   0.704  1.00  0.00     0.255 C 
HETATM   32  C26 UNL     1       0.733  -4.379   1.896  1.00  0.00     0.126 C 
HETATM   33  O6  UNL     1       0.235  -3.976  -0.426  1.00  0.00    -0.266 OA
ENDBRANCH  30  31
ENDBRANCH  18  30
BRANCH   6  34
HETATM   34  O3  UNL     1      -2.665   3.331   0.618  1.00  0.00    -0.394 OA
HETATM   35  H22 UNL     1      -2.956   4.146   0.167  1.00  0.00     0.210 HD
ENDBRANCH   6  34
BRANCH  11  36
HETATM   36  O4  UNL     1      -7.114   0.884   1.056  1.00  0.00    -0.396 OA
HETATM   37  H28 UNL     1      -6.484   0.695   1.772  1.00  0.00     0.210 HD
ENDBRANCH  11  36
TORSDOF 10
