REMARK  5 active torsions:
REMARK  status: ('A' for Active; 'I' for Inactive)
REMARK    1  A    between atoms: C2_2  and  C3_3 
REMARK    2  A    between atoms: C6_6  and  C7_7 
REMARK    3  A    between atoms: C7_7  and  O1_8 
REMARK    4  A    between atoms: C7_7  and  C8_9 
REMARK    5  A    between atoms: C26_32  and  O6_33 
ROOT
HETATM    1  C3  UNL     1      -0.797   3.144   1.272  1.00  0.00     0.008 C 
HETATM    2  C4  UNL     1      -1.521   1.835   1.023  1.00  0.00    -0.023 C 
HETATM    3  C5  UNL     1      -1.665   1.193  -0.149  1.00  0.00     0.005 C 
HETATM    4  C6  UNL     1      -2.324  -0.161  -0.267  1.00  0.00     0.187 C 
HETATM    5  O2  UNL     1      -1.256  -1.140  -0.176  1.00  0.00    -0.308 OA
HETATM    6  C12 UNL     1      -1.086  -1.710   1.060  1.00  0.00     0.276 C 
HETATM    7  O3  UNL     1      -1.775  -1.460   2.043  1.00  0.00    -0.264 OA
HETATM    8  C13 UNL     1      -0.008  -2.829   1.019  1.00  0.00     0.095 C 
HETATM    9  C14 UNL     1       0.429  -3.198   2.457  1.00  0.00     0.036 C 
HETATM   10  C15 UNL     1      -0.822  -4.013   0.535  1.00  0.00     0.003 C 
HETATM   11  C16 UNL     1      -0.625  -4.924  -0.418  1.00  0.00     0.072 C 
HETATM   12  C17 UNL     1       0.502  -5.100  -1.330  1.00  0.00     0.245 C 
HETATM   13  O4  UNL     1       0.500  -6.076  -2.078  1.00  0.00    -0.268 OA
HETATM   14  N1  UNL     1       1.521  -4.223  -1.384  1.00  0.00    -0.320 N 
HETATM   15  C18 UNL     1       1.858  -3.040  -0.776  1.00  0.00     0.098 C 
HETATM   16  C19 UNL     1       1.226  -2.395   0.218  1.00  0.00     0.045 C 
HETATM   17  C20 UNL     1       1.795  -1.068   0.677  1.00  0.00     0.194 C 
HETATM   18  O5  UNL     1       1.259  -0.450   1.587  1.00  0.00    -0.287 OA
HETATM   19  C21 UNL     1       3.023  -0.508   0.080  1.00  0.00     0.046 A 
HETATM   20  C22 UNL     1       3.712  -1.266  -0.854  1.00  0.00     0.032 A 
HETATM   21  C23 UNL     1       4.960  -0.850  -1.349  1.00  0.00     0.026 A 
HETATM   22  C24 UNL     1       5.552   0.331  -0.893  1.00  0.00    -0.027 A 
HETATM   23  C25 UNL     1       6.905   0.749  -1.394  1.00  0.00     0.051 C 
HETATM   24  C26 UNL     1       4.851   1.110   0.029  1.00  0.00     0.086 A 
HETATM   25  C27 UNL     1       3.572   0.727   0.478  1.00  0.00     0.059 A 
HETATM   26  C28 UNL     1       2.851   1.735   1.290  1.00  0.00     0.163 C 
HETATM   27  O7  UNL     1       3.425   2.191   2.277  1.00  0.00    -0.292 OA
HETATM   28  C29 UNL     1       1.585   2.330   0.702  1.00  0.00     0.084 C 
HETATM   29  C30 UNL     1       0.632   2.846   1.783  1.00  0.00     0.016 C 
HETATM   30  C31 UNL     1       3.138  -2.513  -1.359  1.00  0.00     0.210 C 
HETATM   31  O8  UNL     1       3.701  -3.135  -2.258  1.00  0.00    -0.285 OA
HETATM   32  H24 UNL     1       2.195  -4.519  -2.097  1.00  0.00     0.169 HD
ENDROOT
BRANCH   4  33
HETATM   33  C7  UNL     1      -3.039  -0.381  -1.634  1.00  0.00     0.174 C 
BRANCH  33  34
HETATM   34  O1  UNL     1      -3.396  -1.761  -1.748  1.00  0.00    -0.389 OA
HETATM   35  H11 UNL     1      -2.564  -2.263  -1.698  1.00  0.00     0.210 HD
ENDBRANCH  33  34
BRANCH  33  36
HETATM   36  C8  UNL     1      -4.244   0.515  -1.822  1.00  0.00     0.009 C 
HETATM   37  C9  UNL     1      -5.523   0.224  -2.142  1.00  0.00    -0.089 C 
HETATM   38  C10 UNL     1      -6.558   1.315  -2.233  1.00  0.00     0.042 C 
HETATM   39  C11 UNL     1      -6.041  -1.157  -2.435  1.00  0.00     0.042 C 
ENDBRANCH  33  36
ENDBRANCH   4  33
BRANCH   1  40
HETATM   40  C2  UNL     1      -0.852   4.126   0.083  1.00  0.00     0.004 C 
HETATM   41  C1  UNL     1      -0.297   5.505   0.420  1.00  0.00     0.006 C 
ENDBRANCH   1  40
BRANCH  24  42
HETATM   42  O6  UNL     1       5.458   2.259   0.470  1.00  0.00    -0.359 OA
HETATM   43  H29 UNL     1       5.026   2.546   1.306  1.00  0.00     0.217 HD
ENDBRANCH  24  42
TORSDOF 5
