REMARK  14 active torsions:
REMARK  status: ('A' for Active; 'I' for Inactive)
REMARK    1  A    between atoms: C2_2  and  C3_3 
REMARK    2  A    between atoms: C6_6  and  C7_7 
REMARK    3  A    between atoms: C7_7  and  C8_8 
REMARK    4  A    between atoms: C14_17  and  C15_18 
REMARK    5  A    between atoms: C15_18  and  O3_20 
REMARK    6  A    between atoms: C19_24  and  C20_25 
REMARK    7  A    between atoms: C20_25  and  C21_26 
REMARK    8  A    between atoms: C22_27  and  C23_28 
REMARK    9  A    between atoms: C25_30  and  C26_31 
REMARK   10  A    between atoms: C27_33  and  C28_34 
REMARK   11  A    between atoms: C29_38  and  C30_39 
REMARK   12  A    between atoms: C30_39  and  C31_40 
REMARK   13  A    between atoms: C31_40  and  C32_41 
REMARK   14  A    between atoms: C32_41  and  O7_43 
ROOT
HETATM    1  C8  UNL     1       3.126  -0.800  -1.310  1.00  0.00     0.016 C 
HETATM    2  N1  UNL     1       2.393  -1.475  -0.485  1.00  0.00    -0.362 N 
ATOM      3  H1  UNL     1       2.653  -2.345  -0.020  1.00  0.00     0.165 HD
HETATM    4  C9  UNL     1       1.198  -0.804  -0.349  1.00  0.00     0.024 C 
HETATM    5  C10 UNL     1       0.144  -1.410   0.219  1.00  0.00     0.014 A 
HETATM    6  C11 UNL     1      -1.164  -0.908   0.375  1.00  0.00     0.056 A 
HETATM    7  C12 UNL     1      -2.004  -1.779   0.999  1.00  0.00     0.046 A 
HETATM    8  C13 UNL     1      -1.275  -2.993   1.322  1.00  0.00     0.180 A 
HETATM    9  O1  UNL     1      -1.744  -3.964   1.897  1.00  0.00    -0.291 OA
HETATM   10  C14 UNL     1       0.190  -2.841   0.834  1.00  0.00     0.197 A 
HETATM   11  C17 UNL     1      -3.268  -1.172   1.123  1.00  0.00    -0.023 A 
HETATM   12  C18 UNL     1      -4.459  -1.787   1.766  1.00  0.00     0.051 C 
HETATM   13  C19 UNL     1      -3.134   0.104   0.547  1.00  0.00     0.022 A 
HETATM   14  N3  UNL     1      -1.825   0.227   0.077  1.00  0.00    -0.357 N 
HETATM   15  C29 UNL     1       1.266   0.581  -0.956  1.00  0.00     0.046 C 
HETATM   16  C33 UNL     1       2.501   0.460  -1.864  1.00  0.00     0.041 C 
HETATM   17  C34 UNL     1       2.120   0.255  -3.326  1.00  0.00     0.017 C 
HETATM   18  H25 UNL     1      -1.460   1.045  -0.388  1.00  0.00     0.166 HD
ENDROOT
BRANCH  10  19
HETATM   19  C15 UNL     1       1.139  -2.908   2.001  1.00  0.00     0.274 C 
HETATM   20  O2  UNL     1       1.216  -2.084   2.905  1.00  0.00    -0.264 OA
BRANCH  19  21
HETATM   21  O3  UNL     1       1.884  -4.049   1.933  1.00  0.00    -0.326 OA
HETATM   22  C16 UNL     1       2.811  -4.199   3.009  1.00  0.00     0.213 C 
ENDBRANCH  19  21
ENDBRANCH  10  19
BRANCH  15  23
HETATM   23  C30 UNL     1       1.422   1.644   0.149  1.00  0.00     0.022 C 
BRANCH  23  24
HETATM   24  C31 UNL     1       1.300   3.073  -0.376  1.00  0.00     0.110 C 
BRANCH  24  25
HETATM   25  C32 UNL     1       2.601   3.817  -0.267  1.00  0.00     0.139 C 
HETATM   26  O6  UNL     1       3.517   3.790  -1.073  1.00  0.00    -0.650 OA
BRANCH  25  27
HETATM   27  O7  UNL     1       2.698   4.528   0.867  1.00  0.00    -0.776 OA
HETATM   28  H31 UNL     1       3.576   4.957   0.826  1.00  0.00     0.167 HD
ENDBRANCH  25  27
ENDBRANCH  24  25
ENDBRANCH  23  24
ENDBRANCH  15  23
BRANCH   1  29
HETATM   29  C7  UNL     1       4.437  -1.271  -1.796  1.00  0.00     0.055 C 
BRANCH  29  30
HETATM   30  C6  UNL     1       5.639  -0.911  -1.335  1.00  0.00     0.043 A 
HETATM   31  C4  UNL     1       6.082  -0.042  -0.260  1.00  0.00    -0.019 A 
HETATM   32  C3  UNL     1       7.432   0.063  -0.250  1.00  0.00     0.039 A 
HETATM   33  C5  UNL     1       5.133   0.594   0.695  1.00  0.00     0.052 C 
HETATM   34  C35 UNL     1       7.910  -0.816  -1.363  1.00  0.00     0.256 A 
HETATM   35  N4  UNL     1       6.782  -1.361  -1.923  1.00  0.00    -0.322 N 
HETATM   36  O8  UNL     1       9.052  -1.015  -1.729  1.00  0.00    -0.267 OA
HETATM   37  H36 UNL     1       6.840  -2.003  -2.699  1.00  0.00     0.169 HD
BRANCH  32  38
HETATM   38  C2  UNL     1       8.268   0.848   0.629  1.00  0.00     0.007 C 
HETATM   39  C1  UNL     1       9.603   0.926   0.595  1.00  0.00     0.012 C 
ENDBRANCH  32  38
ENDBRANCH  29  30
ENDBRANCH   1  29
BRANCH  13  40
HETATM   40  C20 UNL     1      -4.058   1.285   0.409  1.00  0.00     0.115 C 
BRANCH  40  41
HETATM   41  C21 UNL     1      -5.520   0.972   0.454  1.00  0.00     0.022 A 
HETATM   42  C22 UNL     1      -6.412   0.576  -0.533  1.00  0.00    -0.020 A 
HETATM   43  C25 UNL     1      -7.705   0.449   0.092  1.00  0.00     0.040 A 
HETATM   44  C27 UNL     1      -7.551   0.781   1.432  1.00  0.00     0.084 A 
HETATM   45  N2  UNL     1      -6.229   1.100   1.624  1.00  0.00    -0.356 N 
HETATM   46  H24 UNL     1      -5.845   1.376   2.522  1.00  0.00     0.166 HD
BRANCH  42  47
HETATM   47  C23 UNL     1      -6.083   0.331  -1.977  1.00  0.00     0.037 C 
HETATM   48  C24 UNL     1      -6.356   1.553  -2.844  1.00  0.00     0.010 C 
ENDBRANCH  42  47
BRANCH  43  49
HETATM   49  C26 UNL     1      -8.952   0.056  -0.549  1.00  0.00     0.273 C 
HETATM   50  O4  UNL     1     -10.028  -0.024   0.037  1.00  0.00    -0.301 OA
ENDBRANCH  43  49
BRANCH  44  51
HETATM   51  C28 UNL     1      -8.498   0.829   2.520  1.00  0.00     0.288 C 
HETATM   52  O5  UNL     1      -8.182   1.162   3.659  1.00  0.00    -0.300 OA
ENDBRANCH  44  51
ENDBRANCH  40  41
ENDBRANCH  13  40
TORSDOF 14
