REMARK  6 active torsions:
REMARK  status: ('A' for Active; 'I' for Inactive)
REMARK    1  A    between atoms: C2_2  and  O2_4 
REMARK    2  A    between atoms: O2_4  and  C3_5 
REMARK    3  A    between atoms: C13_15  and  C14_16 
REMARK    4  A    between atoms: C14_16  and  C16_18 
REMARK    5  A    between atoms: C17_19  and  C18_20 
REMARK    6  A    between atoms: C18_20  and  C20_22 
ROOT
HETATM    1  C3  UNL     1      -6.220  -0.834  -0.258  1.00  0.00     0.135 C 
HETATM    2  C4  UNL     1      -6.124   0.424   0.613  1.00  0.00     0.034 C 
HETATM    3  C5  UNL     1      -4.777   1.129   0.455  1.00  0.00     0.015 C 
HETATM    4  C6  UNL     1      -3.564   0.197   0.730  1.00  0.00     0.001 C 
HETATM    5  C7  UNL     1      -3.551  -0.146   2.243  1.00  0.00     0.019 C 
HETATM    6  C8  UNL     1      -2.229   0.912   0.258  1.00  0.00     0.039 C 
HETATM    7  C9  UNL     1      -1.384   1.576   1.370  1.00  0.00     0.010 C 
HETATM    8  C10 UNL     1      -0.066   2.181   0.849  1.00  0.00     0.010 C 
HETATM    9  C11 UNL     1       0.773   1.142   0.082  1.00  0.00    -0.033 C 
HETATM   10  C12 UNL     1       1.272   0.065   1.064  1.00  0.00     0.016 C 
HETATM   11  C13 UNL     1       1.928   1.749  -0.773  1.00  0.00     0.001 C 
HETATM   12  C23 UNL     1       2.181   0.669  -1.860  1.00  0.00     0.006 C 
HETATM   13  C24 UNL     1       0.876  -0.143  -1.978  1.00  0.00     0.009 C 
HETATM   14  C25 UNL     1      -0.105   0.599  -1.072  1.00  0.00     0.036 C 
HETATM   15  C26 UNL     1      -1.420  -0.071  -0.660  1.00  0.00     0.123 C 
HETATM   16  C27 UNL     1      -1.340  -1.470  -0.101  1.00  0.00     0.014 C 
HETATM   17  C28 UNL     1      -2.537  -2.026   0.132  1.00  0.00     0.014 C 
HETATM   18  C29 UNL     1      -3.698  -1.097  -0.146  1.00  0.00     0.124 C 
HETATM   19  C30 UNL     1      -5.052  -1.791   0.012  1.00  0.00     0.079 C 
HETATM   20  O3  UNL     1      -3.598  -0.678  -1.535  1.00  0.00    -0.223 OA
HETATM   21  O4  UNL     1      -2.214  -0.229  -1.870  1.00  0.00    -0.224 OA
ENDROOT
BRANCH  11  22
HETATM   22  C14 UNL     1       3.197   2.311  -0.075  1.00  0.00     0.008 C 
HETATM   23  C15 UNL     1       3.906   3.301  -1.018  1.00  0.00     0.014 C 
BRANCH  22  24
HETATM   24  C16 UNL     1       4.150   1.278   0.494  1.00  0.00    -0.026 C 
HETATM   25  C17 UNL     1       5.284   0.820  -0.065  1.00  0.00    -0.026 C 
BRANCH  25  26
HETATM   26  C18 UNL     1       6.183  -0.211   0.589  1.00  0.00     0.007 C 
HETATM   27  C19 UNL     1       7.577   0.391   0.786  1.00  0.00     0.014 C 
BRANCH  26  28
HETATM   28  C20 UNL     1       6.172  -1.551  -0.199  1.00  0.00    -0.015 C 
HETATM   29  C21 UNL     1       6.802  -1.468  -1.594  1.00  0.00     0.010 C 
HETATM   30  C22 UNL     1       6.848  -2.673   0.598  1.00  0.00     0.010 C 
ENDBRANCH  26  28
ENDBRANCH  25  26
ENDBRANCH  22  24
ENDBRANCH  11  22
BRANCH   1  31
HETATM   31  O2  UNL     1      -7.432  -1.553   0.049  1.00  0.00    -0.316 OA
BRANCH  31  32
HETATM   32  C2  UNL     1      -8.568  -1.100  -0.548  1.00  0.00     0.255 C 
HETATM   33  C1  UNL     1      -9.721  -1.986  -0.188  1.00  0.00     0.126 C 
HETATM   34  O1  UNL     1      -8.650  -0.133  -1.290  1.00  0.00    -0.266 OA
ENDBRANCH  31  32
ENDBRANCH   1  31
TORSDOF 6
