REMARK  9 active torsions:
REMARK  status: ('A' for Active; 'I' for Inactive)
REMARK    1  A    between atoms: C3_3  and  O1_4 
REMARK    2  A    between atoms: N1_14  and  O2_16 
REMARK    3  A    between atoms: O2_16  and  C13_17 
REMARK    4  A    between atoms: C13_17  and  C14_18 
REMARK       I    between atoms: C14_18  and  N2_20 
REMARK    5  A    between atoms: N2_20  and  C15_21 
REMARK    6  A    between atoms: C15_21  and  C16_22 
REMARK    7  A    between atoms: C15_21  and  C17_25 
REMARK    8  A    between atoms: C16_22  and  O5_24 
REMARK    9  A    between atoms: C17_25  and  C19_27 
ROOT
HETATM    1  C1  UNL     1      -8.828  -2.191   2.148  1.00  0.00     0.015 C 
HETATM    2  C2  UNL     1      -7.995  -2.038   1.297  1.00  0.00    -0.078 C 
HETATM    3  C3  UNL     1      -6.966  -1.880   0.258  1.00  0.00     0.128 C 
HETATM    4  C4  UNL     1      -7.560  -1.451  -1.106  1.00  0.00     0.052 C 
HETATM    5  C5  UNL     1      -6.500  -0.550  -1.777  1.00  0.00     0.010 C 
HETATM    6  C6  UNL     1      -5.283  -0.639  -0.860  1.00  0.00     0.002 C 
HETATM    7  C7  UNL     1      -4.212   0.457  -0.944  1.00  0.00    -0.004 C 
HETATM    8  C8  UNL     1      -3.644   0.577  -2.364  1.00  0.00     0.010 C 
HETATM    9  C9  UNL     1      -2.555   1.640  -2.435  1.00  0.00     0.035 C 
HETATM   10  C10 UNL     1      -1.454   1.390  -1.431  1.00  0.00    -0.069 C 
HETATM   11  C11 UNL     1      -0.172   1.390  -1.839  1.00  0.00     0.030 C 
HETATM   12  C12 UNL     1       0.959   1.270  -0.883  1.00  0.00     0.032 C 
HETATM   13  N1  UNL     1       2.165   1.208  -1.370  1.00  0.00    -0.271 N 
ATOM     14  H1  UNL     1       2.384   1.197  -2.366  1.00  0.00     0.194 HD
HETATM   15  C21 UNL     1       0.628   1.291   0.595  1.00  0.00     0.060 C 
HETATM   16  C22 UNL     1      -0.700   0.591   0.849  1.00  0.00     0.020 C 
HETATM   17  C23 UNL     1      -1.887   1.166   0.024  1.00  0.00    -0.016 C 
HETATM   18  C24 UNL     1      -2.299   2.529   0.623  1.00  0.00     0.020 C 
HETATM   19  C25 UNL     1      -3.068   0.122   0.064  1.00  0.00     0.002 C 
HETATM   20  C26 UNL     1      -3.618  -0.152   1.490  1.00  0.00     0.007 C 
HETATM   21  C27 UNL     1      -4.770  -1.173   1.515  1.00  0.00     0.014 C 
HETATM   22  C28 UNL     1      -5.903  -0.782   0.551  1.00  0.00     0.003 C 
HETATM   23  C29 UNL     1      -6.583   0.524   1.054  1.00  0.00     0.020 C 
ENDROOT
BRANCH   3  24
HETATM   24  O1  UNL     1      -6.325  -3.146   0.075  1.00  0.00    -0.377 OA
HETATM   25  H2  UNL     1      -7.032  -3.809  -0.019  1.00  0.00     0.211 HD
ENDBRANCH   3  24
BRANCH  13  26
HETATM   26  O2  UNL     1       3.125   1.159  -0.348  1.00  0.00    -0.271 OA
BRANCH  26  27
HETATM   27  C13 UNL     1       4.409   0.992  -0.927  1.00  0.00     0.303 C 
BRANCH  27  28
HETATM   28  C14 UNL     1       5.479   0.889   0.159  1.00  0.00     0.244 C 
HETATM   29  O3  UNL     1       5.302   1.206   1.331  1.00  0.00    -0.271 OA
HETATM   30  N2  UNL     1       6.686   0.385  -0.303  1.00  0.00    -0.344 N 
HETATM   31  H16 UNL     1       6.864   0.502  -1.294  1.00  0.00     0.163 HD
BRANCH  30  32
HETATM   32  C15 UNL     1       7.868   0.389   0.563  1.00  0.00     0.186 C 
BRANCH  32  33
HETATM   33  C16 UNL     1       8.619   1.702   0.318  1.00  0.00     0.163 C 
HETATM   34  O4  UNL     1       8.555   2.393  -0.690  1.00  0.00    -0.648 OA
BRANCH  33  35
HETATM   35  O5  UNL     1       9.439   2.046   1.332  1.00  0.00    -0.775 OA
HETATM   36  H18 UNL     1       9.826   2.902   1.050  1.00  0.00     0.167 HD
ENDBRANCH  33  35
ENDBRANCH  32  33
BRANCH  32  37
HETATM   37  C17 UNL     1       8.805  -0.820   0.330  1.00  0.00     0.014 C 
HETATM   38  C18 UNL     1       9.118  -1.078  -1.149  1.00  0.00     0.012 C 
BRANCH  37  39
HETATM   39  C19 UNL     1       8.317  -2.102   1.042  1.00  0.00     0.002 C 
HETATM   40  C20 UNL     1       6.983  -2.668   0.575  1.00  0.00     0.005 C 
ENDBRANCH  37  39
ENDBRANCH  32  37
ENDBRANCH  30  32
ENDBRANCH  27  28
ENDBRANCH  26  27
ENDBRANCH  13  26
TORSDOF 9
