REMARK  19 active torsions:
REMARK  status: ('A' for Active; 'I' for Inactive)
REMARK    1  A    between atoms: O1_2  and  C2_3 
REMARK    2  A    between atoms: C2_3  and  C3_4 
REMARK    3  A    between atoms: C2_3  and  C28_36 
REMARK    4  A    between atoms: C3_4  and  C4_5 
REMARK    5  A    between atoms: C4_5  and  C6_7 
REMARK    6  A    between atoms: C6_7  and  O2_8 
REMARK    7  A    between atoms: C6_7  and  C7_9 
REMARK    8  A    between atoms: C8_10  and  C9_11 
REMARK    9  A    between atoms: C10_12  and  C11_13 
REMARK   10  A    between atoms: C11_13  and  N1_14 
REMARK       I    between atoms: N1_14  and  C12_15 
REMARK   11  A    between atoms: C12_15  and  C13_17 
REMARK   12  A    between atoms: C13_17  and  C16_20 
REMARK   13  A    between atoms: C16_20  and  O4_21 
REMARK   14  A    between atoms: C16_20  and  C17_22 
REMARK   15  A    between atoms: C19_24  and  C20_25 
REMARK   16  A    between atoms: C21_26  and  C22_27 
REMARK   17  A    between atoms: C23_28  and  C24_29 
REMARK   18  A    between atoms: C26_31  and  N2_33 
REMARK   19  A    between atoms: C28_36  and  O7_37 
ROOT
HETATM    1  C9  UNL     1       1.556  -1.210   2.993  1.00  0.00    -0.003 C 
HETATM    2  C10 UNL     1       2.382  -1.628   3.966  1.00  0.00    -0.007 C 
ENDROOT
BRANCH   1   3
HETATM    3  C8  UNL     1       0.135  -1.043   3.216  1.00  0.00    -0.002 C 
HETATM    4  C7  UNL     1      -0.704  -0.563   2.286  1.00  0.00     0.005 C 
BRANCH   4   5
HETATM    5  C6  UNL     1      -2.193  -0.355   2.457  1.00  0.00     0.144 C 
BRANCH   5   6
HETATM    6  C4  UNL     1      -3.036  -1.502   1.862  1.00  0.00     0.016 C 
HETATM    7  C5  UNL     1      -2.789  -1.662   0.358  1.00  0.00     0.013 C 
BRANCH   6   8
HETATM    8  C3  UNL     1      -4.551  -1.463   2.224  1.00  0.00     0.042 C 
BRANCH   8   9
HETATM    9  C2  UNL     1      -5.310  -0.111   2.145  1.00  0.00     0.159 C 
BRANCH   9  10
HETATM   10  O1  UNL     1      -6.256   0.022   3.216  1.00  0.00    -0.388 OA
HETATM   11  C1  UNL     1      -5.670   0.396   4.457  1.00  0.00     0.202 C 
ENDBRANCH   9  10
BRANCH   9  12
HETATM   12  C28 UNL     1      -6.091   0.165   0.810  1.00  0.00     0.133 C 
HETATM   13  C29 UNL     1      -6.561   1.668   0.803  1.00  0.00     0.114 C 
HETATM   14  C30 UNL     1      -6.639   2.344  -0.563  1.00  0.00     0.023 C 
HETATM   15  C31 UNL     1      -7.954   1.617   1.376  1.00  0.00     0.227 C 
HETATM   16  O8  UNL     1      -8.535   2.560   1.886  1.00  0.00    -0.273 OA
HETATM   17  N3  UNL     1      -8.463   0.353   1.146  1.00  0.00    -0.332 N 
HETATM   18  C32 UNL     1      -9.678  -0.060   1.813  1.00  0.00     0.154 C 
HETATM   19  C33 UNL     1      -7.420  -0.633   0.692  1.00  0.00     0.183 C 
HETATM   20  C34 UNL     1      -7.524  -2.077   1.310  1.00  0.00     0.294 C 
HETATM   21  C35 UNL     1      -7.868  -1.412  -0.600  1.00  0.00     0.169 C 
HETATM   22  O9  UNL     1      -7.498  -2.620   2.389  1.00  0.00    -0.262 OA
HETATM   23  O10 UNL     1      -7.767  -2.676   0.110  1.00  0.00    -0.311 OA
HETATM   24  C36 UNL     1      -7.093  -1.502  -1.902  1.00  0.00     0.043 C 
BRANCH  12  25
HETATM   25  O7  UNL     1      -5.198  -0.090  -0.274  1.00  0.00    -0.383 OA
HETATM   26  H42 UNL     1      -5.504   0.342  -1.089  1.00  0.00     0.210 HD
ENDBRANCH  12  25
ENDBRANCH   9  12
ENDBRANCH   8   9
ENDBRANCH   6   8
ENDBRANCH   5   6
BRANCH   5  27
HETATM   27  O2  UNL     1      -2.512  -0.201   3.837  1.00  0.00    -0.391 OA
HETATM   28  H12 UNL     1      -1.843   0.401   4.216  1.00  0.00     0.210 HD
ENDBRANCH   5  27
ENDBRANCH   4   5
ENDBRANCH   1   3
BRANCH   2  29
HETATM   29  C11 UNL     1       3.865  -1.846   3.946  1.00  0.00     0.149 C 
BRANCH  29  30
HETATM   30  N1  UNL     1       4.469  -1.600   2.662  1.00  0.00    -0.357 N 
HETATM   31  C12 UNL     1       5.810  -1.882   2.483  1.00  0.00     0.228 C 
HETATM   32  O3  UNL     1       6.462  -2.433   3.372  1.00  0.00    -0.273 OA
HETATM   33  H19 UNL     1       4.023  -0.974   2.014  1.00  0.00     0.162 HD
BRANCH  31  34
HETATM   34  C13 UNL     1       6.418  -1.501   1.115  1.00  0.00     0.063 C 
HETATM   35  C14 UNL     1       5.525  -2.054  -0.015  1.00  0.00     0.028 C 
HETATM   36  C15 UNL     1       7.780  -2.237   1.000  1.00  0.00     0.028 C 
BRANCH  34  37
HETATM   37  C16 UNL     1       6.687   0.028   0.959  1.00  0.00     0.164 C 
BRANCH  37  38
HETATM   38  O4  UNL     1       7.525   0.505   2.014  1.00  0.00    -0.390 OA
HETATM   39  H27 UNL     1       7.769   1.419   1.796  1.00  0.00     0.210 HD
ENDBRANCH  37  38
BRANCH  37  40
HETATM   40  C17 UNL     1       5.506   0.982   0.822  1.00  0.00    -0.054 C 
HETATM   41  C18 UNL     1       4.960   1.587   2.098  1.00  0.00     0.046 C 
HETATM   42  C19 UNL     1       4.994   1.419  -0.353  1.00  0.00     0.005 C 
BRANCH  42  43
HETATM   43  C20 UNL     1       5.450   1.085  -1.689  1.00  0.00     0.000 C 
HETATM   44  C21 UNL     1       4.957   1.666  -2.796  1.00  0.00     0.000 C 
BRANCH  44  45
HETATM   45  C22 UNL     1       5.457   1.360  -4.125  1.00  0.00     0.001 C 
HETATM   46  C23 UNL     1       5.005   1.981  -5.231  1.00  0.00     0.009 C 
BRANCH  46  47
HETATM   47  C24 UNL     1       5.481   1.777  -6.609  1.00  0.00    -0.034 C 
HETATM   48  C25 UNL     1       6.626   0.788  -6.773  1.00  0.00     0.050 C 
HETATM   49  C26 UNL     1       4.907   2.441  -7.641  1.00  0.00     0.082 C 
HETATM   50  C27 UNL     1       3.777   3.417  -7.698  1.00  0.00     0.075 C 
BRANCH  49  51
HETATM   51  N2  UNL     1       5.446   2.214  -8.968  1.00  0.00    -0.120 N 
HETATM   52  O5  UNL     1       4.777   1.497  -9.724  1.00  0.00    -0.532 OA
HETATM   53  O6  UNL     1       6.514   2.774  -9.247  1.00  0.00    -0.532 OA
ENDBRANCH  49  51
ENDBRANCH  46  47
ENDBRANCH  44  45
ENDBRANCH  42  43
ENDBRANCH  37  40
ENDBRANCH  34  37
ENDBRANCH  31  34
ENDBRANCH  29  30
ENDBRANCH   2  29
TORSDOF 19
