REMARK  7 active torsions:
REMARK  status: ('A' for Active; 'I' for Inactive)
REMARK    1  A    between atoms: C2_2  and  C3_3 
REMARK    2  A    between atoms: C5_5  and  N1_6 
REMARK    3  A    between atoms: C5_5  and  C35_45 
REMARK       I    between atoms: N1_6  and  C6_7 
REMARK    4  A    between atoms: C6_7  and  C7_9 
REMARK    5  A    between atoms: C12_16  and  C13_17 
REMARK       I    between atoms: C35_45  and  N5_47 
REMARK    6  A    between atoms: N5_47  and  S1_48 
REMARK    7  A    between atoms: S1_48  and  C36_51 
ROOT
HETATM    1  C7  UNL     1       1.603  -0.449  -2.752  1.00  0.00     0.181 C 
HETATM    2  C8  UNL     1       0.756   0.219  -3.837  1.00  0.00     0.069 C 
HETATM    3  C9  UNL     1       0.360   1.572  -3.245  1.00  0.00     0.154 C 
HETATM    4  C10 UNL     1       0.792   1.538  -1.773  1.00  0.00     0.159 C 
HETATM    5  N2  UNL     1       1.134   0.128  -1.490  1.00  0.00    -0.334 N 
HETATM    6  C11 UNL     1       0.562  -0.471  -0.387  1.00  0.00     0.244 C 
HETATM    7  O2  UNL     1      -0.136   0.279   0.330  1.00  0.00    -0.271 OA
HETATM    8  C12 UNL     1       0.847  -1.940   0.180  1.00  0.00     0.186 C 
HETATM    9  N3  UNL     1      -0.336  -2.216   1.023  1.00  0.00    -0.323 N 
HETATM   10  C17 UNL     1      -0.539  -1.742   2.277  1.00  0.00     0.361 C 
HETATM   11  O3  UNL     1       0.281  -1.197   2.995  1.00  0.00    -0.239 OA
HETATM   12  O4  UNL     1      -1.845  -1.964   2.552  1.00  0.00    -0.303 OA
HETATM   13  C18 UNL     1      -2.538  -1.149   3.511  1.00  0.00     0.189 C 
HETATM   14  C19 UNL     1      -3.682  -0.403   2.741  1.00  0.00    -0.025 C 
HETATM   15  C20 UNL     1      -4.446  -1.441   1.881  1.00  0.00     0.017 C 
HETATM   16  C21 UNL     1      -2.990   0.621   1.826  1.00  0.00     0.017 C 
HETATM   17  C22 UNL     1      -4.645   0.310   3.731  1.00  0.00     0.011 C 
HETATM   18  C23 UNL     1      -5.992   0.858   3.200  1.00  0.00     0.001 C 
HETATM   19  C24 UNL     1      -5.936   2.068   2.248  1.00  0.00     0.005 C 
HETATM   20  C25 UNL     1      -6.267   1.736   0.772  1.00  0.00     0.039 C 
HETATM   21  C26 UNL     1      -5.853   2.826  -0.195  1.00  0.00    -0.050 A 
HETATM   22  C27 UNL     1      -6.428   4.102  -0.091  1.00  0.00     0.007 A 
HETATM   23  C28 UNL     1      -6.022   5.166  -0.912  1.00  0.00     0.001 A 
HETATM   24  C29 UNL     1      -5.015   4.982  -1.861  1.00  0.00     0.009 A 
HETATM   25  C30 UNL     1      -4.454   3.722  -1.987  1.00  0.00    -0.032 A 
HETATM   26  C31 UNL     1      -4.886   2.647  -1.191  1.00  0.00    -0.026 A 
HETATM   27  C32 UNL     1      -4.145   1.410  -1.612  1.00  0.00     0.168 C 
HETATM   28  N4  UNL     1      -3.120   1.902  -2.521  1.00  0.00    -0.320 N 
HETATM   29  C33 UNL     1      -3.324   3.297  -2.876  1.00  0.00     0.167 C 
HETATM   30  C34 UNL     1      -1.969   1.190  -2.747  1.00  0.00     0.363 C 
HETATM   31  O5  UNL     1      -1.798   0.038  -2.366  1.00  0.00    -0.238 OA
HETATM   32  O6  UNL     1      -1.027   1.933  -3.394  1.00  0.00    -0.297 OA
HETATM   33  H24 UNL     1      -1.215  -2.371   0.556  1.00  0.00     0.165 HD
ENDROOT
BRANCH   1  34
HETATM   34  C6  UNL     1       3.113  -0.180  -2.937  1.00  0.00     0.241 C 
HETATM   35  N1  UNL     1       3.795  -0.119  -1.742  1.00  0.00    -0.341 N 
HETATM   36  H7  UNL     1       3.198   0.013  -0.932  1.00  0.00     0.163 HD
HETATM   37  O1  UNL     1       3.641  -0.152  -4.041  1.00  0.00    -0.271 OA
BRANCH  35  38
HETATM   38  C5  UNL     1       5.223   0.035  -1.525  1.00  0.00     0.122 A 
HETATM   39  C3  UNL     1       6.195  -0.710  -2.442  1.00  0.00     0.048 A 
HETATM   40  C4  UNL     1       6.099   0.790  -2.508  1.00  0.00     0.053 A 
BRANCH  39  41
HETATM   41  C2  UNL     1       7.408  -1.337  -1.907  1.00  0.00    -0.029 C 
HETATM   42  C1  UNL     1       7.525  -2.624  -1.566  1.00  0.00     0.007 C 
ENDBRANCH  39  41
BRANCH  38  43
HETATM   43  C35 UNL     1       5.587   0.179  -0.059  1.00  0.00     0.260 C 
HETATM   44  O7  UNL     1       6.006   1.237   0.391  1.00  0.00    -0.270 OA
HETATM   45  N5  UNL     1       5.319  -0.966   0.691  1.00  0.00    -0.252 N 
HETATM   46  H48 UNL     1       5.184  -1.847   0.203  1.00  0.00     0.181 HD
BRANCH  45  47
HETATM   47  S1  UNL     1       5.678  -1.171   2.294  1.00  0.00     0.237 S 
HETATM   48  O8  UNL     1       7.020  -0.696   2.534  1.00  0.00    -0.205 OA
HETATM   49  O9  UNL     1       5.320  -2.550   2.563  1.00  0.00    -0.205 OA
BRANCH  47  50
HETATM   50  C36 UNL     1       4.498  -0.166   3.234  1.00  0.00     0.130 A 
HETATM   51  C37 UNL     1       5.019   0.343   4.551  1.00  0.00     0.023 A 
HETATM   52  C38 UNL     1       4.868   1.283   3.385  1.00  0.00     0.023 A 
ENDBRANCH  47  50
ENDBRANCH  45  47
ENDBRANCH  38  43
ENDBRANCH  35  38
ENDBRANCH   1  34
BRANCH   8  53
HETATM   53  C13 UNL     1       1.120  -3.249  -0.633  1.00  0.00    -0.022 C 
HETATM   54  C14 UNL     1       2.558  -3.311  -1.176  1.00  0.00     0.017 C 
HETATM   55  C15 UNL     1       0.060  -3.515  -1.715  1.00  0.00     0.017 C 
HETATM   56  C16 UNL     1       1.067  -4.484   0.335  1.00  0.00     0.017 C 
ENDBRANCH   8  53
TORSDOF 7
