REMARK  14 active torsions:
REMARK  status: ('A' for Active; 'I' for Inactive)
REMARK    1  A    between atoms: C2_2  and  C3_3 
REMARK    2  A    between atoms: C3_3  and  N1_4 
REMARK    3  A    between atoms: N1_4  and  C4_5 
REMARK    4  A    between atoms: C4_5  and  C5_6 
REMARK    5  A    between atoms: C5_6  and  C6_7 
REMARK    6  A    between atoms: C15_17  and  O2_18 
REMARK    7  A    between atoms: C20_23  and  O3_24 
REMARK    8  A    between atoms: C22_26  and  C23_27 
REMARK    9  A    between atoms: C23_27  and  C25_29 
REMARK   10  A    between atoms: C25_29  and  C26_30 
REMARK   11  A    between atoms: C26_30  and  O4_31 
REMARK   12  A    between atoms: C26_30  and  C27_32 
REMARK   13  A    between atoms: C28_33  and  C30_35 
REMARK   14  A    between atoms: C30_35  and  O6_37 
ROOT
HETATM    1  C6  UNL     1       4.149  -1.172  -1.217  1.00  0.00     0.023 C 
HETATM    2  C7  UNL     1       4.691  -0.075  -2.165  1.00  0.00     0.024 C 
HETATM    3  C8  UNL     1       4.050  -2.410  -2.130  1.00  0.00     0.135 C 
HETATM    4  O1  UNL     1       4.907  -3.297  -2.131  1.00  0.00    -0.297 OA
HETATM    5  C9  UNL     1       2.907  -2.483  -3.117  1.00  0.00     0.080 C 
HETATM    6  C10 UNL     1       1.691  -1.678  -2.683  1.00  0.00     0.022 C 
HETATM    7  C11 UNL     1       1.507  -1.635  -1.148  1.00  0.00    -0.008 C 
HETATM    8  C12 UNL     1       1.520  -3.064  -0.526  1.00  0.00     0.021 C 
HETATM    9  C13 UNL     1       0.146  -0.986  -0.779  1.00  0.00     0.002 C 
HETATM   10  C14 UNL     1       0.009   0.186  -0.106  1.00  0.00    -0.029 C 
HETATM   11  C15 UNL     1       1.213   1.005   0.280  1.00  0.00     0.149 C 
HETATM   12  C16 UNL     1       2.460   0.661  -0.523  1.00  0.00     0.043 C 
HETATM   13  C17 UNL     1       2.742  -0.849  -0.548  1.00  0.00     0.017 C 
HETATM   14  C18 UNL     1      -1.378   0.696   0.316  1.00  0.00     0.017 C 
HETATM   15  C19 UNL     1      -1.926   1.483  -0.919  1.00  0.00     0.023 C 
HETATM   16  C20 UNL     1      -1.514   1.588   1.585  1.00  0.00     0.132 C 
HETATM   17  C21 UNL     1      -2.975   1.409   2.047  1.00  0.00     0.038 C 
HETATM   18  C22 UNL     1      -3.547   0.184   1.280  1.00  0.00     0.001 C 
HETATM   19  C31 UNL     1      -2.261  -0.537   0.765  1.00  0.00    -0.019 C 
HETATM   20  C32 UNL     1      -1.604  -1.371   1.906  1.00  0.00     0.017 C 
HETATM   21  C33 UNL     1      -2.438  -1.450  -0.446  1.00  0.00     0.094 C 
HETATM   22  C34 UNL     1      -1.114  -1.769  -1.129  1.00  0.00     0.157 C 
HETATM   23  O7  UNL     1      -1.078  -2.668  -1.969  1.00  0.00    -0.293 OA
ENDROOT
BRANCH  18  24
HETATM   24  C23 UNL     1      -4.711  -0.518   2.041  1.00  0.00    -0.011 C 
HETATM   25  C24 UNL     1      -4.338  -1.180   3.376  1.00  0.00     0.010 C 
BRANCH  24  26
HETATM   26  C25 UNL     1      -5.531  -1.529   1.202  1.00  0.00     0.040 C 
BRANCH  26  27
HETATM   27  C26 UNL     1      -6.595  -0.919   0.271  1.00  0.00     0.142 C 
BRANCH  27  28
HETATM   28  O4  UNL     1      -7.418  -1.992  -0.188  1.00  0.00    -0.392 OA
HETATM   29  H43 UNL     1      -8.074  -1.613  -0.797  1.00  0.00     0.210 HD
ENDBRANCH  27  28
BRANCH  27  30
HETATM   30  C27 UNL     1      -6.050  -0.258  -0.957  1.00  0.00     0.018 C 
HETATM   31  C28 UNL     1      -6.174   1.033  -1.330  1.00  0.00     0.010 C 
HETATM   32  C29 UNL     1      -6.881   2.116  -0.573  1.00  0.00     0.055 C 
BRANCH  31  33
HETATM   33  C30 UNL     1      -5.498   1.415  -2.595  1.00  0.00     0.171 C 
HETATM   34  O5  UNL     1      -4.662   0.766  -3.198  1.00  0.00    -0.646 OA
BRANCH  33  35
HETATM   35  O6  UNL     1      -5.905   2.611  -3.047  1.00  0.00    -0.773 OA
HETATM   36  H48 UNL     1      -5.390   2.735  -3.872  1.00  0.00     0.167 HD
ENDBRANCH  33  35
ENDBRANCH  31  33
ENDBRANCH  27  30
ENDBRANCH  26  27
ENDBRANCH  24  26
ENDBRANCH  18  24
BRANCH  16  37
HETATM   37  O3  UNL     1      -1.266   2.967   1.363  1.00  0.00    -0.394 OA
HETATM   38  H32 UNL     1      -0.365   3.022   0.979  1.00  0.00     0.210 HD
ENDBRANCH  16  37
BRANCH  11  39
HETATM   39  O2  UNL     1       0.945   2.392   0.089  1.00  0.00    -0.391 OA
HETATM   40  H24 UNL     1       1.016   2.578  -0.866  1.00  0.00     0.210 HD
ENDBRANCH  11  39
BRANCH   1  41
HETATM   41  C5  UNL     1       5.208  -1.502  -0.108  1.00  0.00     0.047 C 
BRANCH  41  42
HETATM   42  C4  UNL     1       5.463  -0.475   1.004  1.00  0.00     0.270 C 
BRANCH  42  43
HETATM   43  N1  UNL     1       6.083   0.744   0.496  1.00  0.00     0.083 N 
HETATM   44  H8  UNL     1       6.970   0.508   0.051  1.00  0.00     0.315 HD
BRANCH  43  45
HETATM   45  C3  UNL     1       6.315   1.716   1.565  1.00  0.00     0.269 C 
BRANCH  45  46
HETATM   46  C2  UNL     1       6.879   3.029   1.013  1.00  0.00     0.025 C 
HETATM   47  C1  UNL     1       8.267   2.893   0.405  1.00  0.00     0.007 C 
ENDBRANCH  45  46
ENDBRANCH  43  45
ENDBRANCH  42  43
ENDBRANCH  41  42
ENDBRANCH   1  41
TORSDOF 14
