REMARK  10 active torsions:
REMARK  status: ('A' for Active; 'I' for Inactive)
REMARK    1  A    between atoms: C19_21  and  O3_22 
REMARK    2  A    between atoms: C19_21  and  C20_23 
REMARK    3  A    between atoms: C20_23  and  C21_25 
REMARK    4  A    between atoms: C21_25  and  O5_26 
REMARK    5  A    between atoms: O5_26  and  C22_27 
REMARK    6  A    between atoms: C22_27  and  C23_29 
REMARK    7  A    between atoms: C23_29  and  C24_30 
REMARK    8  A    between atoms: C24_30  and  C25_31 
REMARK       I    between atoms: C25_31  and  N1_33 
REMARK    9  A    between atoms: N1_33  and  C26_34 
REMARK   10  A    between atoms: C26_34  and  C27_35 
ROOT
HETATM    1  C1  UNL     1      -7.521   1.074  -1.157  1.00  0.00     0.021 C 
HETATM    2  C2  UNL     1      -6.295   0.375  -0.503  1.00  0.00    -0.009 C 
HETATM    3  C3  UNL     1      -6.028  -0.953  -1.265  1.00  0.00     0.022 C 
HETATM    4  C4  UNL     1      -7.151  -1.983  -1.130  1.00  0.00     0.084 C 
HETATM    5  C5  UNL     1      -7.573  -2.187   0.301  1.00  0.00     0.149 C 
HETATM    6  O1  UNL     1      -8.191  -3.186   0.664  1.00  0.00    -0.293 OA
HETATM    7  C6  UNL     1      -7.266  -1.131   1.291  1.00  0.00     0.053 C 
HETATM    8  C7  UNL     1      -6.688   0.030   0.934  1.00  0.00    -0.067 C 
HETATM    9  C8  UNL     1      -6.314   1.036   1.985  1.00  0.00     0.035 C 
HETATM   10  C9  UNL     1      -4.795   1.070   2.045  1.00  0.00     0.010 C 
HETATM   11  C10 UNL     1      -4.164   1.521   0.715  1.00  0.00     0.003 C 
HETATM   12  C11 UNL     1      -5.094   1.408  -0.533  1.00  0.00     0.072 C 
HETATM   13  C12 UNL     1      -4.269   1.455  -1.818  1.00  0.00     0.133 C 
HETATM   14  O2  UNL     1      -4.701   1.088  -2.908  1.00  0.00    -0.297 OA
HETATM   15  C13 UNL     1      -2.936   2.162  -1.734  1.00  0.00     0.091 C 
HETATM   16  C14 UNL     1      -1.961   1.579  -0.674  1.00  0.00     0.005 C 
HETATM   17  C15 UNL     1      -1.081   2.771  -0.234  1.00  0.00     0.019 C 
HETATM   18  C16 UNL     1      -2.733   0.963   0.537  1.00  0.00     0.002 C 
HETATM   19  C17 UNL     1      -2.666  -0.566   0.355  1.00  0.00     0.009 C 
HETATM   20  C18 UNL     1      -2.042  -0.816  -1.012  1.00  0.00     0.047 C 
HETATM   21  C19 UNL     1      -1.107   0.378  -1.214  1.00  0.00     0.128 C 
ENDROOT
BRANCH  21  22
HETATM   22  O3  UNL     1      -0.817   0.521  -2.597  1.00  0.00    -0.381 OA
HETATM   23  H25 UNL     1      -0.389   1.384  -2.743  1.00  0.00     0.211 HD
ENDBRANCH  21  22
BRANCH  21  24
HETATM   24  C20 UNL     1       0.211   0.062  -0.442  1.00  0.00     0.185 C 
HETATM   25  O4  UNL     1       0.344   0.312   0.758  1.00  0.00    -0.292 OA
BRANCH  24  26
HETATM   26  C21 UNL     1       1.313  -0.629  -1.244  1.00  0.00     0.260 C 
BRANCH  26  27
HETATM   27  O5  UNL     1       2.370  -1.038  -0.373  1.00  0.00    -0.314 OA
BRANCH  27  28
HETATM   28  C22 UNL     1       3.566  -1.249  -0.984  1.00  0.00     0.259 C 
HETATM   29  O6  UNL     1       3.768  -1.142  -2.185  1.00  0.00    -0.265 OA
BRANCH  28  30
HETATM   30  C23 UNL     1       4.599  -1.640   0.040  1.00  0.00     0.120 C 
BRANCH  30  31
HETATM   31  C24 UNL     1       5.990  -1.695  -0.580  1.00  0.00     0.112 C 
BRANCH  31  32
HETATM   32  C25 UNL     1       7.049  -1.984   0.460  1.00  0.00     0.218 C 
HETATM   33  O7  UNL     1       6.795  -2.202   1.639  1.00  0.00    -0.274 OA
HETATM   34  N1  UNL     1       8.324  -1.980  -0.057  1.00  0.00    -0.357 N 
HETATM   35  H32 UNL     1       8.465  -1.655  -1.005  1.00  0.00     0.162 HD
BRANCH  34  36
HETATM   36  C26 UNL     1       9.490  -2.123   0.787  1.00  0.00     0.162 C 
BRANCH  36  37
HETATM   37  C27 UNL     1      10.082  -0.787   1.125  1.00  0.00    -0.025 A 
HETATM   38  C28 UNL     1       9.492   0.055   2.072  1.00  0.00     0.011 A 
HETATM   39  C29 UNL     1      10.060   1.294   2.348  1.00  0.00     0.018 A 
HETATM   40  C30 UNL     1      11.207   1.655   1.663  1.00  0.00     0.087 A 
HETATM   41  N2  UNL     1      11.806   0.874   0.739  1.00  0.00    -0.375 N 
HETATM   42  C31 UNL     1      11.231  -0.325   0.491  1.00  0.00     0.096 A 
ATOM     43  H2  UNL     1      12.651   1.173   0.252  1.00  0.00     0.164 HD
ENDBRANCH  36  37
ENDBRANCH  34  36
ENDBRANCH  31  32
ENDBRANCH  30  31
ENDBRANCH  28  30
ENDBRANCH  27  28
ENDBRANCH  26  27
ENDBRANCH  24  26
ENDBRANCH  21  24
TORSDOF 10
