REMARK  13 active torsions:
REMARK  status: ('A' for Active; 'I' for Inactive)
REMARK    1  A    between atoms: C2_2  and  C3_3 
REMARK    2  A    between atoms: C2_2  and  C9_9 
REMARK    3  A    between atoms: C3_3  and  C4_4 
REMARK    4  A    between atoms: C4_4  and  C5_5 
REMARK    5  A    between atoms: C18_18  and  O1_19 
REMARK    6  A    between atoms: C19_20  and  C21_22 
REMARK    7  A    between atoms: C21_22  and  O3_24 
REMARK    8  A    between atoms: C30_33  and  O4_34 
REMARK    9  A    between atoms: O4_34  and  C31_35 
REMARK   10  A    between atoms: C32_37  and  C33_38 
REMARK   11  A    between atoms: C33_38  and  O6_39 
REMARK   12  A    between atoms: C34_40  and  O7_41 
REMARK   13  A    between atoms: C35_42  and  O8_43 
ROOT
HETATM    1  C9  UNL     1       1.813   0.009  -0.803  1.00  0.00     0.047 C 
HETATM    2  C10 UNL     1       0.412  -0.602  -1.019  1.00  0.00     0.005 C 
HETATM    3  C11 UNL     1       0.026  -1.803  -0.170  1.00  0.00     0.006 C 
HETATM    4  C12 UNL     1      -1.414  -2.255  -0.476  1.00  0.00     0.006 C 
HETATM    5  C13 UNL     1      -2.460  -1.105  -0.407  1.00  0.00     0.003 C 
HETATM    6  C14 UNL     1      -3.969  -1.580  -0.487  1.00  0.00    -0.035 C 
HETATM    7  C15 UNL     1      -4.259  -2.412  -1.766  1.00  0.00     0.016 C 
HETATM    8  C16 UNL     1      -4.239  -2.558   0.704  1.00  0.00     0.012 C 
HETATM    9  C17 UNL     1      -5.694  -2.584   1.128  1.00  0.00     0.034 C 
HETATM   10  C18 UNL     1      -6.165  -1.244   1.691  1.00  0.00     0.137 C 
HETATM   11  C19 UNL     1      -5.545   0.020   0.987  1.00  0.00     0.072 C 
HETATM   12  C20 UNL     1      -6.652   1.106   0.870  1.00  0.00     0.030 C 
HETATM   13  C22 UNL     1      -4.982  -0.362  -0.442  1.00  0.00     0.015 C 
HETATM   14  C23 UNL     1      -4.511   0.826  -1.315  1.00  0.00     0.007 C 
HETATM   15  C24 UNL     1      -3.062   1.264  -1.111  1.00  0.00     0.011 C 
HETATM   16  C25 UNL     1      -2.031   0.130  -1.302  1.00  0.00    -0.032 C 
HETATM   17  C26 UNL     1      -2.022  -0.230  -2.817  1.00  0.00     0.016 C 
HETATM   18  C27 UNL     1      -0.566   0.586  -0.823  1.00  0.00    -0.030 C 
HETATM   19  C28 UNL     1      -0.576   1.117   0.652  1.00  0.00     0.016 C 
HETATM   20  C29 UNL     1       0.166   1.658  -1.669  1.00  0.00     0.043 C 
HETATM   21  C30 UNL     1       1.675   1.454  -1.386  1.00  0.00     0.134 C 
ENDROOT
BRANCH  21  22
HETATM   22  O4  UNL     1       2.080   2.413  -0.407  1.00  0.00    -0.353 OA
BRANCH  22  23
HETATM   23  C31 UNL     1       3.474   2.676  -0.410  1.00  0.00     0.292 C 
HETATM   24  O5  UNL     1       3.711   4.016  -0.873  1.00  0.00    -0.348 OA
HETATM   25  C32 UNL     1       3.346   4.901   0.225  1.00  0.00     0.179 C 
HETATM   26  C34 UNL     1       3.473   4.065   1.510  1.00  0.00     0.182 C 
HETATM   27  C35 UNL     1       4.004   2.722   1.017  1.00  0.00     0.204 C 
BRANCH  25  28
HETATM   28  C33 UNL     1       4.195   6.173   0.198  1.00  0.00     0.198 C 
BRANCH  28  29
HETATM   29  O6  UNL     1       3.868   6.957  -0.952  1.00  0.00    -0.398 OA
HETATM   30  H52 UNL     1       4.457   7.734  -0.943  1.00  0.00     0.209 HD
ENDBRANCH  28  29
ENDBRANCH  25  28
BRANCH  26  31
HETATM   31  O7  UNL     1       4.333   4.624   2.503  1.00  0.00    -0.390 OA
HETATM   32  H54 UNL     1       5.147   4.078   2.492  1.00  0.00     0.210 HD
ENDBRANCH  26  31
BRANCH  27  33
HETATM   33  O8  UNL     1       5.445   2.759   1.050  1.00  0.00    -0.388 OA
HETATM   34  H56 UNL     1       5.732   3.284   0.274  1.00  0.00     0.210 HD
ENDBRANCH  27  33
ENDBRANCH  22  23
ENDBRANCH  21  22
BRANCH   1  35
HETATM   35  C2  UNL     1       2.963  -0.791  -1.403  1.00  0.00    -0.082 C 
HETATM   36  C1  UNL     1       3.036  -1.093  -2.713  1.00  0.00     0.015 C 
BRANCH  35  37
HETATM   37  C3  UNL     1       4.073  -1.205  -0.455  1.00  0.00     0.037 C 
BRANCH  37  38
HETATM   38  C4  UNL     1       3.653  -2.306   0.526  1.00  0.00     0.031 C 
BRANCH  38  39
HETATM   39  C5  UNL     1       4.796  -2.685   1.434  1.00  0.00    -0.024 C 
HETATM   40  C6  UNL     1       5.554  -3.798   1.391  1.00  0.00    -0.091 C 
HETATM   41  C7  UNL     1       5.425  -4.901   0.375  1.00  0.00     0.042 C 
HETATM   42  C8  UNL     1       6.645  -4.020   2.405  1.00  0.00     0.042 C 
ENDBRANCH  38  39
ENDBRANCH  37  38
ENDBRANCH  35  37
ENDBRANCH   1  35
BRANCH  11  43
HETATM   43  C21 UNL     1      -4.457   0.557   1.924  1.00  0.00     0.151 C 
HETATM   44  O2  UNL     1      -3.740  -0.098   2.666  1.00  0.00    -0.649 OA
BRANCH  43  45
HETATM   45  O3  UNL     1      -4.305   1.895   1.905  1.00  0.00    -0.776 OA
HETATM   46  H33 UNL     1      -3.592   2.066   2.554  1.00  0.00     0.167 HD
ENDBRANCH  43  45
ENDBRANCH  11  43
BRANCH  10  47
HETATM   47  O1  UNL     1      -7.597  -1.253   1.610  1.00  0.00    -0.394 OA
HETATM   48  H29 UNL     1      -7.916  -2.001   2.146  1.00  0.00     0.210 HD
ENDBRANCH  10  47
TORSDOF 13
