REMARK  2 active torsions:
REMARK  status: ('A' for Active; 'I' for Inactive)
REMARK    1  A    between atoms: C21_27  and  C22_28 
REMARK    2  A    between atoms: C22_28  and  O7_30 
ROOT
HETATM    1  C1  UNL     1      -1.038  -5.193  -0.438  1.00  0.00     0.043 C 
HETATM    2  C2  UNL     1      -0.971  -3.942   0.397  1.00  0.00    -0.076 C 
HETATM    3  C3  UNL     1       0.214  -3.515   0.885  1.00  0.00     0.084 C 
HETATM    4  C4  UNL     1       0.405  -2.269   1.662  1.00  0.00     0.283 C 
HETATM    5  O1  UNL     1      -0.473  -1.660   2.247  1.00  0.00    -0.260 OA
HETATM    6  O2  UNL     1       1.696  -1.864   1.507  1.00  0.00    -0.317 OA
HETATM    7  C5  UNL     1       1.959  -0.499   1.895  1.00  0.00     0.195 C 
HETATM    8  C6  UNL     1       2.150   0.459   0.652  1.00  0.00     0.053 C 
HETATM    9  C7  UNL     1       3.540   0.055  -0.018  1.00  0.00     0.159 C 
HETATM   10  C8  UNL     1       3.518  -1.150  -0.920  1.00  0.00     0.011 C 
HETATM   11  C9  UNL     1       2.401  -1.567  -1.542  1.00  0.00    -0.054 C 
HETATM   12  C10 UNL     1       2.412  -2.757  -2.459  1.00  0.00     0.046 C 
HETATM   13  C11 UNL     1       1.133  -0.834  -1.420  1.00  0.00     0.180 A 
HETATM   14  O3  UNL     1       1.100   0.575  -1.659  1.00  0.00    -0.370 OA
HETATM   15  C12 UNL     1       0.982   0.174  -0.289  1.00  0.00     0.170 A 
HETATM   16  O4  UNL     1       4.209   1.086  -0.762  1.00  0.00    -0.372 OA
HETATM   17  C13 UNL     1       4.079   2.412  -0.241  1.00  0.00     0.162 C 
HETATM   18  C14 UNL     1       2.887   3.074  -0.957  1.00  0.00     0.068 C 
HETATM   19  C15 UNL     1       1.760   3.074   0.091  1.00  0.00     0.147 C 
HETATM   20  O5  UNL     1       0.448   2.830  -0.408  1.00  0.00    -0.312 OA
HETATM   21  C16 UNL     1      -0.088   3.757  -1.230  1.00  0.00     0.283 C 
HETATM   22  O6  UNL     1       0.399   4.840  -1.513  1.00  0.00    -0.260 OA
HETATM   23  C17 UNL     1      -1.327   3.249  -1.860  1.00  0.00     0.082 C 
HETATM   24  C18 UNL     1      -2.254   2.412  -1.365  1.00  0.00     0.006 C 
HETATM   25  C19 UNL     1      -2.339   1.898  -0.017  1.00  0.00    -0.001 C 
HETATM   26  C20 UNL     1      -3.092   0.867   0.400  1.00  0.00     0.007 C 
HETATM   27  C21 UNL     1      -3.936  -0.088  -0.415  1.00  0.00     0.172 C 
HETATM   28  O8  UNL     1      -3.761  -1.407   0.129  1.00  0.00    -0.379 OA
HETATM   29  C24 UNL     1      -2.541  -2.037  -0.270  1.00  0.00     0.173 C 
HETATM   30  C25 UNL     1      -2.308  -3.259   0.624  1.00  0.00     0.060 C 
HETATM   31  C26 UNL     1       2.199   2.000   1.152  1.00  0.00     0.034 C 
HETATM   32  C27 UNL     1       1.430   2.290   2.448  1.00  0.00     0.022 C 
HETATM   33  C28 UNL     1       3.667   2.348   1.194  1.00  0.00     0.119 A 
HETATM   34  C29 UNL     1       4.619   2.187   2.354  1.00  0.00     0.210 A 
HETATM   35  O9  UNL     1       4.047   3.462   2.007  1.00  0.00    -0.371 OA
ENDROOT
BRANCH  27  36
HETATM   36  C22 UNL     1      -5.441   0.287  -0.321  1.00  0.00     0.146 C 
HETATM   37  C23 UNL     1      -6.343  -0.780  -0.938  1.00  0.00     0.042 C 
BRANCH  36  38
HETATM   38  O7  UNL     1      -5.712   1.527  -0.986  1.00  0.00    -0.393 OA
HETATM   39  H27 UNL     1      -5.592   1.388  -1.939  1.00  0.00     0.210 HD
ENDBRANCH  36  38
ENDBRANCH  27  36
TORSDOF 2
