REMARK  6 active torsions:
REMARK  status: ('A' for Active; 'I' for Inactive)
REMARK    1  A    between atoms: C2_2  and  C3_3 
REMARK    2  A    between atoms: C6_6  and  O1_7 
REMARK    3  A    between atoms: C7_8  and  C8_9 
REMARK    4  A    between atoms: C20_25  and  O5_26 
REMARK    5  A    between atoms: C26_32  and  O6_33 
REMARK    6  A    between atoms: C31_39  and  O8_40 
ROOT
HETATM    1  C3  UNL     1      -0.492   4.013   0.930  1.00  0.00     0.008 C 
HETATM    2  C4  UNL     1      -1.749   3.227   0.602  1.00  0.00    -0.023 C 
HETATM    3  C5  UNL     1      -2.079   2.049   1.165  1.00  0.00     0.004 C 
HETATM    4  C6  UNL     1      -3.318   1.268   0.822  1.00  0.00     0.174 C 
HETATM    5  C7  UNL     1      -3.084   0.229  -0.317  1.00  0.00     0.187 C 
HETATM    6  O2  UNL     1      -2.254  -0.869   0.112  1.00  0.00    -0.308 OA
HETATM    7  C12 UNL     1      -1.427  -1.380  -0.843  1.00  0.00     0.276 C 
HETATM    8  O3  UNL     1      -1.342  -0.919  -1.982  1.00  0.00    -0.264 OA
HETATM    9  C13 UNL     1      -0.559  -2.610  -0.370  1.00  0.00     0.090 C 
HETATM   10  C14 UNL     1      -0.721  -3.606  -1.557  1.00  0.00     0.035 C 
HETATM   11  C15 UNL     1      -1.098  -3.260   0.889  1.00  0.00     0.003 C 
HETATM   12  C16 UNL     1      -0.581  -4.334   1.502  1.00  0.00     0.072 C 
HETATM   13  C17 UNL     1       0.614  -5.089   1.078  1.00  0.00     0.245 C 
HETATM   14  O4  UNL     1       0.701  -6.280   1.371  1.00  0.00    -0.268 OA
HETATM   15  N1  UNL     1       1.668  -4.463   0.481  1.00  0.00    -0.324 N 
HETATM   16  C18 UNL     1       1.897  -3.142   0.138  1.00  0.00     0.052 C 
HETATM   17  C19 UNL     1       0.934  -2.247  -0.175  1.00  0.00     0.000 C 
HETATM   18  C20 UNL     1       1.283  -0.777  -0.281  1.00  0.00     0.185 C 
HETATM   19  C21 UNL     1       2.735  -0.383  -0.440  1.00  0.00     0.001 A 
HETATM   20  C22 UNL     1       3.727  -1.356  -0.209  1.00  0.00    -0.013 A 
HETATM   21  C23 UNL     1       5.087  -1.029  -0.368  1.00  0.00     0.020 A 
HETATM   22  C24 UNL     1       5.488   0.241  -0.789  1.00  0.00    -0.027 A 
HETATM   23  C25 UNL     1       6.945   0.542  -0.998  1.00  0.00     0.051 C 
HETATM   24  C26 UNL     1       4.504   1.196  -1.056  1.00  0.00     0.086 A 
HETATM   25  C27 UNL     1       3.134   0.918  -0.854  1.00  0.00     0.053 A 
HETATM   26  C28 UNL     1       2.194   2.056  -1.128  1.00  0.00     0.163 C 
HETATM   27  O7  UNL     1       2.435   2.782  -2.095  1.00  0.00    -0.292 OA
HETATM   28  C29 UNL     1       1.046   2.326  -0.186  1.00  0.00     0.084 C 
HETATM   29  C30 UNL     1       0.594   3.789  -0.150  1.00  0.00     0.016 C 
HETATM   30  C31 UNL     1       3.374  -2.767   0.194  1.00  0.00     0.202 C 
HETATM   31  H24 UNL     1       2.472  -5.087   0.468  1.00  0.00     0.169 HD
ENDROOT
BRANCH   5  32
HETATM   32  C8  UNL     1      -4.403  -0.275  -0.884  1.00  0.00     0.010 C 
HETATM   33  C9  UNL     1      -5.143  -1.363  -0.589  1.00  0.00    -0.089 C 
HETATM   34  C10 UNL     1      -6.392  -1.668  -1.379  1.00  0.00     0.042 C 
HETATM   35  C11 UNL     1      -4.855  -2.353   0.502  1.00  0.00     0.042 C 
ENDBRANCH   5  32
BRANCH   4  36
HETATM   36  O1  UNL     1      -3.772   0.663   2.034  1.00  0.00    -0.389 OA
HETATM   37  H10 UNL     1      -4.590   0.188   1.812  1.00  0.00     0.210 HD
ENDBRANCH   4  36
BRANCH   1  38
HETATM   38  C2  UNL     1      -0.862   5.503   1.083  1.00  0.00     0.004 C 
HETATM   39  C1  UNL     1       0.271   6.360   1.634  1.00  0.00     0.006 C 
ENDBRANCH   1  38
BRANCH  18  40
HETATM   40  O5  UNL     1       0.786  -0.236   0.936  1.00  0.00    -0.386 OA
HETATM   41  H26 UNL     1       1.477  -0.347   1.611  1.00  0.00     0.210 HD
ENDBRANCH  18  40
BRANCH  30  42
HETATM   42  O8  UNL     1       3.860  -2.967   1.521  1.00  0.00    -0.385 OA
HETATM   43  H37 UNL     1       3.145  -3.369   2.048  1.00  0.00     0.211 HD
ENDBRANCH  30  42
BRANCH  24  44
HETATM   44  O6  UNL     1       4.942   2.414  -1.521  1.00  0.00    -0.359 OA
HETATM   45  H31 UNL     1       4.182   2.864  -1.953  1.00  0.00     0.217 HD
ENDBRANCH  24  44
TORSDOF 6
