REMARK  10 active torsions:
REMARK  status: ('A' for Active; 'I' for Inactive)
REMARK    1  A    between atoms: C3_3  and  C5_5 
REMARK    2  A    between atoms: C6_6  and  C7_7 
REMARK    3  A    between atoms: C8_8  and  C9_9 
REMARK    4  A    between atoms: C10_10  and  C12_12 
REMARK    5  A    between atoms: C12_12  and  O1_13 
REMARK    6  A    between atoms: C12_12  and  C13_14 
REMARK    7  A    between atoms: C13_14  and  C15_16 
REMARK    8  A    between atoms: C15_16  and  O2_17 
REMARK    9  A    between atoms: C18_20  and  O3_21 
REMARK   10  A    between atoms: C19_22  and  O4_24 
ROOT
HETATM    1  C5  UNL     1      -1.504   0.504  -1.888  1.00  0.00     0.058 C 
HETATM    2  C6  UNL     1      -1.061  -0.385  -0.664  1.00  0.00     0.024 C 
HETATM    3  C16 UNL     1      -2.227  -0.612   0.341  1.00  0.00     0.003 C 
HETATM    4  C17 UNL     1      -1.796  -1.317   1.646  1.00  0.00     0.040 C 
HETATM    5  C18 UNL     1      -2.972  -1.540   2.610  1.00  0.00     0.152 C 
HETATM    6  C19 UNL     1      -4.167  -2.260   1.936  1.00  0.00     0.080 C 
HETATM    7  C20 UNL     1      -5.386  -2.324   2.862  1.00  0.00     0.048 C 
HETATM    8  C21 UNL     1      -4.553  -1.580   0.610  1.00  0.00     0.047 C 
HETATM    9  C22 UNL     1      -3.345  -1.439  -0.333  1.00  0.00     0.025 C 
HETATM   10  C23 UNL     1      -3.749  -0.860  -1.664  1.00  0.00     0.162 A 
HETATM   11  O5  UNL     1      -2.918  -1.358  -2.731  1.00  0.00    -0.368 OA
HETATM   12  C24 UNL     1      -2.841   0.050  -2.471  1.00  0.00     0.092 A 
HETATM   13  C25 UNL     1      -3.413   0.848  -3.610  1.00  0.00     0.049 C 
ENDROOT
BRANCH   2  14
HETATM   14  C7  UNL     1       0.197   0.154  -0.005  1.00  0.00    -0.021 C 
HETATM   15  C8  UNL     1       1.380  -0.480  -0.030  1.00  0.00    -0.003 C 
BRANCH  15  16
HETATM   16  C9  UNL     1       2.565   0.056   0.602  1.00  0.00     0.005 C 
HETATM   17  C10 UNL     1       3.781  -0.528   0.629  1.00  0.00    -0.055 C 
HETATM   18  C11 UNL     1       4.056  -1.870  -0.005  1.00  0.00     0.046 C 
BRANCH  17  19
HETATM   19  C12 UNL     1       4.933   0.157   1.349  1.00  0.00     0.152 C 
BRANCH  19  20
HETATM   20  O1  UNL     1       5.651  -0.795   2.125  1.00  0.00    -0.391 OA
HETATM   21  H17 UNL     1       4.996  -1.326   2.606  1.00  0.00     0.210 HD
ENDBRANCH  19  20
BRANCH  19  22
HETATM   22  C13 UNL     1       5.860   1.014   0.448  1.00  0.00     0.038 C 
HETATM   23  C14 UNL     1       6.963   1.668   1.292  1.00  0.00     0.015 C 
BRANCH  22  24
HETATM   24  C15 UNL     1       6.481   0.298  -0.760  1.00  0.00     0.171 C 
BRANCH  24  25
HETATM   25  O2  UNL     1       7.405  -0.709  -0.382  1.00  0.00    -0.400 OA
HETATM   26  H24 UNL     1       7.746  -1.112  -1.197  1.00  0.00     0.209 HD
ENDBRANCH  24  25
ENDBRANCH  22  24
ENDBRANCH  19  22
ENDBRANCH  17  19
ENDBRANCH  15  16
ENDBRANCH   2  14
BRANCH   1  27
HETATM   27  C3  UNL     1      -1.437   2.030  -1.637  1.00  0.00    -0.080 C 
HETATM   28  C2  UNL     1      -0.513   2.772  -2.285  1.00  0.00    -0.028 C 
HETATM   29  C1  UNL     1      -0.260   4.242  -2.161  1.00  0.00     0.036 C 
HETATM   30  C4  UNL     1      -2.443   2.629  -0.690  1.00  0.00     0.043 C 
ENDBRANCH   1  27
BRANCH   5  31
HETATM   31  O3  UNL     1      -3.361  -0.291   3.186  1.00  0.00    -0.393 OA
HETATM   32  H29 UNL     1      -3.667   0.301   2.481  1.00  0.00     0.210 HD
ENDBRANCH   5  31
BRANCH   6  33
HETATM   33  O4  UNL     1      -3.787  -3.609   1.627  1.00  0.00    -0.388 OA
HETATM   34  H33 UNL     1      -3.634  -4.078   2.466  1.00  0.00     0.210 HD
ENDBRANCH   6  33
TORSDOF 10
