REMARK  19 active torsions:
REMARK  status: ('A' for Active; 'I' for Inactive)
REMARK    1  A    between atoms: O1_2  and  C2_3 
REMARK    2  A    between atoms: C2_3  and  C3_4 
REMARK    3  A    between atoms: C2_3  and  C28_36 
REMARK    4  A    between atoms: C3_4  and  C4_5 
REMARK    5  A    between atoms: C4_5  and  C6_7 
REMARK    6  A    between atoms: C6_7  and  O2_8 
REMARK    7  A    between atoms: C6_7  and  C7_9 
REMARK    8  A    between atoms: C8_10  and  C9_11 
REMARK    9  A    between atoms: C10_12  and  C11_13 
REMARK   10  A    between atoms: C11_13  and  N1_14 
REMARK       I    between atoms: N1_14  and  C12_15 
REMARK   11  A    between atoms: C12_15  and  C13_17 
REMARK   12  A    between atoms: C13_17  and  C16_20 
REMARK   13  A    between atoms: C16_20  and  O4_21 
REMARK   14  A    between atoms: C16_20  and  C17_22 
REMARK   15  A    between atoms: C19_24  and  C20_25 
REMARK   16  A    between atoms: C21_26  and  C22_27 
REMARK   17  A    between atoms: C23_28  and  C24_29 
REMARK   18  A    between atoms: C26_31  and  N2_33 
REMARK   19  A    between atoms: C28_36  and  O7_37 
ROOT
HETATM    1  C9  UNL     1      -0.803  -0.462   1.456  1.00  0.00    -0.003 C 
HETATM    2  C10 UNL     1      -0.285  -1.265   2.403  1.00  0.00    -0.007 C 
ENDROOT
BRANCH   1   3
HETATM    3  C8  UNL     1      -2.221  -0.179   1.387  1.00  0.00    -0.002 C 
HETATM    4  C7  UNL     1      -2.786   0.537   0.401  1.00  0.00     0.005 C 
BRANCH   4   5
HETATM    5  C6  UNL     1      -4.244   0.896   0.220  1.00  0.00     0.144 C 
BRANCH   5   6
HETATM    6  C4  UNL     1      -5.284   0.293   1.194  1.00  0.00     0.016 C 
HETATM    7  C5  UNL     1      -5.479  -1.214   1.010  1.00  0.00     0.013 C 
BRANCH   6   8
HETATM    8  C3  UNL     1      -6.633   1.053   1.278  1.00  0.00     0.042 C 
BRANCH   8   9
HETATM    9  C2  UNL     1      -7.415   1.563   0.037  1.00  0.00     0.159 C 
BRANCH   9  10
HETATM   10  O1  UNL     1      -8.582   2.267   0.503  1.00  0.00    -0.388 OA
HETATM   11  C1  UNL     1      -8.359   3.644   0.796  1.00  0.00     0.202 C 
ENDBRANCH   9  10
BRANCH   9  12
HETATM   12  C28 UNL     1      -7.879   0.582  -1.096  1.00  0.00     0.133 C 
HETATM   13  C29 UNL     1      -8.567   1.425  -2.241  1.00  0.00     0.114 C 
HETATM   14  C30 UNL     1      -8.486   0.826  -3.645  1.00  0.00     0.023 C 
HETATM   15  C31 UNL     1     -10.019   1.461  -1.831  1.00  0.00     0.227 C 
HETATM   16  O8  UNL     1     -10.824   2.313  -2.169  1.00  0.00    -0.273 OA
HETATM   17  N3  UNL     1     -10.266   0.331  -1.073  1.00  0.00    -0.332 N 
HETATM   18  C32 UNL     1     -11.493   0.217  -0.317  1.00  0.00     0.154 C 
HETATM   19  C33 UNL     1      -9.005  -0.406  -0.702  1.00  0.00     0.183 C 
HETATM   20  C34 UNL     1      -9.002  -1.123   0.683  1.00  0.00     0.294 C 
HETATM   21  C35 UNL     1      -9.040  -1.898  -1.209  1.00  0.00     0.169 C 
HETATM   22  O9  UNL     1      -9.124  -0.860   1.857  1.00  0.00    -0.262 OA
HETATM   23  O10 UNL     1      -8.890  -2.370   0.156  1.00  0.00    -0.311 OA
HETATM   24  C36 UNL     1      -8.008  -2.579  -2.087  1.00  0.00     0.043 C 
BRANCH  12  25
HETATM   25  O7  UNL     1      -6.740  -0.076  -1.649  1.00  0.00    -0.383 OA
HETATM   26  H42 UNL     1      -6.197   0.603  -2.093  1.00  0.00     0.210 HD
ENDBRANCH  12  25
ENDBRANCH   9  12
ENDBRANCH   8   9
ENDBRANCH   6   8
ENDBRANCH   5   6
BRANCH   5  27
HETATM   27  O2  UNL     1      -4.304   2.321   0.283  1.00  0.00    -0.391 OA
HETATM   28  H12 UNL     1      -3.952   2.577   1.157  1.00  0.00     0.210 HD
ENDBRANCH   5  27
ENDBRANCH   4   5
ENDBRANCH   1   3
BRANCH   2  29
HETATM   29  C11 UNL     1       1.133  -1.684   2.628  1.00  0.00     0.149 C 
BRANCH  29  30
HETATM   30  N1  UNL     1       2.020  -1.346   1.536  1.00  0.00    -0.357 N 
HETATM   31  C12 UNL     1       3.350  -1.730   1.620  1.00  0.00     0.228 C 
HETATM   32  O3  UNL     1       3.769  -2.306   2.619  1.00  0.00    -0.273 OA
HETATM   33  H19 UNL     1       1.616  -1.250   0.617  1.00  0.00     0.162 HD
BRANCH  31  34
HETATM   34  C13 UNL     1       4.209  -1.464   0.362  1.00  0.00     0.063 C 
HETATM   35  C14 UNL     1       4.016  -0.008  -0.109  1.00  0.00     0.028 C 
HETATM   36  C15 UNL     1       3.683  -2.407  -0.749  1.00  0.00     0.028 C 
BRANCH  34  37
HETATM   37  C16 UNL     1       5.746  -1.732   0.578  1.00  0.00     0.164 C 
BRANCH  37  38
HETATM   38  O4  UNL     1       6.054  -3.029   1.088  1.00  0.00    -0.390 OA
HETATM   39  H27 UNL     1       5.447  -3.686   0.711  1.00  0.00     0.210 HD
ENDBRANCH  37  38
BRANCH  37  40
HETATM   40  C17 UNL     1       6.545  -0.737   1.420  1.00  0.00    -0.054 C 
HETATM   41  C18 UNL     1       6.240  -0.720   2.899  1.00  0.00     0.046 C 
HETATM   42  C19 UNL     1       7.556   0.040   0.971  1.00  0.00     0.005 C 
BRANCH  42  43
HETATM   43  C20 UNL     1       8.072   0.144  -0.381  1.00  0.00     0.000 C 
HETATM   44  C21 UNL     1       9.267   0.645  -0.747  1.00  0.00     0.000 C 
BRANCH  44  45
HETATM   45  C22 UNL     1      10.272   1.209   0.129  1.00  0.00     0.001 C 
HETATM   46  C23 UNL     1      11.601   1.305  -0.056  1.00  0.00     0.009 C 
BRANCH  46  47
HETATM   47  C24 UNL     1      12.481   0.786  -1.111  1.00  0.00    -0.034 C 
HETATM   48  C25 UNL     1      12.007  -0.450  -1.847  1.00  0.00     0.050 C 
HETATM   49  C26 UNL     1      13.698   1.348  -1.324  1.00  0.00     0.082 C 
HETATM   50  C27 UNL     1      14.393   2.513  -0.699  1.00  0.00     0.075 C 
BRANCH  49  51
HETATM   51  N2  UNL     1      14.518   0.779  -2.377  1.00  0.00    -0.120 N 
HETATM   52  O5  UNL     1      14.241   1.095  -3.542  1.00  0.00    -0.532 OA
HETATM   53  O6  UNL     1      15.448   0.041  -2.022  1.00  0.00    -0.532 OA
ENDBRANCH  49  51
ENDBRANCH  46  47
ENDBRANCH  44  45
ENDBRANCH  42  43
ENDBRANCH  37  40
ENDBRANCH  34  37
ENDBRANCH  31  34
ENDBRANCH  29  30
ENDBRANCH   2  29
TORSDOF 19
