REMARK  15 active torsions:
REMARK  status: ('A' for Active; 'I' for Inactive)
REMARK    1  A    between atoms: O1_2  and  C2_3 
REMARK    2  A    between atoms: C3_4  and  O2_5 
REMARK    3  A    between atoms: C5_7  and  O3_8 
REMARK    4  A    between atoms: O3_8  and  C6_9 
REMARK    5  A    between atoms: C12_15  and  O4_16 
REMARK    6  A    between atoms: C13_17  and  O5_18 
REMARK    7  A    between atoms: C15_20  and  O6_21 
REMARK    8  A    between atoms: C21_27  and  C22_28 
REMARK    9  A    between atoms: C22_28  and  C24_30 
REMARK   10  A    between atoms: C25_31  and  C26_32 
REMARK   11  A    between atoms: C26_32  and  C28_34 
REMARK   12  A    between atoms: C28_34  and  C30_36 
REMARK   13  A    between atoms: C30_36  and  O7_37 
REMARK   14  A    between atoms: C32_39  and  O8_40 
REMARK   15  A    between atoms: C35_44  and  O10_45 
ROOT
HETATM    1  C6  UNL     1       3.935   1.002   0.191  1.00  0.00     0.154 C 
HETATM    2  C7  UNL     1       3.496   1.013  -1.277  1.00  0.00     0.035 C 
HETATM    3  C8  UNL     1       1.986   0.804  -1.460  1.00  0.00     0.012 C 
HETATM    4  C9  UNL     1       1.443  -0.466  -0.747  1.00  0.00    -0.029 C 
HETATM    5  C10 UNL     1       2.044  -1.697  -1.467  1.00  0.00     0.016 C 
HETATM    6  C11 UNL     1       1.845  -0.335   0.761  1.00  0.00     0.054 C 
HETATM    7  C12 UNL     1       3.356  -0.193   0.983  1.00  0.00     0.154 C 
HETATM    8  C13 UNL     1       1.111  -1.316   1.712  1.00  0.00     0.128 C 
HETATM    9  C14 UNL     1       0.145  -2.321   1.080  1.00  0.00     0.071 C 
HETATM   10  C15 UNL     1      -0.683  -1.842  -0.134  1.00  0.00     0.071 C 
HETATM   11  C16 UNL     1      -0.123  -0.507  -0.732  1.00  0.00     0.029 C 
HETATM   12  C17 UNL     1      -0.841  -0.138  -2.045  1.00  0.00     0.009 C 
HETATM   13  C18 UNL     1      -2.364   0.014  -1.822  1.00  0.00     0.010 C 
HETATM   14  C19 UNL     1      -3.009  -1.232  -1.179  1.00  0.00    -0.031 C 
HETATM   15  C20 UNL     1      -3.099  -2.354  -2.247  1.00  0.00     0.016 C 
HETATM   16  C21 UNL     1      -4.412  -1.024  -0.519  1.00  0.00     0.004 C 
HETATM   17  C31 UNL     1      -4.496  -2.222   0.475  1.00  0.00     0.038 C 
HETATM   18  C32 UNL     1      -3.053  -2.653   0.786  1.00  0.00     0.126 C 
HETATM   19  C33 UNL     1      -2.190  -1.588   0.115  1.00  0.00     0.058 C 
ENDROOT
BRANCH   1  20
HETATM   20  O3  UNL     1       5.369   0.907   0.304  1.00  0.00    -0.351 OA
BRANCH  20  21
HETATM   21  C5  UNL     1       6.045   2.166   0.216  1.00  0.00     0.291 C 
HETATM   22  C3  UNL     1       7.431   2.049   0.902  1.00  0.00     0.207 C 
HETATM   23  C2  UNL     1       8.534   1.594  -0.088  1.00  0.00     0.185 C 
HETATM   24  C35 UNL     1       7.932   0.837  -1.282  1.00  0.00     0.176 C 
HETATM   25  C34 UNL     1       6.898   1.734  -1.975  1.00  0.00     0.205 C 
HETATM   26  O9  UNL     1       6.165   2.613  -1.127  1.00  0.00    -0.356 OA
BRANCH  22  27
HETATM   27  O2  UNL     1       7.859   3.322   1.444  1.00  0.00    -0.383 OA
HETATM   28  C4  UNL     1       7.295   3.609   2.718  1.00  0.00     0.202 C 
ENDBRANCH  22  27
BRANCH  23  29
HETATM   29  O1  UNL     1       9.468   0.724   0.596  1.00  0.00    -0.385 OA
HETATM   30  C1  UNL     1      10.390   1.430   1.416  1.00  0.00     0.202 C 
ENDBRANCH  23  29
BRANCH  24  31
HETATM   31  O10 UNL     1       8.913   0.510  -2.280  1.00  0.00    -0.386 OA
HETATM   32  C36 UNL     1       9.523  -0.759  -2.092  1.00  0.00     0.202 C 
ENDBRANCH  24  31
ENDBRANCH  20  21
ENDBRANCH   1  20
BRANCH   7  33
HETATM   33  O4  UNL     1       4.029  -1.411   0.651  1.00  0.00    -0.393 OA
HETATM   34  H20 UNL     1       4.959  -1.153   0.488  1.00  0.00     0.210 HD
ENDBRANCH   7  33
BRANCH   8  35
HETATM   35  O5  UNL     1       2.023  -2.037   2.540  1.00  0.00    -0.395 OA
HETATM   36  H22 UNL     1       2.727  -2.384   1.950  1.00  0.00     0.210 HD
ENDBRANCH   8  35
BRANCH  10  37
HETATM   37  O6  UNL     1      -0.568  -2.884  -1.115  1.00  0.00    -0.389 OA
HETATM   38  H25 UNL     1      -0.761  -3.735  -0.683  1.00  0.00     0.210 HD
ENDBRANCH  10  37
BRANCH  18  39
HETATM   39  O8  UNL     1      -2.850  -2.662   2.190  1.00  0.00    -0.395 OA
HETATM   40  H55 UNL     1      -3.499  -3.272   2.581  1.00  0.00     0.210 HD
ENDBRANCH  18  39
BRANCH  16  41
HETATM   41  C22 UNL     1      -5.683  -0.910  -1.408  1.00  0.00     0.009 C 
HETATM   42  C23 UNL     1      -5.598   0.230  -2.428  1.00  0.00     0.014 C 
BRANCH  41  43
HETATM   43  C24 UNL     1      -6.929  -0.831  -0.534  1.00  0.00    -0.026 C 
HETATM   44  C25 UNL     1      -7.716   0.238  -0.314  1.00  0.00    -0.026 C 
BRANCH  44  45
HETATM   45  C26 UNL     1      -8.967   0.293   0.555  1.00  0.00     0.009 C 
HETATM   46  C27 UNL     1      -9.566  -1.098   0.821  1.00  0.00     0.014 C 
BRANCH  45  47
HETATM   47  C28 UNL     1      -8.718   1.100   1.869  1.00  0.00     0.012 C 
HETATM   48  C29 UNL     1      -9.932   1.072   2.812  1.00  0.00     0.012 C 
BRANCH  47  49
HETATM   49  C30 UNL     1      -8.320   2.559   1.561  1.00  0.00     0.168 C 
BRANCH  49  50
HETATM   50  O7  UNL     1      -8.087   3.306   2.751  1.00  0.00    -0.400 OA
HETATM   51  H51 UNL     1      -8.950   3.591   3.095  1.00  0.00     0.209 HD
ENDBRANCH  49  50
ENDBRANCH  47  49
ENDBRANCH  45  47
ENDBRANCH  44  45
ENDBRANCH  41  43
ENDBRANCH  16  41
TORSDOF 15
