REMARK  13 active torsions:
REMARK  status: ('A' for Active; 'I' for Inactive)
REMARK    1  A    between atoms: C5_6  and  C6_7 
REMARK    2  A    between atoms: C5_6  and  C31_35 
REMARK    3  A    between atoms: C23_24  and  O2_25 
REMARK    4  A    between atoms: C30_33  and  O4_34 
REMARK    5  A    between atoms: C32_37  and  C33_38 
REMARK    6  A    between atoms: C33_38  and  O6_40 
REMARK    7  A    between atoms: C33_38  and  C35_41 
REMARK    8  A    between atoms: C35_41  and  C37_43 
REMARK    9  A    between atoms: C35_41  and  C38_45 
REMARK   10  A    between atoms: C37_43  and  O7_44 
REMARK   11  A    between atoms: C38_45  and  C39_46 
REMARK   12  A    between atoms: C39_46  and  C40_47 
REMARK   13  A    between atoms: C43_51  and  N2_52 
ROOT
HETATM    1  C1  UNL     1       1.629  -5.618   2.054  1.00  0.00     0.010 C 
HETATM    2  C2  UNL     1       1.446  -4.901   0.715  1.00  0.00    -0.014 C 
HETATM    3  C3  UNL     1       2.773  -4.777  -0.019  1.00  0.00     0.030 C 
HETATM    4  C4  UNL     1       2.642  -3.947  -1.288  1.00  0.00     0.169 C 
HETATM    5  O1  UNL     1       1.336  -3.429  -1.489  1.00  0.00    -0.377 OA
HETATM    6  C5  UNL     1       0.751  -2.669  -0.394  1.00  0.00     0.094 C 
HETATM    7  C45 UNL     1       0.830  -3.509   0.914  1.00  0.00     0.045 C 
ENDROOT
BRANCH   6   8
HETATM    8  C6  UNL     1      -0.720  -2.420  -0.915  1.00  0.00     0.035 C 
HETATM    9  C7  UNL     1      -1.594  -3.725  -0.987  1.00  0.00     0.016 C 
HETATM   10  C8  UNL     1      -3.070  -3.278  -1.125  1.00  0.00     0.026 C 
HETATM   11  C9  UNL     1      -4.042  -3.878  -0.107  1.00  0.00     0.013 C 
HETATM   12  C30 UNL     1      -3.007  -1.748  -1.030  1.00  0.00     0.094 C 
HETATM   13  C10 UNL     1      -5.419  -3.191  -0.184  1.00  0.00     0.043 C 
HETATM   14  C11 UNL     1      -5.330  -1.684  -0.175  1.00  0.00    -0.006 C 
HETATM   15  C12 UNL     1      -4.198  -1.029  -0.472  1.00  0.00    -0.030 C 
HETATM   16  C26 UNL     1      -6.591  -0.909   0.039  1.00  0.00     0.161 C 
HETATM   17  C13 UNL     1      -4.043   0.466  -0.453  1.00  0.00     0.032 C 
HETATM   18  C14 UNL     1      -2.629   0.980  -0.015  1.00  0.00    -0.004 C 
HETATM   19  C20 UNL     1      -5.150   1.230   0.343  1.00  0.00    -0.018 C 
HETATM   20  C15 UNL     1      -2.521   2.478  -0.365  1.00  0.00     0.010 C 
HETATM   21  C27 UNL     1      -1.439   0.122  -0.528  1.00  0.00     0.018 C 
HETATM   22  C16 UNL     1      -3.717   3.310   0.206  1.00  0.00    -0.009 C 
HETATM   23  C17 UNL     1      -3.605   3.447   1.727  1.00  0.00     0.005 C 
HETATM   24  C25 UNL     1      -5.046   2.673  -0.243  1.00  0.00     0.002 C 
HETATM   25  C18 UNL     1      -4.495   2.519   2.543  1.00  0.00     0.001 C 
HETATM   26  C19 UNL     1      -4.892   1.198   1.892  1.00  0.00     0.011 C 
HETATM   27  C24 UNL     1      -6.335   3.458  -0.025  1.00  0.00     0.037 C 
HETATM   28  C23 UNL     1      -7.503   2.782  -0.779  1.00  0.00     0.119 C 
HETATM   29  C22 UNL     1      -7.287   1.282  -1.065  1.00  0.00     0.045 C 
HETATM   30  C21 UNL     1      -6.562   0.620   0.110  1.00  0.00     0.072 C 
HETATM   31  C28 UNL     1      -1.700  -1.395  -0.257  1.00  0.00    -0.002 C 
HETATM   32  C29 UNL     1      -1.805  -1.630   1.270  1.00  0.00     0.019 C 
HETATM   33  O3  UNL     1      -7.659  -1.517   0.117  1.00  0.00    -0.292 OA
BRANCH  28  34
HETATM   34  O2  UNL     1      -8.679   2.963   0.010  1.00  0.00    -0.396 OA
HETATM   35  H32 UNL     1      -9.415   2.529  -0.451  1.00  0.00     0.210 HD
ENDBRANCH  28  34
BRANCH  12  36
HETATM   36  O4  UNL     1      -2.915  -1.262  -2.389  1.00  0.00    -0.384 OA
HETATM   37  H41 UNL     1      -2.460  -1.921  -2.940  1.00  0.00     0.211 HD
ENDBRANCH  12  36
ENDBRANCH   6   8
BRANCH   6  38
HETATM   38  C31 UNL     1       1.501  -1.335  -0.346  1.00  0.00     0.189 A 
HETATM   39  O5  UNL     1       1.455  -0.642   0.897  1.00  0.00    -0.369 OA
HETATM   40  C32 UNL     1       2.762  -1.110   0.498  1.00  0.00     0.189 A 
BRANCH  40  41
HETATM   41  C33 UNL     1       3.793   0.023   0.512  1.00  0.00     0.092 C 
HETATM   42  C34 UNL     1       5.132  -0.615   0.947  1.00  0.00     0.049 C 
BRANCH  41  43
HETATM   43  O6  UNL     1       3.463   0.883   1.621  1.00  0.00    -0.387 OA
HETATM   44  H47 UNL     1       2.501   1.029   1.566  1.00  0.00     0.210 HD
ENDBRANCH  41  43
BRANCH  41  45
HETATM   45  C35 UNL     1       3.936   0.917  -0.795  1.00  0.00     0.011 C 
HETATM   46  C36 UNL     1       2.666   1.800  -0.998  1.00  0.00     0.020 C 
BRANCH  45  47
HETATM   47  C37 UNL     1       4.148   0.050  -2.058  1.00  0.00     0.176 C 
BRANCH  47  48
HETATM   48  O7  UNL     1       4.396   0.870  -3.198  1.00  0.00    -0.400 OA
HETATM   49  H53 UNL     1       3.767   0.607  -3.896  1.00  0.00     0.209 HD
ENDBRANCH  47  48
ENDBRANCH  45  47
BRANCH  45  50
HETATM   50  C38 UNL     1       5.098   1.981  -0.642  1.00  0.00     0.019 C 
BRANCH  50  51
HETATM   51  C39 UNL     1       6.529   1.554  -1.022  1.00  0.00     0.039 C 
BRANCH  51  52
HETATM   52  C40 UNL     1       7.556   2.537  -0.495  1.00  0.00    -0.053 A 
HETATM   53  C41 UNL     1       8.177   3.450  -1.345  1.00  0.00     0.024 A 
HETATM   54  C42 UNL     1       9.108   4.335  -0.821  1.00  0.00     0.090 A 
HETATM   55  N1  UNL     1       9.386   4.319   0.489  1.00  0.00    -0.353 N 
HETATM   56  C43 UNL     1       8.790   3.491   1.356  1.00  0.00     0.098 A 
HETATM   57  H60 UNL     1      10.087   4.958   0.852  1.00  0.00     0.166 HD
HETATM   58  C44 UNL     1       7.886   2.553   0.864  1.00  0.00     0.055 A 
BRANCH  56  59
HETATM   59  N2  UNL     1       9.161   3.513   2.688  1.00  0.00    -0.385 N 
HETATM   60  H61 UNL     1       8.421   3.265   3.346  1.00  0.00     0.157 HD
HETATM   61  H62 UNL     1       9.763   4.241   3.051  1.00  0.00     0.157 HD
ENDBRANCH  56  59
ENDBRANCH  51  52
ENDBRANCH  50  51
ENDBRANCH  45  50
ENDBRANCH  41  45
ENDBRANCH  40  41
ENDBRANCH   6  38
TORSDOF 13
