REMARK  5 active torsions:
REMARK  status: ('A' for Active; 'I' for Inactive)
REMARK    1  A    between atoms: C2_2  and  C4_4 
REMARK    2  A    between atoms: C7_7  and  C8_8 
REMARK    3  A    between atoms: C8_8  and  O2_10 
REMARK    4  A    between atoms: C22_25  and  C24_27 
REMARK    5  A    between atoms: C24_27  and  O4_28 
ROOT
HETATM    1  C4  UNL     1      -4.399   0.950   0.292  1.00  0.00     0.019 C 
HETATM    2  C5  UNL     1      -5.721   0.196  -0.019  1.00  0.00     0.011 C 
HETATM    3  C6  UNL     1      -5.341  -1.254  -0.365  1.00  0.00     0.021 C 
HETATM    4  C7  UNL     1      -3.887  -1.155  -0.835  1.00  0.00     0.050 C 
HETATM    5  C9  UNL     1      -3.082  -2.460  -0.744  1.00  0.00     0.022 C 
HETATM    6  C10 UNL     1      -1.583  -2.196  -1.006  1.00  0.00     0.011 C 
HETATM    7  C11 UNL     1      -0.935  -1.104  -0.082  1.00  0.00    -0.032 C 
HETATM    8  C12 UNL     1      -0.901  -1.738   1.350  1.00  0.00     0.016 C 
HETATM    9  C13 UNL     1      -1.849   0.190  -0.090  1.00  0.00     0.000 C 
HETATM   10  C14 UNL     1      -1.274   1.296   0.802  1.00  0.00     0.006 C 
HETATM   11  C15 UNL     1       0.160   1.669   0.415  1.00  0.00     0.006 C 
HETATM   12  C16 UNL     1       1.109   0.451   0.392  1.00  0.00     0.003 C 
HETATM   13  C17 UNL     1       2.650   0.828   0.285  1.00  0.00    -0.035 C 
HETATM   14  C18 UNL     1       2.967   1.708  -0.947  1.00  0.00     0.016 C 
HETATM   15  C19 UNL     1       3.030   1.681   1.552  1.00  0.00     0.017 C 
HETATM   16  C20 UNL     1       4.449   1.488   2.079  1.00  0.00     0.080 C 
HETATM   17  C21 UNL     1       5.385   1.048   0.985  1.00  0.00     0.137 C 
HETATM   18  O3  UNL     1       6.353   1.740   0.669  1.00  0.00    -0.297 OA
HETATM   19  C22 UNL     1       5.062  -0.292   0.310  1.00  0.00     0.042 C 
HETATM   20  C23 UNL     1       5.679  -0.306  -1.102  1.00  0.00     0.026 C 
HETATM   21  C25 UNL     1       3.497  -0.495   0.318  1.00  0.00     0.012 C 
HETATM   22  C26 UNL     1       3.011  -1.524  -0.719  1.00  0.00     0.007 C 
HETATM   23  C27 UNL     1       1.540  -1.891  -0.506  1.00  0.00     0.011 C 
HETATM   24  C28 UNL     1       0.565  -0.684  -0.567  1.00  0.00    -0.032 C 
HETATM   25  C29 UNL     1       0.527  -0.210  -2.050  1.00  0.00     0.016 C 
HETATM   26  C30 UNL     1      -3.324  -0.161   0.208  1.00  0.00     0.017 C 
ENDROOT
BRANCH   4  27
HETATM   27  C8  UNL     1      -3.935  -0.745  -2.315  1.00  0.00     0.149 C 
HETATM   28  O1  UNL     1      -4.190  -1.494  -3.249  1.00  0.00    -0.649 OA
BRANCH  27  29
HETATM   29  O2  UNL     1      -3.708   0.551  -2.572  1.00  0.00    -0.776 OA
HETATM   30  H11 UNL     1      -3.798   0.617  -3.546  1.00  0.00     0.167 HD
ENDBRANCH  27  29
ENDBRANCH   4  27
BRANCH   1  31
HETATM   31  C2  UNL     1      -4.539   1.762   1.573  1.00  0.00    -0.088 C 
HETATM   32  C1  UNL     1      -4.131   1.371   2.792  1.00  0.00     0.014 C 
HETATM   33  C3  UNL     1      -5.203   3.105   1.397  1.00  0.00     0.043 C 
ENDBRANCH   1  31
BRANCH  19  34
HETATM   34  C24 UNL     1       5.706  -1.413   1.168  1.00  0.00     0.181 C 
BRANCH  34  35
HETATM   35  O4  UNL     1       7.117  -1.301   1.288  1.00  0.00    -0.400 OA
HETATM   36  H37 UNL     1       7.518  -1.425   0.410  1.00  0.00     0.209 HD
ENDBRANCH  34  35
ENDBRANCH  19  34
TORSDOF 5
