REMARK  6 active torsions:
REMARK  status: ('A' for Active; 'I' for Inactive)
REMARK    1  A    between atoms: S1_2  and  C2_5 
REMARK    2  A    between atoms: N1_13  and  C9_14 
REMARK    3  A    between atoms: C9_14  and  C10_15 
REMARK    4  A    between atoms: C17_23  and  C18_24 
REMARK    5  A    between atoms: C18_24  and  C19_25 
REMARK    6  A    between atoms: C19_25  and  O4_27 
ROOT
HETATM    1  C2  UNL     1       0.890   2.963  -0.064  1.00  0.00     0.089 A 
HETATM    2  C3  UNL     1       0.704   4.106  -0.863  1.00  0.00     0.068 A 
HETATM    3  C4  UNL     1      -0.262   4.135  -1.856  1.00  0.00     0.118 A 
HETATM    4  F1  UNL     1      -0.411   5.249  -2.584  1.00  0.00    -0.206 F 
HETATM    5  C5  UNL     1      -1.098   3.055  -2.088  1.00  0.00     0.056 A 
HETATM    6  C6  UNL     1      -0.926   1.887  -1.327  1.00  0.00     0.003 A 
HETATM    7  C7  UNL     1      -1.615   0.670  -1.274  1.00  0.00    -0.022 C 
HETATM    8  C8  UNL     1      -1.025  -0.118  -0.332  1.00  0.00     0.024 C 
HETATM    9  N1  UNL     1       0.114   0.488   0.113  1.00  0.00    -0.343 N 
HETATM   10  C16 UNL     1       0.104   1.814  -0.356  1.00  0.00     0.068 A 
HETATM   11  C17 UNL     1      -1.670  -1.451  -0.155  1.00  0.00     0.046 C 
HETATM   12  C20 UNL     1      -2.992  -1.230  -0.995  1.00  0.00     0.016 C 
HETATM   13  C21 UNL     1      -2.760   0.004  -1.923  1.00  0.00     0.042 C 
ENDROOT
BRANCH   9  14
HETATM   14  C9  UNL     1       1.194  -0.173   0.852  1.00  0.00     0.167 C 
BRANCH  14  15
HETATM   15  C10 UNL     1       1.605  -1.513   0.274  1.00  0.00    -0.040 A 
HETATM   16  C11 UNL     1       1.987  -1.632  -1.073  1.00  0.00     0.010 A 
HETATM   17  C12 UNL     1       2.381  -2.867  -1.593  1.00  0.00     0.024 A 
HETATM   18  C13 UNL     1       2.411  -3.987  -0.767  1.00  0.00     0.034 A 
HETATM   19 CL1  UNL     1       2.896  -5.509  -1.407  1.00  0.00    -0.084 Cl
HETATM   20  C14 UNL     1       2.057  -3.883   0.576  1.00  0.00     0.024 A 
HETATM   21  C15 UNL     1       1.662  -2.649   1.097  1.00  0.00     0.010 A 
ENDBRANCH  14  15
ENDBRANCH   9  14
BRANCH  11  22
HETATM   22  C18 UNL     1      -1.973  -1.798   1.299  1.00  0.00     0.120 C 
BRANCH  22  23
HETATM   23  C19 UNL     1      -2.474  -3.209   1.435  1.00  0.00     0.140 C 
HETATM   24  O3  UNL     1      -2.866  -3.950   0.551  1.00  0.00    -0.650 OA
BRANCH  23  25
HETATM   25  O4  UNL     1      -2.478  -3.619   2.720  1.00  0.00    -0.776 OA
HETATM   26  H15 UNL     1      -2.834  -4.531   2.677  1.00  0.00     0.167 HD
ENDBRANCH  23  25
ENDBRANCH  22  23
ENDBRANCH  11  22
BRANCH   1  27
HETATM   27  S1  UNL     1       2.032   3.097   1.302  1.00  0.00     0.174 S 
HETATM   28  C1  UNL     1       2.029   4.787   1.833  1.00  0.00     0.167 C 
HETATM   29  O1  UNL     1       3.345   2.786   0.772  1.00  0.00    -0.223 OA
HETATM   30  O2  UNL     1       1.465   2.330   2.397  1.00  0.00    -0.223 OA
ENDBRANCH   1  27
TORSDOF 6
