REMARK  5 active torsions:
REMARK  status: ('A' for Active; 'I' for Inactive)
REMARK    1  A    between atoms: C2_2  and  C3_3 
REMARK    2  A    between atoms: C4_5  and  C5_6 
REMARK    3  A    between atoms: C5_6  and  C6_7 
REMARK    4  A    between atoms: C6_7  and  C7_8 
REMARK    5  A    between atoms: C7_8  and  C9_10 
ROOT
HETATM    1  C9  UNL     1       2.260  -0.504  -0.534  1.00  0.00    -0.001 C 
HETATM    2  C10 UNL     1       2.185  -2.011  -0.155  1.00  0.00     0.007 C 
HETATM    3  C11 UNL     1       0.697  -2.382  -0.027  1.00  0.00     0.015 C 
HETATM    4  C12 UNL     1      -0.064  -1.206  -0.668  1.00  0.00    -0.004 C 
HETATM    5  C13 UNL     1      -0.076  -1.450  -2.207  1.00  0.00     0.021 C 
HETATM    6  C14 UNL     1      -1.512  -0.933  -0.294  1.00  0.00     0.007 C 
HETATM    7  C15 UNL     1      -2.070   0.301  -0.374  1.00  0.00     0.007 C 
HETATM    8  C16 UNL     1      -1.160   1.452  -0.782  1.00  0.00     0.157 C 
HETATM    9  O2  UNL     1      -1.628   2.565  -1.018  1.00  0.00    -0.293 OA
HETATM   10  C17 UNL     1       0.345   1.249  -0.915  1.00  0.00     0.094 C 
HETATM   11  C18 UNL     1       0.824  -0.003  -0.183  1.00  0.00    -0.022 C 
HETATM   12  C19 UNL     1       0.725   0.256   1.356  1.00  0.00     0.017 C 
HETATM   13  C20 UNL     1      -3.555   0.624  -0.062  1.00  0.00    -0.007 C 
HETATM   14  C21 UNL     1      -3.560   1.381   1.289  1.00  0.00     0.021 C 
HETATM   15  C22 UNL     1      -4.204   1.534  -1.156  1.00  0.00     0.022 C 
HETATM   16  C23 UNL     1      -5.706   1.363  -1.371  1.00  0.00     0.080 C 
HETATM   17  C24 UNL     1      -6.398   0.828  -0.143  1.00  0.00     0.135 C 
HETATM   18  O3  UNL     1      -7.351   1.423   0.357  1.00  0.00    -0.297 OA
HETATM   19  C25 UNL     1      -5.903  -0.525   0.381  1.00  0.00     0.018 C 
HETATM   20  C26 UNL     1      -6.175  -0.630   1.894  1.00  0.00     0.023 C 
HETATM   21  C27 UNL     1      -6.757  -1.605  -0.317  1.00  0.00     0.023 C 
HETATM   22  C28 UNL     1      -4.397  -0.702  -0.015  1.00  0.00     0.021 C 
HETATM   23  C29 UNL     1      -3.682  -1.780   0.796  1.00  0.00     0.090 C 
HETATM   24  C30 UNL     1      -2.358  -2.084   0.148  1.00  0.00     0.157 C 
HETATM   25  O4  UNL     1      -1.980  -3.244   0.014  1.00  0.00    -0.293 OA
ENDROOT
BRANCH   1  26
HETATM   26  C7  UNL     1       3.503   0.193   0.099  1.00  0.00    -0.014 C 
HETATM   27  C8  UNL     1       3.544   1.692  -0.228  1.00  0.00     0.010 C 
BRANCH  26  28
HETATM   28  C6  UNL     1       4.822  -0.470  -0.392  1.00  0.00     0.008 C 
BRANCH  28  29
HETATM   29  C5  UNL     1       5.891  -0.638   0.699  1.00  0.00     0.028 C 
BRANCH  29  30
HETATM   30  C4  UNL     1       6.392   0.649   1.286  1.00  0.00    -0.017 C 
HETATM   31  C2  UNL     1       7.502   1.324   0.929  1.00  0.00    -0.028 C 
HETATM   32  C1  UNL     1       8.460   0.965  -0.161  1.00  0.00     0.051 C 
BRANCH  31  33
HETATM   33  C3  UNL     1       7.819   2.586   1.666  1.00  0.00     0.265 C 
HETATM   34  O1  UNL     1       7.118   3.055   2.554  1.00  0.00    -0.302 OA
ENDBRANCH  31  33
ENDBRANCH  29  30
ENDBRANCH  28  29
ENDBRANCH  26  28
ENDBRANCH   1  26
TORSDOF 5
