REMARK  11 active torsions:
REMARK  status: ('A' for Active; 'I' for Inactive)
REMARK    1  A    between atoms: O1_2  and  C2_3 
REMARK    2  A    between atoms: C4_5  and  O2_6 
REMARK    3  A    between atoms: O2_6  and  C5_7 
REMARK    4  A    between atoms: C8_10  and  C9_11 
REMARK    5  A    between atoms: N1_12  and  C10_14 
REMARK    6  A    between atoms: C10_14  and  C11_15 
REMARK    7  A    between atoms: C11_15  and  O3_16 
REMARK    8  A    between atoms: C17_22  and  C18_23 
REMARK    9  A    between atoms: C24_31  and  O6_32 
REMARK   10  A    between atoms: C28_36  and  O7_37 
REMARK   11  A    between atoms: C32_42  and  O9_43 
ROOT
HETATM    1  C5  UNL     1      -2.776  -0.620   0.040  1.00  0.00     0.127 C 
HETATM    2  C6  UNL     1      -1.911  -1.868  -0.147  1.00  0.00     0.033 C 
HETATM    3  C7  UNL     1      -0.474  -1.685   0.352  1.00  0.00     0.021 C 
HETATM    4  C8  UNL     1       0.228  -0.432  -0.251  1.00  0.00     0.026 C 
HETATM    5  C12 UNL     1       1.652  -0.246   0.433  1.00  0.00     0.009 C 
HETATM    6  C13 UNL     1       2.766  -1.019  -0.306  1.00  0.00     0.007 C 
HETATM    7  C14 UNL     1       4.139  -0.860   0.333  1.00  0.00     0.013 C 
HETATM    8  C15 UNL     1       4.587   0.615   0.405  1.00  0.00    -0.005 C 
HETATM    9  C16 UNL     1       4.903   1.152  -1.006  1.00  0.00     0.019 C 
HETATM   10  C17 UNL     1       5.822   0.790   1.356  1.00  0.00     0.028 C 
HETATM   11  C22 UNL     1       5.207   0.822   2.773  1.00  0.00     0.013 C 
HETATM   12  C23 UNL     1       3.715   1.110   2.608  1.00  0.00     0.040 C 
HETATM   13  C24 UNL     1       3.508   1.472   1.123  1.00  0.00     0.070 C 
HETATM   14  C25 UNL     1       2.028   1.246   0.696  1.00  0.00     0.026 C 
HETATM   15  C26 UNL     1       1.507   2.141  -0.439  1.00  0.00     0.011 C 
HETATM   16  C27 UNL     1      -0.031   2.114  -0.534  1.00  0.00     0.039 C 
HETATM   17  C28 UNL     1      -0.673   0.815   0.006  1.00  0.00     0.073 C 
HETATM   18  C29 UNL     1      -2.092   0.620  -0.554  1.00  0.00     0.071 C 
ENDROOT
BRANCH   1  19
HETATM   19  O2  UNL     1      -4.013  -0.858  -0.642  1.00  0.00    -0.356 OA
BRANCH  19  20
HETATM   20  C4  UNL     1      -5.154  -0.324   0.031  1.00  0.00     0.263 C 
HETATM   21  C3  UNL     1      -6.380  -0.781  -0.760  1.00  0.00     0.095 C 
HETATM   22  C2  UNL     1      -7.658  -0.214  -0.156  1.00  0.00     0.156 C 
HETATM   23  C32 UNL     1      -7.532   1.314  -0.000  1.00  0.00     0.175 C 
HETATM   24  C30 UNL     1      -6.229   1.671   0.734  1.00  0.00     0.151 C 
HETATM   25  O8  UNL     1      -5.100   1.100   0.063  1.00  0.00    -0.354 OA
HETATM   26  C31 UNL     1      -6.015   3.180   0.784  1.00  0.00     0.042 C 
BRANCH  22  27
HETATM   27  O1  UNL     1      -7.915  -0.751   1.157  1.00  0.00    -0.388 OA
HETATM   28  C1  UNL     1      -8.440  -2.073   1.136  1.00  0.00     0.202 C 
ENDBRANCH  22  27
BRANCH  23  29
HETATM   29  O9  UNL     1      -8.669   1.812   0.714  1.00  0.00    -0.390 OA
HETATM   30  H49 UNL     1      -8.850   1.141   1.405  1.00  0.00     0.210 HD
ENDBRANCH  23  29
ENDBRANCH  19  20
ENDBRANCH   1  19
BRANCH  17  31
HETATM   31  O7  UNL     1      -0.820   0.979   1.433  1.00  0.00    -0.389 OA
HETATM   32  H41 UNL     1      -1.436   1.717   1.592  1.00  0.00     0.210 HD
ENDBRANCH  17  31
BRANCH   4  33
HETATM   33  C9  UNL     1       0.382  -0.621  -1.775  1.00  0.00     0.068 C 
HETATM   34  N1  UNL     1       0.449  -1.789  -2.321  1.00  0.00    -0.399 N 
ATOM     35  H1  UNL     1       0.375  -2.657  -1.791  1.00  0.00     0.158 HD
BRANCH  34  36
HETATM   36  C10 UNL     1       0.642  -1.752  -3.779  1.00  0.00     0.144 C 
BRANCH  36  37
HETATM   37  C11 UNL     1       1.057  -3.150  -4.233  1.00  0.00     0.183 C 
BRANCH  37  38
HETATM   38  O3  UNL     1       2.261  -3.526  -3.563  1.00  0.00    -0.399 OA
HETATM   39  H18 UNL     1       2.089  -3.308  -2.626  1.00  0.00     0.209 HD
ENDBRANCH  37  38
ENDBRANCH  36  37
ENDBRANCH  34  36
ENDBRANCH   4  33
BRANCH  13  40
HETATM   40  O6  UNL     1       3.841   2.861   1.000  1.00  0.00    -0.389 OA
HETATM   41  H35 UNL     1       3.220   3.366   1.554  1.00  0.00     0.210 HD
ENDBRANCH  13  40
BRANCH  10  42
HETATM   42  C18 UNL     1       6.992  -0.148   1.186  1.00  0.00    -0.045 A 
HETATM   43  C19 UNL     1       7.465  -1.062   2.035  1.00  0.00     0.087 A 
HETATM   44  C20 UNL     1       8.670  -1.638   1.442  1.00  0.00     0.283 A 
HETATM   45  O4  UNL     1       9.346  -2.511   1.953  1.00  0.00    -0.260 OA
HETATM   46  O5  UNL     1       8.908  -1.034   0.250  1.00  0.00    -0.314 OA
HETATM   47  C21 UNL     1       7.872  -0.087  -0.010  1.00  0.00     0.213 A 
ENDBRANCH  10  42
TORSDOF 11
