REMARK  5 active torsions:
REMARK  status: ('A' for Active; 'I' for Inactive)
REMARK    1  A    between atoms: C2_2  and  C3_3 
REMARK    2  A    between atoms: C6_6  and  C7_7 
REMARK    3  A    between atoms: C7_7  and  O1_9 
REMARK    4  A    between atoms: C23_29  and  O6_30 
REMARK    5  A    between atoms: C28_36  and  O8_37 
ROOT
HETATM    1  C3  UNL     1       1.307  -1.968   0.720  1.00  0.00     0.008 C 
HETATM    2  C4  UNL     1       2.744  -1.687   1.122  1.00  0.00    -0.023 C 
HETATM    3  C5  UNL     1       3.507  -0.577   1.067  1.00  0.00     0.004 C 
HETATM    4  C6  UNL     1       3.332   0.853   0.580  1.00  0.00     0.183 C 
HETATM    5  O2  UNL     1       2.119   1.087  -0.155  1.00  0.00    -0.306 OA
HETATM    6  C9  UNL     1       2.185   2.116  -1.055  1.00  0.00     0.289 C 
HETATM    7  O3  UNL     1       3.182   2.745  -1.376  1.00  0.00    -0.260 OA
HETATM    8  C10 UNL     1       0.827   2.375  -1.594  1.00  0.00     0.010 C 
HETATM    9  C11 UNL     1       0.563   1.847  -2.961  1.00  0.00     0.054 C 
HETATM   10  C12 UNL     1      -0.034   2.945  -0.726  1.00  0.00     0.004 C 
HETATM   11  C13 UNL     1      -1.544   2.791  -0.743  1.00  0.00     0.147 C 
HETATM   12  C14 UNL     1      -2.289   3.933  -0.031  1.00  0.00     0.233 C 
HETATM   13  O4  UNL     1      -2.191   5.124  -0.270  1.00  0.00    -0.272 OA
HETATM   14  N1  UNL     1      -3.135   3.391   0.931  1.00  0.00    -0.327 N 
HETATM   15  C15 UNL     1      -3.042   2.041   1.028  1.00  0.00     0.056 C 
HETATM   16  C16 UNL     1      -3.693   1.205   1.844  1.00  0.00     0.084 C 
HETATM   17  C17 UNL     1      -3.321  -0.248   1.747  1.00  0.00     0.185 C 
HETATM   18  O5  UNL     1      -3.597  -1.015   2.656  1.00  0.00    -0.287 OA
HETATM   19  C18 UNL     1      -2.702  -0.720   0.459  1.00  0.00     0.040 C 
HETATM   20  C19 UNL     1      -2.333   0.247  -0.487  1.00  0.00    -0.001 C 
HETATM   21  C20 UNL     1      -2.168  -0.129  -1.823  1.00  0.00     0.021 C 
HETATM   22  C21 UNL     1      -2.233  -1.482  -2.186  1.00  0.00    -0.027 C 
HETATM   23  C22 UNL     1      -2.024  -1.886  -3.618  1.00  0.00     0.051 C 
HETATM   24  C23 UNL     1      -2.311  -2.443  -1.170  1.00  0.00     0.086 C 
HETATM   25  C24 UNL     1      -2.449  -2.049   0.167  1.00  0.00     0.058 C 
HETATM   26  C25 UNL     1      -1.881  -2.946   1.203  1.00  0.00     0.163 C 
HETATM   27  O7  UNL     1      -2.140  -4.149   1.134  1.00  0.00    -0.292 OA
HETATM   28  C26 UNL     1      -0.842  -2.373   2.168  1.00  0.00     0.084 C 
HETATM   29  C27 UNL     1       0.602  -2.795   1.853  1.00  0.00     0.016 C 
HETATM   30  C28 UNL     1      -1.949   1.564   0.125  1.00  0.00     0.143 C 
HETATM   31  H20 UNL     1      -3.740   3.984   1.485  1.00  0.00     0.168 HD
ENDROOT
BRANCH   4  32
HETATM   32  C7  UNL     1       3.448   1.851   1.775  1.00  0.00     0.147 C 
HETATM   33  C8  UNL     1       2.289   1.755   2.762  1.00  0.00     0.042 C 
BRANCH  32  34
HETATM   34  O1  UNL     1       3.508   3.223   1.349  1.00  0.00    -0.393 OA
HETATM   35  H14 UNL     1       3.888   3.259   0.446  1.00  0.00     0.210 HD
ENDBRANCH  32  34
ENDBRANCH   4  32
BRANCH   1  36
HETATM   36  C2  UNL     1       1.327  -2.803  -0.585  1.00  0.00     0.004 C 
HETATM   37  C1  UNL     1       1.895  -2.064  -1.791  1.00  0.00     0.006 C 
ENDBRANCH   1  36
BRANCH  30  38
HETATM   38  O8  UNL     1      -0.876   1.201   1.037  1.00  0.00    -0.377 OA
HETATM   39  H31 UNL     1      -0.710   1.952   1.630  1.00  0.00     0.211 HD
ENDBRANCH  30  38
BRANCH  24  40
HETATM   40  O6  UNL     1      -2.157  -3.763  -1.518  1.00  0.00    -0.359 OA
HETATM   41  H26 UNL     1      -2.173  -4.292  -0.687  1.00  0.00     0.217 HD
ENDBRANCH  24  40
TORSDOF 5
