REMARK  10 active torsions:
REMARK  status: ('A' for Active; 'I' for Inactive)
REMARK    1  A    between atoms: C5_5  and  C6_6 
REMARK    2  A    between atoms: C6_6  and  C8_8 
REMARK    3  A    between atoms: C8_8  and  O1_9 
REMARK    4  A    between atoms: O1_9  and  C9_10 
REMARK    5  A    between atoms: C15_18  and  O4_20 
REMARK    6  A    between atoms: C17_21  and  O5_22 
REMARK    7  A    between atoms: C20_25  and  O6_27 
REMARK    8  A    between atoms: O6_27  and  C22_28 
REMARK    9  A    between atoms: C22_28  and  C23_30 
REMARK   10  A    between atoms: C23_30  and  C24_31 
ROOT
HETATM    1  C1  UNL     1      -2.559  -4.088  -0.648  1.00  0.00     0.015 C 
HETATM    2  C2  UNL     1      -2.175  -2.830  -0.371  1.00  0.00    -0.082 C 
HETATM    3  C3  UNL     1      -3.053  -1.915   0.432  1.00  0.00     0.034 C 
HETATM    4  C4  UNL     1      -3.230  -0.583  -0.296  1.00  0.00     0.010 C 
HETATM    5  C5  UNL     1      -1.886   0.165  -0.360  1.00  0.00    -0.001 C 
HETATM    6  C11 UNL     1      -0.830  -0.692  -1.097  1.00  0.00     0.033 C 
HETATM    7  C12 UNL     1       0.690  -0.378  -0.907  1.00  0.00     0.162 C 
HETATM    8  O3  UNL     1       1.278  -1.682  -0.925  1.00  0.00    -0.376 OA
HETATM    9  C13 UNL     1       0.384  -2.537  -0.203  1.00  0.00     0.133 C 
HETATM   10  C14 UNL     1       1.024  -3.908  -0.242  1.00  0.00     0.072 C 
HETATM   11  C15 UNL     1       2.300  -3.966   0.657  1.00  0.00     0.082 C 
HETATM   12  C16 UNL     1       3.019  -5.294   0.347  1.00  0.00     0.049 C 
HETATM   13  C17 UNL     1       3.341  -2.780   0.509  1.00  0.00     0.152 C 
HETATM   14  C18 UNL     1       3.024  -1.447   1.263  1.00  0.00     0.038 C 
HETATM   15  C19 UNL     1       2.850  -0.110   0.479  1.00  0.00     0.043 C 
HETATM   16  C20 UNL     1       1.377   0.425   0.268  1.00  0.00     0.093 C 
HETATM   17  C21 UNL     1       0.639   0.468   1.614  1.00  0.00     0.049 C 
HETATM   18  C26 UNL     1      -0.909  -2.250  -0.944  1.00  0.00     0.050 C 
ENDROOT
BRANCH   5  19
HETATM   19  C6  UNL     1      -1.974   1.605  -0.962  1.00  0.00     0.010 C 
HETATM   20  C7  UNL     1      -2.794   1.683  -2.256  1.00  0.00     0.012 C 
BRANCH  19  21
HETATM   21  C8  UNL     1      -2.474   2.653   0.055  1.00  0.00     0.183 C 
BRANCH  21  22
HETATM   22  O1  UNL     1      -3.831   2.411   0.449  1.00  0.00    -0.321 OA
BRANCH  22  23
HETATM   23  C9  UNL     1      -4.756   3.332   0.067  1.00  0.00     0.254 C 
HETATM   24  C10 UNL     1      -6.106   2.935   0.580  1.00  0.00     0.126 C 
HETATM   25  O2  UNL     1      -4.536   4.341  -0.586  1.00  0.00    -0.266 OA
ENDBRANCH  22  23
ENDBRANCH  21  22
ENDBRANCH  19  21
ENDBRANCH   5  19
BRANCH  16  26
HETATM   26  O6  UNL     1       1.440   1.792  -0.279  1.00  0.00    -0.308 OA
BRANCH  26  27
HETATM   27  C22 UNL     1       1.941   2.842   0.426  1.00  0.00     0.259 C 
HETATM   28  O7  UNL     1       2.358   2.800   1.574  1.00  0.00    -0.265 OA
BRANCH  27  29
HETATM   29  C23 UNL     1       1.828   4.101  -0.405  1.00  0.00     0.111 C 
BRANCH  29  30
HETATM   30  C24 UNL     1       2.885   5.142  -0.047  1.00  0.00     0.005 C 
HETATM   31  C25 UNL     1       4.270   4.753  -0.543  1.00  0.00     0.005 C 
ENDBRANCH  29  30
ENDBRANCH  27  29
ENDBRANCH  26  27
ENDBRANCH  16  26
BRANCH  11  32
HETATM   32  O4  UNL     1       1.871  -4.031   2.028  1.00  0.00    -0.388 OA
HETATM   33  H25 UNL     1       1.401  -4.874   2.161  1.00  0.00     0.210 HD
ENDBRANCH  11  32
BRANCH  13  34
HETATM   34  O5  UNL     1       3.701  -2.564  -0.853  1.00  0.00    -0.393 OA
HETATM   35  H27 UNL     1       2.892  -2.213  -1.282  1.00  0.00     0.210 HD
ENDBRANCH  13  34
TORSDOF 10
