REMARK  12 active torsions:
REMARK  status: ('A' for Active; 'I' for Inactive)
REMARK    1  A    between atoms: O1_2  and  C2_3 
REMARK    2  A    between atoms: C2_3  and  C3_4 
REMARK    3  A    between atoms: C2_3  and  C7_8 
REMARK    4  A    between atoms: C7_8  and  C8_9 
REMARK    5  A    between atoms: C8_9  and  C10_11 
REMARK    6  A    between atoms: C28_30  and  O3_31 
REMARK    7  A    between atoms: O3_31  and  C29_32 
REMARK    8  A    between atoms: C30_34  and  C31_35 
REMARK    9  A    between atoms: C31_35  and  O5_36 
REMARK   10  A    between atoms: C32_37  and  O6_38 
REMARK   11  A    between atoms: C33_39  and  O7_40 
REMARK   12  A    between atoms: C34_41  and  O8_42 
ROOT
HETATM    1  C10 UNL     1      -3.569  -0.508  -0.176  1.00  0.00    -0.002 C 
HETATM    2  C11 UNL     1      -3.590  -1.653  -1.239  1.00  0.00     0.006 C 
HETATM    3  C12 UNL     1      -2.305  -1.545  -2.077  1.00  0.00     0.011 C 
HETATM    4  C13 UNL     1      -1.395  -0.588  -1.283  1.00  0.00    -0.029 C 
HETATM    5  C14 UNL     1      -0.716  -1.466  -0.182  1.00  0.00     0.016 C 
HETATM    6  C15 UNL     1      -0.321   0.163  -2.131  1.00  0.00     0.028 C 
HETATM    7  C16 UNL     1       0.682  -0.769  -2.789  1.00  0.00    -0.021 C 
HETATM    8  C17 UNL     1       2.004  -0.529  -2.747  1.00  0.00     0.008 C 
HETATM    9  C18 UNL     1       2.564   0.687  -2.013  1.00  0.00     0.092 C 
HETATM   10  O2  UNL     1       2.185   1.796  -2.862  1.00  0.00    -0.374 OA
HETATM   11  C19 UNL     1       0.961   2.352  -2.368  1.00  0.00     0.179 C 
HETATM   12  C20 UNL     1       0.378   1.358  -1.335  1.00  0.00    -0.004 C 
HETATM   13  C21 UNL     1      -0.582   2.130  -0.390  1.00  0.00     0.014 C 
HETATM   14  C22 UNL     1      -1.718   1.336   0.279  1.00  0.00     0.011 C 
HETATM   15  C23 UNL     1      -2.453   0.441  -0.732  1.00  0.00    -0.032 C 
HETATM   16  C24 UNL     1      -3.077   1.346  -1.842  1.00  0.00     0.016 C 
HETATM   17  C25 UNL     1       1.709   0.849  -0.724  1.00  0.00     0.036 C 
HETATM   18  C26 UNL     1       2.385   1.731   0.323  1.00  0.00     0.011 C 
HETATM   19  C27 UNL     1       3.751   1.174   0.732  1.00  0.00     0.033 C 
HETATM   20  C28 UNL     1       4.414   0.267  -0.319  1.00  0.00     0.136 C 
HETATM   21  C35 UNL     1       4.124   0.742  -1.771  1.00  0.00     0.014 C 
HETATM   22  C36 UNL     1       4.705   2.171  -1.994  1.00  0.00     0.021 C 
HETATM   23  C37 UNL     1       4.906  -0.159  -2.758  1.00  0.00     0.021 C 
ENDROOT
BRANCH  20  24
HETATM   24  O3  UNL     1       5.833   0.241  -0.109  1.00  0.00    -0.352 OA
BRANCH  24  25
HETATM   25  C29 UNL     1       6.276  -0.743   0.837  1.00  0.00     0.292 C 
HETATM   26  O4  UNL     1       6.025  -0.318   2.173  1.00  0.00    -0.348 OA
HETATM   27  C30 UNL     1       7.103   0.368   2.823  1.00  0.00     0.179 C 
HETATM   28  C32 UNL     1       8.352  -0.536   2.938  1.00  0.00     0.180 C 
HETATM   29  C33 UNL     1       8.519  -1.501   1.753  1.00  0.00     0.183 C 
HETATM   30  C34 UNL     1       7.765  -1.040   0.516  1.00  0.00     0.204 C 
BRANCH  27  31
HETATM   31  C31 UNL     1       7.364   1.747   2.187  1.00  0.00     0.198 C 
BRANCH  31  32
HETATM   32  O5  UNL     1       8.453   2.418   2.809  1.00  0.00    -0.398 OA
HETATM   33  H48 UNL     1       8.457   3.329   2.471  1.00  0.00     0.209 HD
ENDBRANCH  31  32
ENDBRANCH  27  31
BRANCH  28  34
HETATM   34  O6  UNL     1       8.263  -1.319   4.146  1.00  0.00    -0.390 OA
HETATM   35  H50 UNL     1       8.211  -2.253   3.840  1.00  0.00     0.210 HD
ENDBRANCH  28  34
BRANCH  29  36
HETATM   36  O7  UNL     1       8.076  -2.827   2.127  1.00  0.00    -0.390 OA
HETATM   37  H52 UNL     1       7.841  -3.272   1.285  1.00  0.00     0.210 HD
ENDBRANCH  29  36
BRANCH  30  38
HETATM   38  O8  UNL     1       7.858  -2.080  -0.482  1.00  0.00    -0.388 OA
HETATM   39  H54 UNL     1       8.634  -1.874  -1.036  1.00  0.00     0.210 HD
ENDBRANCH  30  38
ENDBRANCH  24  25
ENDBRANCH  20  24
BRANCH   1  40
HETATM   40  C8  UNL     1      -4.999   0.064   0.075  1.00  0.00    -0.011 C 
HETATM   41  C9  UNL     1      -5.006   1.170   1.136  1.00  0.00     0.010 C 
BRANCH  40  42
HETATM   42  C7  UNL     1      -6.007  -1.042   0.507  1.00  0.00     0.040 C 
BRANCH  42  43
HETATM   43  C2  UNL     1      -7.367  -0.912  -0.216  1.00  0.00     0.144 C 
BRANCH  43  44
HETATM   44  O1  UNL     1      -7.896   0.397  -0.012  1.00  0.00    -0.387 OA
HETATM   45  C1  UNL     1      -8.774   0.817  -1.048  1.00  0.00     0.202 C 
ENDBRANCH  43  44
BRANCH  43  46
HETATM   46  C3  UNL     1      -8.318  -1.988   0.262  1.00  0.00     0.007 C 
HETATM   47  C4  UNL     1      -9.217  -1.957   1.269  1.00  0.00    -0.089 C 
HETATM   48  C5  UNL     1      -9.419  -0.805   2.215  1.00  0.00     0.042 C 
HETATM   49  C6  UNL     1     -10.115  -3.138   1.534  1.00  0.00     0.042 C 
ENDBRANCH  43  46
ENDBRANCH  42  43
ENDBRANCH  40  42
ENDBRANCH   1  40
TORSDOF 12
