REMARK  4 active torsions:
REMARK  status: ('A' for Active; 'I' for Inactive)
REMARK    1  A    between atoms: C4_4  and  C5_5 
REMARK    2  A    between atoms: C5_5  and  C6_6 
REMARK    3  A    between atoms: C6_6  and  C7_7 
REMARK    4  A    between atoms: C7_7  and  C9_9 
ROOT
HETATM    1  C9  UNL     1      -1.967  -0.120  -0.764  1.00  0.00    -0.002 C 
HETATM    2  C10 UNL     1      -1.899   1.415  -1.035  1.00  0.00     0.006 C 
HETATM    3  C11 UNL     1      -0.415   1.830  -0.997  1.00  0.00     0.011 C 
HETATM    4  C12 UNL     1       0.363   0.504  -1.044  1.00  0.00    -0.032 C 
HETATM    5  C13 UNL     1       0.387   0.093  -2.561  1.00  0.00     0.016 C 
HETATM    6  C14 UNL     1       1.854   0.501  -0.567  1.00  0.00     0.004 C 
HETATM    7  C15 UNL     1       2.310   1.726   0.226  1.00  0.00     0.007 C 
HETATM    8  C16 UNL     1       3.802   1.692   0.597  1.00  0.00     0.007 C 
HETATM    9  C17 UNL     1       4.574   0.403   0.210  1.00  0.00     0.010 C 
HETATM   10  C18 UNL     1       5.994   0.328   0.864  1.00  0.00     0.018 C 
HETATM   11  C19 UNL     1       6.878   1.486   0.358  1.00  0.00     0.023 C 
HETATM   12  C20 UNL     1       5.974   0.379   2.402  1.00  0.00     0.023 C 
HETATM   13  C21 UNL     1       6.640  -1.003   0.450  1.00  0.00     0.135 C 
HETATM   14  O1  UNL     1       7.768  -1.075  -0.038  1.00  0.00    -0.297 OA
HETATM   15  C22 UNL     1       5.845  -2.257   0.720  1.00  0.00     0.080 C 
HETATM   16  C23 UNL     1       4.496  -2.151   0.039  1.00  0.00     0.018 C 
HETATM   17  C24 UNL     1       3.757  -0.888   0.440  1.00  0.00    -0.026 A 
HETATM   18  C25 UNL     1       2.763  -0.924   1.567  1.00  0.00     0.021 A 
HETATM   19  C26 UNL     1       2.249  -0.818   0.132  1.00  0.00    -0.027 A 
HETATM   20  C27 UNL     1       1.475  -2.031  -0.365  1.00  0.00     0.011 C 
HETATM   21  C28 UNL     1      -0.058  -1.876  -0.269  1.00  0.00     0.011 C 
HETATM   22  C29 UNL     1      -0.554  -0.418  -0.157  1.00  0.00    -0.032 C 
HETATM   23  C30 UNL     1      -0.581  -0.015   1.347  1.00  0.00     0.016 C 
ENDROOT
BRANCH   1  24
HETATM   24  C7  UNL     1      -3.262  -0.528   0.005  1.00  0.00    -0.014 C 
HETATM   25  C8  UNL     1      -3.309  -2.034   0.287  1.00  0.00     0.010 C 
BRANCH  24  26
HETATM   26  C6  UNL     1      -4.518  -0.092  -0.803  1.00  0.00     0.008 C 
BRANCH  26  27
HETATM   27  C5  UNL     1      -5.852  -0.354  -0.091  1.00  0.00     0.028 C 
BRANCH  27  28
HETATM   28  C4  UNL     1      -6.994   0.258  -0.858  1.00  0.00    -0.025 C 
HETATM   29  C2  UNL     1      -7.849   1.221  -0.459  1.00  0.00    -0.091 C 
HETATM   30  C1  UNL     1      -8.929   1.716  -1.386  1.00  0.00     0.042 C 
HETATM   31  C3  UNL     1      -7.840   1.896   0.885  1.00  0.00     0.042 C 
ENDBRANCH  27  28
ENDBRANCH  26  27
ENDBRANCH  24  26
ENDBRANCH   1  24
TORSDOF 4
