REMARK  19 active torsions:
REMARK  status: ('A' for Active; 'I' for Inactive)
REMARK    1  A    between atoms: C19_20  and  O2_21 
REMARK    2  A    between atoms: C19_20  and  C20_22 
REMARK    3  A    between atoms: C20_22  and  C21_24 
REMARK    4  A    between atoms: C21_24  and  O4_25 
REMARK    5  A    between atoms: O4_25  and  C22_26 
REMARK    6  A    between atoms: C22_26  and  C23_28 
REMARK    7  A    between atoms: C23_28  and  C24_29 
REMARK    8  A    between atoms: C24_29  and  C25_30 
REMARK       I    between atoms: C25_30  and  N1_32 
REMARK    9  A    between atoms: N1_32  and  C26_33 
REMARK   10  A    between atoms: C26_33  and  C27_34 
REMARK   11  A    between atoms: C27_34  and  C28_35 
REMARK   12  A    between atoms: C28_35  and  C29_36 
REMARK   13  A    between atoms: C29_36  and  C30_37 
REMARK   14  A    between atoms: C30_37  and  C31_38 
REMARK       I    between atoms: C31_38  and  N2_40 
REMARK   15  A    between atoms: N2_40  and  C32_41 
REMARK   16  A    between atoms: C32_41  and  C33_42 
REMARK   17  A    between atoms: C33_42  and  C34_43 
REMARK   18  A    between atoms: C37_46  and  O8_47 
REMARK   19  A    between atoms: C38_48  and  O9_49 
ROOT
HETATM    1  C22 UNL     1      -1.130  -3.000   0.364  1.00  0.00     0.259 C 
HETATM    2  O5  UNL     1      -0.943  -3.315  -0.805  1.00  0.00    -0.265 OA
ENDROOT
BRANCH   1   3
HETATM    3  O4  UNL     1      -2.286  -3.218   1.048  1.00  0.00    -0.314 OA
BRANCH   3   4
HETATM    4  C21 UNL     1      -3.280  -3.973   0.365  1.00  0.00     0.260 C 
BRANCH   4   5
HETATM    5  C20 UNL     1      -3.696  -3.672  -1.087  1.00  0.00     0.185 C 
HETATM    6  O3  UNL     1      -3.840  -4.602  -1.886  1.00  0.00    -0.292 OA
BRANCH   5   7
HETATM    7  C19 UNL     1      -4.023  -2.209  -1.476  1.00  0.00     0.128 C 
HETATM    8  C14 UNL     1      -5.374  -1.683  -0.896  1.00  0.00    -0.002 C 
HETATM    9  C13 UNL     1      -5.350  -1.235   0.580  1.00  0.00     0.013 C 
HETATM   10  C15 UNL     1      -6.495  -2.740  -1.098  1.00  0.00     0.019 C 
HETATM   11  C16 UNL     1      -5.575  -0.428  -1.771  1.00  0.00     0.002 C 
HETATM   12  C12 UNL     1      -6.117   0.078   0.858  1.00  0.00     0.007 C 
HETATM   13  C11 UNL     1      -7.348   0.305  -0.056  1.00  0.00     0.002 C 
HETATM   14  C2  UNL     1      -8.227   1.561   0.301  1.00  0.00    -0.016 C 
HETATM   15  C10 UNL     1      -6.940   0.261  -1.578  1.00  0.00    -0.004 C 
HETATM   16  C1  UNL     1      -9.605   1.414  -0.404  1.00  0.00     0.020 C 
HETATM   17  C3  UNL     1      -8.490   1.670   1.830  1.00  0.00     0.022 C 
HETATM   18  C7  UNL     1      -7.559   2.854  -0.153  1.00  0.00    -0.068 C 
HETATM   19  C4  UNL     1      -9.297   2.910   2.209  1.00  0.00     0.084 C 
HETATM   20  C5  UNL     1      -8.714   4.164   1.603  1.00  0.00     0.149 C 
HETATM   21  O1  UNL     1      -9.003   5.284   2.019  1.00  0.00    -0.293 OA
HETATM   22  C6  UNL     1      -7.792   4.037   0.446  1.00  0.00     0.053 C 
HETATM   23  C8  UNL     1      -6.592   2.778  -1.307  1.00  0.00     0.035 C 
HETATM   24  C9  UNL     1      -6.932   1.645  -2.266  1.00  0.00     0.010 C 
HETATM   25  C17 UNL     1      -5.235  -0.898  -3.188  1.00  0.00     0.009 C 
HETATM   26  C18 UNL     1      -4.211  -2.033  -3.006  1.00  0.00     0.047 C 
BRANCH   7  27
HETATM   27  O2  UNL     1      -2.948  -1.338  -1.110  1.00  0.00    -0.381 OA
HETATM   28  H27 UNL     1      -2.155  -1.678  -1.571  1.00  0.00     0.211 HD
ENDBRANCH   7  27
ENDBRANCH   5   7
ENDBRANCH   4   5
ENDBRANCH   3   4
ENDBRANCH   1   3
BRANCH   1  29
HETATM   29  C23 UNL     1      -0.127  -2.284   1.227  1.00  0.00     0.120 C 
BRANCH  29  30
HETATM   30  C24 UNL     1       1.106  -1.920   0.409  1.00  0.00     0.112 C 
BRANCH  30  31
HETATM   31  C25 UNL     1       2.133  -1.151   1.208  1.00  0.00     0.217 C 
HETATM   32  O6  UNL     1       1.999  -0.866   2.391  1.00  0.00    -0.274 OA
HETATM   33  N1  UNL     1       3.240  -0.822   0.452  1.00  0.00    -0.361 N 
HETATM   34  H34 UNL     1       3.157  -0.893  -0.554  1.00  0.00     0.162 HD
BRANCH  33  35
HETATM   35  C26 UNL     1       4.296   0.017   0.980  1.00  0.00     0.122 C 
BRANCH  35  36
HETATM   36  C27 UNL     1       5.591  -0.141   0.186  1.00  0.00     0.020 C 
BRANCH  36  37
HETATM   37  C28 UNL     1       6.202  -1.548   0.236  1.00  0.00     0.002 C 
BRANCH  37  38
HETATM   38  C29 UNL     1       6.664  -2.017   1.624  1.00  0.00     0.009 C 
BRANCH  38  39
HETATM   39  C30 UNL     1       7.825  -1.206   2.202  1.00  0.00     0.103 C 
BRANCH  39  40
HETATM   40  C31 UNL     1       9.125  -1.429   1.450  1.00  0.00     0.217 C 
HETATM   41  O7  UNL     1       9.353  -2.423   0.770  1.00  0.00    -0.274 OA
HETATM   42  N2  UNL     1      10.046  -0.422   1.639  1.00  0.00    -0.361 N 
HETATM   43  H45 UNL     1       9.729   0.459   2.022  1.00  0.00     0.162 HD
BRANCH  42  44
HETATM   44  C32 UNL     1      11.318  -0.427   0.937  1.00  0.00     0.127 C 
BRANCH  44  45
HETATM   45  C33 UNL     1      11.199  -0.026  -0.539  1.00  0.00     0.058 C 
BRANCH  45  46
HETATM   46  C34 UNL     1      10.730   1.402  -0.719  1.00  0.00    -0.054 A 
HETATM   47  C35 UNL     1       9.380   1.670  -1.013  1.00  0.00     0.010 A 
HETATM   48  C36 UNL     1       8.932   2.984  -1.161  1.00  0.00     0.040 A 
HETATM   49  C37 UNL     1       9.834   4.027  -1.014  1.00  0.00     0.098 A 
HETATM   50  C38 UNL     1      11.173   3.777  -0.727  1.00  0.00     0.099 A 
HETATM   51  C39 UNL     1      11.630   2.471  -0.574  1.00  0.00     0.046 A 
BRANCH  49  52
HETATM   52  O8  UNL     1       9.392   5.311  -1.157  1.00  0.00    -0.358 OA
HETATM   53  H52 UNL     1      10.189   5.861  -1.020  1.00  0.00     0.217 HD
ENDBRANCH  49  52
BRANCH  50  54
HETATM   54  O9  UNL     1      12.007   4.855  -0.600  1.00  0.00    -0.358 OA
HETATM   55  H53 UNL     1      12.908   4.524  -0.444  1.00  0.00     0.217 HD
ENDBRANCH  50  54
ENDBRANCH  45  46
ENDBRANCH  44  45
ENDBRANCH  42  44
ENDBRANCH  39  40
ENDBRANCH  38  39
ENDBRANCH  37  38
ENDBRANCH  36  37
ENDBRANCH  35  36
ENDBRANCH  33  35
ENDBRANCH  30  31
ENDBRANCH  29  30
ENDBRANCH   1  29
TORSDOF 19
