REMARK  16 active torsions:
REMARK  status: ('A' for Active; 'I' for Inactive)
REMARK    1  A    between atoms: S1_2  and  C2_3 
REMARK    2  A    between atoms: C2_3  and  C3_4 
REMARK    3  A    between atoms: C3_4  and  C4_5 
REMARK    4  A    between atoms: C4_5  and  N1_6 
REMARK    5  A    between atoms: C4_5  and  C33_44 
REMARK       I    between atoms: N1_6  and  C5_7 
REMARK    6  A    between atoms: C5_7  and  C6_9 
REMARK    7  A    between atoms: C6_9  and  N2_11 
REMARK       I    between atoms: N2_11  and  C8_12 
REMARK    8  A    between atoms: C8_12  and  C9_14 
REMARK    9  A    between atoms: C9_14  and  C10_15 
REMARK   10  A    between atoms: C10_15  and  C11_16 
REMARK   11  A    between atoms: C11_16  and  O4_18 
REMARK   12  A    between atoms: O4_18  and  C12_19 
REMARK   13  A    between atoms: C12_19  and  C13_20 
REMARK   14  A    between atoms: C13_20  and  C14_22 
REMARK   15  A    between atoms: C14_22  and  O6_23 
REMARK   16  A    between atoms: C33_44  and  O10_46 
ROOT
HETATM    1  C12 UNL     1       1.007  -0.020   2.500  1.00  0.00     0.260 C 
ENDROOT
BRANCH   1   2
HETATM    2  O4  UNL     1       1.178  -1.416   2.710  1.00  0.00    -0.314 OA
BRANCH   2   3
HETATM    3  C11 UNL     1       1.449  -2.156   1.606  1.00  0.00     0.259 C 
HETATM    4  O3  UNL     1       1.303  -1.755   0.462  1.00  0.00    -0.265 OA
BRANCH   3   5
HETATM    5  C10 UNL     1       1.844  -3.566   1.969  1.00  0.00     0.120 C 
BRANCH   5   6
HETATM    6  C9  UNL     1       2.822  -4.129   0.942  1.00  0.00     0.112 C 
BRANCH   6   7
HETATM    7  C8  UNL     1       4.152  -3.405   1.002  1.00  0.00     0.218 C 
HETATM    8  N2  UNL     1       5.008  -3.737  -0.027  1.00  0.00    -0.348 N 
HETATM    9  H14 UNL     1       4.568  -4.038  -0.891  1.00  0.00     0.163 HD
HETATM   10  O2  UNL     1       4.451  -2.625   1.902  1.00  0.00    -0.274 OA
BRANCH   8  11
HETATM   11  C6  UNL     1       6.248  -2.987  -0.199  1.00  0.00     0.172 C 
HETATM   12  C7  UNL     1       7.319  -3.857  -0.842  1.00  0.00     0.042 C 
BRANCH  11  13
HETATM   13  C5  UNL     1       5.950  -1.782  -1.110  1.00  0.00     0.240 C 
HETATM   14  N1  UNL     1       6.641  -0.637  -0.791  1.00  0.00    -0.345 N 
HETATM   15  H9  UNL     1       7.049  -0.571   0.138  1.00  0.00     0.163 HD
HETATM   16  O1  UNL     1       5.204  -1.871  -2.081  1.00  0.00    -0.271 OA
BRANCH  14  17
HETATM   17  C4  UNL     1       6.346   0.646  -1.434  1.00  0.00     0.183 C 
BRANCH  17  18
HETATM   18  C3  UNL     1       6.823   0.727  -2.893  1.00  0.00     0.046 C 
BRANCH  18  19
HETATM   19  C2  UNL     1       8.277   0.333  -3.152  1.00  0.00     0.076 C 
BRANCH  19  20
HETATM   20  S1  UNL     1       9.520   1.514  -2.540  1.00  0.00    -0.173 SA
HETATM   21  C1  UNL     1       9.287   2.852  -3.738  1.00  0.00     0.089 C 
ENDBRANCH  19  20
ENDBRANCH  18  19
ENDBRANCH  17  18
BRANCH  17  22
HETATM   22  C33 UNL     1       6.893   1.762  -0.545  1.00  0.00     0.163 C 
HETATM   23  O9  UNL     1       7.411   1.603   0.552  1.00  0.00    -0.648 OA
BRANCH  22  24
HETATM   24  O10 UNL     1       6.695   3.003  -1.030  1.00  0.00    -0.775 OA
HETATM   25  H46 UNL     1       7.078   3.590  -0.344  1.00  0.00     0.167 HD
ENDBRANCH  22  24
ENDBRANCH  17  22
ENDBRANCH  14  17
ENDBRANCH  11  13
ENDBRANCH   8  11
ENDBRANCH   6   7
ENDBRANCH   5   6
ENDBRANCH   3   5
ENDBRANCH   2   3
ENDBRANCH   1   2
BRANCH   1  26
HETATM   26  C13 UNL     1       0.034   0.569   1.459  1.00  0.00     0.185 C 
HETATM   27  O5  UNL     1       0.333   1.617   0.877  1.00  0.00    -0.292 OA
BRANCH  26  28
HETATM   28  C14 UNL     1      -1.312  -0.145   1.180  1.00  0.00     0.128 C 
HETATM   29  C15 UNL     1      -1.810  -1.100   2.294  1.00  0.00     0.047 C 
HETATM   30  C16 UNL     1      -3.350  -1.051   2.270  1.00  0.00     0.009 C 
HETATM   31  C17 UNL     1      -3.688  -0.159   1.082  1.00  0.00     0.002 C 
HETATM   32  C18 UNL     1      -5.099   0.423   0.959  1.00  0.00     0.003 C 
HETATM   33  C31 UNL     1      -2.519   0.849   1.003  1.00  0.00     0.005 C 
HETATM   34  C19 UNL     1      -5.856   0.728   2.266  1.00  0.00     0.010 C 
HETATM   35  C28 UNL     1      -5.150   1.668   0.044  1.00  0.00     0.072 C 
HETATM   36  C20 UNL     1      -7.074   1.645   2.038  1.00  0.00     0.035 C 
HETATM   37  C21 UNL     1      -7.601   1.516   0.627  1.00  0.00    -0.067 C 
HETATM   38  C22 UNL     1      -8.829   1.019   0.404  1.00  0.00     0.053 C 
HETATM   39  C26 UNL     1      -6.609   1.872  -0.503  1.00  0.00    -0.009 C 
HETATM   40  C23 UNL     1      -9.333   0.774  -0.968  1.00  0.00     0.149 C 
HETATM   41  O7  UNL     1     -10.501   0.422  -1.119  1.00  0.00    -0.293 OA
HETATM   42  C24 UNL     1      -8.402   1.000  -2.134  1.00  0.00     0.084 C 
HETATM   43  C25 UNL     1      -6.930   0.973  -1.726  1.00  0.00     0.022 C 
HETATM   44  C27 UNL     1      -6.799   3.358  -0.874  1.00  0.00     0.021 C 
HETATM   45  C29 UNL     1      -3.984   1.686  -0.945  1.00  0.00     0.133 C 
HETATM   46  O8  UNL     1      -4.136   1.883  -2.152  1.00  0.00    -0.297 OA
HETATM   47  C30 UNL     1      -2.575   1.577  -0.362  1.00  0.00     0.091 C 
HETATM   48  C32 UNL     1      -2.550   1.886   2.154  1.00  0.00     0.019 C 
BRANCH  28  49
HETATM   49  O6  UNL     1      -1.196  -0.914  -0.023  1.00  0.00    -0.381 OA
HETATM   50  H21 UNL     1      -0.314  -1.350  -0.043  1.00  0.00     0.211 HD
ENDBRANCH  28  49
ENDBRANCH  26  28
ENDBRANCH   1  26
TORSDOF 16
