REMARK  12 active torsions:
REMARK  status: ('A' for Active; 'I' for Inactive)
REMARK    1  A    between atoms: C3_3  and  O1_4 
REMARK    2  A    between atoms: N1_14  and  O2_16 
REMARK    3  A    between atoms: O2_16  and  C13_17 
REMARK    4  A    between atoms: C13_17  and  C14_18 
REMARK       I    between atoms: C14_18  and  N2_20 
REMARK    5  A    between atoms: N2_20  and  C15_21 
REMARK    6  A    between atoms: C15_21  and  C16_22 
REMARK    7  A    between atoms: C15_21  and  C27_38 
REMARK       I    between atoms: C16_22  and  N3_24 
REMARK    8  A    between atoms: N3_24  and  C17_25 
REMARK    9  A    between atoms: C17_25  and  C18_26 
REMARK   10  A    between atoms: C17_25  and  C20_30 
REMARK   11  A    between atoms: C18_26  and  C19_27 
REMARK   12  A    between atoms: C19_27  and  O6_29 
ROOT
HETATM    1  C1  UNL     1     -10.921   3.913   2.526  1.00  0.00     0.015 C 
HETATM    2  C2  UNL     1     -10.317   2.879   2.433  1.00  0.00    -0.078 C 
HETATM    3  C3  UNL     1      -9.575   1.612   2.342  1.00  0.00     0.128 C 
HETATM    4  C4  UNL     1     -10.465   0.401   2.639  1.00  0.00     0.052 C 
HETATM    5  C5  UNL     1      -9.609  -0.774   2.179  1.00  0.00     0.010 C 
HETATM    6  C6  UNL     1      -8.922  -0.270   0.901  1.00  0.00     0.002 C 
HETATM    7  C7  UNL     1      -7.540  -0.883   0.582  1.00  0.00    -0.004 C 
HETATM    8  C8  UNL     1      -6.526  -0.986   1.741  1.00  0.00     0.010 C 
HETATM    9  C9  UNL     1      -5.080  -0.561   1.435  1.00  0.00     0.035 C 
HETATM   10  C10 UNL     1      -4.571  -0.783   0.029  1.00  0.00    -0.069 C 
HETATM   11  C11 UNL     1      -3.246  -0.784  -0.211  1.00  0.00     0.030 C 
HETATM   12  C12 UNL     1      -2.692  -0.910  -1.594  1.00  0.00     0.032 C 
HETATM   13  N1  UNL     1      -1.444  -1.116  -1.898  1.00  0.00    -0.271 N 
ATOM     14  H1  UNL     1      -1.100  -1.211  -2.854  1.00  0.00     0.194 HD
HETATM   15  C30 UNL     1      -3.656  -0.816  -2.767  1.00  0.00     0.060 C 
HETATM   16  C31 UNL     1      -5.022  -0.259  -2.376  1.00  0.00     0.020 C 
HETATM   17  C32 UNL     1      -5.594  -0.905  -1.088  1.00  0.00    -0.016 C 
HETATM   18  C33 UNL     1      -5.842  -2.415  -1.357  1.00  0.00     0.020 C 
HETATM   19  C34 UNL     1      -6.938  -0.208  -0.671  1.00  0.00     0.002 C 
HETATM   20  C35 UNL     1      -6.838   1.335  -0.506  1.00  0.00     0.007 C 
HETATM   21  C36 UNL     1      -7.591   1.914   0.699  1.00  0.00     0.014 C 
HETATM   22  C37 UNL     1      -8.980   1.291   0.930  1.00  0.00     0.003 C 
HETATM   23  C38 UNL     1      -9.925   1.753  -0.214  1.00  0.00     0.020 C 
ENDROOT
BRANCH   3  24
HETATM   24  O1  UNL     1      -8.544   1.633   3.331  1.00  0.00    -0.377 OA
HETATM   25  H2  UNL     1      -8.958   1.904   4.168  1.00  0.00     0.211 HD
ENDBRANCH   3  24
BRANCH  13  26
HETATM   26  O2  UNL     1      -0.624  -1.193  -0.760  1.00  0.00    -0.271 OA
BRANCH  26  27
HETATM   27  C13 UNL     1       0.653  -1.684  -1.136  1.00  0.00     0.303 C 
BRANCH  27  28
HETATM   28  C14 UNL     1       1.748  -0.616  -1.172  1.00  0.00     0.244 C 
HETATM   29  O3  UNL     1       1.587   0.557  -0.833  1.00  0.00    -0.271 OA
HETATM   30  N2  UNL     1       2.967  -1.104  -1.626  1.00  0.00    -0.346 N 
HETATM   31  H16 UNL     1       3.108  -2.105  -1.546  1.00  0.00     0.163 HD
BRANCH  30  32
HETATM   32  C15 UNL     1       4.188  -0.305  -1.523  1.00  0.00     0.180 C 
BRANCH  32  33
HETATM   33  C16 UNL     1       4.976  -0.862  -0.315  1.00  0.00     0.241 C 
HETATM   34  O4  UNL     1       4.907  -2.047   0.011  1.00  0.00    -0.271 OA
HETATM   35  N3  UNL     1       5.790   0.051   0.318  1.00  0.00    -0.354 N 
HETATM   36  H18 UNL     1       5.761   1.017   0.016  1.00  0.00     0.162 HD
BRANCH  35  37
HETATM   37  C17 UNL     1       6.706  -0.317   1.410  1.00  0.00     0.098 C 
BRANCH  37  38
HETATM   38  C18 UNL     1       6.397   0.567   2.622  1.00  0.00     0.135 C 
BRANCH  38  39
HETATM   39  C19 UNL     1       7.077   0.146   3.889  1.00  0.00     0.141 C 
HETATM   40  O5  UNL     1       7.681   0.884   4.649  1.00  0.00    -0.650 OA
BRANCH  39  41
HETATM   41  O6  UNL     1       6.913  -1.153   4.187  1.00  0.00    -0.776 OA
HETATM   42  H22 UNL     1       7.358  -1.264   5.055  1.00  0.00     0.167 HD
ENDBRANCH  39  41
ENDBRANCH  38  39
ENDBRANCH  37  38
BRANCH  37  43
HETATM   43  C20 UNL     1       8.157  -0.281   0.852  1.00  0.00     0.014 C 
HETATM   44  C21 UNL     1       9.154  -1.095   1.685  1.00  0.00     0.033 C 
HETATM   45  C22 UNL     1      10.530  -1.074   1.031  1.00  0.00     0.169 C 
HETATM   46  O7  UNL     1      10.998   0.261   0.856  1.00  0.00    -0.381 OA
HETATM   47  C23 UNL     1      10.154   1.115   0.069  1.00  0.00     0.054 C 
HETATM   48  C24 UNL     1      10.182   0.699  -1.409  1.00  0.00     0.045 C 
HETATM   49  C25 UNL     1      10.759   2.523   0.181  1.00  0.00     0.045 C 
HETATM   50  C26 UNL     1       8.722   1.135   0.647  1.00  0.00     0.044 C 
ENDBRANCH  37  43
ENDBRANCH  35  37
ENDBRANCH  32  33
BRANCH  32  51
HETATM   51  C27 UNL     1       4.990  -0.355  -2.845  1.00  0.00     0.009 C 
HETATM   52  C28 UNL     1       6.115   0.684  -2.877  1.00  0.00     0.012 C 
HETATM   53  C29 UNL     1       5.561  -1.740  -3.169  1.00  0.00     0.012 C 
ENDBRANCH  32  51
ENDBRANCH  30  32
ENDBRANCH  27  28
ENDBRANCH  26  27
ENDBRANCH  13  26
TORSDOF 12
