REMARK  16 active torsions:
REMARK  status: ('A' for Active; 'I' for Inactive)
REMARK    1  A    between atoms: C2_2  and  C3_3 
REMARK    2  A    between atoms: C3_3  and  C4_4 
REMARK    3  A    between atoms: C4_4  and  C5_5 
REMARK    4  A    between atoms: C5_5  and  C6_6 
REMARK    5  A    between atoms: C6_6  and  C7_7 
REMARK    6  A    between atoms: C7_7  and  C8_8 
REMARK    7  A    between atoms: C7_7  and  C30_36 
REMARK    8  A    between atoms: C9_9  and  C11_11 
REMARK    9  A    between atoms: C11_11  and  O1_12 
REMARK   10  A    between atoms: C11_11  and  C12_13 
REMARK   11  A    between atoms: C12_13  and  C14_15 
REMARK   12  A    between atoms: C14_15  and  O3_17 
REMARK   13  A    between atoms: O3_17  and  C15_18 
REMARK   14  A    between atoms: C24_27  and  C26_29 
REMARK   15  A    between atoms: C26_29  and  O4_30 
REMARK   16  A    between atoms: C30_36  and  O7_37 
ROOT
HETATM    1  C14 UNL     1      -1.023   2.351   2.115  1.00  0.00     0.266 C 
HETATM    2  O2  UNL     1      -1.726   3.337   2.297  1.00  0.00    -0.265 OA
ENDROOT
BRANCH   1   3
HETATM    3  C12 UNL     1       0.453   2.438   1.776  1.00  0.00     0.114 C 
HETATM    4  C13 UNL     1       0.596   2.407   0.256  1.00  0.00     0.023 C 
BRANCH   3   5
HETATM    5  C11 UNL     1       1.268   1.347   2.501  1.00  0.00     0.159 C 
BRANCH   5   6
HETATM    6  C9  UNL     1       2.770   1.377   2.247  1.00  0.00    -0.058 C 
HETATM    7  C8  UNL     1       3.582   0.356   1.890  1.00  0.00    -0.015 C 
HETATM    8  C10 UNL     1       3.415   2.729   2.515  1.00  0.00     0.046 C 
BRANCH   7   9
HETATM    9  C7  UNL     1       3.410  -1.129   1.586  1.00  0.00     0.032 C 
BRANCH   9  10
HETATM   10  C6  UNL     1       4.408  -1.570   0.475  1.00  0.00     0.010 C 
BRANCH  10  11
HETATM   11  C5  UNL     1       4.229  -0.904  -0.896  1.00  0.00     0.001 C 
BRANCH  11  12
HETATM   12  C4  UNL     1       5.305  -1.306  -1.913  1.00  0.00     0.000 C 
BRANCH  12  13
HETATM   13  C3  UNL     1       6.688  -0.729  -1.596  1.00  0.00    -0.000 C 
BRANCH  13  14
HETATM   14  C2  UNL     1       7.746  -1.091  -2.642  1.00  0.00    -0.005 C 
HETATM   15  C1  UNL     1       7.536  -0.402  -3.982  1.00  0.00     0.005 C 
ENDBRANCH  13  14
ENDBRANCH  12  13
ENDBRANCH  11  12
ENDBRANCH  10  11
ENDBRANCH   9  10
BRANCH   9  16
HETATM   16  C30 UNL     1       2.005  -1.703   1.333  1.00  0.00     0.172 C 
BRANCH  16  17
HETATM   17  O7  UNL     1       1.343  -1.122   0.219  1.00  0.00    -0.400 OA
HETATM   18  H48 UNL     1       1.728  -0.243   0.066  1.00  0.00     0.209 HD
ENDBRANCH  16  17
ENDBRANCH   9  16
ENDBRANCH   7   9
ENDBRANCH   5   6
BRANCH   5  19
HETATM   19  O1  UNL     1       1.096   1.516   3.912  1.00  0.00    -0.390 OA
HETATM   20  H20 UNL     1       1.687   0.877   4.348  1.00  0.00     0.210 HD
ENDBRANCH   5  19
ENDBRANCH   3   5
ENDBRANCH   1   3
BRANCH   1  21
HETATM   21  O3  UNL     1      -1.478   1.070   2.100  1.00  0.00    -0.312 OA
BRANCH  21  22
HETATM   22  C15 UNL     1      -2.872   0.877   2.406  1.00  0.00     0.170 C 
HETATM   23  C16 UNL     1      -2.998  -0.371   3.280  1.00  0.00     0.036 C 
HETATM   24  C17 UNL     1      -2.685  -1.653   2.512  1.00  0.00     0.007 C 
HETATM   25  C18 UNL     1      -3.591  -1.801   1.274  1.00  0.00    -0.007 C 
HETATM   26  C19 UNL     1      -3.315  -3.155   0.610  1.00  0.00     0.011 C 
HETATM   27  C20 UNL     1      -3.483  -0.567   0.306  1.00  0.00     0.000 C 
HETATM   28  C21 UNL     1      -2.125  -0.542  -0.434  1.00  0.00     0.019 C 
HETATM   29  C22 UNL     1      -4.623  -0.656  -0.770  1.00  0.00     0.055 C 
HETATM   30  C29 UNL     1      -3.655   0.715   1.127  1.00  0.00     0.129 A 
HETATM   31  C23 UNL     1      -4.873   0.583  -1.616  1.00  0.00    -0.005 C 
HETATM   32  C24 UNL     1      -5.542   0.574  -2.798  1.00  0.00    -0.051 C 
HETATM   33  C27 UNL     1      -4.323   1.871  -1.063  1.00  0.00     0.187 C 
HETATM   34  C25 UNL     1      -5.845   1.822  -3.599  1.00  0.00     0.046 C 
HETATM   35  O5  UNL     1      -3.931   2.792  -1.768  1.00  0.00    -0.290 OA
HETATM   36  C28 UNL     1      -4.135   1.949   0.403  1.00  0.00     0.235 A 
HETATM   37  O6  UNL     1      -5.019   1.166   1.228  1.00  0.00    -0.357 OA
BRANCH  32  38
HETATM   38  C26 UNL     1      -6.090  -0.676  -3.441  1.00  0.00     0.198 C 
BRANCH  38  39
HETATM   39  O4  UNL     1      -7.507  -0.634  -3.367  1.00  0.00    -0.397 OA
HETATM   40  H44 UNL     1      -7.837  -1.419  -3.834  1.00  0.00     0.209 HD
ENDBRANCH  38  39
ENDBRANCH  32  38
ENDBRANCH  21  22
ENDBRANCH   1  21
TORSDOF 16
