REMARK  13 active torsions:
REMARK  status: ('A' for Active; 'I' for Inactive)
REMARK    1  A    between atoms: C19_21  and  O3_22 
REMARK    2  A    between atoms: C19_21  and  C20_23 
REMARK    3  A    between atoms: C20_23  and  C21_25 
REMARK    4  A    between atoms: C21_25  and  O5_26 
REMARK    5  A    between atoms: O5_26  and  C22_27 
REMARK    6  A    between atoms: C22_27  and  C23_29 
REMARK    7  A    between atoms: C23_29  and  C24_30 
REMARK    8  A    between atoms: C24_30  and  C25_31 
REMARK       I    between atoms: C25_31  and  N1_33 
REMARK    9  A    between atoms: N1_33  and  C26_34 
REMARK   10  A    between atoms: C26_34  and  C27_35 
REMARK   11  A    between atoms: C27_35  and  C28_36 
REMARK   12  A    between atoms: C27_35  and  C29_39 
REMARK   13  A    between atoms: C28_36  and  O9_38 
ROOT
HETATM    1  C20 UNL     1      -0.150  -2.155   1.650  1.00  0.00     0.185 C 
HETATM    2  O4  UNL     1       0.004  -3.172   2.330  1.00  0.00    -0.292 OA
ENDROOT
BRANCH   1   3
HETATM    3  C19 UNL     1      -1.189  -2.081   0.492  1.00  0.00     0.128 C 
HETATM    4  C14 UNL     1      -2.432  -1.182   0.775  1.00  0.00     0.005 C 
HETATM    5  C13 UNL     1      -2.251   0.321   0.528  1.00  0.00     0.091 C 
HETATM    6  C15 UNL     1      -2.959  -1.405   2.218  1.00  0.00     0.019 C 
HETATM    7  C16 UNL     1      -3.404  -1.703  -0.318  1.00  0.00     0.002 C 
HETATM    8  C12 UNL     1      -3.608   1.011   0.555  1.00  0.00     0.133 C 
HETATM    9  C11 UNL     1      -4.679   0.470  -0.410  1.00  0.00     0.072 C 
HETATM   10  O2  UNL     1      -3.781   1.982   1.290  1.00  0.00    -0.297 OA
HETATM   11  C2  UNL     1      -6.063   1.210  -0.367  1.00  0.00    -0.009 C 
HETATM   12  C10 UNL     1      -4.803  -1.073  -0.245  1.00  0.00     0.003 C 
HETATM   13  C1  UNL     1      -6.712   1.172   1.036  1.00  0.00     0.021 C 
HETATM   14  C3  UNL     1      -5.854   2.691  -0.810  1.00  0.00     0.022 C 
HETATM   15  C7  UNL     1      -7.032   0.516  -1.342  1.00  0.00    -0.067 C 
HETATM   16  C4  UNL     1      -7.143   3.416  -1.171  1.00  0.00     0.084 C 
HETATM   17  C5  UNL     1      -7.891   2.656  -2.233  1.00  0.00     0.149 C 
HETATM   18  O1  UNL     1      -8.601   3.214  -3.066  1.00  0.00    -0.293 OA
HETATM   19  C6  UNL     1      -7.821   1.178  -2.208  1.00  0.00     0.053 C 
HETATM   20  C8  UNL     1      -7.106  -0.992  -1.278  1.00  0.00     0.035 C 
HETATM   21  C9  UNL     1      -5.728  -1.639  -1.331  1.00  0.00     0.010 C 
HETATM   22  C17 UNL     1      -3.293  -3.218  -0.206  1.00  0.00     0.009 C 
HETATM   23  C18 UNL     1      -1.836  -3.472   0.225  1.00  0.00     0.047 C 
BRANCH   3  24
HETATM   24  O3  UNL     1      -0.591  -1.698  -0.752  1.00  0.00    -0.381 OA
HETATM   25  H25 UNL     1       0.211  -1.172  -0.566  1.00  0.00     0.211 HD
ENDBRANCH   3  24
ENDBRANCH   1   3
BRANCH   1  26
HETATM   26  C21 UNL     1       0.639  -0.893   1.983  1.00  0.00     0.260 C 
BRANCH  26  27
HETATM   27  O5  UNL     1       0.997  -0.196   0.791  1.00  0.00    -0.314 OA
BRANCH  27  28
HETATM   28  C22 UNL     1       1.803   0.882   1.004  1.00  0.00     0.259 C 
HETATM   29  O6  UNL     1       2.107   1.326   2.101  1.00  0.00    -0.265 OA
BRANCH  28  30
HETATM   30  C23 UNL     1       2.252   1.471  -0.311  1.00  0.00     0.120 C 
BRANCH  30  31
HETATM   31  C24 UNL     1       3.768   1.601  -0.355  1.00  0.00     0.112 C 
BRANCH  31  32
HETATM   32  C25 UNL     1       4.444   0.245  -0.349  1.00  0.00     0.218 C 
HETATM   33  O7  UNL     1       3.835  -0.810  -0.201  1.00  0.00    -0.274 OA
HETATM   34  N1  UNL     1       5.810   0.314  -0.504  1.00  0.00    -0.360 N 
HETATM   35  H32 UNL     1       6.213   1.178  -0.863  1.00  0.00     0.162 HD
BRANCH  34  36
HETATM   36  C26 UNL     1       6.614  -0.898  -0.579  1.00  0.00     0.142 C 
BRANCH  36  37
HETATM   37  C27 UNL     1       8.132  -0.659  -0.657  1.00  0.00     0.134 C 
BRANCH  37  38
HETATM   38  C28 UNL     1       8.393   0.015  -1.992  1.00  0.00     0.150 C 
HETATM   39  O8  UNL     1       8.047   1.140  -2.321  1.00  0.00    -0.649 OA
BRANCH  38  40
HETATM   40  O9  UNL     1       9.065  -0.771  -2.858  1.00  0.00    -0.776 OA
HETATM   41  H36 UNL     1       9.166  -0.219  -3.663  1.00  0.00     0.167 HD
ENDBRANCH  38  40
ENDBRANCH  37  38
BRANCH  37  42
HETATM   42  C29 UNL     1       8.796   0.081   0.500  1.00  0.00    -0.042 A 
HETATM   43  C30 UNL     1       8.128   0.399   1.693  1.00  0.00     0.008 A 
HETATM   44  C31 UNL     1       8.791   1.060   2.732  1.00  0.00     0.001 A 
HETATM   45  C32 UNL     1      10.134   1.404   2.604  1.00  0.00     0.000 A 
HETATM   46  C33 UNL     1      10.822   1.076   1.442  1.00  0.00     0.001 A 
HETATM   47  C34 UNL     1      10.161   0.414   0.403  1.00  0.00     0.008 A 
ENDBRANCH  37  42
ENDBRANCH  36  37
ENDBRANCH  34  36
ENDBRANCH  31  32
ENDBRANCH  30  31
ENDBRANCH  28  30
ENDBRANCH  27  28
ENDBRANCH  26  27
ENDBRANCH   1  26
TORSDOF 13
