REMARK  7 active torsions:
REMARK  status: ('A' for Active; 'I' for Inactive)
REMARK    1  A    between atoms: C2_2  and  C4_4 
REMARK    2  A    between atoms: C7_7  and  O1_9 
REMARK    3  A    between atoms: C9_10  and  C10_11 
REMARK    4  A    between atoms: C11_12  and  C12_13 
REMARK    5  A    between atoms: C14_15  and  C15_16 
REMARK    6  A    between atoms: C24_26  and  C26_28 
REMARK    7  A    between atoms: C29_32  and  O4_34 
ROOT
HETATM    1  C15 UNL     1      -0.957  -1.077  -2.109  1.00  0.00     0.149 C 
HETATM    2  C16 UNL     1      -2.120  -0.087  -1.970  1.00  0.00     0.054 C 
HETATM    3  C17 UNL     1      -3.259  -0.861  -1.239  1.00  0.00     0.050 C 
HETATM    4  C18 UNL     1      -2.891  -2.273  -1.738  1.00  0.00     0.272 C 
HETATM    5  O2  UNL     1      -3.517  -3.377  -1.130  1.00  0.00    -0.360 OA
HETATM    6  C19 UNL     1      -3.082  -3.674   0.181  1.00  0.00     0.171 C 
HETATM    7  C20 UNL     1      -4.007  -3.037   1.193  1.00  0.00     0.027 C 
HETATM    8  C21 UNL     1      -3.963  -1.516   1.296  1.00  0.00     0.012 C 
HETATM    9  C22 UNL     1      -3.076  -0.695   0.322  1.00  0.00     0.032 C 
HETATM   10  C23 UNL     1      -3.254   0.792   0.725  1.00  0.00    -0.066 C 
HETATM   11  C24 UNL     1      -2.340   1.476   1.467  1.00  0.00    -0.021 C 
HETATM   12  C25 UNL     1      -1.050   0.908   2.005  1.00  0.00     0.052 C 
HETATM   13  C27 UNL     1      -4.579   1.366   0.236  1.00  0.00     0.038 C 
HETATM   14  C28 UNL     1      -4.860   1.114  -1.245  1.00  0.00     0.042 C 
HETATM   15  C29 UNL     1      -4.678  -0.360  -1.672  1.00  0.00     0.067 C 
HETATM   16  C30 UNL     1      -4.989  -0.465  -3.178  1.00  0.00     0.047 C 
HETATM   17  O5  UNL     1      -1.454  -2.354  -1.680  1.00  0.00    -0.351 OA
ENDROOT
BRANCH   1  18
HETATM   18  C14 UNL     1       0.225  -0.723  -1.258  1.00  0.00     0.011 C 
HETATM   19  C12 UNL     1       1.437  -0.261  -1.641  1.00  0.00    -0.064 C 
HETATM   20  C13 UNL     1       1.842  -0.027  -3.074  1.00  0.00     0.048 C 
BRANCH  19  21
HETATM   21  C11 UNL     1       2.403   0.062  -0.591  1.00  0.00     0.003 C 
HETATM   22  C10 UNL     1       3.620   0.605  -0.759  1.00  0.00    -0.018 C 
BRANCH  22  23
HETATM   23  C9  UNL     1       4.588   0.980   0.348  1.00  0.00     0.050 C 
HETATM   24  C4  UNL     1       4.614   0.072   1.611  1.00  0.00     0.024 C 
HETATM   25  C5  UNL     1       5.225   0.983   2.684  1.00  0.00     0.013 C 
HETATM   26  C6  UNL     1       4.498   2.301   2.443  1.00  0.00     0.039 C 
HETATM   27  C7  UNL     1       4.449   2.438   0.907  1.00  0.00     0.062 C 
HETATM   28  C8  UNL     1       3.210   3.226   0.475  1.00  0.00     0.046 C 
BRANCH  24  29
HETATM   29  C2  UNL     1       5.332  -1.256   1.428  1.00  0.00    -0.088 C 
HETATM   30  C1  UNL     1       4.641  -2.408   1.326  1.00  0.00     0.014 C 
HETATM   31  C3  UNL     1       6.839  -1.260   1.370  1.00  0.00     0.043 C 
ENDBRANCH  24  29
BRANCH  27  32
HETATM   32  O1  UNL     1       5.606   3.191   0.506  1.00  0.00    -0.390 OA
HETATM   33  H14 UNL     1       5.570   3.293  -0.462  1.00  0.00     0.210 HD
ENDBRANCH  27  32
ENDBRANCH  22  23
ENDBRANCH  19  21
ENDBRANCH   1  18
BRANCH  15  34
HETATM   34  O4  UNL     1      -5.687  -1.140  -1.019  1.00  0.00    -0.389 OA
HETATM   35  H44 UNL     1      -6.561  -0.835  -1.320  1.00  0.00     0.210 HD
ENDBRANCH  15  34
BRANCH  11  36
HETATM   36  C26 UNL     1      -2.499   2.921   1.841  1.00  0.00     0.265 C 
HETATM   37  O3  UNL     1      -1.608   3.567   2.385  1.00  0.00    -0.302 OA
ENDBRANCH  11  36
TORSDOF 7
