REMARK  13 active torsions:
REMARK  status: ('A' for Active; 'I' for Inactive)
REMARK    1  A    between atoms: C3_3  and  O1_4 
REMARK    2  A    between atoms: N1_14  and  O2_16 
REMARK    3  A    between atoms: O2_16  and  C13_17 
REMARK    4  A    between atoms: C13_17  and  C14_18 
REMARK       I    between atoms: C14_18  and  N2_20 
REMARK    5  A    between atoms: N2_20  and  C15_21 
REMARK    6  A    between atoms: C15_21  and  C16_22 
REMARK    7  A    between atoms: C15_21  and  C21_33 
REMARK       I    between atoms: C16_22  and  N3_24 
REMARK    8  A    between atoms: N3_24  and  C17_25 
REMARK    9  A    between atoms: C17_25  and  C18_26 
REMARK   10  A    between atoms: C17_25  and  C20_30 
REMARK   11  A    between atoms: C18_26  and  C19_27 
REMARK   12  A    between atoms: C19_27  and  O6_29 
REMARK   13  A    between atoms: C20_30  and  O8_32 
ROOT
HETATM    1  C1  UNL     1     -10.643  -0.070   1.077  1.00  0.00     0.015 C 
HETATM    2  C2  UNL     1      -9.703  -0.520   0.480  1.00  0.00    -0.078 C 
HETATM    3  C3  UNL     1      -8.550  -1.085  -0.257  1.00  0.00     0.128 C 
HETATM    4  C4  UNL     1      -8.329  -0.307  -1.564  1.00  0.00     0.052 C 
HETATM    5  C5  UNL     1      -7.294   0.782  -1.239  1.00  0.00     0.010 C 
HETATM    6  C6  UNL     1      -6.870   0.566   0.229  1.00  0.00     0.002 C 
HETATM    7  C7  UNL     1      -5.446   1.019   0.645  1.00  0.00    -0.004 C 
HETATM    8  C8  UNL     1      -5.035   2.355  -0.014  1.00  0.00     0.010 C 
HETATM    9  C9  UNL     1      -4.020   2.199  -1.139  1.00  0.00     0.035 C 
HETATM   10  C10 UNL     1      -2.781   1.451  -0.719  1.00  0.00    -0.069 C 
HETATM   11  C11 UNL     1      -1.632   1.650  -1.390  1.00  0.00     0.030 C 
HETATM   12  C12 UNL     1      -0.378   0.927  -1.051  1.00  0.00     0.032 C 
HETATM   13  N1  UNL     1       0.702   1.252  -1.702  1.00  0.00    -0.271 N 
ATOM     14  H1  UNL     1       0.737   1.955  -2.440  1.00  0.00     0.194 HD
HETATM   15  C24 UNL     1      -0.427  -0.132   0.037  1.00  0.00     0.060 C 
HETATM   16  C25 UNL     1      -1.849  -0.654   0.236  1.00  0.00     0.020 C 
HETATM   17  C26 UNL     1      -2.894   0.476   0.447  1.00  0.00    -0.016 C 
HETATM   18  C27 UNL     1      -2.533   1.210   1.770  1.00  0.00     0.020 C 
HETATM   19  C28 UNL     1      -4.356  -0.099   0.577  1.00  0.00     0.002 C 
HETATM   20  C29 UNL     1      -4.745  -1.163  -0.460  1.00  0.00     0.007 C 
HETATM   21  C30 UNL     1      -6.088  -1.840  -0.156  1.00  0.00     0.014 C 
HETATM   22  C31 UNL     1      -7.181  -0.925   0.479  1.00  0.00     0.003 C 
HETATM   23  C32 UNL     1      -7.283  -1.253   1.982  1.00  0.00     0.020 C 
ENDROOT
BRANCH   3  24
HETATM   24  O1  UNL     1      -8.836  -2.449  -0.533  1.00  0.00    -0.377 OA
HETATM   25  H2  UNL     1      -9.705  -2.473  -0.968  1.00  0.00     0.211 HD
ENDBRANCH   3  24
BRANCH  13  26
HETATM   26  O2  UNL     1       1.812   0.515  -1.263  1.00  0.00    -0.271 OA
BRANCH  26  27
HETATM   27  C13 UNL     1       2.854   0.650  -2.222  1.00  0.00     0.303 C 
BRANCH  27  28
HETATM   28  C14 UNL     1       4.061  -0.193  -1.824  1.00  0.00     0.244 C 
HETATM   29  O3  UNL     1       4.739  -0.804  -2.650  1.00  0.00    -0.271 OA
HETATM   30  N2  UNL     1       4.352  -0.184  -0.475  1.00  0.00    -0.346 N 
HETATM   31  H16 UNL     1       3.970   0.602   0.043  1.00  0.00     0.163 HD
BRANCH  30  32
HETATM   32  C15 UNL     1       5.614  -0.735   0.018  1.00  0.00     0.180 C 
BRANCH  32  33
HETATM   33  C16 UNL     1       6.661   0.401  -0.034  1.00  0.00     0.241 C 
HETATM   34  O4  UNL     1       6.365   1.579   0.164  1.00  0.00    -0.271 OA
HETATM   35  N3  UNL     1       7.949  -0.005  -0.305  1.00  0.00    -0.344 N 
HETATM   36  H18 UNL     1       8.174  -0.989  -0.185  1.00  0.00     0.163 HD
BRANCH  35  37
HETATM   37  C17 UNL     1       9.076   0.926  -0.215  1.00  0.00     0.192 C 
BRANCH  37  38
HETATM   38  C18 UNL     1      10.159   0.603  -1.241  1.00  0.00     0.146 C 
BRANCH  38  39
HETATM   39  C19 UNL     1      10.803  -0.726  -0.972  1.00  0.00     0.141 C 
HETATM   40  O5  UNL     1      10.280  -1.689  -0.434  1.00  0.00    -0.650 OA
BRANCH  39  41
HETATM   41  O6  UNL     1      12.065  -0.793  -1.435  1.00  0.00    -0.776 OA
HETATM   42  H22 UNL     1      12.356  -1.708  -1.239  1.00  0.00     0.167 HD
ENDBRANCH  39  41
ENDBRANCH  38  39
ENDBRANCH  37  38
BRANCH  37  43
HETATM   43  C20 UNL     1       9.639   0.936   1.211  1.00  0.00     0.164 C 
HETATM   44  O7  UNL     1       9.246   0.285   2.166  1.00  0.00    -0.648 OA
BRANCH  43  45
HETATM   45  O8  UNL     1      10.674   1.791   1.360  1.00  0.00    -0.775 OA
HETATM   46  H23 UNL     1      10.895   1.721   2.313  1.00  0.00     0.167 HD
ENDBRANCH  43  45
ENDBRANCH  37  43
ENDBRANCH  35  37
ENDBRANCH  32  33
BRANCH  32  47
HETATM   47  C21 UNL     1       5.433  -1.345   1.427  1.00  0.00     0.009 C 
HETATM   48  C22 UNL     1       6.586  -2.279   1.801  1.00  0.00     0.012 C 
HETATM   49  C23 UNL     1       5.226  -0.302   2.528  1.00  0.00     0.012 C 
ENDBRANCH  32  47
ENDBRANCH  30  32
ENDBRANCH  27  28
ENDBRANCH  26  27
ENDBRANCH  13  26
TORSDOF 13
