REMARK  10 active torsions:
REMARK  status: ('A' for Active; 'I' for Inactive)
REMARK    1  A    between atoms: C11_11  and  O1_12 
REMARK    2  A    between atoms: C12_13  and  C14_15 
REMARK    3  A    between atoms: C14_15  and  C15_16 
REMARK    4  A    between atoms: C15_16  and  O2_17 
REMARK    5  A    between atoms: C15_16  and  C16_18 
REMARK    6  A    between atoms: C16_18  and  O3_19 
REMARK    7  A    between atoms: C16_18  and  C17_20 
REMARK    8  A    between atoms: C17_20  and  O4_22 
REMARK    9  A    between atoms: C17_20  and  C19_23 
REMARK   10  A    between atoms: C19_23  and  O5_24 
ROOT
HETATM    1  C1  UNL     1      -6.000   1.804  -0.403  1.00  0.00     0.015 C 
HETATM    2  C2  UNL     1      -5.265   0.748   0.413  1.00  0.00     0.019 C 
HETATM    3  C3  UNL     1      -5.532  -0.683  -0.120  1.00  0.00     0.048 C 
HETATM    4  C4  UNL     1      -4.198  -1.364   0.002  1.00  0.00    -0.043 C 
HETATM    5  C5  UNL     1      -3.240  -0.476   0.287  1.00  0.00    -0.040 C 
HETATM    6  C6  UNL     1      -3.760   0.852   0.396  1.00  0.00    -0.050 C 
HETATM    7  C7  UNL     1      -2.958   1.921   0.394  1.00  0.00    -0.009 C 
HETATM    8  C8  UNL     1      -1.463   1.822   0.151  1.00  0.00    -0.018 C 
HETATM    9  C9  UNL     1      -1.225   2.567  -1.187  1.00  0.00     0.020 C 
HETATM   10  C10 UNL     1      -0.679   2.476   1.295  1.00  0.00     0.046 C 
HETATM   11  C11 UNL     1       0.742   1.941   1.153  1.00  0.00     0.128 C 
HETATM   12  C12 UNL     1       0.572   0.441   0.770  1.00  0.00    -0.010 C 
HETATM   13  C13 UNL     1       0.649  -0.364   2.088  1.00  0.00     0.018 C 
HETATM   14  C20 UNL     1      -0.857   0.372   0.053  1.00  0.00     0.017 C 
HETATM   15  C21 UNL     1      -1.799  -0.768   0.541  1.00  0.00     0.026 C 
HETATM   16  C22 UNL     1      -1.460  -2.131  -0.101  1.00  0.00     0.014 C 
HETATM   17  C23 UNL     1      -2.516  -3.199   0.241  1.00  0.00     0.040 C 
HETATM   18  C24 UNL     1      -3.931  -2.783  -0.136  1.00  0.00    -0.040 C 
HETATM   19  C25 UNL     1      -4.874  -3.638  -0.560  1.00  0.00     0.092 C 
HETATM   20 CL1  UNL     1      -4.675  -5.332  -0.732  1.00  0.00    -0.096 Cl
ENDROOT
BRANCH  12  21
HETATM   21  C14 UNL     1       1.648  -0.088  -0.228  1.00  0.00     0.046 C 
BRANCH  21  22
HETATM   22  C15 UNL     1       3.110  -0.158   0.270  1.00  0.00     0.150 C 
BRANCH  22  23
HETATM   23  O2  UNL     1       3.514   1.079   0.842  1.00  0.00    -0.393 OA
HETATM   24  H21 UNL     1       3.105   1.787   0.297  1.00  0.00     0.210 HD
ENDBRANCH  22  23
BRANCH  22  25
HETATM   25  C16 UNL     1       4.064  -0.575  -0.878  1.00  0.00     0.182 C 
BRANCH  25  26
HETATM   26  O3  UNL     1       3.673  -1.883  -1.356  1.00  0.00    -0.390 OA
HETATM   27  H23 UNL     1       3.885  -1.880  -2.309  1.00  0.00     0.210 HD
ENDBRANCH  25  26
BRANCH  25  28
HETATM   28  C17 UNL     1       5.576  -0.622  -0.512  1.00  0.00     0.103 C 
HETATM   29  C18 UNL     1       5.865  -1.455   0.744  1.00  0.00     0.051 C 
BRANCH  28  30
HETATM   30  O4  UNL     1       6.254  -1.299  -1.604  1.00  0.00    -0.385 OA
HETATM   31  H27 UNL     1       5.882  -2.199  -1.624  1.00  0.00     0.210 HD
ENDBRANCH  28  30
BRANCH  28  32
HETATM   32  C19 UNL     1       6.218   0.774  -0.367  1.00  0.00     0.204 C 
BRANCH  32  33
HETATM   33  O5  UNL     1       5.842   1.644  -1.437  1.00  0.00    -0.398 OA
HETATM   34  H30 UNL     1       6.414   2.428  -1.369  1.00  0.00     0.209 HD
ENDBRANCH  32  33
ENDBRANCH  28  32
ENDBRANCH  25  28
ENDBRANCH  22  25
ENDBRANCH  21  22
ENDBRANCH  12  21
BRANCH  11  35
HETATM   35  O1  UNL     1       1.461   2.675   0.163  1.00  0.00    -0.395 OA
HETATM   36  H14 UNL     1       1.417   3.615   0.415  1.00  0.00     0.210 HD
ENDBRANCH  11  35
TORSDOF 10
