REMARK  11 active torsions:
REMARK  status: ('A' for Active; 'I' for Inactive)
REMARK    1  A    between atoms: C3_3  and  O1_4 
REMARK    2  A    between atoms: N1_14  and  O2_16 
REMARK    3  A    between atoms: O2_16  and  C13_17 
REMARK    4  A    between atoms: C13_17  and  C14_18 
REMARK       I    between atoms: C14_18  and  N2_20 
REMARK    5  A    between atoms: N2_20  and  C15_21 
REMARK    6  A    between atoms: C15_21  and  C16_22 
REMARK       I    between atoms: C16_22  and  N3_24 
REMARK    7  A    between atoms: N3_24  and  C17_25 
REMARK    8  A    between atoms: C17_25  and  C18_26 
REMARK    9  A    between atoms: C17_25  and  C27_36 
REMARK   10  A    between atoms: C18_26  and  C19_27 
REMARK   11  A    between atoms: C27_36  and  O6_38 
ROOT
HETATM    1  C1  UNL     1     -10.083   2.263  -0.642  1.00  0.00     0.015 C 
HETATM    2  C2  UNL     1      -8.961   1.983  -0.967  1.00  0.00    -0.078 C 
HETATM    3  C3  UNL     1      -7.568   1.650  -1.346  1.00  0.00     0.128 C 
HETATM    4  C4  UNL     1      -6.649   2.836  -1.024  1.00  0.00     0.052 C 
HETATM    5  C5  UNL     1      -6.419   2.705   0.475  1.00  0.00     0.010 C 
HETATM    6  C6  UNL     1      -6.318   1.189   0.737  1.00  0.00     0.002 C 
HETATM    7  C7  UNL     1      -4.914   0.682   1.194  1.00  0.00    -0.004 C 
HETATM    8  C8  UNL     1      -3.676   1.406   0.621  1.00  0.00     0.010 C 
HETATM    9  C9  UNL     1      -2.362   0.854   1.190  1.00  0.00     0.035 C 
HETATM   10  C10 UNL     1      -2.280  -0.651   1.064  1.00  0.00    -0.069 C 
HETATM   11  C11 UNL     1      -1.221  -1.212   0.457  1.00  0.00     0.030 C 
HETATM   12  C12 UNL     1      -1.169  -2.676   0.212  1.00  0.00     0.032 C 
HETATM   13  N1  UNL     1      -0.101  -3.374  -0.025  1.00  0.00    -0.271 N 
ATOM     14  H1  UNL     1      -0.105  -4.373  -0.231  1.00  0.00     0.194 HD
HETATM   15  C28 UNL     1      -2.495  -3.397   0.190  1.00  0.00     0.060 C 
HETATM   16  C29 UNL     1      -3.333  -2.983   1.391  1.00  0.00     0.020 C 
HETATM   17  C30 UNL     1      -3.462  -1.440   1.622  1.00  0.00    -0.016 C 
HETATM   18  C31 UNL     1      -3.509  -1.269   3.168  1.00  0.00     0.020 C 
HETATM   19  C32 UNL     1      -4.784  -0.853   0.988  1.00  0.00     0.002 C 
HETATM   20  C33 UNL     1      -4.959  -1.208  -0.508  1.00  0.00     0.007 C 
HETATM   21  C34 UNL     1      -5.827  -0.244  -1.324  1.00  0.00     0.014 C 
HETATM   22  C35 UNL     1      -6.934   0.477  -0.517  1.00  0.00     0.003 C 
HETATM   23  C36 UNL     1      -7.985  -0.587  -0.117  1.00  0.00     0.020 C 
ENDROOT
BRANCH   3  24
HETATM   24  O1  UNL     1      -7.547   1.381  -2.742  1.00  0.00    -0.377 OA
HETATM   25  H2  UNL     1      -7.981   2.129  -3.180  1.00  0.00     0.211 HD
ENDBRANCH   3  24
BRANCH  13  26
HETATM   26  O2  UNL     1       1.061  -2.588   0.036  1.00  0.00    -0.271 OA
BRANCH  26  27
HETATM   27  C13 UNL     1       2.184  -3.460  -0.027  1.00  0.00     0.303 C 
BRANCH  27  28
HETATM   28  C14 UNL     1       3.479  -2.694   0.175  1.00  0.00     0.244 C 
HETATM   29  O3  UNL     1       4.553  -3.071  -0.290  1.00  0.00    -0.271 OA
HETATM   30  N2  UNL     1       3.384  -1.582   0.976  1.00  0.00    -0.350 N 
HETATM   31  H16 UNL     1       2.459  -1.187   1.105  1.00  0.00     0.163 HD
BRANCH  30  32
HETATM   32  C15 UNL     1       4.532  -0.741   1.246  1.00  0.00     0.225 C 
BRANCH  32  33
HETATM   33  C16 UNL     1       4.739   0.252   0.103  1.00  0.00     0.236 C 
HETATM   34  O4  UNL     1       4.269   1.387   0.117  1.00  0.00    -0.272 OA
HETATM   35  N3  UNL     1       5.421  -0.278  -0.967  1.00  0.00    -0.345 N 
HETATM   36  H19 UNL     1       5.610  -1.287  -0.983  1.00  0.00     0.163 HD
BRANCH  35  37
HETATM   37  C17 UNL     1       5.768   0.493  -2.155  1.00  0.00     0.186 C 
BRANCH  37  38
HETATM   38  C18 UNL     1       6.853   1.549  -1.903  1.00  0.00     0.077 C 
BRANCH  38  39
HETATM   39  C19 UNL     1       8.066   1.093  -1.137  1.00  0.00    -0.028 A 
HETATM   40  C20 UNL     1       8.761  -0.094  -1.279  1.00  0.00     0.096 A 
HETATM   41  N4  UNL     1       9.797  -0.097  -0.387  1.00  0.00    -0.365 N 
HETATM   42  C21 UNL     1       9.812   1.074   0.337  1.00  0.00     0.042 A 
HETATM   43  H24 UNL     1      10.469  -0.845  -0.275  1.00  0.00     0.165 HD
HETATM   44  C22 UNL     1      10.688   1.496   1.348  1.00  0.00     0.030 A 
HETATM   45  C26 UNL     1       8.738   1.844  -0.111  1.00  0.00    -0.002 A 
HETATM   46  C23 UNL     1      10.469   2.758   1.907  1.00  0.00     0.002 A 
HETATM   47  C24 UNL     1       9.411   3.555   1.477  1.00  0.00     0.001 A 
HETATM   48  C25 UNL     1       8.539   3.114   0.473  1.00  0.00     0.014 A 
ENDBRANCH  38  39
ENDBRANCH  37  38
BRANCH  37  49
HETATM   49  C27 UNL     1       6.158  -0.412  -3.324  1.00  0.00     0.163 C 
HETATM   50  O5  UNL     1       6.502  -0.045  -4.438  1.00  0.00    -0.648 OA
BRANCH  49  51
HETATM   51  O6  UNL     1       6.086  -1.730  -3.039  1.00  0.00    -0.775 OA
HETATM   52  H29 UNL     1       6.356  -2.179  -3.870  1.00  0.00     0.167 HD
ENDBRANCH  49  51
ENDBRANCH  37  49
ENDBRANCH  35  37
ENDBRANCH  32  33
ENDBRANCH  30  32
ENDBRANCH  27  28
ENDBRANCH  26  27
ENDBRANCH  13  26
TORSDOF 11
