REMARK  7 active torsions:
REMARK  status: ('A' for Active; 'I' for Inactive)
REMARK    1  A    between atoms: C2_2  and  N1_3 
REMARK    2  A    between atoms: N1_3  and  C3_4 
REMARK    3  A    between atoms: N1_3  and  C5_6 
REMARK    4  A    between atoms: C5_6  and  C6_7 
REMARK    5  A    between atoms: C6_7  and  N2_8 
REMARK       I    between atoms: N2_8  and  C7_9 
REMARK    6  A    between atoms: C7_9  and  C8_11 
REMARK    7  A    between atoms: C11_14  and  N3_15 
REMARK       I    between atoms: N3_15  and  C12_16 
ROOT
HETATM    1  C8  UNL     1       1.228  -0.190  -1.231  1.00  0.00     0.032 A 
HETATM    2  C9  UNL     1       1.835   0.899  -0.599  1.00  0.00     0.019 A 
HETATM    3  C10 UNL     1       3.100   0.760  -0.011  1.00  0.00     0.030 A 
HETATM    4  C11 UNL     1       3.775  -0.462  -0.054  1.00  0.00     0.034 A 
HETATM    5  C14 UNL     1       3.169  -1.545  -0.703  1.00  0.00     0.030 A 
HETATM    6  C15 UNL     1       1.907  -1.411  -1.290  1.00  0.00     0.019 A 
ENDROOT
BRANCH   1   7
HETATM    7  C7  UNL     1      -0.115  -0.092  -1.871  1.00  0.00     0.251 C 
HETATM    8  N2  UNL     1      -0.952   0.893  -1.389  1.00  0.00    -0.355 N 
HETATM    9  H15 UNL     1      -0.764   1.238  -0.455  1.00  0.00     0.162 HD
HETATM   10  O1  UNL     1      -0.437  -0.884  -2.750  1.00  0.00    -0.268 OA
BRANCH   8  11
HETATM   11  C6  UNL     1      -2.357   0.913  -1.762  1.00  0.00     0.153 C 
BRANCH  11  12
HETATM   12  C5  UNL     1      -3.191  -0.010  -0.851  1.00  0.00     0.292 C 
BRANCH  12  13
HETATM   13  N1  UNL     1      -3.030   0.280   0.595  1.00  0.00     0.089 N 
BRANCH  13  14
HETATM   14  C2  UNL     1      -3.604  -0.790   1.429  1.00  0.00     0.268 C 
HETATM   15  C1  UNL     1      -2.726  -2.037   1.456  1.00  0.00     0.037 C 
ENDBRANCH  13  14
BRANCH  13  16
HETATM   16  C3  UNL     1      -3.544   1.603   0.990  1.00  0.00     0.268 C 
HETATM   17  C4  UNL     1      -5.034   1.850   0.774  1.00  0.00     0.037 C 
ENDBRANCH  13  16
ENDBRANCH  12  13
ENDBRANCH  11  12
ENDBRANCH   8  11
ENDBRANCH   1   7
BRANCH   4  18
HETATM   18  N3  UNL     1       5.047  -0.680   0.513  1.00  0.00    -0.328 N 
HETATM   19  C12 UNL     1       5.827   0.226   1.208  1.00  0.00     0.218 C 
HETATM   20  C13 UNL     1       7.133  -0.383   1.653  1.00  0.00     0.117 C 
HETATM   21  O2  UNL     1       5.552   1.391   1.470  1.00  0.00    -0.274 OA
HETATM   22  H18 UNL     1       5.428  -1.611   0.399  1.00  0.00     0.169 HD
ENDBRANCH   4  18
TORSDOF 7
