REMARK  5 active torsions:
REMARK  status: ('A' for Active; 'I' for Inactive)
REMARK    1  A    between atoms: C2_2  and  C4_4 
REMARK    2  A    between atoms: C7_7  and  C8_8 
REMARK    3  A    between atoms: C8_8  and  O2_10 
REMARK    4  A    between atoms: C22_25  and  C24_27 
REMARK    5  A    between atoms: C24_27  and  O4_28 
ROOT
HETATM    1  C4  UNL     1      -4.242   1.183   0.174  1.00  0.00     0.019 C 
HETATM    2  C5  UNL     1      -5.646   0.581  -0.106  1.00  0.00     0.011 C 
HETATM    3  C6  UNL     1      -5.452  -0.941  -0.237  1.00  0.00     0.021 C 
HETATM    4  C7  UNL     1      -3.991  -1.086  -0.680  1.00  0.00     0.050 C 
HETATM    5  C9  UNL     1      -3.366  -2.460  -0.416  1.00  0.00     0.022 C 
HETATM    6  C10 UNL     1      -1.842  -2.411  -0.643  1.00  0.00     0.011 C 
HETATM    7  C11 UNL     1      -1.057  -1.316   0.177  1.00  0.00    -0.032 C 
HETATM    8  C12 UNL     1      -1.139  -1.783   1.667  1.00  0.00     0.016 C 
HETATM    9  C13 UNL     1      -1.799   0.060   0.007  1.00  0.00     0.000 C 
HETATM   10  C14 UNL     1      -1.161   1.137   0.887  1.00  0.00     0.006 C 
HETATM   11  C15 UNL     1       0.363   1.109   0.902  1.00  0.00     0.006 C 
HETATM   12  C16 UNL     1       0.982   0.393  -0.322  1.00  0.00     0.003 C 
HETATM   13  C17 UNL     1       2.565   0.665  -0.478  1.00  0.00    -0.035 C 
HETATM   14  C18 UNL     1       2.990   0.460  -1.959  1.00  0.00     0.016 C 
HETATM   15  C19 UNL     1       2.917   2.124  -0.089  1.00  0.00     0.017 C 
HETATM   16  C20 UNL     1       4.378   2.494  -0.262  1.00  0.00     0.080 C 
HETATM   17  C21 UNL     1       5.369   1.422   0.119  1.00  0.00     0.137 C 
HETATM   18  O3  UNL     1       6.573   1.705   0.107  1.00  0.00    -0.297 OA
HETATM   19  C22 UNL     1       4.924   0.012   0.531  1.00  0.00     0.042 C 
HETATM   20  C23 UNL     1       5.704  -0.980  -0.357  1.00  0.00     0.026 C 
HETATM   21  C25 UNL     1       3.369  -0.231   0.504  1.00  0.00     0.012 C 
HETATM   22  C26 UNL     1       2.982  -1.715   0.358  1.00  0.00     0.007 C 
HETATM   23  C27 UNL     1       1.491  -1.949   0.595  1.00  0.00     0.011 C 
HETATM   24  C28 UNL     1       0.524  -1.143  -0.319  1.00  0.00    -0.032 C 
HETATM   25  C29 UNL     1       0.662  -1.710  -1.757  1.00  0.00     0.016 C 
HETATM   26  C30 UNL     1      -3.320  -0.060   0.252  1.00  0.00     0.017 C 
ENDROOT
BRANCH   4  27
HETATM   27  C8  UNL     1      -3.985  -0.842  -2.195  1.00  0.00     0.149 C 
HETATM   28  O1  UNL     1      -4.527  -1.555  -3.024  1.00  0.00    -0.649 OA
BRANCH  27  29
HETATM   29  O2  UNL     1      -3.381   0.284  -2.608  1.00  0.00    -0.776 OA
HETATM   30  H11 UNL     1      -3.525   0.279  -3.577  1.00  0.00     0.167 HD
ENDBRANCH  27  29
ENDBRANCH   4  27
BRANCH   1  31
HETATM   31  C2  UNL     1      -4.275   2.102   1.388  1.00  0.00    -0.088 C 
HETATM   32  C1  UNL     1      -4.383   1.664   2.656  1.00  0.00     0.014 C 
HETATM   33  C3  UNL     1      -4.197   3.577   1.089  1.00  0.00     0.043 C 
ENDBRANCH   1  31
BRANCH  19  34
HETATM   34  C24 UNL     1       5.400  -0.116   2.008  1.00  0.00     0.181 C 
BRANCH  34  35
HETATM   35  O4  UNL     1       6.816  -0.178   2.161  1.00  0.00    -0.400 OA
HETATM   36  H37 UNL     1       7.227   0.422   1.505  1.00  0.00     0.209 HD
ENDBRANCH  34  35
ENDBRANCH  19  34
TORSDOF 5
