REMARK  3 active torsions:
REMARK  status: ('A' for Active; 'I' for Inactive)
REMARK    1  A    between atoms: C2_2  and  C3_3 
REMARK    2  A    between atoms: C3_3  and  C4_4 
REMARK    3  A    between atoms: C4_4  and  O1_5 
ROOT
HETATM    1  C3  UNL     1      -1.939   0.076   0.028  1.00  0.00     0.017 C 
HETATM    2  C5  UNL     1      -3.152   1.083   0.112  1.00  0.00     0.016 C 
HETATM    3  C6  UNL     1      -2.812   2.542  -0.202  1.00  0.00     0.031 C 
HETATM    4  C7  UNL     1      -1.681   2.669  -1.207  1.00  0.00     0.273 C 
HETATM    5  N1  UNL     1      -0.445   2.041  -0.742  1.00  0.00     0.100 N 
HETATM    6  C8  UNL     1       0.438   1.706  -1.883  1.00  0.00     0.278 C 
HETATM    7  C9  UNL     1       1.859   1.261  -1.483  1.00  0.00     0.072 C 
HETATM    8  C10 UNL     1       1.815   0.351  -0.313  1.00  0.00    -0.019 A 
HETATM    9  C11 UNL     1       0.675   0.226   0.457  1.00  0.00     0.051 A 
HETATM   10  N2  UNL     1       1.008  -0.545   1.540  1.00  0.00    -0.357 N 
HETATM   11  C12 UNL     1       2.300  -1.010   1.423  1.00  0.00     0.043 A 
HETATM   12  C13 UNL     1       3.033  -1.858   2.262  1.00  0.00     0.030 A 
HETATM   13  C14 UNL     1       4.354  -2.141   1.902  1.00  0.00     0.002 A 
HETATM   14  C15 UNL     1       4.919  -1.590   0.754  1.00  0.00     0.001 A 
HETATM   15  C16 UNL     1       4.173  -0.741  -0.072  1.00  0.00     0.014 A 
HETATM   16  C17 UNL     1       2.836  -0.452   0.262  1.00  0.00    -0.001 A 
HETATM   17  C18 UNL     1      -0.635   0.937   0.247  1.00  0.00     0.283 C 
HETATM   18  H19 UNL     1       0.397  -0.768   2.311  1.00  0.00     0.166 HD
ENDROOT
BRANCH   1  19
HETATM   19  C2  UNL     1      -2.191  -0.964   1.182  1.00  0.00     0.010 C 
HETATM   20  C1  UNL     1      -1.645  -2.380   1.028  1.00  0.00     0.006 C 
ENDBRANCH   1  19
BRANCH   1  21
HETATM   21  C4  UNL     1      -2.022  -0.631  -1.352  1.00  0.00     0.176 C 
BRANCH  21  22
HETATM   22  O1  UNL     1      -0.916  -1.477  -1.615  1.00  0.00    -0.400 OA
HETATM   23  H8  UNL     1      -1.035  -1.854  -2.502  1.00  0.00     0.209 HD
ENDBRANCH  21  22
ENDBRANCH   1  21
TORSDOF 3
