REMARK  8 active torsions:
REMARK  status: ('A' for Active; 'I' for Inactive)
REMARK    1  A    between atoms: C12_14  and  C13_15 
REMARK    2  A    between atoms: C13_15  and  C15_17 
REMARK    3  A    between atoms: C15_17  and  C16_18 
REMARK    4  A    between atoms: C16_18  and  C17_19 
REMARK    5  A    between atoms: C26_28  and  C27_29 
REMARK    6  A    between atoms: C27_29  and  C28_30 
REMARK    7  A    between atoms: C28_30  and  C29_31 
REMARK    8  A    between atoms: C29_31  and  O4_33 
ROOT
HETATM    1  C1  UNL     1      -5.970  -3.080   0.123  1.00  0.00     0.025 C 
HETATM    2  C2  UNL     1      -4.672  -2.935   0.417  1.00  0.00     0.015 C 
HETATM    3  C3  UNL     1      -3.694  -4.049   0.322  1.00  0.00     0.289 C 
HETATM    4  O1  UNL     1      -3.873  -5.124  -0.223  1.00  0.00    -0.260 OA
HETATM    5  O2  UNL     1      -2.541  -3.641   0.935  1.00  0.00    -0.311 OA
HETATM    6  C4  UNL     1      -2.826  -2.446   1.667  1.00  0.00     0.142 C 
HETATM    7  C5  UNL     1      -1.607  -1.569   1.886  1.00  0.00     0.039 C 
HETATM    8  C6  UNL     1      -0.953  -1.058   0.586  1.00  0.00     0.006 C 
HETATM    9  C7  UNL     1      -1.987  -0.357  -0.339  1.00  0.00    -0.027 A 
HETATM   10  C8  UNL     1      -1.591   0.976  -1.035  1.00  0.00     0.011 C 
HETATM   11  C9  UNL     1      -0.166   1.520  -0.876  1.00  0.00     0.011 C 
HETATM   12  C10 UNL     1       0.838   0.452  -0.456  1.00  0.00    -0.032 C 
HETATM   13  C11 UNL     1       1.002  -0.560  -1.616  1.00  0.00     0.016 C 
HETATM   14  C12 UNL     1       2.228   1.004  -0.011  1.00  0.00    -0.002 C 
HETATM   15  C21 UNL     1       2.732  -0.036   1.013  1.00  0.00     0.006 C 
HETATM   16  C22 UNL     1       1.538  -0.953   1.347  1.00  0.00     0.011 C 
HETATM   17  C23 UNL     1       0.296  -0.176   0.874  1.00  0.00    -0.032 C 
HETATM   18  C24 UNL     1      -0.045   0.872   1.983  1.00  0.00     0.016 C 
HETATM   19  C25 UNL     1      -2.714  -1.288  -1.306  1.00  0.00     0.022 A 
HETATM   20  C26 UNL     1      -3.495  -0.728  -0.146  1.00  0.00    -0.021 A 
HETATM   21  C31 UNL     1      -3.950  -1.733   0.932  1.00  0.00     0.063 C 
ENDROOT
BRANCH  14  22
HETATM   22  C13 UNL     1       3.243   1.571  -1.049  1.00  0.00    -0.014 C 
HETATM   23  C14 UNL     1       4.250   2.483  -0.319  1.00  0.00     0.010 C 
BRANCH  22  24
HETATM   24  C15 UNL     1       3.967   0.655  -2.070  1.00  0.00     0.008 C 
BRANCH  24  25
HETATM   25  C16 UNL     1       4.948  -0.441  -1.628  1.00  0.00     0.028 C 
BRANCH  25  26
HETATM   26  C17 UNL     1       6.159   0.073  -0.908  1.00  0.00    -0.025 C 
HETATM   27  C18 UNL     1       6.712  -0.392   0.229  1.00  0.00    -0.091 C 
HETATM   28  C19 UNL     1       6.253  -1.608   0.983  1.00  0.00     0.042 C 
HETATM   29  C20 UNL     1       7.888   0.321   0.845  1.00  0.00     0.042 C 
ENDBRANCH  25  26
ENDBRANCH  24  25
ENDBRANCH  22  24
ENDBRANCH  14  22
BRANCH  20  30
HETATM   30  C27 UNL     1      -4.559   0.323  -0.480  1.00  0.00     0.021 C 
BRANCH  30  31
HETATM   31  C28 UNL     1      -4.780   1.312   0.664  1.00  0.00     0.112 C 
BRANCH  31  32
HETATM   32  C29 UNL     1      -5.485   2.548   0.170  1.00  0.00     0.258 C 
HETATM   33  O3  UNL     1      -4.964   3.655   0.099  1.00  0.00    -0.265 OA
BRANCH  32  34
HETATM   34  O4  UNL     1      -6.770   2.259  -0.176  1.00  0.00    -0.326 OA
HETATM   35  C30 UNL     1      -7.489   3.374  -0.713  1.00  0.00     0.213 C 
ENDBRANCH  32  34
ENDBRANCH  31  32
ENDBRANCH  30  31
ENDBRANCH  20  30
TORSDOF 8
