REMARK  8 active torsions:
REMARK  status: ('A' for Active; 'I' for Inactive)
REMARK    1  A    between atoms: C10_11  and  C11_12 
REMARK    2  A    between atoms: C29_32  and  C30_33 
REMARK    3  A    between atoms: C29_32  and  C31_35 
REMARK    4  A    between atoms: C30_33  and  O1_34 
REMARK    5  A    between atoms: C31_35  and  O3_37 
REMARK    6  A    between atoms: C41_48  and  C42_49 
REMARK    7  A    between atoms: C42_49  and  O5_51 
REMARK    8  A    between atoms: C44_53  and  O6_54 
ROOT
HETATM    1  C1  UNL     1       7.155   0.875  -2.876  1.00  0.00     0.036 C 
HETATM    2  C2  UNL     1       7.057  -0.134  -1.780  1.00  0.00    -0.026 C 
HETATM    3  C3  UNL     1       6.337  -0.071  -0.643  1.00  0.00    -0.050 C 
HETATM    4  C4  UNL     1       6.498  -1.200   0.369  1.00  0.00     0.310 C 
HETATM    5  N1  UNL     1       5.280  -1.737   0.953  1.00  0.00     0.125 N 
HETATM    6  C5  UNL     1       4.557  -2.575  -0.014  1.00  0.00     0.277 C 
HETATM    7  C6  UNL     1       3.714  -1.610  -0.825  1.00  0.00     0.051 C 
HETATM    8  C7  UNL     1       3.403  -0.472   0.169  1.00  0.00     0.070 C 
HETATM    9  C8  UNL     1       1.993  -0.697   0.694  1.00  0.00    -0.016 A 
HETATM   10  C9  UNL     1       0.778  -0.493   0.045  1.00  0.00     0.018 A 
HETATM   11  C10 UNL     1      -0.421  -0.786   0.706  1.00  0.00    -0.048 A 
HETATM   12  C33 UNL     1      -0.365  -1.347   1.997  1.00  0.00     0.010 A 
HETATM   13  C34 UNL     1       0.862  -1.575   2.628  1.00  0.00     0.030 A 
HETATM   14  C35 UNL     1       2.037  -1.236   1.980  1.00  0.00     0.039 A 
HETATM   15  N4  UNL     1       3.322  -1.307   2.481  1.00  0.00    -0.347 N 
HETATM   16  C36 UNL     1       3.734  -2.300   3.445  1.00  0.00     0.152 C 
HETATM   17  C37 UNL     1       4.273  -0.782   1.472  1.00  0.00     0.274 C 
HETATM   18  C38 UNL     1       4.750   0.647   2.070  1.00  0.00     0.186 C 
HETATM   19  C39 UNL     1       5.821   1.372   1.263  1.00  0.00     0.047 C 
HETATM   20  C40 UNL     1       5.451   1.113  -0.212  1.00  0.00     0.043 C 
HETATM   21  C41 UNL     1       3.855   0.948  -0.307  1.00  0.00     0.121 C 
HETATM   22  C44 UNL     1       3.243   1.946   0.713  1.00  0.00     0.277 C 
HETATM   23  O7  UNL     1       3.626   1.582   2.053  1.00  0.00    -0.350 OA
ENDROOT
BRANCH  11  24
HETATM   24  C11 UNL     1      -1.770  -0.397   0.072  1.00  0.00     0.070 C 
HETATM   25  C12 UNL     1      -2.309   0.805   0.877  1.00  0.00     0.026 C 
HETATM   26  C13 UNL     1      -3.214   1.869   0.188  1.00  0.00     0.039 C 
HETATM   27  C14 UNL     1      -3.023   1.942  -1.318  1.00  0.00    -0.051 C 
HETATM   28  C29 UNL     1      -4.714   1.783   0.567  1.00  0.00     0.107 C 
HETATM   29  C15 UNL     1      -2.001   2.600  -1.908  1.00  0.00    -0.026 C 
HETATM   30  C17 UNL     1      -4.071   1.277  -2.187  1.00  0.00     0.306 C 
HETATM   31  C16 UNL     1      -0.880   3.338  -1.241  1.00  0.00     0.036 C 
HETATM   32  N2  UNL     1      -4.889   0.279  -1.521  1.00  0.00     0.094 N 
HETATM   33  C18 UNL     1      -5.982  -0.184  -2.373  1.00  0.00     0.310 C 
HETATM   34  C19 UNL     1      -5.316   0.519  -0.126  1.00  0.00     0.248 C 
HETATM   35  C20 UNL     1      -5.102  -0.805   0.689  1.00  0.00     0.079 C 
HETATM   36  C21 UNL     1      -4.058  -1.786   0.213  1.00  0.00    -0.020 A 
HETATM   37  C22 UNL     1      -2.701  -1.585  -0.024  1.00  0.00     0.025 A 
HETATM   38  C28 UNL     1      -4.333  -3.177  -0.076  1.00  0.00    -0.001 A 
HETATM   39  N3  UNL     1      -2.197  -2.775  -0.510  1.00  0.00    -0.358 N 
HETATM   40  C23 UNL     1      -3.152  -3.763  -0.517  1.00  0.00     0.043 A 
HETATM   41  H28 UNL     1      -1.234  -2.904  -0.798  1.00  0.00     0.166 HD
HETATM   42  C24 UNL     1      -3.057  -5.110  -0.894  1.00  0.00     0.030 A 
HETATM   43  C25 UNL     1      -4.212  -5.889  -0.822  1.00  0.00     0.002 A 
HETATM   44  C26 UNL     1      -5.414  -5.335  -0.388  1.00  0.00     0.001 A 
HETATM   45  C27 UNL     1      -5.489  -3.987  -0.011  1.00  0.00     0.014 A 
BRANCH  28  46
HETATM   46  C30 UNL     1      -5.492   3.106   0.213  1.00  0.00     0.186 C 
BRANCH  46  47
HETATM   47  O1  UNL     1      -5.704   3.377  -1.156  1.00  0.00    -0.399 OA
HETATM   48  H35 UNL     1      -6.053   4.283  -1.232  1.00  0.00     0.209 HD
ENDBRANCH  46  47
ENDBRANCH  28  46
BRANCH  28  49
HETATM   49  C31 UNL     1      -4.954   1.770   2.083  1.00  0.00     0.272 C 
HETATM   50  O2  UNL     1      -5.985   1.355   2.595  1.00  0.00    -0.264 OA
BRANCH  49  51
HETATM   51  O3  UNL     1      -3.955   2.367   2.786  1.00  0.00    -0.326 OA
HETATM   52  C32 UNL     1      -4.091   2.311   4.204  1.00  0.00     0.213 C 
ENDBRANCH  49  51
ENDBRANCH  28  49
ENDBRANCH  11  24
BRANCH  21  53
HETATM   53  C42 UNL     1       3.280   1.299  -1.668  1.00  0.00     0.274 C 
HETATM   54  O4  UNL     1       2.087   1.476  -1.886  1.00  0.00    -0.264 OA
BRANCH  53  55
HETATM   55  O5  UNL     1       4.215   1.335  -2.653  1.00  0.00    -0.326 OA
HETATM   56  C43 UNL     1       3.688   1.622  -3.949  1.00  0.00     0.213 C 
ENDBRANCH  53  55
ENDBRANCH  21  53
BRANCH  22  57
HETATM   57  O6  UNL     1       3.692   3.271   0.469  1.00  0.00    -0.370 OA
HETATM   58  H52 UNL     1       3.130   3.829   1.035  1.00  0.00     0.212 HD
ENDBRANCH  22  57
TORSDOF 8
