REMARK  8 active torsions:
REMARK  status: ('A' for Active; 'I' for Inactive)
REMARK    1  A    between atoms: C2_2  and  C4_4 
REMARK    2  A    between atoms: C4_4  and  C6_6 
REMARK    3  A    between atoms: C7_7  and  C8_8 
REMARK    4  A    between atoms: C8_8  and  O1_10 
REMARK    5  A    between atoms: C8_8  and  C10_11 
REMARK    6  A    between atoms: C11_12  and  O2_13 
REMARK    7  A    between atoms: C27_30  and  C28_31 
REMARK    8  A    between atoms: C28_31  and  O4_32 
ROOT
HETATM    1  C10 UNL     1      -1.063  -0.276  -0.335  1.00  0.00     0.063 C 
HETATM    2  C11 UNL     1      -1.356   0.651   0.889  1.00  0.00     0.126 C 
HETATM    3  C12 UNL     1       0.009   1.126   1.420  1.00  0.00     0.038 C 
HETATM    4  C13 UNL     1       1.016   0.566   0.423  1.00  0.00     0.003 C 
HETATM    5  C14 UNL     1       2.489   0.442   0.832  1.00  0.00    -0.004 C 
HETATM    6  C15 UNL     1       3.011   1.747   1.452  1.00  0.00     0.006 C 
HETATM    7  C16 UNL     1       4.512   1.709   1.728  1.00  0.00     0.006 C 
HETATM    8  C17 UNL     1       5.289   1.325   0.467  1.00  0.00     0.005 C 
HETATM    9  C18 UNL     1       6.801   1.426   0.688  1.00  0.00     0.088 C 
HETATM   10  C19 UNL     1       7.548   1.111  -0.590  1.00  0.00     0.149 C 
HETATM   11  O3  UNL     1       8.683   1.532  -0.803  1.00  0.00    -0.293 OA
HETATM   12  C20 UNL     1       6.904   0.220  -1.587  1.00  0.00     0.047 C 
HETATM   13  C21 UNL     1       5.692  -0.311  -1.361  1.00  0.00    -0.013 C 
HETATM   14  C22 UNL     1       4.855  -0.060  -0.112  1.00  0.00    -0.018 C 
HETATM   15  C23 UNL     1       5.162  -1.226   0.857  1.00  0.00     0.020 C 
HETATM   16  C24 UNL     1       3.317   0.034  -0.431  1.00  0.00     0.002 C 
HETATM   17  C25 UNL     1       2.714  -1.219  -1.121  1.00  0.00     0.007 C 
HETATM   18  C26 UNL     1       1.192  -1.146  -1.352  1.00  0.00     0.013 C 
HETATM   19  C27 UNL     1       0.405  -0.773  -0.073  1.00  0.00    -0.006 C 
ENDROOT
BRANCH   1  20
HETATM   20  C8  UNL     1      -2.200  -1.288  -0.666  1.00  0.00     0.079 C 
HETATM   21  C9  UNL     1      -1.868  -2.188  -1.858  1.00  0.00     0.051 C 
BRANCH  20  22
HETATM   22  C7  UNL     1      -3.478  -0.529  -1.011  1.00  0.00     0.007 C 
HETATM   23  C6  UNL     1      -4.708  -0.766  -0.515  1.00  0.00    -0.023 C 
BRANCH  23  24
HETATM   24  C4  UNL     1      -6.001  -0.032  -0.833  1.00  0.00     0.007 C 
HETATM   25  C5  UNL     1      -5.904   0.838  -2.097  1.00  0.00     0.014 C 
BRANCH  24  26
HETATM   26  C2  UNL     1      -6.494   0.779   0.406  1.00  0.00    -0.015 C 
HETATM   27  C1  UNL     1      -7.761   1.592   0.108  1.00  0.00     0.010 C 
HETATM   28  C3  UNL     1      -6.773  -0.125   1.618  1.00  0.00     0.010 C 
ENDBRANCH  24  26
ENDBRANCH  23  24
ENDBRANCH  20  22
BRANCH  20  29
HETATM   29  O1  UNL     1      -2.446  -2.146   0.442  1.00  0.00    -0.386 OA
HETATM   30  H17 UNL     1      -2.706  -1.552   1.177  1.00  0.00     0.211 HD
ENDBRANCH  20  29
ENDBRANCH   1  20
BRANCH   2  31
HETATM   31  O2  UNL     1      -2.055  -0.037   1.927  1.00  0.00    -0.395 OA
HETATM   32  H20 UNL     1      -2.171   0.601   2.658  1.00  0.00     0.210 HD
ENDBRANCH   2  31
BRANCH  19  33
HETATM   33  C28 UNL     1       0.505  -1.964   0.930  1.00  0.00     0.174 C 
BRANCH  33  34
HETATM   34  O4  UNL     1       0.054  -1.680   2.244  1.00  0.00    -0.400 OA
HETATM   35  H44 UNL     1      -0.886  -1.427   2.173  1.00  0.00     0.209 HD
ENDBRANCH  33  34
ENDBRANCH  19  33
TORSDOF 8
