REMARK  13 active torsions:
REMARK  status: ('A' for Active; 'I' for Inactive)
REMARK    1  A    between atoms: O1_2  and  C2_3 
REMARK    2  A    between atoms: C2_3  and  C3_4 
REMARK    3  A    between atoms: C3_4  and  C4_5 
REMARK    4  A    between atoms: C4_5  and  O2_6 
REMARK    5  A    between atoms: O2_6  and  C5_7 
REMARK    6  A    between atoms: C20_23  and  C21_24 
REMARK    7  A    between atoms: C21_24  and  O4_26 
REMARK    8  A    between atoms: C21_24  and  C23_27 
REMARK    9  A    between atoms: C23_27  and  O5_28 
REMARK   10  A    between atoms: C23_27  and  C24_29 
REMARK   11  A    between atoms: C25_31  and  C26_32 
REMARK   12  A    between atoms: C26_32  and  O7_33 
REMARK   13  A    between atoms: C35_42  and  O8_43 
ROOT
HETATM    1  C5  UNL     1       6.260  -0.892  -0.415  1.00  0.00     0.122 C 
HETATM    2  C6  UNL     1       5.868   0.123  -1.490  1.00  0.00     0.033 C 
HETATM    3  C7  UNL     1       4.391   0.514  -1.405  1.00  0.00     0.013 C 
HETATM    4  C8  UNL     1       3.406  -0.693  -1.466  1.00  0.00    -0.026 C 
HETATM    5  C9  UNL     1       3.562  -1.373  -2.852  1.00  0.00     0.016 C 
HETATM    6  C10 UNL     1       3.817  -1.702  -0.350  1.00  0.00     0.071 C 
HETATM    7  C11 UNL     1       5.302  -2.093  -0.411  1.00  0.00     0.045 C 
HETATM    8  C12 UNL     1       3.472  -1.191   1.052  1.00  0.00     0.161 C 
HETATM    9  O3  UNL     1       4.234  -1.276   2.013  1.00  0.00    -0.292 OA
HETATM   10  C13 UNL     1       2.103  -0.661   1.255  1.00  0.00    -0.006 C 
HETATM   11  C14 UNL     1       1.399  -0.308   0.166  1.00  0.00    -0.030 C 
HETATM   12  C15 UNL     1       1.926  -0.149  -1.256  1.00  0.00     0.027 C 
HETATM   13  C16 UNL     1       0.872  -0.562  -2.330  1.00  0.00     0.011 C 
HETATM   14  C17 UNL     1      -0.570  -0.050  -2.062  1.00  0.00     0.014 C 
HETATM   15  C18 UNL     1      -1.040  -0.493  -0.665  1.00  0.00    -0.002 C 
HETATM   16  C19 UNL     1      -1.088  -2.046  -0.647  1.00  0.00     0.019 C 
HETATM   17  C20 UNL     1      -2.352   0.160  -0.074  1.00  0.00     0.034 C 
HETATM   18  C31 UNL     1      -2.128   0.103   1.490  1.00  0.00     0.016 C 
HETATM   19  C32 UNL     1      -0.665  -0.341   1.667  1.00  0.00     0.026 C 
HETATM   20  C33 UNL     1       0.190   0.127   2.828  1.00  0.00     0.013 C 
HETATM   21  C34 UNL     1       1.587  -0.540   2.681  1.00  0.00     0.043 C 
HETATM   22  C35 UNL     1      -0.025   0.090   0.350  1.00  0.00     0.094 C 
ENDROOT
BRANCH  17  23
HETATM   23  C21 UNL     1      -3.779  -0.216  -0.615  1.00  0.00     0.087 C 
HETATM   24  C22 UNL     1      -4.192  -1.670  -0.353  1.00  0.00     0.049 C 
BRANCH  23  25
HETATM   25  O4  UNL     1      -3.736  -0.056  -2.048  1.00  0.00    -0.387 OA
HETATM   26  H33 UNL     1      -3.331   0.808  -2.239  1.00  0.00     0.210 HD
ENDBRANCH  23  25
BRANCH  23  27
HETATM   27  C23 UNL     1      -4.843   0.799  -0.027  1.00  0.00     0.181 C 
BRANCH  27  28
HETATM   28  O5  UNL     1      -5.086   0.526   1.359  1.00  0.00    -0.390 OA
HETATM   29  H35 UNL     1      -5.706  -0.231   1.355  1.00  0.00     0.210 HD
ENDBRANCH  27  28
BRANCH  27  30
HETATM   30  C24 UNL     1      -6.207   0.865  -0.773  1.00  0.00     0.158 C 
HETATM   31  O6  UNL     1      -6.957  -0.347  -0.493  1.00  0.00    -0.375 OA
HETATM   32  C25 UNL     1      -8.250  -0.025   0.064  1.00  0.00     0.149 C 
HETATM   33  C27 UNL     1      -8.117   1.406   0.582  1.00  0.00     0.019 C 
HETATM   34  C28 UNL     1      -9.431   2.157   0.759  1.00  0.00     0.013 C 
HETATM   35  C29 UNL     1      -7.145   2.035  -0.406  1.00  0.00     0.019 C 
HETATM   36  C30 UNL     1      -6.483   3.312   0.099  1.00  0.00     0.013 C 
BRANCH  32  37
HETATM   37  C26 UNL     1      -9.329  -0.307  -0.996  1.00  0.00     0.196 C 
BRANCH  37  38
HETATM   38  O7  UNL     1      -9.126   0.453  -2.185  1.00  0.00    -0.398 OA
HETATM   39  H40 UNL     1      -8.290   0.121  -2.566  1.00  0.00     0.209 HD
ENDBRANCH  37  38
ENDBRANCH  32  37
ENDBRANCH  27  30
ENDBRANCH  23  27
ENDBRANCH  17  23
BRANCH  22  40
HETATM   40  O8  UNL     1      -0.028   1.531   0.268  1.00  0.00    -0.384 OA
HETATM   41  H56 UNL     1       0.807   1.859   0.652  1.00  0.00     0.211 HD
ENDBRANCH  22  40
BRANCH   1  42
HETATM   42  O2  UNL     1       7.563  -1.427  -0.672  1.00  0.00    -0.386 OA
BRANCH  42  43
HETATM   43  C4  UNL     1       8.654  -0.564  -0.364  1.00  0.00     0.170 C 
BRANCH  43  44
HETATM   44  C3  UNL     1       9.263  -0.909   0.993  1.00  0.00     0.052 C 
BRANCH  44  45
HETATM   45  C2  UNL     1       8.587  -0.206   2.170  1.00  0.00     0.169 C 
BRANCH  45  46
HETATM   46  O1  UNL     1       8.555   1.212   1.997  1.00  0.00    -0.396 OA
HETATM   47  C1  UNL     1       9.778   1.849   2.345  1.00  0.00     0.201 C 
ENDBRANCH  45  46
ENDBRANCH  44  45
ENDBRANCH  43  44
ENDBRANCH  42  43
ENDBRANCH   1  42
TORSDOF 13
