REMARK  19 active torsions:
REMARK  status: ('A' for Active; 'I' for Inactive)
REMARK    1  A    between atoms: O1_2  and  C2_3 
REMARK    2  A    between atoms: C2_3  and  C3_4 
REMARK    3  A    between atoms: C2_3  and  C28_36 
REMARK    4  A    between atoms: C3_4  and  C4_5 
REMARK    5  A    between atoms: C4_5  and  C6_7 
REMARK    6  A    between atoms: C6_7  and  O2_8 
REMARK    7  A    between atoms: C6_7  and  C7_9 
REMARK    8  A    between atoms: C8_10  and  C9_11 
REMARK    9  A    between atoms: C10_12  and  C11_13 
REMARK   10  A    between atoms: C11_13  and  N1_14 
REMARK       I    between atoms: N1_14  and  C12_15 
REMARK   11  A    between atoms: C12_15  and  C13_17 
REMARK   12  A    between atoms: C13_17  and  C16_20 
REMARK   13  A    between atoms: C16_20  and  O4_21 
REMARK   14  A    between atoms: C16_20  and  C17_22 
REMARK   15  A    between atoms: C19_24  and  C20_25 
REMARK   16  A    between atoms: C21_26  and  C22_27 
REMARK   17  A    between atoms: C23_28  and  C24_29 
REMARK   18  A    between atoms: C26_31  and  N2_33 
REMARK   19  A    between atoms: C28_36  and  O7_37 
ROOT
HETATM    1  C9  UNL     1      -0.622   0.759   1.431  1.00  0.00    -0.003 C 
HETATM    2  C10 UNL     1      -0.101   0.816   2.664  1.00  0.00    -0.007 C 
ENDROOT
BRANCH   1   3
HETATM    3  C8  UNL     1      -1.949   1.224   1.105  1.00  0.00    -0.002 C 
HETATM    4  C7  UNL     1      -2.407   1.226  -0.153  1.00  0.00     0.005 C 
BRANCH   4   5
HETATM    5  C6  UNL     1      -3.807   1.621  -0.527  1.00  0.00     0.144 C 
BRANCH   5   6
HETATM    6  C4  UNL     1      -4.553   0.495  -1.285  1.00  0.00     0.016 C 
HETATM    7  C5  UNL     1      -4.502  -0.866  -0.572  1.00  0.00     0.013 C 
BRANCH   6   8
HETATM    8  C3  UNL     1      -5.987   0.892  -1.721  1.00  0.00     0.042 C 
BRANCH   8   9
HETATM    9  C2  UNL     1      -7.150   0.741  -0.695  1.00  0.00     0.159 C 
BRANCH   9  10
HETATM   10  O1  UNL     1      -7.072   1.846   0.219  1.00  0.00    -0.388 OA
HETATM   11  C1  UNL     1      -6.712   1.524   1.557  1.00  0.00     0.202 C 
ENDBRANCH   9  10
BRANCH   9  12
HETATM   12  C28 UNL     1      -8.527   0.843  -1.417  1.00  0.00     0.133 C 
HETATM   13  C29 UNL     1      -8.797  -0.197  -2.547  1.00  0.00     0.114 C 
HETATM   14  C30 UNL     1      -8.438  -1.644  -2.234  1.00  0.00     0.023 C 
HETATM   15  C31 UNL     1     -10.297  -0.075  -2.741  1.00  0.00     0.227 C 
HETATM   16  O8  UNL     1     -10.907  -0.416  -3.739  1.00  0.00    -0.273 OA
HETATM   17  N3  UNL     1     -10.837   0.423  -1.568  1.00  0.00    -0.332 N 
HETATM   18  C32 UNL     1     -12.187   0.927  -1.493  1.00  0.00     0.154 C 
HETATM   19  C33 UNL     1      -9.790   0.720  -0.534  1.00  0.00     0.183 C 
HETATM   20  C34 UNL     1     -10.023   1.901   0.464  1.00  0.00     0.294 C 
HETATM   21  C35 UNL     1     -10.071  -0.122   0.771  1.00  0.00     0.169 C 
HETATM   22  O9  UNL     1     -10.132   3.106   0.428  1.00  0.00    -0.262 OA
HETATM   23  O10 UNL     1     -10.039   1.097   1.564  1.00  0.00    -0.311 OA
HETATM   24  C36 UNL     1      -9.203  -1.198   1.390  1.00  0.00     0.043 C 
BRANCH  12  25
HETATM   25  O7  UNL     1      -8.549   2.126  -2.109  1.00  0.00    -0.383 OA
HETATM   26  H42 UNL     1      -8.625   2.844  -1.440  1.00  0.00     0.210 HD
ENDBRANCH  12  25
ENDBRANCH   9  12
ENDBRANCH   8   9
ENDBRANCH   6   8
ENDBRANCH   5   6
BRANCH   5  27
HETATM   27  O2  UNL     1      -3.699   2.780  -1.350  1.00  0.00    -0.391 OA
HETATM   28  H12 UNL     1      -3.222   2.536  -2.160  1.00  0.00     0.210 HD
ENDBRANCH   5  27
ENDBRANCH   4   5
ENDBRANCH   1   3
BRANCH   2  29
HETATM   29  C11 UNL     1       1.251   0.336   3.110  1.00  0.00     0.149 C 
BRANCH  29  30
HETATM   30  N1  UNL     1       2.100   0.013   1.992  1.00  0.00    -0.357 N 
HETATM   31  C12 UNL     1       3.220  -0.770   2.142  1.00  0.00     0.228 C 
HETATM   32  O3  UNL     1       3.532  -1.228   3.238  1.00  0.00    -0.273 OA
HETATM   33  H19 UNL     1       1.997   0.560   1.148  1.00  0.00     0.162 HD
BRANCH  31  34
HETATM   34  C13 UNL     1       3.969  -1.139   0.846  1.00  0.00     0.063 C 
HETATM   35  C14 UNL     1       4.180   0.083  -0.068  1.00  0.00     0.028 C 
HETATM   36  C15 UNL     1       3.074  -2.165   0.111  1.00  0.00     0.028 C 
BRANCH  34  37
HETATM   37  C16 UNL     1       5.346  -1.817   1.159  1.00  0.00     0.164 C 
BRANCH  37  38
HETATM   38  O4  UNL     1       5.224  -2.893   2.094  1.00  0.00    -0.390 OA
HETATM   39  H27 UNL     1       4.759  -2.534   2.878  1.00  0.00     0.210 HD
ENDBRANCH  37  38
BRANCH  37  40
HETATM   40  C17 UNL     1       6.503  -0.913   1.588  1.00  0.00    -0.054 C 
HETATM   41  C18 UNL     1       6.396  -0.282   2.958  1.00  0.00     0.046 C 
HETATM   42  C19 UNL     1       7.608  -0.653   0.850  1.00  0.00     0.005 C 
BRANCH  42  43
HETATM   43  C20 UNL     1       7.921  -1.149  -0.479  1.00  0.00     0.000 C 
HETATM   44  C21 UNL     1       9.084  -1.025  -1.143  1.00  0.00     0.000 C 
BRANCH  44  45
HETATM   45  C22 UNL     1      10.294  -0.366  -0.700  1.00  0.00     0.001 C 
HETATM   46  C23 UNL     1      11.449  -0.453  -1.379  1.00  0.00     0.009 C 
BRANCH  46  47
HETATM   47  C24 UNL     1      12.723   0.178  -1.006  1.00  0.00    -0.034 C 
HETATM   48  C25 UNL     1      12.613   1.368  -0.066  1.00  0.00     0.050 C 
HETATM   49  C26 UNL     1      13.886  -0.267  -1.543  1.00  0.00     0.082 C 
HETATM   50  C27 UNL     1      14.170  -1.398  -2.475  1.00  0.00     0.075 C 
BRANCH  49  51
HETATM   51  N2  UNL     1      15.107   0.394  -1.140  1.00  0.00    -0.120 N 
HETATM   52  O5  UNL     1      15.464   0.257   0.038  1.00  0.00    -0.532 OA
HETATM   53  O6  UNL     1      15.711   1.027  -2.015  1.00  0.00    -0.532 OA
ENDBRANCH  49  51
ENDBRANCH  46  47
ENDBRANCH  44  45
ENDBRANCH  42  43
ENDBRANCH  37  40
ENDBRANCH  34  37
ENDBRANCH  31  34
ENDBRANCH  29  30
ENDBRANCH   2  29
TORSDOF 19
