REMARK  9 active torsions:
REMARK  status: ('A' for Active; 'I' for Inactive)
REMARK    1  A    between atoms: C12_14  and  C13_15 
REMARK    2  A    between atoms: C13_15  and  C15_17 
REMARK    3  A    between atoms: C15_17  and  C16_18 
REMARK    4  A    between atoms: C16_18  and  C17_19 
REMARK    5  A    between atoms: C18_20  and  C20_22 
REMARK    6  A    between atoms: C26_29  and  C27_30 
REMARK    7  A    between atoms: C27_30  and  C28_31 
REMARK    8  A    between atoms: C28_31  and  C29_32 
REMARK    9  A    between atoms: C29_32  and  O5_34 
ROOT
HETATM    1  C1  UNL     1      -6.791   0.000  -1.482  1.00  0.00     0.025 C 
HETATM    2  C2  UNL     1      -5.558   0.523  -1.490  1.00  0.00     0.015 C 
HETATM    3  C3  UNL     1      -4.862   0.781  -2.770  1.00  0.00     0.289 C 
HETATM    4  O1  UNL     1      -5.156   0.329  -3.861  1.00  0.00    -0.260 OA
HETATM    5  O2  UNL     1      -3.825   1.618  -2.511  1.00  0.00    -0.311 OA
HETATM    6  C4  UNL     1      -3.893   2.065  -1.149  1.00  0.00     0.142 C 
HETATM    7  C5  UNL     1      -2.490   2.295  -0.616  1.00  0.00     0.039 C 
HETATM    8  C6  UNL     1      -1.668   0.998  -0.639  1.00  0.00     0.006 C 
HETATM    9  C7  UNL     1      -2.323  -0.060   0.278  1.00  0.00    -0.027 A 
HETATM   10  C8  UNL     1      -1.466  -0.548   1.453  1.00  0.00     0.011 C 
HETATM   11  C9  UNL     1       0.030  -0.791   1.171  1.00  0.00     0.011 C 
HETATM   12  C10 UNL     1       0.553  -0.163  -0.129  1.00  0.00    -0.032 C 
HETATM   13  C11 UNL     1       0.299  -1.169  -1.292  1.00  0.00     0.016 C 
HETATM   14  C12 UNL     1       2.063   0.251  -0.145  1.00  0.00    -0.002 C 
HETATM   15  C21 UNL     1       2.095   1.359  -1.240  1.00  0.00     0.006 C 
HETATM   16  C22 UNL     1       0.648   1.819  -1.484  1.00  0.00     0.011 C 
HETATM   17  C23 UNL     1      -0.161   1.223  -0.317  1.00  0.00    -0.032 C 
HETATM   18  C24 UNL     1       0.015   2.211   0.881  1.00  0.00     0.016 C 
HETATM   19  C25 UNL     1      -3.203  -1.118  -0.362  1.00  0.00     0.022 A 
HETATM   20  C26 UNL     1      -3.882  -0.014   0.415  1.00  0.00    -0.021 A 
HETATM   21  C30 UNL     1      -4.708   1.035  -0.371  1.00  0.00     0.063 C 
ENDROOT
BRANCH  14  22
HETATM   22  C13 UNL     1       3.171  -0.825  -0.361  1.00  0.00    -0.014 C 
HETATM   23  C14 UNL     1       3.122  -1.917   0.715  1.00  0.00     0.010 C 
BRANCH  22  24
HETATM   24  C15 UNL     1       4.575  -0.157  -0.377  1.00  0.00     0.008 C 
BRANCH  24  25
HETATM   25  C16 UNL     1       5.715  -1.106  -0.767  1.00  0.00     0.028 C 
BRANCH  25  26
HETATM   26  C17 UNL     1       7.002  -0.353  -0.959  1.00  0.00    -0.017 C 
HETATM   27  C18 UNL     1       8.059  -0.320  -0.125  1.00  0.00    -0.028 C 
HETATM   28  C19 UNL     1       8.176  -0.988   1.208  1.00  0.00     0.051 C 
BRANCH  27  29
HETATM   29  C20 UNL     1       9.250   0.484  -0.539  1.00  0.00     0.265 C 
HETATM   30  O3  UNL     1       9.318   1.126  -1.580  1.00  0.00    -0.302 OA
ENDBRANCH  27  29
ENDBRANCH  25  26
ENDBRANCH  24  25
ENDBRANCH  22  24
ENDBRANCH  14  22
BRANCH  20  31
HETATM   31  C27 UNL     1      -4.462  -0.346   1.798  1.00  0.00     0.021 C 
BRANCH  31  32
HETATM   32  C28 UNL     1      -5.891  -0.877   1.774  1.00  0.00     0.111 C 
BRANCH  32  33
HETATM   33  C29 UNL     1      -6.312  -1.400   3.121  1.00  0.00     0.139 C 
HETATM   34  O4  UNL     1      -5.641  -1.467   4.136  1.00  0.00    -0.650 OA
BRANCH  33  35
HETATM   35  O5  UNL     1      -7.594  -1.817   3.115  1.00  0.00    -0.776 OA
HETATM   36  H41 UNL     1      -7.746  -2.135   4.030  1.00  0.00     0.167 HD
ENDBRANCH  33  35
ENDBRANCH  32  33
ENDBRANCH  31  32
ENDBRANCH  20  31
TORSDOF 9
