REMARK  6 active torsions:
REMARK  status: ('A' for Active; 'I' for Inactive)
REMARK    1  A    between atoms: C3_3  and  C4_4 
REMARK    2  A    between atoms: C4_4  and  O1_5 
REMARK    3  A    between atoms: C7_9  and  O3_10 
REMARK    4  A    between atoms: C21_24  and  O4_26 
REMARK    5  A    between atoms: C23_27  and  O5_28 
REMARK    6  A    between atoms: C30_36  and  C31_37 
ROOT
HETATM    1  C1  UNL     1      -8.391   0.014  -0.113  1.00  0.00     0.013 C 
HETATM    2  C2  UNL     1      -6.930   0.395  -0.319  1.00  0.00     0.023 C 
HETATM    3  C3  UNL     1      -6.664   1.898  -0.345  1.00  0.00     0.047 C 
HETATM    4  C5  UNL     1      -5.312   1.997  -1.064  1.00  0.00     0.160 C 
HETATM    5  O2  UNL     1      -5.372   0.941  -2.046  1.00  0.00    -0.373 OA
HETATM    6  C6  UNL     1      -6.382  -0.021  -1.683  1.00  0.00     0.167 C 
HETATM    7  C7  UNL     1      -5.827  -1.456  -1.744  1.00  0.00     0.226 C 
HETATM    8  C8  UNL     1      -4.397  -1.590  -1.368  1.00  0.00    -0.072 C 
HETATM    9  C9  UNL     1      -3.231  -1.741  -1.135  1.00  0.00    -0.103 C 
HETATM   10  C10 UNL     1      -1.846  -2.146  -0.854  1.00  0.00     0.099 C 
HETATM   11  C11 UNL     1      -0.718  -1.080  -0.637  1.00  0.00     0.009 C 
HETATM   12  C12 UNL     1       0.523  -2.001  -0.326  1.00  0.00     0.016 C 
HETATM   13  C13 UNL     1       1.596  -1.650   0.754  1.00  0.00     0.027 C 
HETATM   14  C14 UNL     1       1.282  -0.475   1.642  1.00  0.00    -0.030 C 
HETATM   15  C15 UNL     1       1.702  -0.343   2.917  1.00  0.00    -0.006 C 
HETATM   16  C16 UNL     1       1.353   0.824   3.809  1.00  0.00     0.043 C 
HETATM   17  C17 UNL     1       0.080   1.538   3.372  1.00  0.00     0.013 C 
HETATM   18  C18 UNL     1       0.114   1.822   1.868  1.00  0.00     0.026 C 
HETATM   19  C19 UNL     1      -1.196   2.361   1.250  1.00  0.00     0.016 C 
HETATM   20  C20 UNL     1      -1.405   1.520  -0.063  1.00  0.00     0.034 C 
HETATM   21  C21 UNL     1      -2.677   1.951  -0.878  1.00  0.00     0.087 C 
HETATM   22  C22 UNL     1      -2.631   1.399  -2.309  1.00  0.00     0.049 C 
HETATM   23  C23 UNL     1      -4.051   1.879  -0.143  1.00  0.00     0.181 C 
HETATM   24  C24 UNL     1      -0.900   0.085   0.396  1.00  0.00     0.003 C 
HETATM   25  C25 UNL     1      -1.722  -0.527   1.561  1.00  0.00     0.019 C 
HETATM   26  C26 UNL     1       0.506   0.609   0.959  1.00  0.00     0.098 C 
HETATM   27  O6  UNL     1       1.390   1.330   0.063  1.00  0.00    -0.363 OA
HETATM   28  C27 UNL     1       1.854   0.931  -1.201  1.00  0.00     0.263 C 
HETATM   29  C28 UNL     1       3.323   0.787  -1.154  1.00  0.00    -0.080 C 
HETATM   30  C29 UNL     1       4.509   0.632  -1.049  1.00  0.00    -0.093 C 
HETATM   31  C30 UNL     1       5.967   0.452  -0.796  1.00  0.00     0.121 C 
HETATM   32  C37 UNL     1       6.377  -1.046  -0.745  1.00  0.00     0.190 C 
HETATM   33  O7  UNL     1       6.163  -1.682   0.534  1.00  0.00    -0.384 OA
HETATM   34  C38 UNL     1       4.798  -1.960   0.840  1.00  0.00     0.122 C 
HETATM   35  C39 UNL     1       4.236  -3.086  -0.043  1.00  0.00     0.033 C 
HETATM   36  C40 UNL     1       3.010  -3.788   0.566  1.00  0.00     0.013 C 
HETATM   37  C41 UNL     1       2.182  -2.898   1.531  1.00  0.00    -0.026 C 
HETATM   38  C42 UNL     1       1.043  -3.737   2.167  1.00  0.00     0.016 C 
HETATM   39  C43 UNL     1       3.137  -2.502   2.704  1.00  0.00     0.071 C 
HETATM   40  C44 UNL     1       4.619  -2.299   2.316  1.00  0.00     0.045 C 
HETATM   41  C45 UNL     1       2.625  -1.339   3.531  1.00  0.00     0.161 C 
HETATM   42  O8  UNL     1       2.970  -1.218   4.705  1.00  0.00    -0.292 OA
ENDROOT
BRANCH  31  43
HETATM   43  C31 UNL     1       6.760   1.224  -1.840  1.00  0.00    -0.040 A 
HETATM   44  C32 UNL     1       6.724   0.867  -3.197  1.00  0.00     0.008 A 
HETATM   45  C33 UNL     1       7.444   1.599  -4.140  1.00  0.00     0.001 A 
HETATM   46  C34 UNL     1       8.202   2.700  -3.743  1.00  0.00     0.000 A 
HETATM   47  C35 UNL     1       8.249   3.057  -2.399  1.00  0.00     0.001 A 
HETATM   48  C36 UNL     1       7.535   2.327  -1.452  1.00  0.00     0.008 A 
ENDBRANCH  31  43
BRANCH  21  49
HETATM   49  O4  UNL     1      -2.502   3.399  -1.086  1.00  0.00    -0.387 OA
HETATM   50  H30 UNL     1      -1.704   3.535  -1.623  1.00  0.00     0.210 HD
ENDBRANCH  21  49
BRANCH  23  51
HETATM   51  O5  UNL     1      -4.170   0.758   0.720  1.00  0.00    -0.390 OA
HETATM   52  H32 UNL     1      -3.829   1.045   1.581  1.00  0.00     0.210 HD
ENDBRANCH  23  51
BRANCH   7  53
HETATM   53  O3  UNL     1      -5.973  -1.953  -3.084  1.00  0.00    -0.381 OA
HETATM   54  H12 UNL     1      -5.522  -2.812  -3.087  1.00  0.00     0.211 HD
ENDBRANCH   7  53
BRANCH   3  55
HETATM   55  C4  UNL     1      -6.732   2.615   0.994  1.00  0.00     0.172 C 
BRANCH  55  56
HETATM   56  O1  UNL     1      -8.087   2.707   1.401  1.00  0.00    -0.400 OA
HETATM   57  H8  UNL     1      -8.162   3.397   2.076  1.00  0.00     0.209 HD
ENDBRANCH  55  56
ENDBRANCH   3  55
TORSDOF 6
