REMARK  9 active torsions:
REMARK  status: ('A' for Active; 'I' for Inactive)
REMARK    1  A    between atoms: C2_2  and  C3_3 
REMARK    2  A    between atoms: C3_3  and  C5_5 
REMARK    3  A    between atoms: C3_3  and  C6_7 
REMARK    4  A    between atoms: C5_5  and  O1_6 
REMARK    5  A    between atoms: C7_8  and  O2_9 
REMARK    6  A    between atoms: C18_22  and  O5_23 
REMARK    7  A    between atoms: O5_23  and  C19_24 
REMARK    8  A    between atoms: C19_24  and  C20_26 
REMARK    9  A    between atoms: C29_36  and  O8_37 
ROOT
HETATM    1  C6  UNL     1      -4.511  -0.279   0.305  1.00  0.00     0.023 A 
HETATM    2  C7  UNL     1      -4.323   0.814   1.173  1.00  0.00     0.076 A 
HETATM    3  C8  UNL     1      -3.141   1.563   1.178  1.00  0.00     0.053 A 
HETATM    4  C9  UNL     1      -2.082   1.219   0.335  1.00  0.00     0.034 A 
HETATM    5  C10 UNL     1      -0.878   2.069   0.318  1.00  0.00     0.192 A 
HETATM    6  O3  UNL     1      -0.866   3.114   0.955  1.00  0.00    -0.287 OA
HETATM    7  C11 UNL     1       0.275   1.665  -0.531  1.00  0.00     0.035 A 
HETATM    8  C12 UNL     1       0.158   0.606  -1.349  1.00  0.00     0.131 A 
HETATM    9  O4  UNL     1       1.118   0.278  -2.286  1.00  0.00    -0.336 OA
HETATM   10  C13 UNL     1       1.933   1.363  -2.757  1.00  0.00     0.065 C 
HETATM   11  C14 UNL     1       2.956   0.722  -3.710  1.00  0.00     0.046 C 
HETATM   12  C15 UNL     1       1.077   2.322  -3.619  1.00  0.00     0.046 C 
HETATM   13  C16 UNL     1       2.590   2.109  -1.559  1.00  0.00     0.031 C 
HETATM   14  C17 UNL     1       3.765   1.352  -0.891  1.00  0.00     0.041 C 
HETATM   15  C18 UNL     1       3.351   0.517   0.320  1.00  0.00     0.136 C 
HETATM   16  C23 UNL     1       2.807   1.426   1.437  1.00  0.00     0.012 C 
HETATM   17  C24 UNL     1       1.868   0.635   2.359  1.00  0.00     0.012 C 
HETATM   18  C25 UNL     1       2.154   2.704   0.882  1.00  0.00     0.017 C 
HETATM   19  C26 UNL     1       1.510   2.550  -0.515  1.00  0.00     0.033 C 
HETATM   20  C27 UNL     1      -1.044  -0.279  -1.327  1.00  0.00     0.219 A 
HETATM   21  O7  UNL     1      -1.102  -1.306  -1.996  1.00  0.00    -0.284 OA
HETATM   22  C28 UNL     1      -2.184   0.100  -0.475  1.00  0.00     0.065 A 
HETATM   23  C29 UNL     1      -3.379  -0.651  -0.473  1.00  0.00     0.091 A 
ENDROOT
BRANCH   1  24
HETATM   24  C3  UNL     1      -5.850  -1.081   0.190  1.00  0.00     0.027 C 
HETATM   25  C4  UNL     1      -7.088  -0.382   0.811  1.00  0.00     0.027 C 
BRANCH  24  26
HETATM   26  C2  UNL     1      -6.264  -1.199  -1.291  1.00  0.00    -0.021 C 
HETATM   27  C1  UNL     1      -6.561  -2.313  -1.976  1.00  0.00     0.008 C 
ENDBRANCH  24  26
BRANCH  24  28
HETATM   28  C5  UNL     1      -5.631  -2.443   0.933  1.00  0.00     0.182 C 
BRANCH  28  29
HETATM   29  O1  UNL     1      -6.806  -3.242   1.080  1.00  0.00    -0.399 OA
HETATM   30  H9  UNL     1      -7.438  -2.750   1.627  1.00  0.00     0.209 HD
ENDBRANCH  28  29
ENDBRANCH  24  28
ENDBRANCH   1  24
BRANCH   2  31
HETATM   31  O2  UNL     1      -5.291   1.173   2.066  1.00  0.00    -0.360 OA
HETATM   32  H10 UNL     1      -4.918   1.778   2.731  1.00  0.00     0.217 HD
ENDBRANCH   2  31
BRANCH  23  33
HETATM   33  O8  UNL     1      -3.473  -1.795  -1.225  1.00  0.00    -0.359 OA
HETATM   34  H36 UNL     1      -2.625  -1.972  -1.695  1.00  0.00     0.217 HD
ENDBRANCH  23  33
BRANCH  15  35
HETATM   35  O5  UNL     1       4.541  -0.133   0.817  1.00  0.00    -0.315 OA
BRANCH  35  36
HETATM   36  C19 UNL     1       4.559  -1.498   0.839  1.00  0.00     0.262 C 
HETATM   37  O6  UNL     1       3.624  -2.219   0.524  1.00  0.00    -0.265 OA
BRANCH  36  38
HETATM   38  C20 UNL     1       5.915  -1.982   1.327  1.00  0.00     0.077 C 
HETATM   39  C21 UNL     1       6.155  -3.432   0.914  1.00  0.00     0.020 C 
HETATM   40  C22 UNL     1       6.012  -1.818   2.839  1.00  0.00     0.020 C 
ENDBRANCH  36  38
ENDBRANCH  35  36
ENDBRANCH  15  35
TORSDOF 9
