REMARK  12 active torsions:
REMARK  status: ('A' for Active; 'I' for Inactive)
REMARK    1  A    between atoms: O1_2  and  C2_3 
REMARK    2  A    between atoms: C4_5  and  O2_6 
REMARK    3  A    between atoms: O2_6  and  C5_7 
REMARK    4  A    between atoms: C8_10  and  C9_11 
REMARK    5  A    between atoms: N1_12  and  C10_14 
REMARK    6  A    between atoms: C10_14  and  C11_15 
REMARK    7  A    between atoms: C11_15  and  C12_16 
REMARK    8  A    between atoms: C12_16  and  O3_17 
REMARK    9  A    between atoms: C18_23  and  C19_24 
REMARK   10  A    between atoms: C25_32  and  O6_33 
REMARK   11  A    between atoms: C29_37  and  O7_38 
REMARK   12  A    between atoms: C33_43  and  O9_44 
ROOT
HETATM    1  C5  UNL     1       2.276   0.698  -0.035  1.00  0.00     0.127 C 
HETATM    2  C6  UNL     1       1.291   1.704  -0.591  1.00  0.00     0.033 C 
HETATM    3  C7  UNL     1       0.180   0.998  -1.350  1.00  0.00     0.021 C 
HETATM    4  C8  UNL     1      -0.538  -0.131  -0.543  1.00  0.00     0.026 C 
HETATM    5  C13 UNL     1      -2.061   0.304  -0.433  1.00  0.00     0.009 C 
HETATM    6  C14 UNL     1      -2.838   0.126  -1.741  1.00  0.00     0.007 C 
HETATM    7  C15 UNL     1      -4.165   0.861  -1.606  1.00  0.00     0.013 C 
HETATM    8  C16 UNL     1      -5.097   0.196  -0.573  1.00  0.00    -0.005 C 
HETATM    9  C17 UNL     1      -5.754  -1.020  -1.285  1.00  0.00     0.019 C 
HETATM   10  C18 UNL     1      -6.274   1.162  -0.122  1.00  0.00     0.028 C 
HETATM   11  C23 UNL     1      -6.463   0.808   1.360  1.00  0.00     0.013 C 
HETATM   12  C24 UNL     1      -5.039   0.584   1.872  1.00  0.00     0.040 C 
HETATM   13  C25 UNL     1      -4.370  -0.256   0.769  1.00  0.00     0.070 C 
HETATM   14  C26 UNL     1      -2.796  -0.341   0.757  1.00  0.00     0.026 C 
HETATM   15  C27 UNL     1      -2.123   0.148   2.069  1.00  0.00     0.011 C 
HETATM   16  C28 UNL     1      -0.620   0.467   1.943  1.00  0.00     0.039 C 
HETATM   17  C29 UNL     1       0.082  -0.399   0.884  1.00  0.00     0.073 C 
HETATM   18  C30 UNL     1       1.626  -0.260   0.954  1.00  0.00     0.071 C 
ENDROOT
BRANCH   1  19
HETATM   19  O2  UNL     1       3.339   1.434   0.579  1.00  0.00    -0.356 OA
BRANCH  19  20
HETATM   20  C4  UNL     1       4.575   0.718   0.587  1.00  0.00     0.263 C 
HETATM   21  C3  UNL     1       5.676   1.682   1.020  1.00  0.00     0.095 C 
HETATM   22  C2  UNL     1       7.019   0.951   0.989  1.00  0.00     0.156 C 
HETATM   23  C33 UNL     1       6.952  -0.312   1.863  1.00  0.00     0.175 C 
HETATM   24  C31 UNL     1       5.713  -1.175   1.563  1.00  0.00     0.151 C 
HETATM   25  O8  UNL     1       4.511  -0.398   1.476  1.00  0.00    -0.354 OA
HETATM   26  C32 UNL     1       5.869  -2.040   0.309  1.00  0.00     0.042 C 
BRANCH  22  27
HETATM   27  O1  UNL     1       8.088   1.759   1.516  1.00  0.00    -0.388 OA
HETATM   28  C1  UNL     1       8.405   2.895   0.717  1.00  0.00     0.202 C 
ENDBRANCH  22  27
BRANCH  23  29
HETATM   29  O9  UNL     1       6.908   0.088   3.245  1.00  0.00    -0.390 OA
HETATM   30  H51 UNL     1       7.540   0.833   3.312  1.00  0.00     0.210 HD
ENDBRANCH  23  29
ENDBRANCH  19  20
ENDBRANCH   1  19
BRANCH  17  31
HETATM   31  O7  UNL     1      -0.236  -1.747   1.318  1.00  0.00    -0.389 OA
HETATM   32  H43 UNL     1       0.537  -2.099   1.796  1.00  0.00     0.210 HD
ENDBRANCH  17  31
BRANCH   4  33
HETATM   33  C9  UNL     1      -0.386  -1.475  -1.273  1.00  0.00     0.068 C 
HETATM   34  N1  UNL     1       0.721  -1.792  -1.857  1.00  0.00    -0.401 N 
ATOM     35  H1  UNL     1       1.505  -1.146  -1.950  1.00  0.00     0.158 HD
BRANCH  34  36
HETATM   36  C10 UNL     1       0.751  -3.169  -2.376  1.00  0.00     0.121 C 
BRANCH  36  37
HETATM   37  C11 UNL     1       1.170  -4.123  -1.258  1.00  0.00     0.045 C 
BRANCH  37  38
HETATM   38  C12 UNL     1       1.351  -5.547  -1.762  1.00  0.00     0.165 C 
BRANCH  38  39
HETATM   39  O3  UNL     1       2.442  -5.635  -2.673  1.00  0.00    -0.401 OA
HETATM   40  H20 UNL     1       3.251  -5.378  -2.191  1.00  0.00     0.209 HD
ENDBRANCH  38  39
ENDBRANCH  37  38
ENDBRANCH  36  37
ENDBRANCH  34  36
ENDBRANCH   4  33
BRANCH  13  41
HETATM   41  O6  UNL     1      -4.808  -1.608   1.097  1.00  0.00    -0.389 OA
HETATM   42  H37 UNL     1      -4.364  -1.868   1.923  1.00  0.00     0.210 HD
ENDBRANCH  13  41
BRANCH  10  43
HETATM   43  C19 UNL     1      -6.105   2.655  -0.337  1.00  0.00    -0.045 A 
HETATM   44  C20 UNL     1      -6.708   3.389  -1.281  1.00  0.00     0.087 A 
HETATM   45  C21 UNL     1      -6.272   4.775  -1.102  1.00  0.00     0.283 A 
HETATM   46  O4  UNL     1      -6.639   5.723  -1.781  1.00  0.00    -0.260 OA
HETATM   47  O5  UNL     1      -5.403   4.837  -0.058  1.00  0.00    -0.314 OA
HETATM   48  C22 UNL     1      -5.262   3.537   0.511  1.00  0.00     0.213 A 
ENDBRANCH  10  43
TORSDOF 12
