REMARK  15 active torsions:
REMARK  status: ('A' for Active; 'I' for Inactive)
REMARK    1  A    between atoms: N1_2  and  C2_3 
REMARK    2  A    between atoms: C2_3  and  C3_4 
REMARK    3  A    between atoms: C3_4  and  C4_5 
REMARK    4  A    between atoms: C4_5  and  C5_6 
REMARK    5  A    between atoms: C4_5  and  C6_9 
REMARK    6  A    between atoms: C5_6  and  O2_8 
REMARK    7  A    between atoms: C6_9  and  C7_11 
REMARK    8  A    between atoms: C7_11  and  O4_12 
REMARK    9  A    between atoms: C7_11  and  C8_13 
REMARK   10  A    between atoms: C8_13  and  C9_14 
REMARK   11  A    between atoms: C9_14  and  C11_16 
REMARK   12  A    between atoms: C13_18  and  O5_19 
REMARK   13  A    between atoms: C16_22  and  O6_23 
REMARK   14  A    between atoms: C34_43  and  C35_44 
REMARK   15  A    between atoms: C36_45  and  C37_46 
ROOT
HETATM    1  C11 UNL     1       2.061   0.217  -0.022  1.00  0.00     0.002 C 
HETATM    2  C12 UNL     1       1.549   0.821   1.345  1.00  0.00     0.049 C 
HETATM    3  C13 UNL     1       0.043   1.031   1.119  1.00  0.00     0.088 C 
HETATM    4  C14 UNL     1      -0.963   1.185   2.212  1.00  0.00     0.011 C 
HETATM    5  C15 UNL     1      -2.262   0.967   1.895  1.00  0.00     0.015 C 
HETATM    6  C16 UNL     1      -2.722   0.575   0.472  1.00  0.00     0.108 C 
HETATM    7  C17 UNL     1      -1.693  -0.292  -0.265  1.00  0.00    -0.018 C 
HETATM    8  C18 UNL     1      -1.971  -1.118  -1.309  1.00  0.00     0.003 C 
HETATM    9  C19 UNL     1      -0.810  -1.942  -1.882  1.00  0.00     0.157 C 
HETATM   10  O7  UNL     1      -1.020  -2.919  -2.599  1.00  0.00    -0.293 OA
HETATM   11  C20 UNL     1       0.662  -1.616  -1.505  1.00  0.00     0.094 C 
HETATM   12  C21 UNL     1       0.773  -0.258  -0.810  1.00  0.00    -0.019 C 
HETATM   13  C22 UNL     1       0.578   0.781  -1.981  1.00  0.00     0.017 C 
HETATM   14  C23 UNL     1      -0.303  -0.246   0.309  1.00  0.00     0.026 C 
HETATM   15  C24 UNL     1      -0.250  -1.508   1.264  1.00  0.00     0.025 C 
HETATM   16  C25 UNL     1      -3.435  -1.252  -1.792  1.00  0.00    -0.007 C 
HETATM   17  C26 UNL     1      -3.735  -0.028  -2.691  1.00  0.00     0.021 C 
HETATM   18  C27 UNL     1      -3.792  -2.483  -2.679  1.00  0.00     0.022 C 
HETATM   19  C28 UNL     1      -4.097  -3.732  -1.876  1.00  0.00     0.080 C 
HETATM   20  C29 UNL     1      -5.383  -3.511  -1.109  1.00  0.00     0.135 C 
HETATM   21  O8  UNL     1      -6.170  -4.446  -0.947  1.00  0.00    -0.297 OA
HETATM   22  C30 UNL     1      -5.650  -2.098  -0.530  1.00  0.00     0.018 C 
HETATM   23  C31 UNL     1      -6.244  -2.323   0.881  1.00  0.00     0.023 C 
HETATM   24  C32 UNL     1      -6.724  -1.428  -1.397  1.00  0.00     0.023 C 
HETATM   25  C33 UNL     1      -4.269  -1.343  -0.441  1.00  0.00     0.025 C 
HETATM   26  C34 UNL     1      -4.169  -0.071   0.482  1.00  0.00     0.057 C 
ENDROOT
BRANCH   1  27
HETATM   27  C9  UNL     1       3.320  -0.690   0.035  1.00  0.00    -0.011 C 
HETATM   28  C10 UNL     1       3.209  -1.930   0.928  1.00  0.00     0.010 C 
BRANCH  27  29
HETATM   29  C8  UNL     1       4.543   0.154   0.498  1.00  0.00     0.044 C 
BRANCH  29  30
HETATM   30  C7  UNL     1       5.835  -0.138  -0.279  1.00  0.00     0.188 C 
BRANCH  30  31
HETATM   31  C6  UNL     1       6.939   0.824   0.200  1.00  0.00     0.169 C 
HETATM   32  O3  UNL     1       6.798   2.045   0.073  1.00  0.00    -0.294 OA
BRANCH  31  33
HETATM   33  C4  UNL     1       8.194   0.214   0.806  1.00  0.00     0.157 C 
BRANCH  33  34
HETATM   34  C3  UNL     1       9.280   1.263   1.105  1.00  0.00     0.053 C 
BRANCH  34  35
HETATM   35  C2  UNL     1       9.902   1.890  -0.149  1.00  0.00     0.270 C 
BRANCH  35  36
HETATM   36  N1  UNL     1      10.448   0.921  -1.105  1.00  0.00     0.079 N 
HETATM   37  C1  UNL     1      11.605   0.208  -0.573  1.00  0.00     0.306 C 
HETATM   38  H4  UNL     1      10.746   1.434  -1.939  1.00  0.00     0.315 HD
ENDBRANCH  35  36
ENDBRANCH  34  35
ENDBRANCH  33  34
BRANCH  33  39
HETATM   39  C5  UNL     1       7.879  -0.514   2.084  1.00  0.00     0.151 C 
HETATM   40  O1  UNL     1       6.952  -0.301   2.846  1.00  0.00    -0.649 OA
BRANCH  39  41
HETATM   41  O2  UNL     1       8.782  -1.475   2.367  1.00  0.00    -0.776 OA
HETATM   42  H10 UNL     1       8.458  -1.872   3.203  1.00  0.00     0.167 HD
ENDBRANCH  39  41
ENDBRANCH  33  39
ENDBRANCH  31  33
ENDBRANCH  30  31
BRANCH  30  43
HETATM   43  O4  UNL     1       6.177  -1.507  -0.173  1.00  0.00    -0.388 OA
HETATM   44  H12 UNL     1       6.753  -1.729  -0.928  1.00  0.00     0.210 HD
ENDBRANCH  30  43
ENDBRANCH  29  30
ENDBRANCH  27  29
ENDBRANCH   1  27
BRANCH   3  45
HETATM   45  O5  UNL     1      -0.109   2.229   0.350  1.00  0.00    -0.385 OA
HETATM   46  H22 UNL     1       0.027   2.982   0.967  1.00  0.00     0.211 HD
ENDBRANCH   3  45
BRANCH   6  47
HETATM   47  O6  UNL     1      -2.746   1.827  -0.228  1.00  0.00    -0.380 OA
HETATM   48  H25 UNL     1      -1.813   2.117  -0.322  1.00  0.00     0.211 HD
ENDBRANCH   6  47
BRANCH  26  49
HETATM   49  C35 UNL     1      -5.245   0.974   0.254  1.00  0.00    -0.017 C 
HETATM   50  C36 UNL     1      -6.076   1.420   1.210  1.00  0.00     0.008 C 
BRANCH  50  51
HETATM   51  C37 UNL     1      -7.072   2.476   0.988  1.00  0.00    -0.036 A 
HETATM   52  C38 UNL     1      -8.356   2.329   1.533  1.00  0.00     0.011 A 
HETATM   53  C39 UNL     1      -9.315   3.334   1.372  1.00  0.00     0.001 A 
HETATM   54  C40 UNL     1      -8.997   4.497   0.670  1.00  0.00     0.000 A 
HETATM   55  C41 UNL     1      -7.721   4.660   0.135  1.00  0.00     0.001 A 
HETATM   56  C42 UNL     1      -6.761   3.656   0.296  1.00  0.00     0.011 A 
ENDBRANCH  50  51
ENDBRANCH  26  49
TORSDOF 15
