REMARK  14 active torsions:
REMARK  status: ('A' for Active; 'I' for Inactive)
REMARK    1  A    between atoms: C3_3  and  O1_4 
REMARK    2  A    between atoms: O1_4  and  C4_5 
REMARK    3  A    between atoms: C5_7  and  C6_8 
REMARK    4  A    between atoms: C6_8  and  O3_9 
REMARK    5  A    between atoms: C7_10  and  O4_11 
REMARK    6  A    between atoms: C9_13  and  O5_14 
REMARK    7  A    between atoms: C10_15  and  O6_16 
REMARK    8  A    between atoms: C20_26  and  C21_27 
REMARK    9  A    between atoms: C21_27  and  O8_29 
REMARK   10  A    between atoms: C22_30  and  O9_31 
REMARK   11  A    between atoms: C24_33  and  C25_34 
REMARK   12  A    between atoms: C25_34  and  C27_36 
REMARK   13  A    between atoms: C27_36  and  C28_37 
REMARK   14  A    between atoms: C28_37  and  C29_38 
ROOT
HETATM    1  C1  UNL     1      -3.609   2.359   1.012  1.00  0.00     0.017 C 
HETATM    2  C2  UNL     1      -3.220   1.189   0.471  1.00  0.00    -0.055 C 
HETATM    3  C3  UNL     1      -4.141   0.287  -0.342  1.00  0.00     0.153 C 
HETATM    4  C11 UNL     1      -3.527  -0.038  -1.712  1.00  0.00     0.037 C 
HETATM    5  C12 UNL     1      -2.061  -0.485  -1.646  1.00  0.00     0.017 C 
HETATM    6  C13 UNL     1      -1.148   0.481  -0.831  1.00  0.00    -0.013 C 
HETATM    7  C14 UNL     1      -1.062   1.851  -1.561  1.00  0.00     0.021 C 
HETATM    8  C15 UNL     1       0.307  -0.044  -0.715  1.00  0.00    -0.067 C 
HETATM    9  C16 UNL     1       1.018   0.035   0.443  1.00  0.00    -0.054 C 
HETATM   10  C17 UNL     1       0.411   0.523   1.740  1.00  0.00     0.036 C 
HETATM   11  C18 UNL     1      -0.865   1.338   1.562  1.00  0.00     0.014 C 
HETATM   12  C19 UNL     1      -1.805   0.624   0.584  1.00  0.00     0.029 C 
HETATM   13  C20 UNL     1       2.480  -0.438   0.497  1.00  0.00     0.102 C 
HETATM   14  C22 UNL     1       3.489   0.246   1.460  1.00  0.00     0.142 C 
HETATM   15  C23 UNL     1       4.879  -0.055   0.849  1.00  0.00     0.039 C 
HETATM   16  C24 UNL     1       4.651  -0.670  -0.566  1.00  0.00     0.001 C 
HETATM   17  C33 UNL     1       3.193  -0.216  -0.898  1.00  0.00    -0.016 C 
HETATM   18  C34 UNL     1       3.215   1.270  -1.376  1.00  0.00     0.017 C 
HETATM   19  C35 UNL     1       2.417  -1.030  -1.943  1.00  0.00     0.015 C 
HETATM   20  C36 UNL     1       0.929  -0.617  -1.995  1.00  0.00     0.036 C 
ENDROOT
BRANCH   3  21
HETATM   21  O1  UNL     1      -5.383   0.963  -0.551  1.00  0.00    -0.349 OA
BRANCH  21  22
HETATM   22  C4  UNL     1      -6.530   0.102  -0.613  1.00  0.00     0.292 C 
HETATM   23  O2  UNL     1      -6.737  -0.489   0.670  1.00  0.00    -0.348 OA
HETATM   24  C5  UNL     1      -8.085  -0.822   1.013  1.00  0.00     0.179 C 
HETATM   25  C7  UNL     1      -9.037   0.401   0.944  1.00  0.00     0.183 C 
HETATM   26  C9  UNL     1      -8.416   1.555   0.139  1.00  0.00     0.183 C 
HETATM   27  C10 UNL     1      -7.701   0.999  -1.089  1.00  0.00     0.204 C 
BRANCH  24  28
HETATM   28  C6  UNL     1      -8.587  -2.009   0.174  1.00  0.00     0.198 C 
BRANCH  28  29
HETATM   29  O3  UNL     1      -9.853  -2.456   0.639  1.00  0.00    -0.398 OA
HETATM   30  H8  UNL     1     -10.140  -3.179   0.039  1.00  0.00     0.209 HD
ENDBRANCH  28  29
ENDBRANCH  24  28
BRANCH  25  31
HETATM   31  O4  UNL     1      -9.334   0.936   2.253  1.00  0.00    -0.385 OA
HETATM   32  C8  UNL     1     -10.358   0.202   2.915  1.00  0.00     0.202 C 
ENDBRANCH  25  31
BRANCH  26  33
HETATM   33  O5  UNL     1      -9.470   2.454  -0.230  1.00  0.00    -0.390 OA
HETATM   34  H14 UNL     1      -9.833   2.795   0.608  1.00  0.00     0.210 HD
ENDBRANCH  26  33
BRANCH  27  35
HETATM   35  O6  UNL     1      -7.218   2.038  -1.955  1.00  0.00    -0.388 OA
HETATM   36  H16 UNL     1      -6.309   2.230  -1.644  1.00  0.00     0.210 HD
ENDBRANCH  27  35
ENDBRANCH  21  22
ENDBRANCH   3  21
BRANCH  13  37
HETATM   37  C21 UNL     1       2.359  -1.950   0.888  1.00  0.00     0.156 C 
HETATM   38  O7  UNL     1       1.585  -2.780   0.427  1.00  0.00    -0.649 OA
BRANCH  37  39
HETATM   39  O8  UNL     1       3.227  -2.370   1.832  1.00  0.00    -0.775 OA
HETATM   40  H29 UNL     1       2.996  -3.318   1.947  1.00  0.00     0.167 HD
ENDBRANCH  37  39
ENDBRANCH  13  37
BRANCH  14  41
HETATM   41  O9  UNL     1       3.320   1.668   1.533  1.00  0.00    -0.394 OA
HETATM   42  H31 UNL     1       4.001   2.015   2.137  1.00  0.00     0.210 HD
ENDBRANCH  14  41
BRANCH  16  43
HETATM   43  C25 UNL     1       5.808  -0.322  -1.550  1.00  0.00    -0.013 C 
HETATM   44  C26 UNL     1       5.567  -0.878  -2.959  1.00  0.00     0.010 C 
BRANCH  43  45
HETATM   45  C27 UNL     1       7.180  -0.861  -1.050  1.00  0.00     0.008 C 
BRANCH  45  46
HETATM   46  C28 UNL     1       8.074   0.241  -0.465  1.00  0.00     0.028 C 
BRANCH  46  47
HETATM   47  C29 UNL     1       9.468  -0.273  -0.231  1.00  0.00    -0.025 C 
HETATM   48  C30 UNL     1      10.016  -0.685   0.930  1.00  0.00    -0.091 C 
HETATM   49  C31 UNL     1       9.307  -0.727   2.257  1.00  0.00     0.042 C 
HETATM   50  C32 UNL     1      11.446  -1.156   0.982  1.00  0.00     0.042 C 
ENDBRANCH  46  47
ENDBRANCH  45  46
ENDBRANCH  43  45
ENDBRANCH  16  43
TORSDOF 14
