REMARK  16 active torsions:
REMARK  status: ('A' for Active; 'I' for Inactive)
REMARK    1  A    between atoms: C2_2  and  C3_3 
REMARK    2  A    between atoms: C4_4  and  C6_6 
REMARK    3  A    between atoms: C6_6  and  C7_7 
REMARK    4  A    between atoms: C7_7  and  C9_9 
REMARK    5  A    between atoms: C9_9  and  C10_10 
REMARK    6  A    between atoms: C9_9  and  O3_30 
REMARK    7  A    between atoms: C10_10  and  C11_11 
REMARK    8  A    between atoms: C23_23  and  C25_25 
REMARK    9  A    between atoms: C25_25  and  C26_27 
REMARK   10  A    between atoms: C26_27  and  C27_28 
REMARK   11  A    between atoms: O3_30  and  C28_31 
REMARK   12  A    between atoms: C29_33  and  C30_34 
REMARK   13  A    between atoms: C30_34  and  O5_35 
REMARK   14  A    between atoms: C31_36  and  O6_37 
REMARK   15  A    between atoms: C32_38  and  O7_39 
REMARK   16  A    between atoms: C33_40  and  O8_41 
ROOT
HETATM    1  C9  UNL     1      -1.659  -0.371   0.474  1.00  0.00     0.129 C 
ENDROOT
BRANCH   1   2
HETATM    2  C7  UNL     1      -2.114   1.081   0.169  1.00  0.00     0.014 C 
HETATM    3  C8  UNL     1      -2.064   1.992   1.402  1.00  0.00     0.012 C 
BRANCH   2   4
HETATM    4  C6  UNL     1      -1.370   1.692  -1.033  1.00  0.00     0.040 C 
BRANCH   4   5
HETATM    5  C4  UNL     1      -2.024   2.915  -1.646  1.00  0.00    -0.087 C 
HETATM    6  C3  UNL     1      -1.392   4.107  -1.622  1.00  0.00    -0.025 C 
HETATM    7  C5  UNL     1      -3.339   2.673  -2.338  1.00  0.00     0.043 C 
BRANCH   6   8
HETATM    8  C2  UNL     1      -1.863   5.408  -2.213  1.00  0.00     0.023 C 
HETATM    9  C1  UNL     1      -1.075   5.749  -3.471  1.00  0.00     0.009 C 
ENDBRANCH   6   8
ENDBRANCH   4   5
ENDBRANCH   2   4
ENDBRANCH   1   2
BRANCH   1  10
HETATM   10  C10 UNL     1      -0.285  -0.603   1.150  1.00  0.00     0.042 C 
BRANCH  10  11
HETATM   11  C11 UNL     1       1.023  -0.407   0.320  1.00  0.00     0.032 C 
HETATM   12  C12 UNL     1       1.263  -1.386  -0.821  1.00  0.00    -0.082 C 
HETATM   13  C13 UNL     1       0.250  -2.412  -1.241  1.00  0.00     0.043 C 
HETATM   14  C14 UNL     1       2.411  -1.279  -1.510  1.00  0.00    -0.019 C 
HETATM   15  C15 UNL     1       3.530  -0.362  -1.093  1.00  0.00     0.014 C 
HETATM   16  C16 UNL     1       4.818  -0.797  -1.832  1.00  0.00     0.013 C 
HETATM   17  C22 UNL     1       3.699  -0.405   0.445  1.00  0.00     0.013 C 
HETATM   18  C17 UNL     1       6.131  -0.342  -1.187  1.00  0.00    -0.018 C 
HETATM   19  C18 UNL     1       6.884  -1.522  -0.576  1.00  0.00     0.010 C 
HETATM   20  C19 UNL     1       5.920   0.790  -0.187  1.00  0.00     0.009 C 
HETATM   21  C20 UNL     1       4.873   0.523   0.912  1.00  0.00    -0.012 C 
HETATM   22  C21 UNL     1       5.536   0.028   2.205  1.00  0.00     0.010 C 
HETATM   23  C23 UNL     1       2.319  -0.266   1.246  1.00  0.00     0.029 C 
HETATM   24  C24 UNL     1       2.308  -1.398   2.311  1.00  0.00     0.025 C 
BRANCH  23  25
HETATM   25  C25 UNL     1       2.225   1.099   1.983  1.00  0.00     0.142 C 
HETATM   26  O1  UNL     1       2.247   1.170   3.217  1.00  0.00    -0.297 OA
BRANCH  25  27
HETATM   27  C26 UNL     1       2.079   2.366   1.170  1.00  0.00     0.148 C 
BRANCH  27  28
HETATM   28  C27 UNL     1       2.716   3.554   1.826  1.00  0.00     0.238 C 
HETATM   29  O2  UNL     1       3.488   4.300   1.226  1.00  0.00    -0.306 OA
ENDBRANCH  27  28
ENDBRANCH  25  27
ENDBRANCH  23  25
ENDBRANCH  10  11
ENDBRANCH   1  10
BRANCH   1  30
HETATM   30  O3  UNL     1      -2.641  -0.906   1.394  1.00  0.00    -0.353 OA
BRANCH  30  31
HETATM   31  C28 UNL     1      -3.286  -2.084   0.887  1.00  0.00     0.292 C 
HETATM   32  O4  UNL     1      -4.121  -1.722  -0.209  1.00  0.00    -0.348 OA
HETATM   33  C29 UNL     1      -4.872  -2.817  -0.780  1.00  0.00     0.179 C 
HETATM   34  C31 UNL     1      -4.903  -4.091   0.083  1.00  0.00     0.180 C 
HETATM   35  C32 UNL     1      -5.101  -3.757   1.567  1.00  0.00     0.183 C 
HETATM   36  C33 UNL     1      -4.135  -2.661   2.045  1.00  0.00     0.204 C 
BRANCH  33  37
HETATM   37  C30 UNL     1      -6.294  -2.280  -1.015  1.00  0.00     0.198 C 
BRANCH  37  38
HETATM   38  O5  UNL     1      -6.258  -1.163  -1.904  1.00  0.00    -0.398 OA
HETATM   39  H48 UNL     1      -5.497  -0.618  -1.622  1.00  0.00     0.209 HD
ENDBRANCH  37  38
ENDBRANCH  33  37
BRANCH  34  40
HETATM   40  O6  UNL     1      -3.663  -4.813  -0.057  1.00  0.00    -0.390 OA
HETATM   41  H50 UNL     1      -3.704  -5.501   0.642  1.00  0.00     0.210 HD
ENDBRANCH  34  40
BRANCH  35  42
HETATM   42  O7  UNL     1      -4.886  -4.964   2.324  1.00  0.00    -0.390 OA
HETATM   43  H52 UNL     1      -5.322  -4.828   3.190  1.00  0.00     0.210 HD
ENDBRANCH  35  42
BRANCH  36  44
HETATM   44  O8  UNL     1      -4.941  -1.610   2.624  1.00  0.00    -0.388 OA
HETATM   45  H54 UNL     1      -4.396  -0.797   2.560  1.00  0.00     0.210 HD
ENDBRANCH  36  44
ENDBRANCH  30  31
ENDBRANCH   1  30
TORSDOF 16
