REMARK  6 active torsions:
REMARK  status: ('A' for Active; 'I' for Inactive)
REMARK    1  A    between atoms: C2_2  and  C30_32 
REMARK    2  A    between atoms: C3_3  and  C4_4 
REMARK    3  A    between atoms: C4_4  and  C5_5 
REMARK    4  A    between atoms: C5_5  and  C6_6 
REMARK    5  A    between atoms: C6_6  and  C8_8 
REMARK    6  A    between atoms: C30_32  and  O4_34 
ROOT
HETATM    1  C8  UNL     1       2.354   1.097  -0.590  1.00  0.00    -0.002 C 
HETATM    2  C9  UNL     1       2.159   2.426   0.194  1.00  0.00     0.007 C 
HETATM    3  C10 UNL     1       0.776   2.366   0.869  1.00  0.00     0.015 C 
HETATM    4  C11 UNL     1       0.339   0.894   0.758  1.00  0.00    -0.005 C 
HETATM    5  C12 UNL     1       1.018   0.127   1.938  1.00  0.00     0.021 C 
HETATM    6  C13 UNL     1      -1.135   0.517   0.853  1.00  0.00    -0.000 C 
HETATM    7  C14 UNL     1      -1.639  -0.550   0.179  1.00  0.00    -0.060 C 
HETATM    8  C15 UNL     1      -0.727  -1.402  -0.722  1.00  0.00     0.036 C 
HETATM    9  C16 UNL     1       0.745  -0.965  -0.871  1.00  0.00     0.015 C 
HETATM   10  C17 UNL     1       0.898   0.548  -0.678  1.00  0.00    -0.028 C 
HETATM   11  C18 UNL     1       0.138   1.282  -1.830  1.00  0.00     0.016 C 
HETATM   12  C19 UNL     1      -3.128  -0.990   0.262  1.00  0.00    -0.014 C 
HETATM   13  C20 UNL     1      -3.176  -2.254   1.153  1.00  0.00     0.020 C 
HETATM   14  C21 UNL     1      -3.672  -1.338  -1.157  1.00  0.00     0.021 C 
HETATM   15  C22 UNL     1      -5.184  -1.252  -1.343  1.00  0.00     0.080 C 
HETATM   16  C23 UNL     1      -5.943  -1.229  -0.042  1.00  0.00     0.135 C 
HETATM   17  O1  UNL     1      -6.896  -1.987   0.136  1.00  0.00    -0.297 OA
HETATM   18  C24 UNL     1      -5.534  -0.166   0.984  1.00  0.00     0.018 C 
HETATM   19  C25 UNL     1      -6.381   1.089   0.684  1.00  0.00     0.023 C 
HETATM   20  C26 UNL     1      -5.915  -0.654   2.397  1.00  0.00     0.023 C 
HETATM   21  C27 UNL     1      -4.011   0.176   0.817  1.00  0.00     0.020 C 
HETATM   22  C28 UNL     1      -3.394   0.783   2.075  1.00  0.00     0.090 C 
HETATM   23  C29 UNL     1      -1.998   1.280   1.811  1.00  0.00     0.157 C 
HETATM   24  O2  UNL     1      -1.567   2.251   2.430  1.00  0.00    -0.293 OA
ENDROOT
BRANCH   1  25
HETATM   25  C6  UNL     1       3.189   1.301  -1.885  1.00  0.00    -0.014 C 
HETATM   26  C7  UNL     1       3.343   0.018  -2.707  1.00  0.00     0.010 C 
BRANCH  25  27
HETATM   27  C5  UNL     1       4.575   1.957  -1.619  1.00  0.00     0.008 C 
BRANCH  27  28
HETATM   28  C4  UNL     1       5.483   1.316  -0.557  1.00  0.00     0.028 C 
BRANCH  28  29
HETATM   29  C3  UNL     1       6.019  -0.034  -0.944  1.00  0.00    -0.013 C 
HETATM   30  C2  UNL     1       5.897  -1.200  -0.279  1.00  0.00     0.008 C 
HETATM   31  C1  UNL     1       6.415  -2.496  -0.826  1.00  0.00     0.055 C 
BRANCH  30  32
HETATM   32  C30 UNL     1       5.207  -1.331   1.021  1.00  0.00     0.171 C 
HETATM   33  O3  UNL     1       4.389  -2.188   1.305  1.00  0.00    -0.646 OA
BRANCH  32  34
HETATM   34  O4  UNL     1       5.653  -0.450   1.927  1.00  0.00    -0.773 OA
HETATM   35  H44 UNL     1       5.161  -0.678   2.742  1.00  0.00     0.167 HD
ENDBRANCH  32  34
ENDBRANCH  30  32
ENDBRANCH  28  29
ENDBRANCH  27  28
ENDBRANCH  25  27
ENDBRANCH   1  25
TORSDOF 6
