REMARK  8 active torsions:
REMARK  status: ('A' for Active; 'I' for Inactive)
REMARK    1  A    between atoms: C5_5  and  C6_6 
REMARK    2  A    between atoms: C6_6  and  O1_9 
REMARK    3  A    between atoms: C14_16  and  C15_17 
REMARK    4  A    between atoms: C16_19  and  O4_20 
REMARK    5  A    between atoms: C17_21  and  C18_22 
REMARK    6  A    between atoms: C19_24  and  O6_25 
REMARK    7  A    between atoms: C21_27  and  C22_28 
REMARK    8  A    between atoms: C22_28  and  C23_29 
ROOT
HETATM    1  C1  UNL     1       1.942  -3.989  -1.159  1.00  0.00     0.043 C 
HETATM    2  C2  UNL     1       2.374  -2.567  -0.887  1.00  0.00    -0.087 C 
HETATM    3  C3  UNL     1       3.640  -2.179  -1.134  1.00  0.00    -0.024 C 
HETATM    4  C4  UNL     1       4.399  -0.874  -1.049  1.00  0.00     0.035 C 
HETATM    5  C5  UNL     1       3.995   0.433  -0.280  1.00  0.00     0.023 C 
HETATM    6  C9  UNL     1       2.820   1.149  -1.026  1.00  0.00     0.011 C 
HETATM    7  C10 UNL     1       1.588   1.869  -0.453  1.00  0.00     0.039 C 
HETATM    8  C11 UNL     1       0.267   1.217   0.082  1.00  0.00     0.068 C 
HETATM    9  C12 UNL     1       0.402   0.817   1.572  1.00  0.00     0.047 C 
HETATM   10  O2  UNL     1      -0.612   2.390   0.170  1.00  0.00    -0.338 OA
HETATM   11  C13 UNL     1      -1.972   2.288   0.018  1.00  0.00     0.095 A 
HETATM   12  C14 UNL     1      -2.680   3.510   0.109  1.00  0.00     0.070 A 
HETATM   13  C16 UNL     1      -4.061   3.536  -0.105  1.00  0.00     0.097 A 
HETATM   14  C17 UNL     1      -4.716   2.354  -0.465  1.00  0.00     0.069 A 
HETATM   15  C19 UNL     1      -3.997   1.151  -0.581  1.00  0.00     0.091 A 
HETATM   16  C20 UNL     1      -2.628   1.069  -0.275  1.00  0.00     0.015 A 
HETATM   17  C21 UNL     1      -1.788  -0.215  -0.202  1.00  0.00     0.031 C 
HETATM   18  C26 UNL     1      -0.422   0.162  -0.871  1.00  0.00     0.029 C 
HETATM   19  C27 UNL     1       0.437  -1.014  -1.389  1.00  0.00     0.012 C 
HETATM   20  C28 UNL     1       1.291  -1.693  -0.333  1.00  0.00     0.034 C 
ENDROOT
BRANCH   5  21
HETATM   21  C6  UNL     1       4.159   0.396   1.277  1.00  0.00     0.054 C 
HETATM   22  C7  UNL     1       5.487  -0.269   1.702  1.00  0.00     0.045 C 
HETATM   23  C8  UNL     1       4.166   1.805   1.885  1.00  0.00     0.045 C 
BRANCH  21  24
HETATM   24  O1  UNL     1       3.130  -0.340   1.915  1.00  0.00    -0.390 OA
HETATM   25  H14 UNL     1       3.265  -1.282   1.702  1.00  0.00     0.210 HD
ENDBRANCH  21  24
ENDBRANCH   5  21
BRANCH  17  26
HETATM   26  C22 UNL     1      -2.411  -1.566  -0.641  1.00  0.00     0.014 C 
BRANCH  26  27
HETATM   27  C23 UNL     1      -3.396  -2.180   0.390  1.00  0.00    -0.022 C 
HETATM   28  C24 UNL     1      -4.256  -3.252  -0.284  1.00  0.00     0.009 C 
HETATM   29  C25 UNL     1      -2.654  -2.803   1.579  1.00  0.00     0.009 C 
ENDBRANCH  26  27
ENDBRANCH  17  26
BRANCH  12  30
HETATM   30  C15 UNL     1      -1.917   4.748   0.434  1.00  0.00     0.275 C 
HETATM   31  O3  UNL     1      -2.296   5.884   0.179  1.00  0.00    -0.301 OA
ENDBRANCH  12  30
BRANCH  13  32
HETATM   32  O4  UNL     1      -4.751   4.708   0.056  1.00  0.00    -0.359 OA
HETATM   33  H23 UNL     1      -5.690   4.579  -0.200  1.00  0.00     0.217 HD
ENDBRANCH  13  32
BRANCH  15  34
HETATM   34  O6  UNL     1      -4.679   0.064  -1.053  1.00  0.00    -0.359 OA
HETATM   35  H25 UNL     1      -4.364  -0.088  -1.966  1.00  0.00     0.217 HD
ENDBRANCH  15  34
BRANCH  14  36
HETATM   36  C18 UNL     1      -6.171   2.355  -0.739  1.00  0.00     0.275 C 
HETATM   37  O5  UNL     1      -6.817   3.400  -0.730  1.00  0.00    -0.301 OA
ENDBRANCH  14  36
TORSDOF 8
