REMARK  4 active torsions:
REMARK  status: ('A' for Active; 'I' for Inactive)
REMARK    1  A    between atoms: C2_2  and  C3_3 
REMARK    2  A    between atoms: C2_2  and  C9_9 
REMARK    3  A    between atoms: C4_4  and  C5_5 
REMARK    4  A    between atoms: C23_23  and  O1_24 
ROOT
HETATM    1  C9  UNL     1       1.879  -0.113  -0.453  1.00  0.00     0.001 C 
HETATM    2  C10 UNL     1       1.767  -0.320  -1.995  1.00  0.00     0.006 C 
HETATM    3  C11 UNL     1       0.274  -0.306  -2.350  1.00  0.00     0.009 C 
HETATM    4  C12 UNL     1      -0.405   0.084  -1.044  1.00  0.00     0.036 C 
HETATM    5  C13 UNL     1       0.471  -0.560   0.062  1.00  0.00    -0.033 C 
HETATM    6  C14 UNL     1       0.384  -2.100   0.137  1.00  0.00     0.016 C 
HETATM    7  C15 UNL     1       0.021   0.062   1.400  1.00  0.00     0.010 C 
HETATM    8  C16 UNL     1      -1.486  -0.129   1.654  1.00  0.00     0.010 C 
HETATM    9  C17 UNL     1      -2.370   0.400   0.507  1.00  0.00     0.039 C 
HETATM   10  C18 UNL     1      -1.921  -0.101  -0.907  1.00  0.00     0.123 C 
HETATM   11  C19 UNL     1      -2.486  -1.454  -1.255  1.00  0.00     0.014 C 
HETATM   12  C20 UNL     1      -3.825  -1.499  -1.216  1.00  0.00     0.014 C 
HETATM   13  C21 UNL     1      -4.468  -0.207  -0.749  1.00  0.00     0.124 C 
HETATM   14  C22 UNL     1      -5.998  -0.269  -0.835  1.00  0.00     0.078 C 
HETATM   15  C23 UNL     1      -6.701   0.894  -0.126  1.00  0.00     0.121 C 
HETATM   16  C24 UNL     1      -5.768   2.005   0.343  1.00  0.00     0.033 C 
HETATM   17  C25 UNL     1      -4.610   1.487   1.202  1.00  0.00     0.015 C 
HETATM   18  C26 UNL     1      -3.935   0.177   0.675  1.00  0.00     0.001 C 
HETATM   19  C27 UNL     1      -4.265  -0.947   1.696  1.00  0.00     0.019 C 
HETATM   20  O2  UNL     1      -4.026   0.835  -1.666  1.00  0.00    -0.223 OA
HETATM   21  O3  UNL     1      -2.546   0.797  -1.865  1.00  0.00    -0.224 OA
ENDROOT
BRANCH   1  22
HETATM   22  C2  UNL     1       3.159  -0.768   0.138  1.00  0.00     0.008 C 
HETATM   23  C1  UNL     1       3.261  -0.620   1.660  1.00  0.00     0.014 C 
BRANCH  22  24
HETATM   24  C3  UNL     1       4.394  -0.241  -0.577  1.00  0.00    -0.026 C 
HETATM   25  C4  UNL     1       5.264   0.684  -0.135  1.00  0.00    -0.025 C 
BRANCH  25  26
HETATM   26  C5  UNL     1       6.441   1.160  -0.868  1.00  0.00     0.012 A 
HETATM   27  C6  UNL     1       7.533   0.181  -1.227  1.00  0.00     0.013 A 
HETATM   28  C7  UNL     1       7.790   1.238  -0.188  1.00  0.00    -0.010 A 
HETATM   29  C8  UNL     1       8.010   0.842   1.233  1.00  0.00     0.010 C 
ENDBRANCH  25  26
ENDBRANCH  22  24
ENDBRANCH   1  22
BRANCH  15  30
HETATM   30  O1  UNL     1      -7.402   0.369   1.006  1.00  0.00    -0.395 OA
HETATM   31  H33 UNL     1      -7.921   1.097   1.391  1.00  0.00     0.210 HD
ENDBRANCH  15  30
TORSDOF 4
