REMARK  13 active torsions:
REMARK  status: ('A' for Active; 'I' for Inactive)
REMARK    1  A    between atoms: C2_2  and  C3_3 
REMARK    2  A    between atoms: C2_2  and  C9_11 
REMARK    3  A    between atoms: C3_3  and  C4_4 
REMARK    4  A    between atoms: C4_4  and  C5_6 
REMARK    5  A    between atoms: C5_6  and  C6_7 
REMARK    6  A    between atoms: C6_7  and  O2_10 
REMARK    7  A    between atoms: C20_23  and  C21_24 
REMARK    8  A    between atoms: C21_24  and  O4_25 
REMARK    9  A    between atoms: C27_31  and  O5_32 
REMARK   10  A    between atoms: O5_32  and  C28_33 
REMARK   11  A    between atoms: C30_36  and  O7_37 
REMARK   12  A    between atoms: C31_38  and  O8_39 
REMARK   13  A    between atoms: C32_40  and  O9_41 
ROOT
HETATM    1  C9  UNL     1      -3.963  -0.741  -0.532  1.00  0.00     0.068 C 
HETATM    2  C10 UNL     1      -4.079   0.550  -1.361  1.00  0.00     0.133 C 
HETATM    3  O3  UNL     1      -5.072   0.879  -2.000  1.00  0.00    -0.298 OA
HETATM    4  C11 UNL     1      -2.792   1.349  -1.393  1.00  0.00     0.089 C 
HETATM    5  C12 UNL     1      -1.772   0.269  -1.014  1.00  0.00    -0.022 C 
HETATM    6  C13 UNL     1      -1.509  -0.581  -2.311  1.00  0.00     0.017 C 
HETATM    7  C14 UNL     1      -0.419   0.802  -0.464  1.00  0.00     0.024 C 
HETATM    8  C15 UNL     1       0.273   1.743  -1.469  1.00  0.00     0.010 C 
HETATM    9  C16 UNL     1       1.646   2.130  -0.955  1.00  0.00     0.010 C 
HETATM   10  C17 UNL     1       2.551   0.891  -0.830  1.00  0.00     0.025 C 
HETATM   11  C18 UNL     1       1.818  -0.342  -0.273  1.00  0.00    -0.072 C 
HETATM   12  C19 UNL     1       0.481  -0.363  -0.017  1.00  0.00    -0.066 C 
HETATM   13  C20 UNL     1      -0.212  -1.561   0.677  1.00  0.00     0.039 C 
HETATM   14  C22 UNL     1      -1.730  -1.798   0.393  1.00  0.00     0.021 C 
HETATM   15  C23 UNL     1      -2.541  -0.522   0.111  1.00  0.00    -0.024 C 
HETATM   16  C24 UNL     1      -2.708   0.271   1.439  1.00  0.00     0.017 C 
HETATM   17  C25 UNL     1       2.728  -1.550  -0.114  1.00  0.00     0.037 C 
HETATM   18  C26 UNL     1       4.038  -1.256   0.600  1.00  0.00     0.037 C 
HETATM   19  C27 UNL     1       4.770  -0.077  -0.038  1.00  0.00     0.133 C 
HETATM   20  C33 UNL     1       3.883   1.208  -0.051  1.00  0.00    -0.014 C 
HETATM   21  C34 UNL     1       3.614   1.697   1.394  1.00  0.00     0.018 C 
HETATM   22  C35 UNL     1       4.672   2.327  -0.778  1.00  0.00     0.018 C 
ENDROOT
BRANCH  19  23
HETATM   23  O5  UNL     1       5.989   0.189   0.664  1.00  0.00    -0.353 OA
BRANCH  23  24
HETATM   24  C28 UNL     1       7.061  -0.709   0.355  1.00  0.00     0.291 C 
HETATM   25  O6  UNL     1       7.105  -1.738   1.353  1.00  0.00    -0.356 OA
HETATM   26  C29 UNL     1       8.307  -1.781   2.115  1.00  0.00     0.205 C 
HETATM   27  C30 UNL     1       9.504  -1.947   1.183  1.00  0.00     0.173 C 
HETATM   28  C31 UNL     1       9.599  -0.759   0.214  1.00  0.00     0.182 C 
HETATM   29  C32 UNL     1       8.354   0.129   0.238  1.00  0.00     0.204 C 
BRANCH  27  30
HETATM   30  O7  UNL     1      10.736  -2.099   1.895  1.00  0.00    -0.391 OA
HETATM   31  H46 UNL     1      10.742  -3.000   2.261  1.00  0.00     0.210 HD
ENDBRANCH  27  30
BRANCH  28  32
HETATM   32  O8  UNL     1      10.737   0.067   0.522  1.00  0.00    -0.390 OA
HETATM   33  H48 UNL     1      11.350  -0.520   1.015  1.00  0.00     0.210 HD
ENDBRANCH  28  32
BRANCH  29  34
HETATM   34  O9  UNL     1       8.350   0.941  -0.948  1.00  0.00    -0.388 OA
HETATM   35  H50 UNL     1       9.199   1.423  -0.930  1.00  0.00     0.210 HD
ENDBRANCH  29  34
ENDBRANCH  23  24
ENDBRANCH  19  23
BRANCH  13  36
HETATM   36  C21 UNL     1       0.092  -1.560   2.194  1.00  0.00     0.173 C 
BRANCH  36  37
HETATM   37  O4  UNL     1      -0.224  -2.830   2.757  1.00  0.00    -0.400 OA
HETATM   38  H31 UNL     1      -0.005  -2.780   3.708  1.00  0.00     0.209 HD
ENDBRANCH  36  37
ENDBRANCH  13  36
BRANCH   1  39
HETATM   39  C2  UNL     1      -5.177  -1.019   0.405  1.00  0.00     0.000 C 
HETATM   40  C1  UNL     1      -5.049  -2.394   1.073  1.00  0.00     0.011 C 
BRANCH  39  41
HETATM   41  C3  UNL     1      -6.539  -0.972  -0.335  1.00  0.00     0.083 C 
BRANCH  41  42
HETATM   42  C4  UNL     1      -7.213   0.399  -0.282  1.00  0.00     0.130 C 
HETATM   43  O1  UNL     1      -6.927   1.237   0.577  1.00  0.00    -0.298 OA
BRANCH  42  44
HETATM   44  C5  UNL     1      -8.282   0.658  -1.334  1.00  0.00     0.115 C 
BRANCH  44  45
HETATM   45  C6  UNL     1      -9.143   1.907  -1.077  1.00  0.00     0.057 C 
HETATM   46  C7  UNL     1      -9.981   1.785   0.203  1.00  0.00     0.045 C 
HETATM   47  C8  UNL     1     -10.073   2.132  -2.274  1.00  0.00     0.045 C 
BRANCH  45  48
HETATM   48  O2  UNL     1      -8.318   3.072  -0.984  1.00  0.00    -0.390 OA
HETATM   49  H15 UNL     1      -7.674   2.902  -0.263  1.00  0.00     0.210 HD
ENDBRANCH  45  48
ENDBRANCH  44  45
ENDBRANCH  42  44
ENDBRANCH  41  42
ENDBRANCH  39  41
ENDBRANCH   1  39
TORSDOF 13
