REMARK  8 active torsions:
REMARK  status: ('A' for Active; 'I' for Inactive)
REMARK    1  A    between atoms: C2_2  and  C3_3 
REMARK    2  A    between atoms: C2_2  and  C9_12 
REMARK    3  A    between atoms: C3_3  and  C4_4 
REMARK    4  A    between atoms: C4_4  and  O1_5 
REMARK    5  A    between atoms: C4_4  and  C5_6 
REMARK    6  A    between atoms: C5_6  and  O2_7 
REMARK    7  A    between atoms: C5_6  and  C6_8 
REMARK    8  A    between atoms: C6_8  and  O3_11 
ROOT
HETATM    1  C9  UNL     1       1.822  -1.263   0.594  1.00  0.00     0.097 A 
HETATM    2  C10 UNL     1       1.493  -2.703   0.333  1.00  0.00     0.042 A 
HETATM    3  C11 UNL     1       0.073  -2.947   0.889  1.00  0.00     0.016 A 
HETATM    4  C12 UNL     1      -0.520  -1.584   1.388  1.00  0.00    -0.002 A 
HETATM    5  C13 UNL     1      -0.845  -1.760   2.891  1.00  0.00     0.019 C 
HETATM    6  C14 UNL     1       0.636  -0.593   1.242  1.00  0.00     0.101 A 
HETATM    7  C15 UNL     1       0.366   0.875   1.331  1.00  0.00     0.042 C 
HETATM    8  C16 UNL     1      -0.882   1.302   0.561  1.00  0.00     0.009 C 
HETATM    9  C17 UNL     1      -2.105   0.418   0.902  1.00  0.00     0.003 C 
HETATM   10  C18 UNL     1      -3.515   1.041   0.461  1.00  0.00    -0.035 C 
HETATM   11  C19 UNL     1      -3.761   2.224   1.447  1.00  0.00     0.016 C 
HETATM   12  C20 UNL     1      -3.481   1.627  -0.972  1.00  0.00     0.017 C 
HETATM   13  C21 UNL     1      -4.813   2.145  -1.483  1.00  0.00     0.080 C 
HETATM   14  C22 UNL     1      -5.878   1.085  -1.382  1.00  0.00     0.135 C 
HETATM   15  O4  UNL     1      -6.587   0.827  -2.355  1.00  0.00    -0.297 OA
HETATM   16  C23 UNL     1      -6.095   0.432  -0.014  1.00  0.00     0.017 C 
HETATM   17  C24 UNL     1      -7.056  -0.773  -0.190  1.00  0.00     0.023 C 
HETATM   18  C25 UNL     1      -6.853   1.436   0.885  1.00  0.00     0.023 C 
HETATM   19  C26 UNL     1      -4.700  -0.004   0.602  1.00  0.00     0.009 C 
HETATM   20  C27 UNL     1      -4.276  -1.404   0.092  1.00  0.00     0.007 C 
HETATM   21  C28 UNL     1      -3.024  -1.926   0.792  1.00  0.00     0.011 C 
HETATM   22  C29 UNL     1      -1.772  -1.073   0.508  1.00  0.00    -0.029 C 
HETATM   23  C30 UNL     1      -1.418  -1.223  -1.002  1.00  0.00     0.016 C 
HETATM   24  O5  UNL     1       1.825  -0.947   1.987  1.00  0.00    -0.362 OA
ENDROOT
BRANCH   1  25
HETATM   25  C2  UNL     1       2.902  -0.549  -0.199  1.00  0.00     0.022 C 
HETATM   26  C1  UNL     1       2.431  -0.304  -1.637  1.00  0.00     0.013 C 
BRANCH  25  27
HETATM   27  C3  UNL     1       4.237  -1.330  -0.135  1.00  0.00     0.041 C 
BRANCH  27  28
HETATM   28  C4  UNL     1       5.440  -0.676  -0.845  1.00  0.00     0.150 C 
BRANCH  28  29
HETATM   29  O1  UNL     1       6.527  -1.626  -0.790  1.00  0.00    -0.393 OA
HETATM   30  H8  UNL     1       6.256  -2.395  -1.327  1.00  0.00     0.210 HD
ENDBRANCH  28  29
BRANCH  28  31
HETATM   31  C5  UNL     1       5.935   0.621  -0.155  1.00  0.00     0.180 C 
BRANCH  31  32
HETATM   32  O2  UNL     1       6.683   0.250   1.016  1.00  0.00    -0.390 OA
HETATM   33  H10 UNL     1       7.104  -0.601   0.773  1.00  0.00     0.210 HD
ENDBRANCH  31  32
BRANCH  31  34
HETATM   34  C6  UNL     1       6.785   1.540  -1.083  1.00  0.00     0.079 C 
HETATM   35  C7  UNL     1       8.020   0.845  -1.670  1.00  0.00     0.048 C 
HETATM   36  C8  UNL     1       7.225   2.793  -0.310  1.00  0.00     0.048 C 
BRANCH  34  37
HETATM   37  O3  UNL     1       5.953   1.965  -2.171  1.00  0.00    -0.388 OA
HETATM   38  H17 UNL     1       6.434   2.654  -2.660  1.00  0.00     0.210 HD
ENDBRANCH  34  37
ENDBRANCH  31  34
ENDBRANCH  28  31
ENDBRANCH  27  28
ENDBRANCH  25  27
ENDBRANCH   1  25
TORSDOF 8
