REMARK  14 active torsions:
REMARK  status: ('A' for Active; 'I' for Inactive)
REMARK    1  A    between atoms: C5_5  and  C6_6 
REMARK    2  A    between atoms: C6_6  and  C8_8 
REMARK    3  A    between atoms: C8_8  and  O1_9 
REMARK    4  A    between atoms: O1_9  and  C9_10 
REMARK    5  A    between atoms: C17_20  and  O4_21 
REMARK    6  A    between atoms: C19_23  and  O5_24 
REMARK    7  A    between atoms: O5_24  and  C20_25 
REMARK    8  A    between atoms: C20_25  and  C21_27 
REMARK    9  A    between atoms: C21_27  and  C22_28 
REMARK   10  A    between atoms: C21_27  and  O7_30 
REMARK   11  A    between atoms: O7_30  and  C24_31 
REMARK   12  A    between atoms: C24_31  and  C25_33 
REMARK   13  A    between atoms: C25_33  and  C26_34 
REMARK   14  A    between atoms: C28_36  and  O9_38 
ROOT
HETATM    1  C1  UNL     1      -4.859  -4.404  -0.796  1.00  0.00     0.015 C 
HETATM    2  C2  UNL     1      -4.427  -3.134  -0.908  1.00  0.00    -0.082 C 
HETATM    3  C3  UNL     1      -5.371  -1.991  -1.145  1.00  0.00     0.034 C 
HETATM    4  C4  UNL     1      -5.064  -0.866  -0.168  1.00  0.00     0.010 C 
HETATM    5  C5  UNL     1      -3.633  -0.293  -0.303  1.00  0.00    -0.001 C 
HETATM    6  C11 UNL     1      -2.645  -1.242  -1.052  1.00  0.00     0.033 C 
HETATM    7  C12 UNL     1      -1.223  -1.302  -0.492  1.00  0.00     0.163 C 
HETATM    8  O3  UNL     1      -1.476  -1.935   0.763  1.00  0.00    -0.376 OA
HETATM    9  C13 UNL     1      -2.220  -3.118   0.482  1.00  0.00     0.134 C 
HETATM   10  C14 UNL     1      -1.170  -4.248   0.379  1.00  0.00     0.068 C 
HETATM   11  C15 UNL     1      -0.043  -4.195   1.438  1.00  0.00    -0.058 C 
HETATM   12  C16 UNL     1       0.091  -5.247   2.268  1.00  0.00     0.017 C 
HETATM   13  C17 UNL     1       0.869  -2.933   1.535  1.00  0.00     0.149 C 
HETATM   14  C18 UNL     1       1.447  -2.415   0.197  1.00  0.00     0.072 C 
HETATM   15  C19 UNL     1       1.262  -0.915  -0.212  1.00  0.00     0.171 C 
HETATM   16  C28 UNL     1      -0.177  -0.212  -0.244  1.00  0.00     0.107 C 
HETATM   17  C29 UNL     1      -0.425   0.605   1.033  1.00  0.00     0.051 C 
HETATM   18  C30 UNL     1      -2.967  -2.773  -0.845  1.00  0.00     0.050 C 
ENDROOT
BRANCH  15  19
HETATM   19  O5  UNL     1       2.213  -0.117   0.525  1.00  0.00    -0.311 OA
BRANCH  19  20
HETATM   20  C20 UNL     1       2.921   0.792  -0.211  1.00  0.00     0.289 C 
HETATM   21  O6  UNL     1       2.761   0.996  -1.410  1.00  0.00    -0.262 OA
BRANCH  20  22
HETATM   22  C21 UNL     1       3.942   1.516   0.669  1.00  0.00     0.231 C 
BRANCH  22  23
HETATM   23  C22 UNL     1       3.248   2.671   1.400  1.00  0.00     0.038 C 
HETATM   24  C23 UNL     1       4.188   3.397   2.354  1.00  0.00     0.008 C 
ENDBRANCH  22  23
BRANCH  22  25
HETATM   25  O7  UNL     1       4.993   2.063  -0.145  1.00  0.00    -0.306 OA
BRANCH  25  26
HETATM   26  C24 UNL     1       5.832   1.128  -0.669  1.00  0.00     0.259 C 
HETATM   27  O8  UNL     1       5.795  -0.066  -0.405  1.00  0.00    -0.265 OA
BRANCH  26  28
HETATM   28  C25 UNL     1       6.804   1.767  -1.631  1.00  0.00     0.111 C 
BRANCH  28  29
HETATM   29  C26 UNL     1       8.251   1.438  -1.284  1.00  0.00     0.005 C 
HETATM   30  C27 UNL     1       8.737   2.179  -0.047  1.00  0.00     0.005 C 
ENDBRANCH  28  29
ENDBRANCH  26  28
ENDBRANCH  25  26
ENDBRANCH  22  25
ENDBRANCH  20  22
ENDBRANCH  19  20
ENDBRANCH  15  19
BRANCH  16  31
HETATM   31  O9  UNL     1      -0.235   0.745  -1.315  1.00  0.00    -0.385 OA
HETATM   32  H45 UNL     1       0.475   0.575  -1.962  1.00  0.00     0.210 HD
ENDBRANCH  16  31
BRANCH  13  33
HETATM   33  O4  UNL     1       1.991  -3.238   2.382  1.00  0.00    -0.391 OA
HETATM   34  H25 UNL     1       2.464  -3.979   1.964  1.00  0.00     0.210 HD
ENDBRANCH  13  33
BRANCH   5  35
HETATM   35  C6  UNL     1      -3.621   1.157  -0.889  1.00  0.00     0.010 C 
HETATM   36  C7  UNL     1      -4.252   1.269  -2.284  1.00  0.00     0.012 C 
BRANCH  35  37
HETATM   37  C8  UNL     1      -4.298   2.156   0.071  1.00  0.00     0.183 C 
BRANCH  37  38
HETATM   38  O1  UNL     1      -3.930   3.500  -0.290  1.00  0.00    -0.321 OA
BRANCH  38  39
HETATM   39  C9  UNL     1      -4.943   4.391  -0.451  1.00  0.00     0.254 C 
HETATM   40  C10 UNL     1      -4.384   5.749  -0.741  1.00  0.00     0.126 C 
HETATM   41  O2  UNL     1      -6.140   4.143  -0.385  1.00  0.00    -0.266 OA
ENDBRANCH  38  39
ENDBRANCH  37  38
ENDBRANCH  35  37
ENDBRANCH   5  35
TORSDOF 14
