REMARK  7 active torsions:
REMARK  status: ('A' for Active; 'I' for Inactive)
REMARK    1  A    between atoms: C6_7  and  O2_8 
REMARK    2  A    between atoms: C11_15  and  C13_17 
REMARK    3  A    between atoms: C26_34  and  C27_35 
REMARK    4  A    between atoms: C27_35  and  C28_36 
REMARK    5  A    between atoms: C32_40  and  C33_41 
REMARK    6  A    between atoms: C33_41  and  N2_42 
REMARK    7  A    between atoms: C33_41  and  N3_43 
ROOT
HETATM    1  C1  UNL     1      -9.215   2.330  -1.148  1.00  0.00     0.077 C 
HETATM    2  C2  UNL     1      -7.747   2.520  -0.925  1.00  0.00     0.053 A 
HETATM    3  C3  UNL     1      -7.133   3.686  -1.192  1.00  0.00     0.088 A 
HETATM    4  C4  UNL     1      -5.693   3.816  -0.936  1.00  0.00     0.190 A 
HETATM    5  O1  UNL     1      -5.089   4.854  -1.185  1.00  0.00    -0.287 OA
HETATM    6  C5  UNL     1      -5.011   2.651  -0.354  1.00  0.00     0.082 A 
HETATM    7  C6  UNL     1      -3.643   2.684  -0.025  1.00  0.00     0.092 A 
HETATM    8  C7  UNL     1      -3.035   1.589   0.605  1.00  0.00     0.016 A 
HETATM    9  C8  UNL     1      -3.796   0.410   0.754  1.00  0.00     0.082 A 
HETATM   10  C9  UNL     1      -5.153   0.373   0.421  1.00  0.00     0.075 A 
HETATM   11  C10 UNL     1      -5.762   1.500  -0.120  1.00  0.00     0.095 A 
HETATM   12  O3  UNL     1      -7.103   1.408  -0.407  1.00  0.00    -0.314 OA
HETATM   13  O4  UNL     1      -3.285  -0.778   1.211  1.00  0.00    -0.337 OA
HETATM   14  C11 UNL     1      -1.852  -0.994   1.149  1.00  0.00     0.095 C 
HETATM   15  C12 UNL     1      -1.403  -1.266   2.607  1.00  0.00     0.050 C 
HETATM   16  C18 UNL     1      -1.058   0.225   0.563  1.00  0.00     0.175 C 
HETATM   17  O5  UNL     1       0.343   0.079   0.812  1.00  0.00    -0.310 OA
HETATM   18  C19 UNL     1       1.167   0.599  -0.138  1.00  0.00     0.297 C 
HETATM   19  O6  UNL     1       0.880   0.793  -1.306  1.00  0.00    -0.262 OA
HETATM   20  C20 UNL     1       2.454   1.017   0.473  1.00  0.00     0.175 A 
HETATM   21  C21 UNL     1       2.456   2.185   1.441  1.00  0.00     0.051 C 
HETATM   22  C22 UNL     1       1.431   2.073   2.575  1.00  0.00     0.004 C 
HETATM   23  C23 UNL     1       0.197   2.960   2.390  1.00  0.00     0.001 C 
HETATM   24  C24 UNL     1      -0.718   2.776   1.160  1.00  0.00     0.012 C 
HETATM   25  C25 UNL     1      -1.627   1.523   1.188  1.00  0.00     0.057 C 
HETATM   26  O7  UNL     1       3.544   1.162  -0.463  1.00  0.00    -0.358 OA
HETATM   27  C26 UNL     1       3.644   0.063   0.447  1.00  0.00     0.172 A 
ENDROOT
BRANCH  27  28
HETATM   28  C27 UNL     1       3.648  -1.269  -0.252  1.00  0.00     0.074 C 
BRANCH  28  29
HETATM   29  C28 UNL     1       5.071  -1.712  -0.535  1.00  0.00    -0.055 A 
HETATM   30  C29 UNL     1       5.516  -2.975  -0.127  1.00  0.00     0.007 A 
HETATM   31  C30 UNL     1       6.835  -3.360  -0.375  1.00  0.00     0.001 A 
HETATM   32  C31 UNL     1       7.723  -2.496  -1.025  1.00  0.00     0.011 A 
HETATM   33  C32 UNL     1       7.305  -1.231  -1.467  1.00  0.00     0.004 A 
HETATM   34  C34 UNL     1       5.962  -0.868  -1.228  1.00  0.00     0.018 A 
BRANCH  33  35
HETATM   35  C33 UNL     1       8.213  -0.236  -2.169  1.00  0.00     0.479 C 
BRANCH  35  36
HETATM   36  N2  UNL     1       8.529   0.875  -1.312  1.00  0.00     0.116 N 
HETATM   37  H37 UNL     1       7.706   1.476  -1.255  1.00  0.00     0.316 HD
HETATM   38  H38 UNL     1       9.242   1.415  -1.802  1.00  0.00     0.316 HD
ENDBRANCH  35  36
BRANCH  35  39
HETATM   39  N3  UNL     1       9.535  -0.689  -2.506  1.00  0.00     0.116 N 
HETATM   40  H39 UNL     1      10.007  -0.894  -1.627  1.00  0.00     0.316 HD
HETATM   41  H40 UNL     1       9.472  -1.561  -3.023  1.00  0.00     0.316 HD
ENDBRANCH  35  39
ENDBRANCH  33  35
ENDBRANCH  28  29
ENDBRANCH  27  28
BRANCH  14  42
HETATM   42  C13 UNL     1      -1.613  -2.304   0.308  1.00  0.00     0.026 C 
HETATM   43  C14 UNL     1      -2.445  -3.521   0.800  1.00  0.00     0.037 C 
HETATM   44  C15 UNL     1      -3.624  -3.846  -0.110  1.00  0.00     0.270 C 
HETATM   45  N1  UNL     1      -3.189  -4.192  -1.459  1.00  0.00     0.083 N 
HETATM   46  C16 UNL     1      -2.022  -3.446  -1.916  1.00  0.00     0.270 C 
HETATM   47  H15 UNL     1      -3.972  -4.057  -2.099  1.00  0.00     0.315 HD
HETATM   48  C17 UNL     1      -1.838  -2.110  -1.207  1.00  0.00     0.037 C 
ENDBRANCH  14  42
BRANCH   7  49
HETATM   49  O2  UNL     1      -2.881   3.757  -0.373  1.00  0.00    -0.359 OA
HETATM   50  H5  UNL     1      -3.441   4.447  -0.797  1.00  0.00     0.217 HD
ENDBRANCH   7  49
TORSDOF 7
