REMARK  4 active torsions:
REMARK  status: ('A' for Active; 'I' for Inactive)
REMARK    1  A    between atoms: C2_2  and  N1_3 
REMARK       I    between atoms: N1_3  and  C3_4 
REMARK       I    between atoms: C3_4  and  N2_6 
REMARK    2  A    between atoms: C6_9  and  N3_10 
REMARK    3  A    between atoms: N3_10  and  C7_11 
REMARK    4  A    between atoms: C10_17  and  C11_18 
ROOT
HETATM    1  C7  UNL     1       1.172   0.566  -0.827  1.00  0.00     0.158 A 
HETATM    2  N4  UNL     1       1.077   1.704  -1.527  1.00  0.00    -0.341 N 
ATOM      3  H4  UNL     1       0.198   2.216  -1.597  1.00  0.00     0.167 HD
HETATM    4  C8  UNL     1       2.200   2.142  -2.136  1.00  0.00     0.116 A 
HETATM    5  C9  UNL     1       3.412   1.495  -2.077  1.00  0.00     0.077 A 
HETATM    6 CL1  UNL     1       4.780   2.171  -2.864  1.00  0.00    -0.080 Cl
HETATM    7  C10 UNL     1       3.407   0.333  -1.330  1.00  0.00     0.070 A 
HETATM    8  N6  UNL     1       2.302  -0.132  -0.695  1.00  0.00    -0.331 N 
ATOM      9  H6  UNL     1       2.334  -0.985  -0.136  1.00  0.00     0.168 HD
ENDROOT
BRANCH   1  10
HETATM   10  N3  UNL     1       0.067   0.036  -0.177  1.00  0.00    -0.259 NA
HETATM   11  H12 UNL     1       0.455  -0.633   0.483  1.00  0.00     0.131 HD
BRANCH  10  12
HETATM   12  C6  UNL     1      -0.881   1.003   0.377  1.00  0.00     0.066 C 
HETATM   13  C5  UNL     1      -1.945   1.376  -0.669  1.00  0.00     0.040 C 
HETATM   14  C4  UNL     1      -3.224   0.561  -0.516  1.00  0.00     0.129 C 
HETATM   15  N2  UNL     1      -3.804   0.697   0.823  1.00  0.00    -0.334 N 
HETATM   16  C3  UNL     1      -5.160   0.694   1.105  1.00  0.00     0.318 C 
HETATM   17  C20 UNL     1      -2.884   0.991   1.917  1.00  0.00     0.129 C 
HETATM   18  N1  UNL     1      -5.960   0.276   0.072  1.00  0.00    -0.343 N 
HETATM   19  O1  UNL     1      -5.614   1.038   2.193  1.00  0.00    -0.247 OA
HETATM   20  H6  UNL     1      -5.536  -0.376  -0.568  1.00  0.00     0.164 HD
HETATM   21  C19 UNL     1      -1.505   0.406   1.650  1.00  0.00     0.040 C 
BRANCH  18  22
HETATM   22  C2  UNL     1      -7.397   0.177   0.232  1.00  0.00     0.120 C 
HETATM   23  C1  UNL     1      -7.804  -1.094   0.958  1.00  0.00     0.026 C 
ENDBRANCH  18  22
ENDBRANCH  10  12
ENDBRANCH   1  10
BRANCH   7  24
HETATM   24  C11 UNL     1       4.589  -0.493  -1.135  1.00  0.00     0.020 A 
HETATM   25  C12 UNL     1       5.294  -1.083  -2.166  1.00  0.00     0.103 A 
HETATM   26  N5  UNL     1       6.325  -1.800  -1.620  1.00  0.00    -0.364 N 
HETATM   27  C13 UNL     1       6.294  -1.712  -0.247  1.00  0.00     0.043 A 
HETATM   28  H15 UNL     1       7.007  -2.333  -2.143  1.00  0.00     0.165 HD
HETATM   29  C14 UNL     1       7.138  -2.285   0.712  1.00  0.00     0.030 A 
HETATM   30  C18 UNL     1       5.204  -0.907   0.089  1.00  0.00     0.004 A 
HETATM   31  C15 UNL     1       6.857  -2.029   2.058  1.00  0.00     0.002 A 
HETATM   32  C16 UNL     1       5.776  -1.232   2.426  1.00  0.00     0.001 A 
HETATM   33  C17 UNL     1       4.943  -0.667   1.454  1.00  0.00     0.014 A 
ENDBRANCH   7  24
TORSDOF 4
