REMARK  13 active torsions:
REMARK  status: ('A' for Active; 'I' for Inactive)
REMARK    1  A    between atoms: C2_2  and  C3_3 
REMARK    2  A    between atoms: C2_2  and  C14_14 
REMARK    3  A    between atoms: C4_4  and  C5_5 
REMARK    4  A    between atoms: C6_6  and  C8_8 
REMARK    5  A    between atoms: C8_8  and  C9_9 
REMARK    6  A    between atoms: C9_9  and  C10_10 
REMARK    7  A    between atoms: C18_18  and  O1_19 
REMARK    8  A    between atoms: C19_20  and  C20_21 
REMARK    9  A    between atoms: C20_21  and  C21_22 
REMARK   10  A    between atoms: C21_22  and  C22_23 
REMARK   11  A    between atoms: C22_23  and  O2_24 
REMARK   12  A    between atoms: C24_26  and  C26_28 
REMARK   13  A    between atoms: C29_32  and  O4_34 
ROOT
HETATM    1  C14 UNL     1      -0.596  -0.216  -1.948  1.00  0.00     0.047 C 
HETATM    2  C15 UNL     1      -0.830   1.283  -1.707  1.00  0.00     0.013 C 
HETATM    3  C16 UNL     1      -2.342   1.500  -1.707  1.00  0.00     0.017 C 
HETATM    4  C17 UNL     1      -3.008   0.136  -1.385  1.00  0.00     0.024 C 
HETATM    5  C18 UNL     1      -2.017  -0.788  -2.203  1.00  0.00     0.138 C 
HETATM    6  C19 UNL     1      -2.966  -0.269   0.161  1.00  0.00     0.029 C 
HETATM    7  C23 UNL     1      -3.912  -1.410   0.602  1.00  0.00    -0.066 C 
HETATM    8  C24 UNL     1      -3.622  -2.304   1.589  1.00  0.00    -0.021 C 
HETATM    9  C25 UNL     1      -4.568  -3.361   2.110  1.00  0.00     0.052 C 
HETATM   10  C27 UNL     1      -5.215  -1.543  -0.173  1.00  0.00     0.038 C 
HETATM   11  C28 UNL     1      -5.098  -1.292  -1.668  1.00  0.00     0.042 C 
HETATM   12  C29 UNL     1      -4.456   0.056  -1.996  1.00  0.00     0.065 C 
HETATM   13  C30 UNL     1      -5.407   1.192  -1.589  1.00  0.00     0.047 C 
ENDROOT
BRANCH   5  14
HETATM   14  O1  UNL     1      -2.067  -2.154  -1.806  1.00  0.00    -0.394 OA
HETATM   15  H26 UNL     1      -1.447  -2.638  -2.380  1.00  0.00     0.210 HD
ENDBRANCH   5  14
BRANCH   6  16
HETATM   16  C20 UNL     1      -2.830   0.868   1.224  1.00  0.00     0.012 C 
BRANCH  16  17
HETATM   17  C21 UNL     1      -3.966   1.848   1.497  1.00  0.00     0.027 C 
BRANCH  17  18
HETATM   18  C22 UNL     1      -5.080   1.299   2.377  1.00  0.00     0.164 C 
BRANCH  18  19
HETATM   19  O2  UNL     1      -6.030   2.327   2.633  1.00  0.00    -0.401 OA
HETATM   20  H34 UNL     1      -6.422   2.586   1.782  1.00  0.00     0.209 HD
ENDBRANCH  18  19
ENDBRANCH  17  18
ENDBRANCH  16  17
ENDBRANCH   6  16
BRANCH  12  21
HETATM   21  O4  UNL     1      -4.395   0.121  -3.435  1.00  0.00    -0.389 OA
HETATM   22  H46 UNL     1      -4.349   1.052  -3.712  1.00  0.00     0.210 HD
ENDBRANCH  12  21
BRANCH   1  23
HETATM   23  C2  UNL     1       0.497  -0.483  -2.987  1.00  0.00    -0.061 C 
HETATM   24  C1  UNL     1       0.251  -0.920  -4.236  1.00  0.00     0.019 C 
BRANCH  23  25
HETATM   25  C3  UNL     1       1.901  -0.278  -2.613  1.00  0.00     0.007 C 
HETATM   26  C4  UNL     1       2.378   0.127  -1.424  1.00  0.00     0.001 C 
BRANCH  26  27
HETATM   27  C5  UNL     1       3.795   0.292  -1.166  1.00  0.00     0.002 C 
HETATM   28  C6  UNL     1       4.367   0.724  -0.025  1.00  0.00    -0.084 C 
HETATM   29  C7  UNL     1       3.632   1.172   1.213  1.00  0.00     0.043 C 
BRANCH  28  30
HETATM   30  C8  UNL     1       5.882   0.823   0.070  1.00  0.00     0.037 C 
BRANCH  30  31
HETATM   31  C9  UNL     1       6.490  -0.254   0.977  1.00  0.00     0.031 C 
BRANCH  31  32
HETATM   32  C10 UNL     1       7.992  -0.155   1.020  1.00  0.00    -0.024 C 
HETATM   33  C11 UNL     1       8.757   0.311   2.027  1.00  0.00    -0.091 C 
HETATM   34  C12 UNL     1      10.259   0.293   1.923  1.00  0.00     0.042 C 
HETATM   35  C13 UNL     1       8.233   0.886   3.314  1.00  0.00     0.042 C 
ENDBRANCH  31  32
ENDBRANCH  30  31
ENDBRANCH  28  30
ENDBRANCH  26  27
ENDBRANCH  23  25
ENDBRANCH   1  23
BRANCH   8  36
HETATM   36  C26 UNL     1      -2.301  -2.337   2.303  1.00  0.00     0.265 C 
HETATM   37  O3  UNL     1      -2.073  -3.076   3.255  1.00  0.00    -0.302 OA
ENDBRANCH   8  36
TORSDOF 13
