REMARK  6 active torsions:
REMARK  status: ('A' for Active; 'I' for Inactive)
REMARK    1  A    between atoms: C2_2  and  C9_11 
REMARK    2  A    between atoms: C3_3  and  C4_4 
REMARK    3  A    between atoms: C4_4  and  O1_5 
REMARK    4  A    between atoms: C4_4  and  C5_6 
REMARK    5  A    between atoms: C16_18  and  O3_19 
REMARK    6  A    between atoms: C18_21  and  C19_22 
ROOT
HETATM    1  C9  UNL     1       2.269   0.204   2.188  1.00  0.00     0.019 C 
HETATM    2  C10 UNL     1       2.130   1.744   2.371  1.00  0.00     0.010 C 
HETATM    3  C11 UNL     1       0.913   2.178   1.528  1.00  0.00     0.011 C 
HETATM    4  C12 UNL     1       0.041   0.909   1.413  1.00  0.00    -0.032 C 
HETATM    5  C13 UNL     1      -0.651   0.722   2.803  1.00  0.00     0.016 C 
HETATM    6  C14 UNL     1       1.158  -0.137   1.168  1.00  0.00     0.005 C 
HETATM    7  C15 UNL     1       0.600  -1.551   1.157  1.00  0.00     0.038 C 
HETATM    8  C16 UNL     1      -0.510  -1.707   0.097  1.00  0.00     0.124 C 
HETATM    9  C17 UNL     1      -1.637  -0.629   0.192  1.00  0.00     0.039 C 
HETATM   10  C18 UNL     1      -2.893  -0.842  -0.768  1.00  0.00     0.025 C 
HETATM   11  C20 UNL     1      -3.636  -2.175  -0.397  1.00  0.00     0.025 C 
HETATM   12  C21 UNL     1      -5.133  -2.226  -0.682  1.00  0.00     0.080 C 
HETATM   13  C22 UNL     1      -5.543  -1.236  -1.736  1.00  0.00     0.135 C 
HETATM   14  O5  UNL     1      -6.155  -1.607  -2.735  1.00  0.00    -0.297 OA
HETATM   15  C23 UNL     1      -5.246   0.233  -1.433  1.00  0.00     0.018 C 
HETATM   16  C24 UNL     1      -5.250   1.040  -2.744  1.00  0.00     0.023 C 
HETATM   17  C25 UNL     1      -6.436   0.755  -0.593  1.00  0.00     0.023 C 
HETATM   18  C26 UNL     1      -3.920   0.333  -0.583  1.00  0.00     0.016 C 
HETATM   19  C27 UNL     1      -3.284   1.732  -0.616  1.00  0.00     0.008 C 
HETATM   20  C28 UNL     1      -2.150   1.868   0.404  1.00  0.00     0.011 C 
HETATM   21  C29 UNL     1      -1.014   0.836   0.210  1.00  0.00    -0.029 C 
HETATM   22  C30 UNL     1      -0.317   1.179  -1.141  1.00  0.00     0.016 C 
ENDROOT
BRANCH   1  23
HETATM   23  C2  UNL     1       3.634  -0.346   1.770  1.00  0.00    -0.081 C 
HETATM   24  C1  UNL     1       3.895  -1.779   2.168  1.00  0.00     0.043 C 
HETATM   25  C3  UNL     1       4.559   0.377   1.100  1.00  0.00     0.010 C 
BRANCH  25  26
HETATM   26  C4  UNL     1       5.899  -0.093   0.591  1.00  0.00     0.173 C 
BRANCH  26  27
HETATM   27  O1  UNL     1       6.869   0.370   1.531  1.00  0.00    -0.389 OA
HETATM   28  H6  UNL     1       6.720  -0.142   2.344  1.00  0.00     0.210 HD
ENDBRANCH  26  27
BRANCH  26  29
HETATM   29  C5  UNL     1       6.255   0.458  -0.761  1.00  0.00     0.188 A 
HETATM   30  O2  UNL     1       6.809  -0.491  -1.688  1.00  0.00    -0.367 OA
HETATM   31  C6  UNL     1       5.533   0.063  -2.044  1.00  0.00     0.083 A 
HETATM   32  C7  UNL     1       5.587   0.996  -3.212  1.00  0.00     0.048 C 
HETATM   33  C8  UNL     1       4.420  -0.938  -2.034  1.00  0.00     0.048 C 
ENDBRANCH  26  29
ENDBRANCH  25  26
ENDBRANCH   1  23
BRANCH   8  34
HETATM   34  O3  UNL     1      -1.040  -3.022   0.225  1.00  0.00    -0.395 OA
HETATM   35  H26 UNL     1      -1.241  -3.170   1.169  1.00  0.00     0.210 HD
ENDBRANCH   8  34
BRANCH  10  36
HETATM   36  C19 UNL     1      -2.378  -1.045  -2.198  1.00  0.00     0.241 C 
HETATM   37  O4  UNL     1      -2.432  -0.209  -3.091  1.00  0.00    -0.306 OA
ENDBRANCH  10  36
TORSDOF 6
