REMARK  10 active torsions:
REMARK  status: ('A' for Active; 'I' for Inactive)
REMARK    1  A    between atoms: C5_5  and  C6_6 
REMARK    2  A    between atoms: C6_6  and  C8_8 
REMARK    3  A    between atoms: C8_8  and  O1_9 
REMARK    4  A    between atoms: C15_17  and  O3_18 
REMARK    5  A    between atoms: C18_21  and  O4_23 
REMARK    6  A    between atoms: O4_23  and  C20_24 
REMARK    7  A    between atoms: C20_24  and  C21_26 
REMARK    8  A    between atoms: C21_26  and  C22_27 
REMARK    9  A    between atoms: C21_26  and  O6_29 
REMARK   10  A    between atoms: O6_29  and  C24_30 
ROOT
HETATM    1  C1  UNL     1      -5.083   0.557   0.592  1.00  0.00     0.015 C 
HETATM    2  C2  UNL     1      -3.808   0.298   0.257  1.00  0.00    -0.082 C 
HETATM    3  C3  UNL     1      -3.440  -0.337  -1.050  1.00  0.00     0.034 C 
HETATM    4  C4  UNL     1      -2.785  -1.674  -0.748  1.00  0.00     0.010 C 
HETATM    5  C5  UNL     1      -1.473  -1.592   0.069  1.00  0.00    -0.001 C 
HETATM    6  C9  UNL     1      -1.337  -0.286   0.900  1.00  0.00     0.033 C 
HETATM    7  C10 UNL     1      -0.335   0.793   0.405  1.00  0.00     0.162 C 
HETATM    8  O2  UNL     1      -1.231   1.815   0.054  1.00  0.00    -0.376 OA
HETATM    9  C11 UNL     1      -2.127   2.000   1.121  1.00  0.00     0.134 C 
HETATM   10  C12 UNL     1      -2.864   3.254   0.666  1.00  0.00     0.068 C 
HETATM   11  C13 UNL     1      -1.836   4.403   0.422  1.00  0.00    -0.059 C 
HETATM   12  C14 UNL     1      -1.949   5.555   1.108  1.00  0.00     0.017 C 
HETATM   13  C15 UNL     1      -0.709   4.172  -0.635  1.00  0.00     0.146 C 
HETATM   14  C16 UNL     1       0.637   3.594  -0.075  1.00  0.00     0.039 C 
HETATM   15  C17 UNL     1       1.303   2.378  -0.828  1.00  0.00     0.044 C 
HETATM   16  C18 UNL     1       0.664   0.897  -0.765  1.00  0.00     0.093 C 
HETATM   17  C19 UNL     1       0.006   0.667  -2.145  1.00  0.00     0.049 C 
HETATM   18  C26 UNL     1      -2.663   0.565   1.202  1.00  0.00     0.050 C 
ENDROOT
BRANCH  16  19
HETATM   19  O4  UNL     1       1.716  -0.106  -0.721  1.00  0.00    -0.306 OA
BRANCH  19  20
HETATM   20  C20 UNL     1       2.556  -0.194   0.350  1.00  0.00     0.289 C 
HETATM   21  O5  UNL     1       2.426   0.442   1.386  1.00  0.00    -0.262 OA
BRANCH  20  22
HETATM   22  C21 UNL     1       3.712  -1.157   0.046  1.00  0.00     0.231 C 
BRANCH  22  23
HETATM   23  C22 UNL     1       4.270  -1.797   1.323  1.00  0.00     0.038 C 
HETATM   24  C23 UNL     1       5.224  -0.882   2.078  1.00  0.00     0.008 C 
ENDBRANCH  22  23
BRANCH  22  25
HETATM   25  O6  UNL     1       3.201  -2.207  -0.804  1.00  0.00    -0.306 OA
BRANCH  25  26
HETATM   26  C24 UNL     1       4.104  -2.781  -1.641  1.00  0.00     0.255 C 
HETATM   27  C25 UNL     1       3.456  -3.890  -2.411  1.00  0.00     0.126 C 
HETATM   28  O7  UNL     1       5.281  -2.467  -1.737  1.00  0.00    -0.266 OA
ENDBRANCH  25  26
ENDBRANCH  22  25
ENDBRANCH  20  22
ENDBRANCH  19  20
ENDBRANCH  16  19
BRANCH   5  29
HETATM   29  C6  UNL     1      -1.293  -2.876   0.964  1.00  0.00     0.010 C 
HETATM   30  C7  UNL     1      -1.607  -4.180   0.208  1.00  0.00     0.012 C 
BRANCH  29  31
HETATM   31  C8  UNL     1       0.120  -2.998   1.575  1.00  0.00     0.168 C 
BRANCH  31  32
HETATM   32  O1  UNL     1       1.083  -3.410   0.614  1.00  0.00    -0.400 OA
HETATM   33  H14 UNL     1       1.131  -2.738  -0.087  1.00  0.00     0.209 HD
ENDBRANCH  31  32
ENDBRANCH  29  31
ENDBRANCH   5  29
BRANCH  13  34
HETATM   34  O3  UNL     1      -0.400   5.430  -1.255  1.00  0.00    -0.391 OA
HETATM   35  H23 UNL     1      -1.254   5.820  -1.510  1.00  0.00     0.210 HD
ENDBRANCH  13  34
TORSDOF 10
