REMARK  13 active torsions:
REMARK  status: ('A' for Active; 'I' for Inactive)
REMARK    1  A    between atoms: O1_2  and  C2_3 
REMARK    2  A    between atoms: C2_3  and  C3_4 
REMARK    3  A    between atoms: C3_4  and  C4_5 
REMARK    4  A    between atoms: C4_5  and  N1_6 
REMARK    5  A    between atoms: N1_6  and  C5_7 
REMARK    6  A    between atoms: C5_7  and  C6_8 
REMARK    7  A    between atoms: C10_12  and  O2_13 
REMARK    8  A    between atoms: C23_28  and  O5_29 
REMARK    9  A    between atoms: C27_33  and  C28_34 
REMARK   10  A    between atoms: C28_34  and  C30_36 
REMARK   11  A    between atoms: C38_44  and  O6_45 
REMARK   12  A    between atoms: C41_48  and  C42_49 
REMARK   13  A    between atoms: C43_51  and  O8_52 
ROOT
HETATM    1  C6  UNL     1       4.730   0.522   0.032  1.00  0.00    -0.016 C 
HETATM    2  C7  UNL     1       3.533   1.037   0.416  1.00  0.00    -0.013 C 
HETATM    3  C8  UNL     1       2.518   0.251   1.219  1.00  0.00     0.021 C 
HETATM    4  C9  UNL     1       1.051   0.405   0.826  1.00  0.00     0.051 C 
HETATM    5  C10 UNL     1       0.818  -0.563  -0.348  1.00  0.00     0.098 C 
HETATM    6  C11 UNL     1       1.946  -1.675  -0.212  1.00  0.00     0.002 C 
HETATM    7  C12 UNL     1       2.825  -1.716  -1.507  1.00  0.00     0.013 C 
HETATM    8  C13 UNL     1       4.086  -2.567  -1.448  1.00  0.00     0.004 C 
HETATM    9  C14 UNL     1       5.318  -1.808  -0.950  1.00  0.00     0.048 C 
HETATM   10  C15 UNL     1       5.123  -0.931   0.310  1.00  0.00     0.120 C 
HETATM   11  O3  UNL     1       6.359  -0.980   1.041  1.00  0.00    -0.297 OA
HETATM   12  C16 UNL     1       6.212  -1.811   2.110  1.00  0.00     0.284 C 
HETATM   13  O4  UNL     1       7.104  -2.195   2.843  1.00  0.00    -0.260 OA
HETATM   14  C17 UNL     1       4.795  -2.132   2.281  1.00  0.00     0.089 C 
HETATM   15  C18 UNL     1       4.166  -1.561   1.257  1.00  0.00    -0.029 C 
HETATM   16  C19 UNL     1       2.712  -1.267   1.105  1.00  0.00     0.037 C 
HETATM   17  C20 UNL     1       1.337  -3.085  -0.007  1.00  0.00     0.014 C 
HETATM   18  C21 UNL     1       0.140  -3.131   0.940  1.00  0.00     0.010 C 
HETATM   19  C22 UNL     1      -1.029  -2.195   0.551  1.00  0.00     0.041 C 
HETATM   20  C23 UNL     1      -0.644  -1.124  -0.480  1.00  0.00     0.095 C 
HETATM   21  C24 UNL     1      -1.686  -0.015  -0.353  1.00  0.00     0.049 C 
HETATM   22  C25 UNL     1      -3.162  -0.456  -0.512  1.00  0.00     0.025 C 
HETATM   23  C26 UNL     1      -4.028   0.392   0.456  1.00  0.00     0.012 C 
HETATM   24  C27 UNL     1      -5.531   0.573   0.097  1.00  0.00    -0.010 C 
HETATM   25  C35 UNL     1      -6.002  -0.238  -1.126  1.00  0.00     0.005 C 
HETATM   26  C36 UNL     1      -6.020  -1.751  -0.908  1.00  0.00     0.010 C 
HETATM   27  C37 UNL     1      -4.898  -2.322  -0.017  1.00  0.00     0.050 C 
HETATM   28  C38 UNL     1      -5.194  -3.804   0.282  1.00  0.00     0.125 C 
HETATM   29  C39 UNL     1      -4.222  -4.389   1.304  1.00  0.00     0.033 C 
HETATM   30  C40 UNL     1      -2.929  -3.583   1.466  1.00  0.00     0.023 C 
HETATM   31  C41 UNL     1      -2.360  -2.954   0.164  1.00  0.00     0.051 C 
HETATM   32  C43 UNL     1      -3.445  -2.017  -0.531  1.00  0.00     0.082 C 
ENDROOT
BRANCH   1  33
HETATM   33  C5  UNL     1       5.758   1.397  -0.644  1.00  0.00     0.306 C 
BRANCH  33  34
HETATM   34  N1  UNL     1       6.563   2.064   0.367  1.00  0.00     0.087 N 
HETATM   35  H10 UNL     1       7.023   1.372   0.962  1.00  0.00     0.316 HD
BRANCH  34  36
HETATM   36  C4  UNL     1       7.560   2.959  -0.208  1.00  0.00     0.272 C 
BRANCH  36  37
HETATM   37  C3  UNL     1       8.624   3.388   0.812  1.00  0.00     0.056 C 
BRANCH  37  38
HETATM   38  C2  UNL     1       8.054   3.916   2.125  1.00  0.00     0.168 C 
BRANCH  38  39
HETATM   39  O1  UNL     1       7.837   2.819   3.011  1.00  0.00    -0.396 OA
HETATM   40  C1  UNL     1       7.219   3.228   4.222  1.00  0.00     0.201 C 
ENDBRANCH  38  39
ENDBRANCH  37  38
ENDBRANCH  36  37
ENDBRANCH  34  36
ENDBRANCH  33  34
ENDBRANCH   1  33
BRANCH   5  41
HETATM   41  O2  UNL     1       1.020   0.178  -1.579  1.00  0.00    -0.386 OA
HETATM   42  H17 UNL     1       0.754   1.105  -1.449  1.00  0.00     0.210 HD
ENDBRANCH   5  41
BRANCH  20  43
HETATM   43  O5  UNL     1      -0.770  -1.656  -1.813  1.00  0.00    -0.386 OA
HETATM   44  H31 UNL     1      -0.116  -1.150  -2.344  1.00  0.00     0.210 HD
ENDBRANCH  20  43
BRANCH  31  45
HETATM   45  C42 UNL     1      -1.981  -4.105  -0.798  1.00  0.00     0.244 C 
HETATM   46  O7  UNL     1      -2.632  -5.135  -0.966  1.00  0.00    -0.306 OA
ENDBRANCH  31  45
BRANCH  32  47
HETATM   47  O8  UNL     1      -3.421  -2.326  -1.945  1.00  0.00    -0.388 OA
HETATM   48  H63 UNL     1      -2.548  -2.049  -2.296  1.00  0.00     0.210 HD
ENDBRANCH  32  47
BRANCH  24  49
HETATM   49  C28 UNL     1      -5.993   2.072  -0.003  1.00  0.00    -0.011 C 
HETATM   50  C29 UNL     1      -5.743   2.810   1.323  1.00  0.00     0.011 C 
BRANCH  49  51
HETATM   51  C30 UNL     1      -5.494   2.834  -1.259  1.00  0.00    -0.010 C 
HETATM   52  C31 UNL     1      -6.224   4.172  -1.508  1.00  0.00     0.005 C 
HETATM   53  C32 UNL     1      -5.202   5.112  -2.147  1.00  0.00     0.000 C 
HETATM   54  C33 UNL     1      -3.968   4.267  -2.413  1.00  0.00     0.000 C 
HETATM   55  C34 UNL     1      -4.014   3.214  -1.316  1.00  0.00     0.005 C 
ENDBRANCH  49  51
ENDBRANCH  24  49
BRANCH  28  56
HETATM   56  O6  UNL     1      -5.261  -4.600  -0.892  1.00  0.00    -0.395 OA
HETATM   57  H57 UNL     1      -4.347  -4.745  -1.219  1.00  0.00     0.210 HD
ENDBRANCH  28  56
TORSDOF 13
