REMARK  9 active torsions:
REMARK  status: ('A' for Active; 'I' for Inactive)
REMARK    1  A    between atoms: C3_3  and  O1_4 
REMARK    2  A    between atoms: N1_14  and  O2_16 
REMARK    3  A    between atoms: O2_16  and  C13_17 
REMARK    4  A    between atoms: C13_17  and  C14_18 
REMARK       I    between atoms: C14_18  and  N2_20 
REMARK    5  A    between atoms: N2_20  and  C15_21 
REMARK    6  A    between atoms: C15_21  and  C16_22 
REMARK    7  A    between atoms: C15_21  and  C17_25 
REMARK    8  A    between atoms: C16_22  and  O5_24 
REMARK    9  A    between atoms: C17_25  and  C19_27 
ROOT
HETATM    1  C1  UNL     1      -9.123  -0.576  -1.322  1.00  0.00     0.015 C 
HETATM    2  C2  UNL     1      -8.155  -0.115  -0.780  1.00  0.00    -0.078 C 
HETATM    3  C3  UNL     1      -6.971   0.463  -0.125  1.00  0.00     0.128 C 
HETATM    4  C4  UNL     1      -7.095   0.461   1.419  1.00  0.00     0.052 C 
HETATM    5  C5  UNL     1      -5.669   0.237   1.970  1.00  0.00     0.010 C 
HETATM    6  C6  UNL     1      -4.768   0.309   0.741  1.00  0.00     0.002 C 
HETATM    7  C7  UNL     1      -3.361  -0.300   0.820  1.00  0.00    -0.004 C 
HETATM    8  C8  UNL     1      -2.550   0.326   1.964  1.00  0.00     0.010 C 
HETATM    9  C9  UNL     1      -1.127  -0.219   2.003  1.00  0.00     0.035 C 
HETATM   10  C10 UNL     1      -0.430  -0.043   0.674  1.00  0.00    -0.069 C 
HETATM   11  C11 UNL     1       0.749   0.603   0.623  1.00  0.00     0.030 C 
HETATM   12  C12 UNL     1       1.500   0.735  -0.655  1.00  0.00     0.032 C 
HETATM   13  N1  UNL     1       2.518   1.512  -0.867  1.00  0.00    -0.271 N 
ATOM     14  H1  UNL     1       3.048   1.537  -1.738  1.00  0.00     0.194 HD
HETATM   15  C21 UNL     1       1.052  -0.155  -1.791  1.00  0.00     0.060 C 
HETATM   16  C22 UNL     1      -0.466  -0.132  -1.868  1.00  0.00     0.020 C 
HETATM   17  C23 UNL     1      -1.157  -0.608  -0.555  1.00  0.00    -0.016 C 
HETATM   18  C24 UNL     1      -1.093  -2.151  -0.500  1.00  0.00     0.020 C 
HETATM   19  C25 UNL     1      -2.640  -0.074  -0.546  1.00  0.00     0.002 C 
HETATM   20  C26 UNL     1      -3.498  -0.575  -1.739  1.00  0.00     0.007 C 
HETATM   21  C27 UNL     1      -4.935  -0.021  -1.721  1.00  0.00     0.014 C 
HETATM   22  C28 UNL     1      -5.640  -0.304  -0.383  1.00  0.00     0.003 C 
HETATM   23  C29 UNL     1      -5.850  -1.838  -0.225  1.00  0.00     0.020 C 
ENDROOT
BRANCH   3  24
HETATM   24  O1  UNL     1      -6.856   1.827  -0.536  1.00  0.00    -0.377 OA
HETATM   25  H2  UNL     1      -7.004   1.848  -1.496  1.00  0.00     0.211 HD
ENDBRANCH   3  24
BRANCH  13  26
HETATM   26  O2  UNL     1       2.799   2.315   0.251  1.00  0.00    -0.271 OA
BRANCH  26  27
HETATM   27  C13 UNL     1       3.832   3.241  -0.073  1.00  0.00     0.303 C 
BRANCH  27  28
HETATM   28  C14 UNL     1       5.238   2.672   0.117  1.00  0.00     0.244 C 
HETATM   29  O3  UNL     1       6.230   3.393   0.204  1.00  0.00    -0.271 OA
HETATM   30  N2  UNL     1       5.293   1.297   0.171  1.00  0.00    -0.344 N 
HETATM   31  H16 UNL     1       4.488   0.842  -0.260  1.00  0.00     0.163 HD
BRANCH  30  32
HETATM   32  C15 UNL     1       6.568   0.576   0.148  1.00  0.00     0.186 C 
BRANCH  32  33
HETATM   33  C16 UNL     1       6.924   0.228  -1.308  1.00  0.00     0.163 C 
HETATM   34  O4  UNL     1       8.002  -0.177  -1.715  1.00  0.00    -0.648 OA
BRANCH  33  35
HETATM   35  O5  UNL     1       5.884   0.317  -2.169  1.00  0.00    -0.775 OA
HETATM   36  H18 UNL     1       6.275   0.070  -3.033  1.00  0.00     0.167 HD
ENDBRANCH  33  35
ENDBRANCH  32  33
BRANCH  32  37
HETATM   37  C17 UNL     1       6.470  -0.705   1.014  1.00  0.00     0.014 C 
HETATM   38  C18 UNL     1       5.914  -0.389   2.413  1.00  0.00     0.012 C 
BRANCH  37  39
HETATM   39  C19 UNL     1       7.798  -1.485   1.141  1.00  0.00     0.002 C 
HETATM   40  C20 UNL     1       8.966  -0.689   1.707  1.00  0.00     0.005 C 
ENDBRANCH  37  39
ENDBRANCH  32  37
ENDBRANCH  30  32
ENDBRANCH  27  28
ENDBRANCH  26  27
ENDBRANCH  13  26
TORSDOF 9
