REMARK  12 active torsions:
REMARK  status: ('A' for Active; 'I' for Inactive)
REMARK    1  A    between atoms: C2_2  and  C3_3 
REMARK    2  A    between atoms: C3_3  and  O1_4 
REMARK    3  A    between atoms: C3_3  and  C5_6 
REMARK    4  A    between atoms: C5_6  and  C7_8 
REMARK    5  A    between atoms: C8_10  and  C10_12 
REMARK    6  A    between atoms: C10_12  and  C11_13 
REMARK    7  A    between atoms: C11_13  and  C13_15 
REMARK    8  A    between atoms: C14_16  and  C15_17 
REMARK    9  A    between atoms: C16_18  and  C18_20 
REMARK   10  A    between atoms: C19_22  and  C20_23 
REMARK   11  A    between atoms: C20_23  and  C21_24 
REMARK   12  A    between atoms: C21_24  and  O5_26 
ROOT
HETATM    1  C13 UNL     1       0.114   0.426   1.365  1.00  0.00    -0.022 C 
HETATM    2  C14 UNL     1       1.080   0.936   0.584  1.00  0.00    -0.003 C 
ENDROOT
BRANCH   2   3
HETATM    3  C15 UNL     1       2.303   0.224   0.281  1.00  0.00     0.005 C 
HETATM    4  C16 UNL     1       3.334   0.653  -0.479  1.00  0.00    -0.055 C 
HETATM    5  C17 UNL     1       3.398   2.011  -1.142  1.00  0.00     0.046 C 
BRANCH   4   6
HETATM    6  C18 UNL     1       4.593  -0.177  -0.742  1.00  0.00     0.154 C 
HETATM    7  O3  UNL     1       5.583   0.366   0.152  1.00  0.00    -0.375 OA
HETATM    8  C19 UNL     1       6.803  -0.374   0.153  1.00  0.00     0.132 C 
HETATM    9  C22 UNL     1       6.561  -1.725   0.837  1.00  0.00     0.033 C 
HETATM   10  C23 UNL     1       5.121  -2.214   0.683  1.00  0.00     0.009 C 
HETATM   11  C24 UNL     1       4.469  -1.724  -0.612  1.00  0.00     0.015 C 
HETATM   12  C25 UNL     1       5.075  -2.438  -1.832  1.00  0.00     0.012 C 
BRANCH   8  13
HETATM   13  C20 UNL     1       7.865   0.432   0.899  1.00  0.00     0.141 C 
BRANCH  13  14
HETATM   14  C21 UNL     1       8.380   1.563   0.054  1.00  0.00     0.141 C 
HETATM   15  O4  UNL     1       8.352   1.658  -1.162  1.00  0.00    -0.650 OA
BRANCH  14  16
HETATM   16  O5  UNL     1       8.990   2.511   0.795  1.00  0.00    -0.776 OA
HETATM   17  H34 UNL     1       9.282   3.174   0.136  1.00  0.00     0.167 HD
ENDBRANCH  14  16
ENDBRANCH  13  14
ENDBRANCH   8  13
ENDBRANCH   4   6
ENDBRANCH   2   3
BRANCH   1  18
HETATM   18  C11 UNL     1      -1.183   1.125   1.721  1.00  0.00     0.007 C 
HETATM   19  C12 UNL     1      -0.908   2.480   2.390  1.00  0.00     0.014 C 
BRANCH  18  20
HETATM   20  C10 UNL     1      -2.127   1.304   0.512  1.00  0.00     0.048 C 
BRANCH  20  21
HETATM   21  C8  UNL     1      -2.958   0.079   0.186  1.00  0.00     0.085 A 
HETATM   22  C7  UNL     1      -4.461   0.291  -0.041  1.00  0.00     0.163 A 
HETATM   23  O2  UNL     1      -3.937  -0.238   1.185  1.00  0.00    -0.369 OA
HETATM   24  C9  UNL     1      -2.239  -1.123  -0.348  1.00  0.00     0.049 C 
BRANCH  22  25
HETATM   25  C5  UNL     1      -5.360  -0.656  -0.800  1.00  0.00     0.042 C 
HETATM   26  C6  UNL     1      -5.120  -0.515  -2.306  1.00  0.00     0.015 C 
BRANCH  25  27
HETATM   27  C3  UNL     1      -6.866  -0.472  -0.437  1.00  0.00     0.126 C 
BRANCH  27  28
HETATM   28  C2  UNL     1      -7.472   0.864  -0.911  1.00  0.00     0.028 C 
HETATM   29  C1  UNL     1      -8.960   0.969  -0.589  1.00  0.00     0.007 C 
ENDBRANCH  27  28
BRANCH  27  30
HETATM   30  O1  UNL     1      -7.090  -0.562   0.978  1.00  0.00    -0.390 OA
HETATM   31  C4  UNL     1      -6.978  -1.880   1.499  1.00  0.00     0.202 C 
ENDBRANCH  27  30
ENDBRANCH  25  27
ENDBRANCH  22  25
ENDBRANCH  20  21
ENDBRANCH  18  20
ENDBRANCH   1  18
TORSDOF 12
