REMARK  5 active torsions:
REMARK  status: ('A' for Active; 'I' for Inactive)
REMARK    1  A    between atoms: C2_2  and  C4_4 
REMARK    2  A    between atoms: C10_11  and  O2_12 
REMARK    3  A    between atoms: C13_15  and  O3_16 
REMARK    4  A    between atoms: C32_37  and  O5_38 
REMARK    5  A    between atoms: C37_44  and  O7_45 
ROOT
HETATM    1  C4  UNL     1       6.776  -0.373   0.446  1.00  0.00     0.181 C 
HETATM    2  O1  UNL     1       5.878  -1.427   0.073  1.00  0.00    -0.370 OA
HETATM    3  C5  UNL     1       4.760  -1.011  -0.745  1.00  0.00     0.163 C 
HETATM    4  C6  UNL     1       3.801  -2.211  -0.700  1.00  0.00     0.036 C 
HETATM    5  C7  UNL     1       2.357  -1.921  -1.111  1.00  0.00     0.016 C 
HETATM    6  C8  UNL     1       1.759  -0.650  -0.432  1.00  0.00     0.006 C 
HETATM    7  C9  UNL     1       1.798  -0.883   1.111  1.00  0.00     0.020 C 
HETATM    8  C10 UNL     1       2.703   0.569  -0.818  1.00  0.00     0.102 C 
HETATM    9  C11 UNL     1       2.116   1.964  -0.444  1.00  0.00     0.045 C 
HETATM   10  C12 UNL     1       0.653   2.200  -0.914  1.00  0.00     0.045 C 
HETATM   11  C13 UNL     1      -0.218   1.073  -0.389  1.00  0.00     0.102 C 
HETATM   12  C14 UNL     1      -1.806   1.065  -0.636  1.00  0.00     0.194 C 
HETATM   13  O4  UNL     1      -2.369   1.917   0.373  1.00  0.00    -0.367 OA
HETATM   14  C15 UNL     1      -3.682   2.470   0.181  1.00  0.00     0.061 C 
HETATM   15  C16 UNL     1      -3.792   3.517   1.314  1.00  0.00     0.046 C 
HETATM   16  C17 UNL     1      -3.814   3.228  -1.142  1.00  0.00     0.046 C 
HETATM   17  C18 UNL     1      -4.772   1.414   0.449  1.00  0.00     0.060 C 
HETATM   18  C19 UNL     1      -6.265   1.820   0.378  1.00  0.00     0.023 C 
HETATM   19  C20 UNL     1      -6.626   0.418  -0.159  1.00  0.00     0.054 C 
HETATM   20  C21 UNL     1      -7.163  -0.641   0.764  1.00  0.00    -0.078 C 
HETATM   21  C22 UNL     1      -8.013  -0.321   1.753  1.00  0.00     0.015 C 
HETATM   22  C23 UNL     1      -6.757  -2.076   0.463  1.00  0.00     0.073 C 
HETATM   23  C24 UNL     1      -5.262  -2.259   0.318  1.00  0.00    -0.044 A 
HETATM   24  C25 UNL     1      -4.656  -3.498   0.552  1.00  0.00     0.010 A 
HETATM   25  C26 UNL     1      -3.275  -3.672   0.397  1.00  0.00     0.031 A 
HETATM   26  C27 UNL     1      -2.511  -2.553   0.044  1.00  0.00     0.044 A 
HETATM   27  N1  UNL     1      -1.145  -2.438  -0.185  1.00  0.00    -0.358 N 
HETATM   28  C28 UNL     1      -0.879  -1.144  -0.480  1.00  0.00     0.032 A 
HETATM   29  C29 UNL     1      -2.038  -0.403  -0.399  1.00  0.00     0.010 A 
HETATM   30  C30 UNL     1      -3.094  -1.292  -0.162  1.00  0.00     0.011 A 
HETATM   31  C31 UNL     1      -4.492  -1.158  -0.107  1.00  0.00    -0.003 A 
HETATM   32  C32 UNL     1      -5.096   0.231  -0.534  1.00  0.00     0.100 C 
HETATM   33  C33 UNL     1       0.300  -0.343  -0.954  1.00  0.00     0.043 C 
HETATM   34  C34 UNL     1       0.176  -0.396  -2.520  1.00  0.00     0.026 C 
HETATM   35  C35 UNL     1       4.122   0.305  -0.296  1.00  0.00     0.147 A 
HETATM   36  O6  UNL     1       4.973   1.458  -0.592  1.00  0.00    -0.360 OA
HETATM   37  C36 UNL     1       4.804   1.119   0.782  1.00  0.00     0.194 A 
HETATM   38  C37 UNL     1       6.025   0.560   1.438  1.00  0.00     0.183 C 
HETATM   39  H38 UNL     1      -0.484  -3.202  -0.152  1.00  0.00     0.166 HD
ENDROOT
BRANCH   1  40
HETATM   40  C2  UNL     1       8.049  -0.973   1.040  1.00  0.00    -0.062 C 
HETATM   41  C1  UNL     1       8.247  -2.291   1.231  1.00  0.00     0.016 C 
HETATM   42  C3  UNL     1       9.133   0.011   1.389  1.00  0.00     0.045 C 
ENDBRANCH   1  40
BRANCH  38  43
HETATM   43  O7  UNL     1       5.586  -0.132   2.610  1.00  0.00    -0.390 OA
HETATM   44  H45 UNL     1       6.040  -0.997   2.619  1.00  0.00     0.210 HD
ENDBRANCH  38  43
BRANCH   8  45
HETATM   45  O2  UNL     1       2.862   0.626  -2.250  1.00  0.00    -0.386 OA
HETATM   46  H15 UNL     1       3.563   1.285  -2.421  1.00  0.00     0.210 HD
ENDBRANCH   8  45
BRANCH  11  47
HETATM   47  O3  UNL     1      -0.060   1.163   1.061  1.00  0.00    -0.386 OA
HETATM   48  H20 UNL     1      -0.916   1.512   1.391  1.00  0.00     0.210 HD
ENDBRANCH  11  47
BRANCH  32  49
HETATM   49  O5  UNL     1      -4.854   0.499  -1.942  1.00  0.00    -0.384 OA
HETATM   50  H39 UNL     1      -5.026  -0.354  -2.381  1.00  0.00     0.211 HD
ENDBRANCH  32  49
TORSDOF 5
