REMARK  9 active torsions:
REMARK  status: ('A' for Active; 'I' for Inactive)
REMARK    1  A    between atoms: C2_2  and  C4_4 
REMARK    2  A    between atoms: C4_4  and  O1_6 
REMARK    3  A    between atoms: C4_4  and  C6_7 
REMARK    4  A    between atoms: C7_9  and  C8_10 
REMARK    5  A    between atoms: C8_10  and  O3_12 
REMARK    6  A    between atoms: C8_10  and  C10_13 
REMARK    7  A    between atoms: C13_16  and  O4_17 
REMARK    8  A    between atoms: C19_24  and  O6_25 
REMARK    9  A    between atoms: C22_28  and  C23_29 
ROOT
HETATM    1  C10 UNL     1       1.952   0.123  -0.486  1.00  0.00     0.034 C 
HETATM    2  C11 UNL     1       2.332  -0.871   0.654  1.00  0.00     0.012 C 
HETATM    3  C12 UNL     1       1.021  -1.436   1.229  1.00  0.00     0.044 C 
HETATM    4  C13 UNL     1      -0.046  -1.001   0.223  1.00  0.00     0.089 C 
HETATM    5  C14 UNL     1      -1.519  -1.047   0.565  1.00  0.00    -0.037 C 
HETATM    6  C15 UNL     1      -1.967  -1.639   1.682  1.00  0.00     0.057 C 
HETATM    7  C16 UNL     1      -3.400  -1.930   1.860  1.00  0.00     0.154 C 
HETATM    8  O5  UNL     1      -3.785  -2.412   2.924  1.00  0.00    -0.293 OA
HETATM    9  C17 UNL     1      -4.335  -1.724   0.687  1.00  0.00     0.071 C 
HETATM   10  C18 UNL     1      -4.362  -2.984  -0.190  1.00  0.00     0.045 C 
HETATM   11  C19 UNL     1      -5.419  -2.872  -1.292  1.00  0.00     0.119 C 
HETATM   12  C20 UNL     1      -5.960  -1.455  -1.477  1.00  0.00     0.032 C 
HETATM   13  C21 UNL     1      -4.842  -0.418  -1.450  1.00  0.00     0.014 C 
HETATM   14  C22 UNL     1      -4.003  -0.416  -0.118  1.00  0.00    -0.018 C 
HETATM   15  C29 UNL     1      -2.445  -0.491  -0.527  1.00  0.00     0.027 C 
HETATM   16  C30 UNL     1      -1.892   0.828  -1.126  1.00  0.00     0.011 C 
HETATM   17  C31 UNL     1      -0.386   0.828  -1.437  1.00  0.00     0.014 C 
HETATM   18  C32 UNL     1       0.441   0.415  -0.201  1.00  0.00    -0.002 C 
HETATM   19  C33 UNL     1       0.264   1.457   0.933  1.00  0.00     0.019 C 
ENDROOT
BRANCH   1  20
HETATM   20  C8  UNL     1       2.983   1.279  -0.637  1.00  0.00     0.087 C 
HETATM   21  C9  UNL     1       2.562   2.318  -1.683  1.00  0.00     0.049 C 
BRANCH  20  22
HETATM   22  C7  UNL     1       4.324   0.704  -1.063  1.00  0.00     0.188 A 
HETATM   23  C6  UNL     1       5.407   0.316  -0.076  1.00  0.00     0.188 A 
HETATM   24  O2  UNL     1       5.456   1.555  -0.795  1.00  0.00    -0.369 OA
BRANCH  23  25
HETATM   25  C4  UNL     1       6.478  -0.708  -0.400  1.00  0.00     0.086 C 
HETATM   26  C5  UNL     1       7.031  -0.586  -1.829  1.00  0.00     0.049 C 
BRANCH  25  27
HETATM   27  C2  UNL     1       7.601  -0.655   0.689  1.00  0.00     0.014 C 
HETATM   28  C1  UNL     1       8.367   0.674   0.703  1.00  0.00     0.012 C 
HETATM   29  C3  UNL     1       8.604  -1.814   0.603  1.00  0.00     0.012 C 
ENDBRANCH  25  27
BRANCH  25  30
HETATM   30  O1  UNL     1       5.821  -1.982  -0.301  1.00  0.00    -0.387 OA
HETATM   31  H11 UNL     1       6.400  -2.654  -0.700  1.00  0.00     0.210 HD
ENDBRANCH  25  30
ENDBRANCH  23  25
ENDBRANCH  20  22
BRANCH  20  32
HETATM   32  O3  UNL     1       3.136   1.975   0.603  1.00  0.00    -0.387 OA
HETATM   33  H17 UNL     1       3.931   2.532   0.500  1.00  0.00     0.210 HD
ENDBRANCH  20  32
ENDBRANCH   1  20
BRANCH   4  34
HETATM   34  O4  UNL     1       0.079  -1.907  -0.895  1.00  0.00    -0.384 OA
HETATM   35  H23 UNL     1      -0.110  -2.802  -0.562  1.00  0.00     0.211 HD
ENDBRANCH   4  34
BRANCH  14  36
HETATM   36  C23 UNL     1      -4.314   0.883   0.781  1.00  0.00    -0.005 C 
HETATM   37  C24 UNL     1      -4.588   2.206   0.025  1.00  0.00     0.005 C 
HETATM   38  C25 UNL     1      -4.436   3.414   0.956  1.00  0.00     0.000 C 
HETATM   39  C26 UNL     1      -4.905   3.129   2.383  1.00  0.00     0.000 C 
HETATM   40  C27 UNL     1      -5.974   2.047   2.410  1.00  0.00     0.000 C 
HETATM   41  C28 UNL     1      -5.490   0.727   1.788  1.00  0.00     0.005 C 
ENDBRANCH  14  36
BRANCH  11  42
HETATM   42  O6  UNL     1      -6.509  -3.746  -1.009  1.00  0.00    -0.396 OA
HETATM   43  H29 UNL     1      -6.875  -3.505  -0.140  1.00  0.00     0.210 HD
ENDBRANCH  11  42
TORSDOF 9
