REMARK  6 active torsions:
REMARK  status: ('A' for Active; 'I' for Inactive)
REMARK    1  A    between atoms: C2_2  and  C30_31 
REMARK    2  A    between atoms: C3_3  and  C4_4 
REMARK    3  A    between atoms: C4_4  and  C5_5 
REMARK    4  A    between atoms: C5_5  and  C6_6 
REMARK    5  A    between atoms: C6_6  and  C8_8 
REMARK    6  A    between atoms: C30_31  and  O2_32 
ROOT
HETATM    1  C8  UNL     1       1.966  -0.480  -0.231  1.00  0.00    -0.002 C 
HETATM    2  C9  UNL     1       1.803  -1.800  -1.029  1.00  0.00     0.007 C 
HETATM    3  C10 UNL     1       0.289  -2.106  -1.084  1.00  0.00     0.015 C 
HETATM    4  C11 UNL     1      -0.357  -1.125  -0.080  1.00  0.00    -0.013 C 
HETATM    5  C12 UNL     1      -0.239  -1.812   1.319  1.00  0.00     0.021 C 
HETATM    6  C13 UNL     1      -1.829  -0.768  -0.242  1.00  0.00    -0.070 C 
HETATM    7  C14 UNL     1      -2.722  -1.621  -0.774  1.00  0.00    -0.022 C 
HETATM    8  C15 UNL     1      -4.199  -1.386  -0.816  1.00  0.00     0.034 C 
HETATM    9  C16 UNL     1      -4.666   0.020  -0.369  1.00  0.00     0.013 C 
HETATM   10  C17 UNL     1      -6.220   0.094  -0.117  1.00  0.00     0.018 C 
HETATM   11  C18 UNL     1      -6.836  -1.176   0.509  1.00  0.00     0.023 C 
HETATM   12  C19 UNL     1      -6.949   0.340  -1.456  1.00  0.00     0.023 C 
HETATM   13  C20 UNL     1      -6.542   1.289   0.785  1.00  0.00     0.135 C 
HETATM   14  O1  UNL     1      -7.552   1.337   1.488  1.00  0.00    -0.297 OA
HETATM   15  C21 UNL     1      -5.614   2.470   0.705  1.00  0.00     0.080 C 
HETATM   16  C22 UNL     1      -4.187   2.096   1.066  1.00  0.00     0.017 C 
HETATM   17  C23 UNL     1      -3.772   0.618   0.783  1.00  0.00    -0.031 C 
HETATM   18  C24 UNL     1      -3.924  -0.196   2.091  1.00  0.00     0.016 C 
HETATM   19  C25 UNL     1      -2.268   0.603   0.279  1.00  0.00     0.024 C 
HETATM   20  C26 UNL     1      -1.244   1.249   1.253  1.00  0.00     0.010 C 
HETATM   21  C27 UNL     1       0.244   1.174   0.827  1.00  0.00     0.011 C 
HETATM   22  C28 UNL     1       0.536   0.146  -0.285  1.00  0.00    -0.029 C 
HETATM   23  C29 UNL     1       0.331   0.839  -1.666  1.00  0.00     0.016 C 
ENDROOT
BRANCH   1  24
HETATM   24  C6  UNL     1       3.185   0.420  -0.599  1.00  0.00    -0.014 C 
HETATM   25  C7  UNL     1       3.613   0.360  -2.071  1.00  0.00     0.010 C 
BRANCH  24  26
HETATM   26  C5  UNL     1       4.378   0.062   0.333  1.00  0.00     0.008 C 
BRANCH  26  27
HETATM   27  C4  UNL     1       5.668   0.831   0.032  1.00  0.00     0.028 C 
BRANCH  27  28
HETATM   28  C3  UNL     1       6.674   0.702   1.145  1.00  0.00    -0.022 C 
HETATM   29  C2  UNL     1       7.825   0.000   1.109  1.00  0.00    -0.064 C 
HETATM   30  C1  UNL     1       8.763  -0.006   2.286  1.00  0.00     0.045 C 
BRANCH  29  31
HETATM   31  C30 UNL     1       8.265  -0.833  -0.068  1.00  0.00     0.197 C 
BRANCH  31  32
HETATM   32  O2  UNL     1       8.652   0.008  -1.146  1.00  0.00    -0.397 OA
HETATM   33  H48 UNL     1       8.968   0.844  -0.763  1.00  0.00     0.209 HD
ENDBRANCH  31  32
ENDBRANCH  29  31
ENDBRANCH  27  28
ENDBRANCH  26  27
ENDBRANCH  24  26
ENDBRANCH   1  24
TORSDOF 6
