REMARK  13 active torsions:
REMARK  status: ('A' for Active; 'I' for Inactive)
REMARK    1  A    between atoms: C2_2  and  C3_3 
REMARK    2  A    between atoms: C2_2  and  C4_5 
REMARK    3  A    between atoms: C3_3  and  O1_4 
REMARK    4  A    between atoms: C4_5  and  C5_6 
REMARK    5  A    between atoms: C5_6  and  C6_7 
REMARK    6  A    between atoms: C6_7  and  O2_8 
REMARK    7  A    between atoms: C6_7  and  C7_9 
REMARK    8  A    between atoms: C7_9  and  C9_11 
REMARK    9  A    between atoms: C10_12  and  O3_13 
REMARK   10  A    between atoms: O3_13  and  C11_14 
REMARK   11  A    between atoms: C13_17  and  O5_18 
REMARK   12  A    between atoms: C14_19  and  O6_20 
REMARK   13  A    between atoms: C15_21  and  O7_22 
ROOT
HETATM    1  C9  UNL     1       0.720   0.330   1.265  1.00  0.00     0.029 C 
HETATM    2  C10 UNL     1       0.108   1.758   1.129  1.00  0.00     0.130 C 
HETATM    3  C16 UNL     1      -1.322   1.545   0.577  1.00  0.00     0.038 C 
HETATM    4  C17 UNL     1      -1.571   0.052   0.745  1.00  0.00     0.001 C 
HETATM    5  C18 UNL     1      -2.740  -0.592  -0.008  1.00  0.00    -0.004 C 
HETATM    6  C19 UNL     1      -4.077   0.110   0.296  1.00  0.00     0.010 C 
HETATM    7  C20 UNL     1      -5.272  -0.608  -0.336  1.00  0.00     0.035 C 
HETATM    8  C21 UNL     1      -5.246  -2.061   0.075  1.00  0.00    -0.068 C 
HETATM    9  C22 UNL     1      -6.210  -2.548   0.877  1.00  0.00     0.053 C 
HETATM   10  C23 UNL     1      -6.064  -3.864   1.541  1.00  0.00     0.149 C 
HETATM   11  O8  UNL     1      -6.991  -4.312   2.210  1.00  0.00    -0.293 OA
HETATM   12  C24 UNL     1      -4.723  -4.545   1.451  1.00  0.00     0.084 C 
HETATM   13  C25 UNL     1      -4.141  -4.339   0.064  1.00  0.00     0.022 C 
HETATM   14  C26 UNL     1      -3.993  -2.843  -0.340  1.00  0.00    -0.016 C 
HETATM   15  C27 UNL     1      -3.837  -2.850  -1.883  1.00  0.00     0.020 C 
HETATM   16  C28 UNL     1      -2.789  -2.118   0.363  1.00  0.00     0.002 C 
HETATM   17  C29 UNL     1      -1.416  -2.809   0.161  1.00  0.00     0.007 C 
HETATM   18  C30 UNL     1      -0.243  -2.050   0.811  1.00  0.00     0.010 C 
HETATM   19  C31 UNL     1      -0.201  -0.574   0.385  1.00  0.00    -0.034 C 
HETATM   20  C32 UNL     1       0.129  -0.494  -1.119  1.00  0.00     0.016 C 
ENDROOT
BRANCH   2  21
HETATM   21  O3  UNL     1       0.861   2.594   0.269  1.00  0.00    -0.353 OA
BRANCH  21  22
HETATM   22  C11 UNL     1       0.632   3.992   0.492  1.00  0.00     0.291 C 
HETATM   23  O4  UNL     1      -0.643   4.372  -0.018  1.00  0.00    -0.356 OA
HETATM   24  C12 UNL     1      -0.904   5.758   0.159  1.00  0.00     0.205 C 
HETATM   25  C13 UNL     1       0.094   6.602  -0.624  1.00  0.00     0.173 C 
HETATM   26  C14 UNL     1       1.527   6.265  -0.202  1.00  0.00     0.182 C 
HETATM   27  C15 UNL     1       1.783   4.753  -0.201  1.00  0.00     0.204 C 
BRANCH  25  28
HETATM   28  O5  UNL     1      -0.147   8.002  -0.435  1.00  0.00    -0.391 OA
HETATM   29  H24 UNL     1      -0.041   8.211   0.511  1.00  0.00     0.210 HD
ENDBRANCH  25  28
BRANCH  26  30
HETATM   30  O6  UNL     1       2.432   6.931  -1.099  1.00  0.00    -0.390 OA
HETATM   31  H26 UNL     1       2.115   7.850  -1.179  1.00  0.00     0.210 HD
ENDBRANCH  26  30
BRANCH  27  32
HETATM   32  O7  UNL     1       3.014   4.491   0.500  1.00  0.00    -0.388 OA
HETATM   33  H28 UNL     1       3.110   3.510   0.518  1.00  0.00     0.210 HD
ENDBRANCH  27  32
ENDBRANCH  21  22
ENDBRANCH   2  21
BRANCH   1  34
HETATM   34  C7  UNL     1       2.266   0.130   1.224  1.00  0.00     0.017 C 
HETATM   35  C8  UNL     1       2.886   0.774   2.479  1.00  0.00     0.013 C 
BRANCH  34  36
HETATM   36  C6  UNL     1       3.043   0.554  -0.056  1.00  0.00     0.122 C 
BRANCH  36  37
HETATM   37  C5  UNL     1       4.268  -0.342  -0.344  1.00  0.00     0.032 C 
BRANCH  37  38
HETATM   38  C4  UNL     1       3.912  -1.771  -0.777  1.00  0.00     0.009 C 
BRANCH  38  39
HETATM   39  C2  UNL     1       5.149  -2.667  -0.996  1.00  0.00     0.005 C 
HETATM   40  C1  UNL     1       5.941  -2.245  -2.237  1.00  0.00     0.012 C 
BRANCH  39  41
HETATM   41  C3  UNL     1       4.735  -4.144  -1.106  1.00  0.00     0.168 C 
BRANCH  41  42
HETATM   42  O1  UNL     1       3.836  -4.338  -2.188  1.00  0.00    -0.400 OA
HETATM   43  H7  UNL     1       3.630  -5.288  -2.221  1.00  0.00     0.209 HD
ENDBRANCH  41  42
ENDBRANCH  39  41
ENDBRANCH  38  39
ENDBRANCH  37  38
ENDBRANCH  36  37
BRANCH  36  44
HETATM   44  O2  UNL     1       3.546   1.891   0.067  1.00  0.00    -0.395 OA
HETATM   45  H13 UNL     1       3.923   2.123  -0.802  1.00  0.00     0.210 HD
ENDBRANCH  36  44
ENDBRANCH  34  36
ENDBRANCH   1  34
TORSDOF 13
