REMARK  10 active torsions:
REMARK  status: ('A' for Active; 'I' for Inactive)
REMARK    1  A    between atoms: O1_2  and  C2_3 
REMARK    2  A    between atoms: C2_3  and  C3_5 
REMARK    3  A    between atoms: C3_5  and  C4_6 
REMARK    4  A    between atoms: C3_5  and  N1_13 
REMARK    5  A    between atoms: C4_6  and  C5_7 
REMARK       I    between atoms: N1_13  and  C11_14 
REMARK    6  A    between atoms: C11_14  and  C12_16 
REMARK    7  A    between atoms: C12_16  and  O4_17 
REMARK    8  A    between atoms: O4_17  and  N2_18 
REMARK    9  A    between atoms: C27_34  and  O5_35 
REMARK   10  A    between atoms: C27_34  and  C28_36 
ROOT
HETATM    1  N2  UNL     1       1.746  -1.647  -2.445  1.00  0.00    -0.271 N 
ATOM      2  H2  UNL     1       1.787  -2.540  -2.936  1.00  0.00     0.194 HD
HETATM    3  C13 UNL     1       0.638  -1.052  -2.105  1.00  0.00     0.032 C 
HETATM    4  C14 UNL     1      -0.637  -1.692  -2.514  1.00  0.00     0.030 C 
HETATM    5  C15 UNL     1      -1.832  -1.128  -2.265  1.00  0.00    -0.069 C 
HETATM    6  C16 UNL     1      -3.077  -1.750  -2.848  1.00  0.00     0.035 C 
HETATM    7  C17 UNL     1      -4.176  -1.921  -1.809  1.00  0.00     0.010 C 
HETATM    8  C18 UNL     1      -4.501  -0.586  -1.129  1.00  0.00    -0.004 C 
HETATM    9  C19 UNL     1      -3.222  -0.013  -0.445  1.00  0.00     0.002 C 
HETATM   10  C20 UNL     1      -3.538   1.263   0.379  1.00  0.00     0.007 C 
HETATM   11  C21 UNL     1      -4.736   1.101   1.333  1.00  0.00     0.013 C 
HETATM   12  C22 UNL     1      -5.995   0.591   0.608  1.00  0.00    -0.002 C 
HETATM   13  C23 UNL     1      -6.497   1.664  -0.398  1.00  0.00     0.019 C 
HETATM   14  C24 UNL     1      -5.603  -0.745  -0.074  1.00  0.00     0.002 C 
HETATM   15  C25 UNL     1      -6.938  -1.334  -0.511  1.00  0.00     0.009 C 
HETATM   16  C26 UNL     1      -7.929  -0.898   0.584  1.00  0.00     0.047 C 
HETATM   17  C27 UNL     1      -7.172   0.100   1.506  1.00  0.00     0.125 C 
HETATM   18  C30 UNL     1      -2.013   0.155  -1.445  1.00  0.00    -0.016 C 
HETATM   19  C31 UNL     1      -2.238   1.324  -2.429  1.00  0.00     0.020 C 
HETATM   20  C32 UNL     1      -0.727   0.425  -0.612  1.00  0.00     0.020 C 
HETATM   21  C33 UNL     1       0.567   0.286  -1.403  1.00  0.00     0.060 C 
ENDROOT
BRANCH   1  22
HETATM   22  O4  UNL     1       2.876  -0.912  -2.055  1.00  0.00    -0.271 OA
BRANCH  22  23
HETATM   23  C12 UNL     1       3.986  -1.353  -2.829  1.00  0.00     0.303 C 
BRANCH  23  24
HETATM   24  C11 UNL     1       5.247  -0.702  -2.285  1.00  0.00     0.244 C 
HETATM   25  N1  UNL     1       5.709  -1.253  -1.109  1.00  0.00    -0.345 N 
HETATM   26  H12 UNL     1       5.135  -1.928  -0.610  1.00  0.00     0.163 HD
HETATM   27  O3  UNL     1       5.819   0.226  -2.853  1.00  0.00    -0.271 OA
BRANCH  25  28
HETATM   28  C3  UNL     1       6.899  -0.729  -0.431  1.00  0.00     0.188 C 
BRANCH  28  29
HETATM   29  C2  UNL     1       7.472  -1.858   0.424  1.00  0.00     0.281 C 
HETATM   30  O2  UNL     1       6.785  -2.679   1.024  1.00  0.00    -0.263 OA
BRANCH  29  31
HETATM   31  O1  UNL     1       8.833  -1.827   0.422  1.00  0.00    -0.325 OA
HETATM   32  C1  UNL     1       9.448  -2.859   1.194  1.00  0.00     0.213 C 
ENDBRANCH  29  31
ENDBRANCH  28  29
BRANCH  28  33
HETATM   33  C4  UNL     1       6.541   0.475   0.452  1.00  0.00     0.074 C 
BRANCH  33  34
HETATM   34  C5  UNL     1       7.750   1.232   0.947  1.00  0.00    -0.056 A 
HETATM   35  C6  UNL     1       8.492   2.027   0.063  1.00  0.00     0.007 A 
HETATM   36  C7  UNL     1       9.619   2.718   0.509  1.00  0.00     0.001 A 
HETATM   37  C8  UNL     1      10.011   2.624   1.843  1.00  0.00     0.000 A 
HETATM   38  C9  UNL     1       9.278   1.839   2.731  1.00  0.00     0.001 A 
HETATM   39  C10 UNL     1       8.152   1.144   2.286  1.00  0.00     0.007 A 
ENDBRANCH  33  34
ENDBRANCH  28  33
ENDBRANCH  25  28
ENDBRANCH  23  24
ENDBRANCH  22  23
ENDBRANCH   1  22
BRANCH  17  40
HETATM   40  O5  UNL     1      -6.662  -0.640   2.625  1.00  0.00    -0.381 OA
HETATM   41  H34 UNL     1      -7.414  -1.104   3.039  1.00  0.00     0.211 HD
ENDBRANCH  17  40
BRANCH  17  42
HETATM   42  C28 UNL     1      -8.095   1.210   2.058  1.00  0.00     0.158 C 
HETATM   43  C29 UNL     1      -7.497   2.212   3.014  1.00  0.00     0.094 C 
HETATM   44  O6  UNL     1      -9.286   1.294   1.746  1.00  0.00    -0.295 OA
ENDBRANCH  17  42
TORSDOF 10
