REMARK  7 active torsions:
REMARK  status: ('A' for Active; 'I' for Inactive)
REMARK    1  A    between atoms: N1_2  and  C2_3 
REMARK    2  A    between atoms: C2_3  and  C3_4 
REMARK    3  A    between atoms: C3_4  and  O1_5 
REMARK    4  A    between atoms: O1_5  and  C4_6 
REMARK    5  A    between atoms: C4_6  and  C5_8 
REMARK    6  A    between atoms: C19_23  and  C21_25 
REMARK    7  A    between atoms: C21_25  and  O5_27 
ROOT
HETATM    1  C5  UNL     1       3.313  -0.144   0.327  1.00  0.00     0.085 C 
HETATM    2  C6  UNL     1       2.095  -0.592   0.695  1.00  0.00    -0.070 C 
HETATM    3  C7  UNL     1       1.481  -1.922   0.324  1.00  0.00     0.035 C 
HETATM    4  C8  UNL     1       0.104  -1.742  -0.325  1.00  0.00     0.010 C 
HETATM    5  C9  UNL     1      -0.856  -0.882   0.532  1.00  0.00     0.006 C 
HETATM    6  C10 UNL     1      -0.171   0.472   0.843  1.00  0.00     0.068 C 
HETATM    7  C11 UNL     1      -1.091   1.426   1.593  1.00  0.00     0.132 C 
HETATM    8  O3  UNL     1      -0.682   2.184   2.474  1.00  0.00    -0.298 OA
HETATM    9  C12 UNL     1      -2.514   1.539   1.098  1.00  0.00     0.085 C 
HETATM   10  C13 UNL     1      -3.151   0.153   0.916  1.00  0.00     0.019 C 
HETATM   11  C14 UNL     1      -2.309  -0.727  -0.082  1.00  0.00    -0.034 C 
HETATM   12  C15 UNL     1      -2.237  -0.115  -1.501  1.00  0.00     0.016 C 
HETATM   13  C16 UNL     1      -2.957  -2.135  -0.181  1.00  0.00     0.010 C 
HETATM   14  C17 UNL     1      -4.447  -2.112  -0.489  1.00  0.00     0.002 C 
HETATM   15  C18 UNL     1      -5.219  -1.285   0.530  1.00  0.00     0.020 C 
HETATM   16  C19 UNL     1      -4.705   0.173   0.677  1.00  0.00     0.049 C 
HETATM   17  C20 UNL     1      -5.442   0.762   1.908  1.00  0.00     0.026 C 
HETATM   18  C23 UNL     1       1.193   0.289   1.559  1.00  0.00     0.022 C 
HETATM   19  C24 UNL     1       1.105  -0.290   2.981  1.00  0.00     0.015 C 
ENDROOT
BRANCH   1  20
HETATM   20  C4  UNL     1       4.320  -0.842  -0.511  1.00  0.00     0.283 C 
HETATM   21  O2  UNL     1       4.169  -1.892  -1.108  1.00  0.00    -0.260 OA
BRANCH  20  22
HETATM   22  O1  UNL     1       5.447  -0.084  -0.502  1.00  0.00    -0.316 OA
BRANCH  22  23
HETATM   23  C3  UNL     1       6.533  -0.648  -1.257  1.00  0.00     0.209 C 
BRANCH  23  24
HETATM   24  C2  UNL     1       7.732   0.306  -1.192  1.00  0.00     0.295 C 
BRANCH  24  25
HETATM   25  N1  UNL     1       8.247   0.410   0.180  1.00  0.00     0.081 N 
HETATM   26  C1  UNL     1       9.314   1.396   0.267  1.00  0.00     0.306 C 
HETATM   27  H4  UNL     1       7.479   0.681   0.796  1.00  0.00     0.315 HD
ENDBRANCH  24  25
ENDBRANCH  23  24
ENDBRANCH  22  23
ENDBRANCH  20  22
ENDBRANCH   1  20
BRANCH  16  28
HETATM   28  C21 UNL     1      -5.167   0.999  -0.539  1.00  0.00     0.267 C 
HETATM   29  O4  UNL     1      -5.755   0.545  -1.513  1.00  0.00    -0.264 OA
BRANCH  28  30
HETATM   30  O5  UNL     1      -4.863   2.318  -0.391  1.00  0.00    -0.326 OA
HETATM   31  C22 UNL     1      -5.284   3.147  -1.476  1.00  0.00     0.213 C 
ENDBRANCH  28  30
ENDBRANCH  16  28
TORSDOF 7
