REMARK  7 active torsions:
REMARK  status: ('A' for Active; 'I' for Inactive)
REMARK    1  A    between atoms: C2_2  and  C4_4 
REMARK    2  A    between atoms: C7_7  and  O1_9 
REMARK    3  A    between atoms: C9_10  and  C10_11 
REMARK    4  A    between atoms: C11_12  and  C12_13 
REMARK    5  A    between atoms: C14_15  and  C15_16 
REMARK    6  A    between atoms: C24_26  and  C26_28 
REMARK    7  A    between atoms: C29_32  and  O4_34 
ROOT
HETATM    1  C15 UNL     1      -0.724  -1.392  -0.017  1.00  0.00     0.149 C 
HETATM    2  C16 UNL     1      -1.625  -0.349  -0.668  1.00  0.00     0.054 C 
HETATM    3  C17 UNL     1      -2.956  -0.436   0.111  1.00  0.00     0.050 C 
HETATM    4  C18 UNL     1      -2.360  -0.747   1.511  1.00  0.00     0.272 C 
HETATM    5  O2  UNL     1      -1.839   0.391   2.193  1.00  0.00    -0.360 OA
HETATM    6  C19 UNL     1      -2.798   1.080   2.971  1.00  0.00     0.171 C 
HETATM    7  C20 UNL     1      -3.420   2.221   2.185  1.00  0.00     0.027 C 
HETATM    8  C21 UNL     1      -3.215   2.149   0.675  1.00  0.00     0.012 C 
HETATM    9  C22 UNL     1      -3.781   0.901  -0.040  1.00  0.00     0.032 C 
HETATM   10  C23 UNL     1      -5.294   0.736   0.222  1.00  0.00    -0.066 C 
HETATM   11  C24 UNL     1      -6.260   1.544  -0.284  1.00  0.00    -0.021 C 
HETATM   12  C25 UNL     1      -7.730   1.394  -0.006  1.00  0.00     0.052 C 
HETATM   13  C27 UNL     1      -5.637  -0.461   1.075  1.00  0.00     0.038 C 
HETATM   14  C28 UNL     1      -5.137  -1.769   0.464  1.00  0.00     0.042 C 
HETATM   15  C29 UNL     1      -3.862  -1.635  -0.403  1.00  0.00     0.067 C 
HETATM   16  C30 UNL     1      -4.261  -1.512  -1.892  1.00  0.00     0.047 C 
HETATM   17  O5  UNL     1      -1.231  -1.613   1.306  1.00  0.00    -0.351 OA
ENDROOT
BRANCH   1  18
HETATM   18  C14 UNL     1       0.702  -0.932   0.102  1.00  0.00     0.011 C 
HETATM   19  C12 UNL     1       1.762  -1.301  -0.648  1.00  0.00    -0.064 C 
HETATM   20  C13 UNL     1       1.665  -2.247  -1.817  1.00  0.00     0.048 C 
BRANCH  19  21
HETATM   21  C11 UNL     1       3.072  -0.735  -0.326  1.00  0.00     0.003 C 
HETATM   22  C10 UNL     1       4.240  -1.044  -0.913  1.00  0.00    -0.018 C 
BRANCH  22  23
HETATM   23  C9  UNL     1       5.607  -0.470  -0.596  1.00  0.00     0.050 C 
HETATM   24  C4  UNL     1       5.696   0.958   0.032  1.00  0.00     0.024 C 
HETATM   25  C5  UNL     1       7.062   0.922   0.739  1.00  0.00     0.013 C 
HETATM   26  C6  UNL     1       7.082  -0.449   1.394  1.00  0.00     0.039 C 
HETATM   27  C7  UNL     1       6.485  -1.383   0.332  1.00  0.00     0.062 C 
HETATM   28  C8  UNL     1       5.783  -2.564   1.001  1.00  0.00     0.046 C 
BRANCH  24  29
HETATM   29  C2  UNL     1       5.503   2.115  -0.951  1.00  0.00    -0.088 C 
HETATM   30  C1  UNL     1       6.443   3.031  -1.246  1.00  0.00     0.014 C 
HETATM   31  C3  UNL     1       4.137   2.244  -1.578  1.00  0.00     0.043 C 
ENDBRANCH  24  29
BRANCH  27  32
HETATM   32  O1  UNL     1       7.558  -1.944  -0.442  1.00  0.00    -0.390 OA
HETATM   33  H14 UNL     1       8.054  -1.214  -0.850  1.00  0.00     0.210 HD
ENDBRANCH  27  32
ENDBRANCH  22  23
ENDBRANCH  19  21
ENDBRANCH   1  18
BRANCH  15  34
HETATM   34  O4  UNL     1      -3.177  -2.888  -0.307  1.00  0.00    -0.389 OA
HETATM   35  H44 UNL     1      -3.758  -3.593  -0.645  1.00  0.00     0.210 HD
ENDBRANCH  15  34
BRANCH  11  36
HETATM   36  C26 UNL     1      -5.956   2.693  -1.192  1.00  0.00     0.265 C 
HETATM   37  O3  UNL     1      -5.157   2.641  -2.117  1.00  0.00    -0.302 OA
ENDBRANCH  11  36
TORSDOF 7
