REMARK  6 active torsions:
REMARK  status: ('A' for Active; 'I' for Inactive)
REMARK    1  A    between atoms: C2_2  and  C3_3 
REMARK    2  A    between atoms: C2_2  and  C9_10 
REMARK    3  A    between atoms: C3_3  and  C4_4 
REMARK    4  A    between atoms: C4_4  and  C5_5 
REMARK    5  A    between atoms: C17_18  and  C18_19 
REMARK    6  A    between atoms: C18_19  and  O2_22 
ROOT
HETATM    1  C9  UNL     1       2.255   1.116  -0.227  1.00  0.00    -0.002 C 
HETATM    2  C10 UNL     1       1.962   2.325   0.717  1.00  0.00     0.006 C 
HETATM    3  C11 UNL     1       0.424   2.469   0.810  1.00  0.00     0.011 C 
HETATM    4  C12 UNL     1      -0.111   1.613  -0.351  1.00  0.00    -0.032 C 
HETATM    5  C13 UNL     1       0.054   2.498  -1.634  1.00  0.00     0.016 C 
HETATM    6  C14 UNL     1      -1.577   1.105  -0.203  1.00  0.00     0.003 C 
HETATM    7  C15 UNL     1      -2.645   2.197  -0.022  1.00  0.00     0.009 C 
HETATM    8  C16 UNL     1      -4.064   1.725  -0.352  1.00  0.00     0.042 C 
HETATM    9  C17 UNL     1      -4.413   0.225  -0.087  1.00  0.00     0.095 C 
HETATM   10  O3  UNL     1      -5.631   0.064  -0.850  1.00  0.00    -0.377 OA
HETATM   11  C21 UNL     1      -6.176  -1.235  -1.018  1.00  0.00     0.169 C 
HETATM   12  C22 UNL     1      -5.152  -2.340  -1.200  1.00  0.00     0.027 C 
HETATM   13  C23 UNL     1      -3.816  -1.790  -1.649  1.00  0.00     0.010 C 
HETATM   14  C24 UNL     1      -3.277  -0.705  -0.686  1.00  0.00     0.032 C 
HETATM   15  C25 UNL     1      -1.998   0.045  -1.283  1.00  0.00    -0.033 C 
HETATM   16  C26 UNL     1      -2.312   0.704  -2.660  1.00  0.00     0.016 C 
HETATM   17  C27 UNL     1      -0.864  -1.023  -1.511  1.00  0.00     0.011 C 
HETATM   18  C28 UNL     1       0.592  -0.511  -1.509  1.00  0.00     0.011 C 
HETATM   19  C29 UNL     1       0.881   0.379  -0.287  1.00  0.00    -0.032 C 
HETATM   20  C30 UNL     1       0.727  -0.507   0.986  1.00  0.00     0.016 C 
ENDROOT
BRANCH   1  21
HETATM   21  C2  UNL     1       3.608   0.394   0.068  1.00  0.00    -0.014 C 
HETATM   22  C1  UNL     1       3.794  -0.155   1.487  1.00  0.00     0.010 C 
BRANCH  21  23
HETATM   23  C3  UNL     1       3.907  -0.685  -1.000  1.00  0.00     0.007 C 
BRANCH  23  24
HETATM   24  C4  UNL     1       5.394  -0.984  -1.232  1.00  0.00     0.035 C 
BRANCH  24  25
HETATM   25  C5  UNL     1       6.022  -1.809  -0.153  1.00  0.00     0.156 A 
HETATM   26  O1  UNL     1       7.380  -2.191  -0.443  1.00  0.00    -0.370 OA
HETATM   27  C6  UNL     1       7.199  -1.353   0.703  1.00  0.00     0.080 A 
HETATM   28  C7  UNL     1       7.802   0.009   0.555  1.00  0.00     0.048 C 
HETATM   29  C8  UNL     1       7.440  -2.049   2.007  1.00  0.00     0.048 C 
ENDBRANCH  24  25
ENDBRANCH  23  24
ENDBRANCH  21  23
ENDBRANCH   1  21
BRANCH   9  30
HETATM   30  C18 UNL     1      -4.692   0.013   1.489  1.00  0.00     0.082 C 
HETATM   31  C19 UNL     1      -5.942   0.783   1.971  1.00  0.00     0.049 C 
HETATM   32  C20 UNL     1      -4.872  -1.439   1.963  1.00  0.00     0.049 C 
BRANCH  30  33
HETATM   33  O2  UNL     1      -3.570   0.478   2.260  1.00  0.00    -0.388 OA
HETATM   34  H35 UNL     1      -3.700   1.424   2.447  1.00  0.00     0.210 HD
ENDBRANCH  30  33
ENDBRANCH   9  30
TORSDOF 6
