REMARK  5 active torsions:
REMARK  status: ('A' for Active; 'I' for Inactive)
REMARK    1  A    between atoms: C11_11  and  O1_12 
REMARK    2  A    between atoms: C14_15  and  C15_16 
REMARK    3  A    between atoms: C17_18  and  C18_19 
REMARK    4  A    between atoms: C26_31  and  O6_32 
REMARK    5  A    between atoms: C36_44  and  O9_45 
ROOT
HETATM    1  C1  UNL     1      -1.781   5.457  -0.172  1.00  0.00     0.043 C 
HETATM    2  C2  UNL     1      -1.758   4.191   0.638  1.00  0.00    -0.087 C 
HETATM    3  C3  UNL     1      -0.768   3.275   0.592  1.00  0.00    -0.022 C 
HETATM    4  C4  UNL     1       0.443   3.254  -0.303  1.00  0.00     0.059 C 
HETATM    5  C5  UNL     1       0.650   1.912  -1.034  1.00  0.00     0.131 C 
HETATM    6  C6  UNL     1      -0.532   1.509  -1.925  1.00  0.00     0.065 C 
HETATM    7  C7  UNL     1      -0.577  -0.002  -2.174  1.00  0.00     0.139 C 
HETATM    8  C8  UNL     1       0.821  -0.606  -2.044  1.00  0.00     0.101 C 
HETATM    9  C9  UNL     1       1.456  -0.307  -0.665  1.00  0.00     0.170 C 
HETATM   10  C10 UNL     1       1.216  -1.463   0.326  1.00  0.00     0.100 C 
HETATM   11  C11 UNL     1       2.405  -2.411   0.324  1.00  0.00     0.129 C 
HETATM   12  C12 UNL     1       3.689  -1.680   0.775  1.00  0.00     0.044 C 
HETATM   13  C13 UNL     1       3.938  -1.766   2.286  1.00  0.00     0.015 C 
HETATM   14  C14 UNL     1       3.632  -0.198   0.316  1.00  0.00     0.159 C 
HETATM   15  O2  UNL     1       2.866  -0.133  -0.895  1.00  0.00    -0.345 OA
HETATM   16  O3  UNL     1       0.909   0.881  -0.079  1.00  0.00    -0.349 OA
HETATM   17  O4  UNL     1      -1.469  -0.612  -1.215  1.00  0.00    -0.315 OA
HETATM   18  C21 UNL     1      -2.046  -1.790  -1.598  1.00  0.00     0.270 C 
HETATM   19  O5  UNL     1      -1.947  -2.270  -2.722  1.00  0.00    -0.264 OA
HETATM   20  C22 UNL     1      -2.732  -2.460  -0.404  1.00  0.00     0.150 C 
HETATM   21  C23 UNL     1      -2.644  -3.963  -0.592  1.00  0.00    -0.004 C 
HETATM   22  C24 UNL     1      -3.672  -4.815  -0.436  1.00  0.00    -0.056 C 
HETATM   23  C25 UNL     1      -3.528  -6.283  -0.732  1.00  0.00     0.046 C 
HETATM   24  C26 UNL     1      -5.034  -4.334  -0.024  1.00  0.00     0.179 C 
HETATM   25  C27 UNL     1      -5.067  -2.912   0.553  1.00  0.00     0.205 C 
HETATM   26  O7  UNL     1      -4.632  -2.879   1.924  1.00  0.00    -0.306 OA
HETATM   27  C28 UNL     1      -4.247  -1.600   2.200  1.00  0.00     0.293 C 
HETATM   28  O8  UNL     1      -3.989  -1.158   3.302  1.00  0.00    -0.259 OA
HETATM   29  C29 UNL     1      -4.171  -0.862   0.908  1.00  0.00     0.055 C 
HETATM   30  C30 UNL     1      -4.177   0.479   0.915  1.00  0.00     0.016 C 
HETATM   31  C31 UNL     1      -4.127   1.331  -0.250  1.00  0.00    -0.003 C 
HETATM   32  C32 UNL     1      -4.167   2.673  -0.246  1.00  0.00    -0.022 C 
HETATM   33  C33 UNL     1      -4.297   3.607   0.939  1.00  0.00     0.008 C 
HETATM   34  C34 UNL     1      -5.106   4.852   0.548  1.00  0.00     0.014 C 
HETATM   35  C35 UNL     1      -2.933   3.974   1.582  1.00  0.00     0.041 C 
HETATM   36  C36 UNL     1      -4.170  -1.910  -0.170  1.00  0.00     0.136 C 
ENDROOT
BRANCH  11  37
HETATM   37  O1  UNL     1       2.111  -3.540   1.137  1.00  0.00    -0.395 OA
HETATM   38  H16 UNL     1       2.840  -4.176   1.037  1.00  0.00     0.210 HD
ENDBRANCH  11  37
BRANCH  14  39
HETATM   39  C15 UNL     1       4.945   0.547   0.061  1.00  0.00    -0.058 C 
HETATM   40  C16 UNL     1       4.721   1.980  -0.366  1.00  0.00     0.046 C 
HETATM   41  C17 UNL     1       6.175   0.014   0.234  1.00  0.00    -0.018 C 
BRANCH  41  42
HETATM   42  C18 UNL     1       7.519   0.672   0.011  1.00  0.00     0.000 C 
HETATM   43  C19 UNL     1       8.201   0.929   1.355  1.00  0.00     0.013 C 
HETATM   44  C20 UNL     1       8.400  -0.214  -0.871  1.00  0.00     0.013 C 
ENDBRANCH  41  42
ENDBRANCH  14  39
BRANCH  36  45
HETATM   45  O9  UNL     1      -4.806  -1.493  -1.373  1.00  0.00    -0.381 OA
HETATM   46  H50 UNL     1      -5.581  -0.946  -1.146  1.00  0.00     0.211 HD
ENDBRANCH  36  45
BRANCH  24  47
HETATM   47  O6  UNL     1      -5.582  -5.233   0.939  1.00  0.00    -0.388 OA
HETATM   48  H39 UNL     1      -5.110  -5.056   1.776  1.00  0.00     0.210 HD
ENDBRANCH  24  47
TORSDOF 5
