REMARK  14 active torsions:
REMARK  status: ('A' for Active; 'I' for Inactive)
REMARK    1  A    between atoms: O1_2  and  C2_3 
REMARK    2  A    between atoms: C2_3  and  C3_4 
REMARK    3  A    between atoms: C2_3  and  C24_30 
REMARK    4  A    between atoms: C3_4  and  C5_6 
REMARK    5  A    between atoms: C6_8  and  C8_10 
REMARK    6  A    between atoms: C8_10  and  C9_11 
REMARK    7  A    between atoms: C9_11  and  O3_13 
REMARK    8  A    between atoms: C9_11  and  C11_14 
REMARK    9  A    between atoms: C12_15  and  C13_16 
REMARK   10  A    between atoms: C14_17  and  C16_19 
REMARK   11  A    between atoms: C17_21  and  C18_22 
REMARK   12  A    between atoms: C18_22  and  C19_23 
REMARK   13  A    between atoms: C19_23  and  O6_25 
REMARK   14  A    between atoms: C24_30  and  O7_32 
ROOT
HETATM    1  C9  UNL     1      -0.933   1.169  -0.457  1.00  0.00     0.075 C 
HETATM    2  C10 UNL     1      -1.477   1.848   0.803  1.00  0.00     0.050 C 
ENDROOT
BRANCH   1   3
HETATM    3  C8  UNL     1      -1.791  -0.035  -0.907  1.00  0.00     0.082 C 
BRANCH   3   4
HETATM    4  C6  UNL     1      -3.273   0.249  -1.062  1.00  0.00     0.087 A 
HETATM    5  C5  UNL     1      -4.217  -0.080   0.096  1.00  0.00     0.163 A 
HETATM    6  O2  UNL     1      -4.063  -0.955  -1.026  1.00  0.00    -0.369 OA
HETATM    7  C7  UNL     1      -3.682   1.172  -2.173  1.00  0.00     0.049 C 
BRANCH   5   8
HETATM    8  C3  UNL     1      -5.596   0.518   0.258  1.00  0.00     0.045 C 
HETATM    9  C4  UNL     1      -5.460   1.862   0.989  1.00  0.00     0.015 C 
BRANCH   8  10
HETATM   10  C2  UNL     1      -6.532  -0.463   1.025  1.00  0.00     0.155 C 
BRANCH  10  11
HETATM   11  O1  UNL     1      -7.711   0.243   1.458  1.00  0.00    -0.388 OA
HETATM   12  C1  UNL     1      -7.886   0.228   2.868  1.00  0.00     0.202 C 
ENDBRANCH  10  11
BRANCH  10  13
HETATM   13  C24 UNL     1      -6.955  -1.675   0.145  1.00  0.00     0.143 C 
HETATM   14  C25 UNL     1      -7.919  -2.611   0.867  1.00  0.00     0.042 C 
BRANCH  13  15
HETATM   15  O7  UNL     1      -7.583  -1.235  -1.062  1.00  0.00    -0.393 OA
HETATM   16  H42 UNL     1      -7.790  -2.023  -1.590  1.00  0.00     0.210 HD
ENDBRANCH  13  15
ENDBRANCH  10  13
ENDBRANCH   8  10
ENDBRANCH   5   8
ENDBRANCH   3   4
ENDBRANCH   1   3
BRANCH   1  17
HETATM   17  O3  UNL     1      -0.908   2.143  -1.502  1.00  0.00    -0.386 OA
HETATM   18  H18 UNL     1      -0.335   2.870  -1.199  1.00  0.00     0.211 HD
ENDBRANCH   1  17
BRANCH   1  19
HETATM   19  C11 UNL     1       0.482   0.687  -0.189  1.00  0.00     0.010 C 
HETATM   20  C12 UNL     1       1.554   0.877  -0.978  1.00  0.00    -0.001 C 
BRANCH  20  21
HETATM   21  C13 UNL     1       2.869   0.385  -0.630  1.00  0.00     0.005 C 
HETATM   22  C14 UNL     1       4.001   0.484  -1.359  1.00  0.00    -0.055 C 
HETATM   23  C15 UNL     1       4.112   1.138  -2.711  1.00  0.00     0.046 C 
BRANCH  22  24
HETATM   24  C16 UNL     1       5.319  -0.070  -0.829  1.00  0.00     0.154 C 
HETATM   25  O4  UNL     1       5.493   0.440   0.503  1.00  0.00    -0.375 OA
HETATM   26  C17 UNL     1       6.774   0.119   1.062  1.00  0.00     0.132 C 
HETATM   27  C20 UNL     1       6.902  -1.401   1.191  1.00  0.00     0.033 C 
HETATM   28  C21 UNL     1       6.696  -2.073  -0.163  1.00  0.00     0.009 C 
HETATM   29  C22 UNL     1       5.381  -1.615  -0.811  1.00  0.00     0.015 C 
HETATM   30  C23 UNL     1       5.239  -2.233  -2.202  1.00  0.00     0.012 C 
BRANCH  26  31
HETATM   31  C18 UNL     1       6.861   0.818   2.415  1.00  0.00     0.141 C 
BRANCH  31  32
HETATM   32  C19 UNL     1       8.221   0.698   3.029  1.00  0.00     0.141 C 
HETATM   33  O5  UNL     1       8.483   0.175   4.099  1.00  0.00    -0.650 OA
BRANCH  32  34
HETATM   34  O6  UNL     1       9.194   1.261   2.289  1.00  0.00    -0.776 OA
HETATM   35  H29 UNL     1      10.003   1.135   2.827  1.00  0.00     0.167 HD
ENDBRANCH  32  34
ENDBRANCH  31  32
ENDBRANCH  26  31
ENDBRANCH  22  24
ENDBRANCH  20  21
ENDBRANCH   1  19
TORSDOF 14
