REMARK  9 active torsions:
REMARK  status: ('A' for Active; 'I' for Inactive)
REMARK    1  A    between atoms: C2_2  and  C3_3 
REMARK    2  A    between atoms: C3_3  and  C5_5 
REMARK    3  A    between atoms: C3_3  and  C6_7 
REMARK    4  A    between atoms: C5_5  and  O1_6 
REMARK    5  A    between atoms: C7_8  and  O2_9 
REMARK    6  A    between atoms: C18_22  and  O5_23 
REMARK    7  A    between atoms: O5_23  and  C19_24 
REMARK    8  A    between atoms: C19_24  and  C20_26 
REMARK    9  A    between atoms: C29_36  and  O8_37 
ROOT
HETATM    1  C6  UNL     1      -5.434   0.612  -0.603  1.00  0.00     0.023 A 
HETATM    2  C7  UNL     1      -4.825   1.314  -1.674  1.00  0.00     0.076 A 
HETATM    3  C8  UNL     1      -3.443   1.492  -1.768  1.00  0.00     0.053 A 
HETATM    4  C9  UNL     1      -2.604   0.968  -0.786  1.00  0.00     0.034 A 
HETATM    5  C10 UNL     1      -1.151   1.177  -0.904  1.00  0.00     0.192 A 
HETATM    6  O3  UNL     1      -0.706   1.869  -1.813  1.00  0.00    -0.287 OA
HETATM    7  C11 UNL     1      -0.252   0.545   0.097  1.00  0.00     0.035 A 
HETATM    8  C12 UNL     1      -0.766  -0.109   1.149  1.00  0.00     0.131 A 
HETATM    9  O4  UNL     1      -0.008  -0.658   2.157  1.00  0.00    -0.336 OA
HETATM   10  C13 UNL     1       1.421  -0.764   2.010  1.00  0.00     0.065 C 
HETATM   11  C14 UNL     1       1.948  -0.757   3.461  1.00  0.00     0.046 C 
HETATM   12  C15 UNL     1       1.708  -2.152   1.428  1.00  0.00     0.046 C 
HETATM   13  C16 UNL     1       2.001   0.452   1.226  1.00  0.00     0.031 C 
HETATM   14  C17 UNL     1       3.527   0.458   1.017  1.00  0.00     0.041 C 
HETATM   15  C18 UNL     1       4.020  -0.279  -0.232  1.00  0.00     0.136 C 
HETATM   16  C23 UNL     1       3.293   0.186  -1.502  1.00  0.00     0.012 C 
HETATM   17  C24 UNL     1       3.669   1.608  -1.940  1.00  0.00     0.012 C 
HETATM   18  C25 UNL     1       1.778   0.029  -1.319  1.00  0.00     0.017 C 
HETATM   19  C26 UNL     1       1.231   0.766  -0.080  1.00  0.00     0.033 C 
HETATM   20  C27 UNL     1      -2.241  -0.267   1.315  1.00  0.00     0.219 A 
HETATM   21  O7  UNL     1      -2.719  -0.846   2.288  1.00  0.00    -0.284 OA
HETATM   22  C28 UNL     1      -3.146   0.274   0.284  1.00  0.00     0.065 A 
HETATM   23  C29 UNL     1      -4.550   0.100   0.376  1.00  0.00     0.091 A 
ENDROOT
BRANCH   1  24
HETATM   24  C3  UNL     1      -6.990   0.446  -0.563  1.00  0.00     0.027 C 
HETATM   25  C4  UNL     1      -7.613   1.867  -0.436  1.00  0.00     0.027 C 
BRANCH  24  26
HETATM   26  C2  UNL     1      -7.532  -0.235  -1.836  1.00  0.00    -0.021 C 
HETATM   27  C1  UNL     1      -6.933  -1.197  -2.555  1.00  0.00     0.008 C 
ENDBRANCH  24  26
BRANCH  24  28
HETATM   28  C5  UNL     1      -7.573  -0.393   0.628  1.00  0.00     0.182 C 
BRANCH  28  29
HETATM   29  O1  UNL     1      -9.008  -0.473   0.624  1.00  0.00    -0.399 OA
HETATM   30  H9  UNL     1      -9.342   0.351   1.015  1.00  0.00     0.209 HD
ENDBRANCH  28  29
ENDBRANCH  24  28
ENDBRANCH   1  24
BRANCH   2  31
HETATM   31  O2  UNL     1      -5.597   1.846  -2.673  1.00  0.00    -0.360 OA
HETATM   32  H10 UNL     1      -5.039   2.168  -3.399  1.00  0.00     0.217 HD
ENDBRANCH   2  31
BRANCH  23  33
HETATM   33  O8  UNL     1      -5.073  -0.582   1.445  1.00  0.00    -0.359 OA
HETATM   34  H36 UNL     1      -4.350  -0.872   2.049  1.00  0.00     0.217 HD
ENDBRANCH  23  33
BRANCH  15  35
HETATM   35  O5  UNL     1       5.433  -0.052  -0.393  1.00  0.00    -0.315 OA
BRANCH  35  36
HETATM   36  C19 UNL     1       6.261  -0.876   0.312  1.00  0.00     0.262 C 
HETATM   37  O6  UNL     1       5.884  -1.769   1.059  1.00  0.00    -0.265 OA
BRANCH  36  38
HETATM   38  C20 UNL     1       7.710  -0.502   0.052  1.00  0.00     0.077 C 
HETATM   39  C21 UNL     1       8.064  -0.738  -1.414  1.00  0.00     0.020 C 
HETATM   40  C22 UNL     1       8.647  -1.291   0.965  1.00  0.00     0.020 C 
ENDBRANCH  36  38
ENDBRANCH  35  36
ENDBRANCH  15  35
TORSDOF 9
