REMARK  9 active torsions:
REMARK  status: ('A' for Active; 'I' for Inactive)
REMARK    1  A    between atoms: C2_2  and  C17_19 
REMARK    2  A    between atoms: C3_3  and  C4_4 
REMARK    3  A    between atoms: C4_4  and  C5_5 
REMARK    4  A    between atoms: C5_5  and  C6_6 
REMARK    5  A    between atoms: C12_12  and  O1_13 
REMARK    6  A    between atoms: C17_19  and  C18_20 
REMARK    7  A    between atoms: C18_20  and  C19_21 
REMARK    8  A    between atoms: C23_25  and  C24_26 
REMARK    9  A    between atoms: C24_26  and  O3_29 
ROOT
HETATM    1  C1  UNL     1       0.177   0.921   1.740  1.00  0.00     0.043 C 
HETATM    2  C2  UNL     1      -0.195  -0.382   1.083  1.00  0.00    -0.087 C 
HETATM    3  C3  UNL     1      -1.426  -0.674   0.613  1.00  0.00    -0.024 C 
ENDROOT
BRANCH   2   4
HETATM    4  C17 UNL     1       0.909  -1.427   1.023  1.00  0.00     0.037 C 
BRANCH   4   5
HETATM    5  C18 UNL     1       1.835  -1.308  -0.197  1.00  0.00     0.032 C 
BRANCH   5   6
HETATM    6  C19 UNL     1       2.724  -0.090  -0.189  1.00  0.00    -0.013 C 
HETATM    7  C20 UNL     1       3.981   0.036   0.287  1.00  0.00     0.013 C 
HETATM    8  C21 UNL     1       4.718   1.331   0.142  1.00  0.00     0.047 C 
HETATM    9  C27 UNL     1       4.692  -1.084   0.958  1.00  0.00     0.289 C 
HETATM   10  C22 UNL     1       6.146   1.069  -0.294  1.00  0.00     0.040 C 
HETATM   11  C23 UNL     1       6.813   0.193   0.758  1.00  0.00     0.166 C 
HETATM   12  O4  UNL     1       6.045  -1.020   0.973  1.00  0.00    -0.309 OA
HETATM   13  O5  UNL     1       4.114  -2.044   1.451  1.00  0.00    -0.260 OA
BRANCH  11  14
HETATM   14  C24 UNL     1       8.262  -0.235   0.390  1.00  0.00     0.077 C 
HETATM   15  C25 UNL     1       8.873  -1.120   1.486  1.00  0.00     0.048 C 
HETATM   16  C26 UNL     1       9.177   0.967   0.140  1.00  0.00     0.048 C 
BRANCH  14  17
HETATM   17  O3  UNL     1       8.233  -1.007  -0.818  1.00  0.00    -0.388 OA
HETATM   18  H36 UNL     1       7.648  -1.769  -0.647  1.00  0.00     0.210 HD
ENDBRANCH  14  17
ENDBRANCH  11  14
ENDBRANCH   5   6
ENDBRANCH   4   5
ENDBRANCH   2   4
BRANCH   3  19
HETATM   19  C4  UNL     1      -2.642   0.214   0.584  1.00  0.00     0.030 C 
BRANCH  19  20
HETATM   20  C5  UNL     1      -3.126   0.427  -0.858  1.00  0.00     0.046 C 
BRANCH  20  21
HETATM   21  C6  UNL     1      -4.375   1.333  -0.986  1.00  0.00     0.082 C 
HETATM   22  C7  UNL     1      -4.080   2.767  -0.522  1.00  0.00     0.051 C 
HETATM   23  C8  UNL     1      -4.785   1.389  -2.444  1.00  0.00     0.012 C 
HETATM   24  C9  UNL     1      -5.896   0.814  -2.913  1.00  0.00     0.013 C 
HETATM   25  C10 UNL     1      -6.740   0.094  -1.971  1.00  0.00     0.000 A 
HETATM   26  C11 UNL     1      -7.853  -0.623  -2.425  1.00  0.00     0.050 A 
HETATM   27  C16 UNL     1      -6.447   0.134  -0.602  1.00  0.00     0.086 A 
HETATM   28  C12 UNL     1      -8.658  -1.292  -1.507  1.00  0.00     0.067 A 
HETATM   29  C13 UNL     1      -8.375  -1.253  -0.146  1.00  0.00     0.046 A 
HETATM   30  C14 UNL     1      -7.268  -0.534   0.323  1.00  0.00    -0.025 A 
HETATM   31  C15 UNL     1      -6.965  -0.492   1.793  1.00  0.00     0.051 C 
HETATM   32  O2  UNL     1      -5.389   0.835  -0.090  1.00  0.00    -0.335 OA
BRANCH  28  33
HETATM   33  O1  UNL     1      -9.751  -2.004  -1.907  1.00  0.00    -0.361 OA
HETATM   34  H15 UNL     1      -9.826  -1.947  -2.874  1.00  0.00     0.217 HD
ENDBRANCH  28  33
ENDBRANCH  20  21
ENDBRANCH  19  20
ENDBRANCH   3  19
TORSDOF 9
