REMARK  6 active torsions:
REMARK  status: ('A' for Active; 'I' for Inactive)
REMARK    1  A    between atoms: C2_2  and  C30_31 
REMARK    2  A    between atoms: C3_3  and  C4_4 
REMARK    3  A    between atoms: C4_4  and  C5_5 
REMARK    4  A    between atoms: C5_5  and  C6_6 
REMARK    5  A    between atoms: C6_6  and  C8_8 
REMARK    6  A    between atoms: C30_31  and  O2_32 
ROOT
HETATM    1  C8  UNL     1       1.990   1.320   1.303  1.00  0.00    -0.002 C 
HETATM    2  C9  UNL     1       1.781   2.861   1.126  1.00  0.00     0.006 C 
HETATM    3  C10 UNL     1       0.285   3.103   0.848  1.00  0.00     0.011 C 
HETATM    4  C11 UNL     1      -0.162   1.790   0.203  1.00  0.00    -0.032 C 
HETATM    5  C12 UNL     1       0.407   1.808  -1.265  1.00  0.00     0.016 C 
HETATM    6  C13 UNL     1      -1.685   1.556   0.027  1.00  0.00     0.004 C 
HETATM    7  C14 UNL     1      -2.635   1.801   1.250  1.00  0.00     0.007 C 
HETATM    8  C15 UNL     1      -3.651   0.647   1.544  1.00  0.00     0.007 C 
HETATM    9  C16 UNL     1      -4.354   0.198   0.255  1.00  0.00     0.010 C 
HETATM   10  C17 UNL     1      -5.318  -0.985   0.160  1.00  0.00     0.018 C 
HETATM   11  C18 UNL     1      -6.522  -0.790   1.090  1.00  0.00     0.023 C 
HETATM   12  C19 UNL     1      -4.638  -2.318   0.487  1.00  0.00     0.023 C 
HETATM   13  C20 UNL     1      -5.830  -1.000  -1.308  1.00  0.00     0.135 C 
HETATM   14  O1  UNL     1      -6.454  -1.967  -1.755  1.00  0.00    -0.297 OA
HETATM   15  C21 UNL     1      -5.647   0.265  -2.177  1.00  0.00     0.080 C 
HETATM   16  C22 UNL     1      -4.270   0.965  -2.041  1.00  0.00     0.018 C 
HETATM   17  C23 UNL     1      -3.471   0.228  -0.978  1.00  0.00    -0.026 A 
HETATM   18  C24 UNL     1      -2.402  -0.495  -1.733  1.00  0.00     0.021 A 
HETATM   19  C25 UNL     1      -1.944   0.146  -0.482  1.00  0.00    -0.027 A 
HETATM   20  C26 UNL     1      -1.204  -0.954   0.320  1.00  0.00     0.011 C 
HETATM   21  C27 UNL     1       0.304  -0.658   0.512  1.00  0.00     0.011 C 
HETATM   22  C28 UNL     1       0.535   0.731   1.134  1.00  0.00    -0.032 C 
HETATM   23  C29 UNL     1       0.007   0.650   2.603  1.00  0.00     0.016 C 
ENDROOT
BRANCH   1  24
HETATM   24  C6  UNL     1       3.138   0.665   0.476  1.00  0.00    -0.014 C 
HETATM   25  C7  UNL     1       4.380   1.571   0.407  1.00  0.00     0.010 C 
BRANCH  24  26
HETATM   26  C5  UNL     1       3.553  -0.696   1.106  1.00  0.00     0.008 C 
BRANCH  26  27
HETATM   27  C4  UNL     1       3.849  -1.808   0.089  1.00  0.00     0.028 C 
BRANCH  27  28
HETATM   28  C3  UNL     1       5.043  -1.547  -0.785  1.00  0.00    -0.022 C 
HETATM   29  C2  UNL     1       6.302  -1.996  -0.604  1.00  0.00    -0.064 C 
HETATM   30  C1  UNL     1       6.756  -2.819   0.573  1.00  0.00     0.045 C 
BRANCH  29  31
HETATM   31  C30 UNL     1       7.391  -1.662  -1.591  1.00  0.00     0.197 C 
BRANCH  31  32
HETATM   32  O2  UNL     1       7.852  -2.857  -2.203  1.00  0.00    -0.397 OA
HETATM   33  H48 UNL     1       7.059  -3.342  -2.491  1.00  0.00     0.209 HD
ENDBRANCH  31  32
ENDBRANCH  29  31
ENDBRANCH  27  28
ENDBRANCH  26  27
ENDBRANCH  24  26
ENDBRANCH   1  24
TORSDOF 6
