REMARK  13 active torsions:
REMARK  status: ('A' for Active; 'I' for Inactive)
REMARK    1  A    between atoms: O1_2  and  C2_3 
REMARK    2  A    between atoms: C2_3  and  C3_4 
REMARK    3  A    between atoms: C3_4  and  C4_5 
REMARK    4  A    between atoms: C4_5  and  N1_6 
REMARK    5  A    between atoms: N1_6  and  C5_7 
REMARK    6  A    between atoms: C5_7  and  C6_8 
REMARK    7  A    between atoms: C10_12  and  O2_13 
REMARK    8  A    between atoms: C16_19  and  O3_20 
REMARK    9  A    between atoms: C20_24  and  C21_25 
REMARK   10  A    between atoms: C21_25  and  C23_27 
REMARK   11  A    between atoms: C31_35  and  O4_36 
REMARK   12  A    between atoms: C34_39  and  C35_40 
REMARK   13  A    between atoms: C36_42  and  O6_43 
ROOT
HETATM    1  C6  UNL     1       5.266   0.171   0.820  1.00  0.00    -0.022 C 
HETATM    2  C7  UNL     1       4.022   0.648   0.567  1.00  0.00    -0.014 C 
HETATM    3  C8  UNL     1       3.087  -0.092  -0.356  1.00  0.00     0.021 C 
HETATM    4  C9  UNL     1       1.573  -0.020  -0.138  1.00  0.00     0.051 C 
HETATM    5  C10 UNL     1       1.072  -1.033  -1.195  1.00  0.00     0.098 C 
HETATM    6  C11 UNL     1       2.064  -2.249  -1.010  1.00  0.00    -0.002 C 
HETATM    7  C12 UNL     1       2.352  -2.996  -2.318  1.00  0.00     0.019 C 
HETATM    8  C13 UNL     1       1.496  -3.254   0.036  1.00  0.00     0.013 C 
HETATM    9  C14 UNL     1       0.047  -3.647  -0.194  1.00  0.00     0.010 C 
HETATM   10  C15 UNL     1      -0.886  -2.417  -0.132  1.00  0.00     0.041 C 
HETATM   11  C16 UNL     1      -0.458  -1.397  -1.200  1.00  0.00     0.095 C 
HETATM   12  C17 UNL     1      -1.348  -0.137  -1.172  1.00  0.00     0.049 C 
HETATM   13  C18 UNL     1      -2.620  -0.229  -0.288  1.00  0.00     0.025 C 
HETATM   14  C19 UNL     1      -3.419   1.076  -0.542  1.00  0.00     0.012 C 
HETATM   15  C20 UNL     1      -4.805   1.303   0.106  1.00  0.00    -0.010 C 
HETATM   16  C28 UNL     1      -4.937   0.662   1.500  1.00  0.00     0.005 C 
HETATM   17  C29 UNL     1      -4.730  -0.854   1.607  1.00  0.00     0.010 C 
HETATM   18  C30 UNL     1      -4.739  -1.609   0.271  1.00  0.00     0.050 C 
HETATM   19  C31 UNL     1      -5.231  -3.050   0.445  1.00  0.00     0.125 C 
HETATM   20  C32 UNL     1      -4.277  -3.916   1.253  1.00  0.00     0.033 C 
HETATM   21  C33 UNL     1      -2.810  -3.485   1.131  1.00  0.00     0.023 C 
HETATM   22  C34 UNL     1      -2.427  -2.820  -0.223  1.00  0.00     0.051 C 
HETATM   23  C36 UNL     1      -3.380  -1.564  -0.517  1.00  0.00     0.082 C 
HETATM   24  C37 UNL     1       3.346  -1.611  -0.346  1.00  0.00     0.036 C 
HETATM   25  C38 UNL     1       4.786  -1.764  -0.715  1.00  0.00    -0.035 C 
HETATM   26  C39 UNL     1       5.433  -2.175  -1.797  1.00  0.00     0.088 C 
HETATM   27  C40 UNL     1       6.835  -1.808  -1.594  1.00  0.00     0.284 C 
HETATM   28  O7  UNL     1       7.728  -2.059  -2.389  1.00  0.00    -0.260 OA
HETATM   29  O8  UNL     1       6.975  -1.130  -0.421  1.00  0.00    -0.304 OA
HETATM   30  C41 UNL     1       5.741  -1.180   0.280  1.00  0.00     0.192 C 
ENDROOT
BRANCH   1  31
HETATM   31  C5  UNL     1       6.219   0.886   1.740  1.00  0.00     0.306 C 
BRANCH  31  32
HETATM   32  N1  UNL     1       7.208   1.609   0.948  1.00  0.00     0.087 N 
HETATM   33  H10 UNL     1       6.752   2.359   0.427  1.00  0.00     0.316 HD
BRANCH  32  34
HETATM   34  C4  UNL     1       8.284   2.142   1.776  1.00  0.00     0.272 C 
BRANCH  34  35
HETATM   35  C3  UNL     1       9.279   2.953   0.940  1.00  0.00     0.056 C 
BRANCH  35  36
HETATM   36  C2  UNL     1       9.932   2.141  -0.178  1.00  0.00     0.168 C 
BRANCH  36  37
HETATM   37  O1  UNL     1      10.866   2.959  -0.886  1.00  0.00    -0.396 OA
HETATM   38  C1  UNL     1      12.183   2.864  -0.358  1.00  0.00     0.201 C 
ENDBRANCH  36  37
ENDBRANCH  35  36
ENDBRANCH  34  35
ENDBRANCH  32  34
ENDBRANCH  31  32
ENDBRANCH   1  31
BRANCH   5  39
HETATM   39  O2  UNL     1       1.326  -0.432  -2.495  1.00  0.00    -0.386 OA
HETATM   40  H17 UNL     1       0.849   0.418  -2.536  1.00  0.00     0.210 HD
ENDBRANCH   5  39
BRANCH  11  41
HETATM   41  O3  UNL     1      -0.708  -2.031  -2.475  1.00  0.00    -0.386 OA
HETATM   42  H26 UNL     1      -0.091  -1.621  -3.112  1.00  0.00     0.210 HD
ENDBRANCH  11  41
BRANCH  22  43
HETATM   43  C35 UNL     1      -2.562  -3.896  -1.324  1.00  0.00     0.244 C 
HETATM   44  O5  UNL     1      -2.608  -5.107  -1.099  1.00  0.00    -0.306 OA
ENDBRANCH  22  43
BRANCH  23  45
HETATM   45  O6  UNL     1      -3.748  -1.553  -1.912  1.00  0.00    -0.388 OA
HETATM   46  H58 UNL     1      -4.455  -2.226  -2.024  1.00  0.00     0.210 HD
ENDBRANCH  23  45
BRANCH  15  47
HETATM   47  C21 UNL     1      -5.193   2.841   0.124  1.00  0.00    -0.011 C 
HETATM   48  C22 UNL     1      -4.899   3.506  -1.236  1.00  0.00     0.011 C 
BRANCH  47  49
HETATM   49  C23 UNL     1      -6.684   3.045   0.554  1.00  0.00    -0.010 C 
HETATM   50  C24 UNL     1      -7.485   4.138  -0.169  1.00  0.00     0.005 C 
HETATM   51  C25 UNL     1      -8.735   4.300   0.691  1.00  0.00     0.000 C 
HETATM   52  C26 UNL     1      -8.287   3.981   2.119  1.00  0.00     0.000 C 
HETATM   53  C27 UNL     1      -6.836   3.510   2.013  1.00  0.00     0.005 C 
ENDBRANCH  47  49
ENDBRANCH  15  47
BRANCH  19  54
HETATM   54  O4  UNL     1      -5.385  -3.592  -0.871  1.00  0.00    -0.395 OA
HETATM   55  H52 UNL     1      -6.011  -4.344  -0.820  1.00  0.00     0.210 HD
ENDBRANCH  19  54
TORSDOF 13
