REMARK  4 active torsions:
REMARK  status: ('A' for Active; 'I' for Inactive)
REMARK    1  A    between atoms: C4_4  and  C5_5 
REMARK    2  A    between atoms: C5_5  and  C6_6 
REMARK    3  A    between atoms: C6_6  and  C7_7 
REMARK    4  A    between atoms: C7_7  and  C9_9 
ROOT
HETATM    1  C9  UNL     1      -1.822  -0.147  -0.745  1.00  0.00    -0.002 C 
HETATM    2  C10 UNL     1      -1.867   1.415  -0.815  1.00  0.00     0.006 C 
HETATM    3  C11 UNL     1      -0.623   1.959  -0.084  1.00  0.00     0.011 C 
HETATM    4  C12 UNL     1       0.287   0.736   0.086  1.00  0.00    -0.032 C 
HETATM    5  C13 UNL     1       1.022   0.552  -1.279  1.00  0.00     0.016 C 
HETATM    6  C14 UNL     1       1.328   0.803   1.242  1.00  0.00     0.004 C 
HETATM    7  C15 UNL     1       2.280   2.004   1.228  1.00  0.00     0.007 C 
HETATM    8  C16 UNL     1       3.579   1.894   0.437  1.00  0.00     0.007 C 
HETATM    9  C17 UNL     1       4.128   0.494   0.100  1.00  0.00     0.010 C 
HETATM   10  C18 UNL     1       5.692   0.381   0.178  1.00  0.00     0.018 C 
HETATM   11  C19 UNL     1       6.347   1.323  -0.847  1.00  0.00     0.023 C 
HETATM   12  C20 UNL     1       6.262   0.676   1.579  1.00  0.00     0.023 C 
HETATM   13  C21 UNL     1       6.118  -1.051  -0.187  1.00  0.00     0.135 C 
HETATM   14  O1  UNL     1       7.285  -1.435  -0.080  1.00  0.00    -0.297 OA
HETATM   15  C22 UNL     1       5.058  -1.966  -0.745  1.00  0.00     0.080 C 
HETATM   16  C23 UNL     1       3.879  -2.044   0.212  1.00  0.00     0.018 C 
HETATM   17  C24 UNL     1       3.467  -0.694   0.801  1.00  0.00    -0.026 A 
HETATM   18  C25 UNL     1       3.242  -0.634   2.297  1.00  0.00     0.021 A 
HETATM   19  C26 UNL     1       2.046  -0.548   1.374  1.00  0.00    -0.027 A 
HETATM   20  C27 UNL     1       1.094  -1.749   1.463  1.00  0.00     0.011 C 
HETATM   21  C28 UNL     1      -0.038  -1.740   0.417  1.00  0.00     0.011 C 
HETATM   22  C29 UNL     1      -0.785  -0.392   0.399  1.00  0.00    -0.032 C 
HETATM   23  C30 UNL     1      -1.521  -0.220   1.766  1.00  0.00     0.016 C 
ENDROOT
BRANCH   1  24
HETATM   24  C7  UNL     1      -3.256  -0.761  -0.668  1.00  0.00    -0.014 C 
HETATM   25  C8  UNL     1      -3.226  -2.290  -0.564  1.00  0.00     0.010 C 
BRANCH  24  26
HETATM   26  C6  UNL     1      -4.081  -0.325  -1.914  1.00  0.00     0.008 C 
BRANCH  26  27
HETATM   27  C5  UNL     1      -5.547  -0.776  -1.964  1.00  0.00     0.028 C 
BRANCH  27  28
HETATM   28  C4  UNL     1      -6.355  -0.357  -0.766  1.00  0.00    -0.025 C 
HETATM   29  C2  UNL     1      -7.095   0.762  -0.638  1.00  0.00    -0.091 C 
HETATM   30  C1  UNL     1      -7.186   1.851  -1.670  1.00  0.00     0.042 C 
HETATM   31  C3  UNL     1      -7.905   1.013   0.607  1.00  0.00     0.042 C 
ENDBRANCH  27  28
ENDBRANCH  26  27
ENDBRANCH  24  26
ENDBRANCH   1  24
TORSDOF 4
