REMARK  7 active torsions:
REMARK  status: ('A' for Active; 'I' for Inactive)
REMARK    1  A    between atoms: C6_7  and  O2_8 
REMARK    2  A    between atoms: C11_15  and  C13_17 
REMARK    3  A    between atoms: C26_34  and  C27_35 
REMARK    4  A    between atoms: C27_35  and  C28_36 
REMARK    5  A    between atoms: C32_40  and  C33_41 
REMARK    6  A    between atoms: C33_41  and  N2_42 
REMARK    7  A    between atoms: C33_41  and  N3_43 
ROOT
HETATM    1  C1  UNL     1       8.957   3.698   0.373  1.00  0.00     0.077 C 
HETATM    2  C2  UNL     1       7.464   3.592   0.355  1.00  0.00     0.053 A 
HETATM    3  C3  UNL     1       6.665   4.667   0.398  1.00  0.00     0.088 A 
HETATM    4  C4  UNL     1       5.207   4.480   0.372  1.00  0.00     0.190 A 
HETATM    5  O1  UNL     1       4.438   5.434   0.401  1.00  0.00    -0.287 OA
HETATM    6  C5  UNL     1       4.711   3.098   0.305  1.00  0.00     0.082 A 
HETATM    7  C6  UNL     1       3.338   2.804   0.278  1.00  0.00     0.092 A 
HETATM    8  C7  UNL     1       2.882   1.472   0.226  1.00  0.00     0.016 A 
HETATM    9  C8  UNL     1       3.852   0.465   0.089  1.00  0.00     0.082 A 
HETATM   10  C9  UNL     1       5.219   0.756   0.140  1.00  0.00     0.075 A 
HETATM   11  C10 UNL     1       5.647   2.073   0.255  1.00  0.00     0.095 A 
HETATM   12  O3  UNL     1       7.002   2.288   0.283  1.00  0.00    -0.314 OA
HETATM   13  O4  UNL     1       3.568  -0.857  -0.128  1.00  0.00    -0.337 OA
HETATM   14  C11 UNL     1       2.271  -1.135  -0.700  1.00  0.00     0.095 C 
HETATM   15  C12 UNL     1       2.271  -0.686  -2.180  1.00  0.00     0.050 C 
HETATM   16  C18 UNL     1       1.205  -0.415   0.167  1.00  0.00     0.175 C 
HETATM   17  O5  UNL     1      -0.151  -0.846  -0.081  1.00  0.00    -0.310 OA
HETATM   18  C19 UNL     1      -0.891  -0.257  -1.050  1.00  0.00     0.297 C 
HETATM   19  O6  UNL     1      -0.477   0.303  -2.050  1.00  0.00    -0.262 OA
HETATM   20  C20 UNL     1      -2.317  -0.216  -0.627  1.00  0.00     0.175 A 
HETATM   21  C21 UNL     1      -2.826   1.002   0.128  1.00  0.00     0.051 C 
HETATM   22  C22 UNL     1      -1.718   1.968   0.585  1.00  0.00     0.004 C 
HETATM   23  C23 UNL     1      -0.824   1.391   1.695  1.00  0.00     0.001 C 
HETATM   24  C24 UNL     1       0.676   1.695   1.525  1.00  0.00     0.012 C 
HETATM   25  C25 UNL     1       1.393   1.127   0.255  1.00  0.00     0.057 C 
HETATM   26  O7  UNL     1      -3.244  -0.651  -1.642  1.00  0.00    -0.358 OA
HETATM   27  C26 UNL     1      -3.051  -1.572  -0.568  1.00  0.00     0.172 A 
ENDROOT
BRANCH  27  28
HETATM   28  C27 UNL     1      -4.218  -1.848   0.331  1.00  0.00     0.074 C 
BRANCH  28  29
HETATM   29  C28 UNL     1      -5.558  -1.484  -0.259  1.00  0.00    -0.055 A 
HETATM   30  C29 UNL     1      -6.085  -2.209  -1.335  1.00  0.00     0.007 A 
HETATM   31  C30 UNL     1      -7.323  -1.871  -1.877  1.00  0.00     0.001 A 
HETATM   32  C31 UNL     1      -8.048  -0.800  -1.353  1.00  0.00     0.011 A 
HETATM   33  C32 UNL     1      -7.543  -0.047  -0.281  1.00  0.00     0.004 A 
HETATM   34  C34 UNL     1      -6.298  -0.413   0.264  1.00  0.00     0.018 A 
BRANCH  33  35
HETATM   35  C33 UNL     1      -8.361   1.093   0.282  1.00  0.00     0.479 C 
BRANCH  35  36
HETATM   36  N2  UNL     1      -9.103   0.700   1.446  1.00  0.00     0.116 N 
HETATM   37  H37 UNL     1      -9.557  -0.189   1.253  1.00  0.00     0.316 HD
HETATM   38  H38 UNL     1      -8.412   0.506   2.167  1.00  0.00     0.316 HD
ENDBRANCH  35  36
BRANCH  35  39
HETATM   39  N3  UNL     1      -7.561   2.176   0.786  1.00  0.00     0.116 N 
HETATM   40  H39 UNL     1      -7.126   2.645  -0.005  1.00  0.00     0.316 HD
HETATM   41  H40 UNL     1      -8.210   2.842   1.198  1.00  0.00     0.316 HD
ENDBRANCH  35  39
ENDBRANCH  33  35
ENDBRANCH  28  29
ENDBRANCH  27  28
BRANCH  14  42
HETATM   42  C13 UNL     1       2.088  -2.702  -0.650  1.00  0.00     0.026 C 
HETATM   43  C14 UNL     1       1.920  -3.251   0.788  1.00  0.00     0.037 C 
HETATM   44  C15 UNL     1       2.182  -4.753   0.848  1.00  0.00     0.270 C 
HETATM   45  N1  UNL     1       3.557  -5.101   0.497  1.00  0.00     0.083 N 
HETATM   46  C16 UNL     1       4.195  -4.144  -0.404  1.00  0.00     0.270 C 
HETATM   47  H15 UNL     1       3.573  -6.035   0.088  1.00  0.00     0.315 HD
HETATM   48  C17 UNL     1       3.214  -3.488  -1.373  1.00  0.00     0.037 C 
ENDBRANCH  14  42
BRANCH   7  49
HETATM   49  O2  UNL     1       2.403   3.809   0.261  1.00  0.00    -0.359 OA
HETATM   50  H5  UNL     1       2.868   4.676   0.301  1.00  0.00     0.217 HD
ENDBRANCH   7  49
TORSDOF 7
