REMARK  8 active torsions:
REMARK  status: ('A' for Active; 'I' for Inactive)
REMARK    1  A    between atoms: C12_14  and  C13_15 
REMARK    2  A    between atoms: C13_15  and  C15_17 
REMARK    3  A    between atoms: C15_17  and  C16_18 
REMARK    4  A    between atoms: C16_18  and  C17_19 
REMARK    5  A    between atoms: C26_28  and  C27_29 
REMARK    6  A    between atoms: C27_29  and  C28_30 
REMARK    7  A    between atoms: C28_30  and  C29_31 
REMARK    8  A    between atoms: C29_31  and  O4_33 
ROOT
HETATM    1  C1  UNL     1      -6.656   2.298  -0.778  1.00  0.00     0.025 C 
HETATM    2  C2  UNL     1      -5.432   2.384  -0.246  1.00  0.00     0.015 C 
HETATM    3  C3  UNL     1      -4.572   3.577  -0.413  1.00  0.00     0.289 C 
HETATM    4  O1  UNL     1      -4.760   4.503  -1.179  1.00  0.00    -0.260 OA
HETATM    5  O2  UNL     1      -3.514   3.446   0.431  1.00  0.00    -0.311 OA
HETATM    6  C4  UNL     1      -3.741   2.340   1.315  1.00  0.00     0.142 C 
HETATM    7  C5  UNL     1      -2.425   1.696   1.729  1.00  0.00     0.039 C 
HETATM    8  C6  UNL     1      -1.669   1.131   0.518  1.00  0.00     0.006 C 
HETATM    9  C7  UNL     1      -2.520   0.051  -0.190  1.00  0.00    -0.027 A 
HETATM   10  C8  UNL     1      -1.907  -1.348  -0.278  1.00  0.00     0.011 C 
HETATM   11  C9  UNL     1      -0.403  -1.421  -0.606  1.00  0.00     0.011 C 
HETATM   12  C10 UNL     1       0.368  -0.107  -0.402  1.00  0.00    -0.032 C 
HETATM   13  C11 UNL     1       0.278   0.716  -1.723  1.00  0.00     0.016 C 
HETATM   14  C12 UNL     1       1.876  -0.238   0.000  1.00  0.00    -0.002 C 
HETATM   15  C21 UNL     1       2.155   1.121   0.707  1.00  0.00     0.006 C 
HETATM   16  C22 UNL     1       0.798   1.755   1.058  1.00  0.00     0.011 C 
HETATM   17  C23 UNL     1      -0.233   0.630   0.850  1.00  0.00    -0.032 C 
HETATM   18  C24 UNL     1      -0.228  -0.210   2.167  1.00  0.00     0.016 C 
HETATM   19  C25 UNL     1      -3.303   0.501  -1.405  1.00  0.00     0.022 A 
HETATM   20  C26 UNL     1      -4.069   0.210  -0.132  1.00  0.00    -0.021 A 
HETATM   21  C30 UNL     1      -4.710   1.399   0.611  1.00  0.00     0.063 C 
ENDROOT
BRANCH  14  22
HETATM   22  C13 UNL     1       2.951  -0.577  -1.080  1.00  0.00    -0.014 C 
HETATM   23  C14 UNL     1       2.661  -1.911  -1.777  1.00  0.00     0.010 C 
BRANCH  22  24
HETATM   24  C15 UNL     1       4.370  -0.600  -0.438  1.00  0.00     0.008 C 
BRANCH  24  25
HETATM   25  C16 UNL     1       5.500  -0.895  -1.432  1.00  0.00     0.028 C 
BRANCH  25  26
HETATM   26  C17 UNL     1       6.925  -0.578  -1.048  1.00  0.00    -0.025 C 
HETATM   27  C18 UNL     1       7.523  -0.342   0.137  1.00  0.00    -0.091 C 
HETATM   28  C19 UNL     1       8.989   0.018   0.182  1.00  0.00     0.042 C 
HETATM   29  C20 UNL     1       6.873  -0.415   1.489  1.00  0.00     0.042 C 
ENDBRANCH  25  26
ENDBRANCH  24  25
ENDBRANCH  22  24
ENDBRANCH  14  22
BRANCH  20  30
HETATM   30  C27 UNL     1      -4.976  -1.025  -0.176  1.00  0.00     0.021 C 
BRANCH  30  31
HETATM   31  C28 UNL     1      -5.108  -1.727   1.175  1.00  0.00     0.111 C 
BRANCH  31  32
HETATM   32  C29 UNL     1      -5.892  -3.004   1.045  1.00  0.00     0.139 C 
HETATM   33  O3  UNL     1      -6.584  -3.356   0.106  1.00  0.00    -0.650 OA
BRANCH  32  34
HETATM   34  O4  UNL     1      -5.777  -3.779   2.141  1.00  0.00    -0.776 OA
HETATM   35  H43 UNL     1      -6.332  -4.562   1.938  1.00  0.00     0.167 HD
ENDBRANCH  32  34
ENDBRANCH  31  32
ENDBRANCH  30  31
ENDBRANCH  20  30
TORSDOF 8
