REMARK  8 active torsions:
REMARK  status: ('A' for Active; 'I' for Inactive)
REMARK    1  A    between atoms: C10_11  and  C11_12 
REMARK    2  A    between atoms: C29_32  and  C30_33 
REMARK    3  A    between atoms: C29_32  and  C31_35 
REMARK    4  A    between atoms: C30_33  and  O1_34 
REMARK    5  A    between atoms: C31_35  and  O3_37 
REMARK    6  A    between atoms: C38_45  and  O4_46 
REMARK    7  A    between atoms: C41_49  and  C42_50 
REMARK    8  A    between atoms: C42_50  and  O6_52 
ROOT
HETATM    1  C11 UNL     1      -1.761  -0.062  -1.033  1.00  0.00     0.070 C 
HETATM    2  C12 UNL     1      -1.976   1.270  -0.272  1.00  0.00     0.026 C 
HETATM    3  C13 UNL     1      -3.374   1.967  -0.315  1.00  0.00     0.039 C 
HETATM    4  C14 UNL     1      -4.165   1.681  -1.591  1.00  0.00    -0.051 C 
HETATM    5  C15 UNL     1      -3.911   2.384  -2.715  1.00  0.00    -0.026 C 
HETATM    6  C16 UNL     1      -4.626   2.289  -4.027  1.00  0.00     0.036 C 
HETATM    7  C17 UNL     1      -5.259   0.633  -1.481  1.00  0.00     0.306 C 
HETATM    8  N2  UNL     1      -5.079  -0.290  -0.372  1.00  0.00     0.094 N 
HETATM    9  C18 UNL     1      -6.143  -1.284  -0.305  1.00  0.00     0.310 C 
HETATM   10  C19 UNL     1      -4.727   0.263   0.961  1.00  0.00     0.248 C 
HETATM   11  C20 UNL     1      -3.702  -0.676   1.680  1.00  0.00     0.079 C 
HETATM   12  C21 UNL     1      -2.878  -1.616   0.844  1.00  0.00    -0.020 A 
HETATM   13  C22 UNL     1      -2.066  -1.328  -0.248  1.00  0.00     0.025 A 
HETATM   14  N3  UNL     1      -1.524  -2.532  -0.661  1.00  0.00    -0.358 N 
HETATM   15  C23 UNL     1      -1.931  -3.572   0.133  1.00  0.00     0.043 A 
HETATM   16  C24 UNL     1      -1.602  -4.932   0.072  1.00  0.00     0.030 A 
HETATM   17  C25 UNL     1      -2.186  -5.781   1.015  1.00  0.00     0.002 A 
HETATM   18  C26 UNL     1      -3.054  -5.282   1.982  1.00  0.00     0.001 A 
HETATM   19  C27 UNL     1      -3.358  -3.916   2.032  1.00  0.00     0.014 A 
HETATM   20  C28 UNL     1      -2.788  -3.036   1.085  1.00  0.00    -0.001 A 
HETATM   21  C29 UNL     1      -4.284   1.757   0.932  1.00  0.00     0.107 C 
HETATM   22  H28 UNL     1      -0.887  -2.634  -1.439  1.00  0.00     0.166 HD
ENDROOT
BRANCH   1  23
HETATM   23  C10 UNL     1      -0.323  -0.111  -1.582  1.00  0.00    -0.048 A 
HETATM   24  C9  UNL     1       0.783   0.052  -0.733  1.00  0.00     0.018 A 
HETATM   25  C8  UNL     1       2.063  -0.086  -1.256  1.00  0.00    -0.017 A 
HETATM   26  C7  UNL     1       3.389   0.173  -0.578  1.00  0.00     0.061 C 
HETATM   27  C35 UNL     1       2.271  -0.402  -2.598  1.00  0.00     0.039 A 
HETATM   28  C6  UNL     1       3.645   1.706  -0.563  1.00  0.00     0.050 C 
HETATM   29  C37 UNL     1       4.426  -0.369  -1.668  1.00  0.00     0.273 C 
HETATM   30  C41 UNL     1       3.602  -0.533   0.779  1.00  0.00     0.111 C 
HETATM   31  C5  UNL     1       4.729   1.947  -1.594  1.00  0.00     0.277 C 
HETATM   32  N1  UNL     1       5.468   0.686  -1.693  1.00  0.00     0.125 N 
HETATM   33  C4  UNL     1       6.505   0.579  -0.661  1.00  0.00     0.310 C 
HETATM   34  C3  UNL     1       6.040   0.354   0.772  1.00  0.00    -0.051 C 
HETATM   35  C2  UNL     1       6.424   1.102   1.828  1.00  0.00    -0.026 C 
HETATM   36  C40 UNL     1       5.107  -0.841   1.013  1.00  0.00     0.033 C 
HETATM   37  C1  UNL     1       7.317   2.302   1.852  1.00  0.00     0.036 C 
HETATM   38  C39 UNL     1       5.499  -2.018   0.114  1.00  0.00     0.046 C 
HETATM   39  C38 UNL     1       5.013  -1.818  -1.324  1.00  0.00     0.179 C 
HETATM   40  N4  UNL     1       3.611  -0.611  -2.903  1.00  0.00    -0.347 N 
HETATM   41  C36 UNL     1       4.137  -0.299  -4.214  1.00  0.00     0.152 C 
HETATM   42  C34 UNL     1       1.190  -0.545  -3.451  1.00  0.00     0.030 A 
HETATM   43  C33 UNL     1      -0.105  -0.398  -2.945  1.00  0.00     0.010 A 
BRANCH  39  44
HETATM   44  O4  UNL     1       4.037  -2.852  -1.574  1.00  0.00    -0.391 OA
HETATM   45  H45 UNL     1       3.528  -2.510  -2.341  1.00  0.00     0.210 HD
ENDBRANCH  39  44
BRANCH  30  46
HETATM   46  C42 UNL     1       2.970   0.153   1.983  1.00  0.00     0.264 C 
HETATM   47  O5  UNL     1       2.367   1.217   1.970  1.00  0.00    -0.265 OA
BRANCH  46  48
HETATM   48  O6  UNL     1       3.117  -0.623   3.098  1.00  0.00    -0.326 OA
HETATM   49  C43 UNL     1       2.501  -0.083   4.269  1.00  0.00     0.213 C 
ENDBRANCH  46  48
ENDBRANCH  30  46
ENDBRANCH   1  23
BRANCH  21  50
HETATM   50  C30 UNL     1      -5.494   2.750   0.862  1.00  0.00     0.186 C 
BRANCH  50  51
HETATM   51  O1  UNL     1      -6.482   2.476   1.853  1.00  0.00    -0.399 OA
HETATM   52  H35 UNL     1      -7.183   3.145   1.750  1.00  0.00     0.209 HD
ENDBRANCH  50  51
ENDBRANCH  21  50
BRANCH  21  53
HETATM   53  C31 UNL     1      -3.570   2.251   2.198  1.00  0.00     0.272 C 
HETATM   54  O2  UNL     1      -2.699   3.112   2.196  1.00  0.00    -0.264 OA
BRANCH  53  55
HETATM   55  O3  UNL     1      -4.075   1.691   3.335  1.00  0.00    -0.326 OA
HETATM   56  C32 UNL     1      -3.470   2.161   4.540  1.00  0.00     0.213 C 
ENDBRANCH  53  55
ENDBRANCH  21  53
TORSDOF 8
