REMARK  7 active torsions:
REMARK  status: ('A' for Active; 'I' for Inactive)
REMARK    1  A    between atoms: C3_3  and  C5_5 
REMARK    2  A    between atoms: C6_6  and  C7_7 
REMARK    3  A    between atoms: C8_8  and  C9_9 
REMARK    4  A    between atoms: C10_10  and  C12_12 
REMARK    5  A    between atoms: C12_12  and  C13_14 
REMARK    6  A    between atoms: C13_14  and  C15_16 
REMARK    7  A    between atoms: C15_16  and  O2_17 
ROOT
HETATM    1  C5  UNL     1      -2.145   0.791  -0.774  1.00  0.00     0.058 C 
HETATM    2  C6  UNL     1      -1.033   0.298   0.213  1.00  0.00     0.024 C 
HETATM    3  C16 UNL     1      -1.566  -0.847   1.126  1.00  0.00     0.003 C 
HETATM    4  C17 UNL     1      -0.536  -1.244   2.209  1.00  0.00     0.041 C 
HETATM    5  C18 UNL     1      -0.928  -2.468   2.976  1.00  0.00     0.157 A 
HETATM    6  O3  UNL     1      -0.560  -3.696   2.320  1.00  0.00    -0.370 OA
HETATM    7  C19 UNL     1      -1.961  -3.435   2.453  1.00  0.00     0.084 A 
HETATM    8  C20 UNL     1      -2.653  -4.365   3.398  1.00  0.00     0.049 C 
HETATM    9  C21 UNL     1      -2.666  -3.128   1.165  1.00  0.00     0.048 C 
HETATM   10  C22 UNL     1      -1.932  -2.096   0.287  1.00  0.00     0.025 C 
HETATM   11  C23 UNL     1      -2.775  -1.757  -0.910  1.00  0.00     0.162 A 
HETATM   12  O4  UNL     1      -2.001  -1.343  -2.053  1.00  0.00    -0.368 OA
HETATM   13  C24 UNL     1      -2.861  -0.355  -1.472  1.00  0.00     0.092 A 
HETATM   14  C25 UNL     1      -4.053  -0.011  -2.315  1.00  0.00     0.049 C 
ENDROOT
BRANCH   2  15
HETATM   15  C7  UNL     1      -0.532   1.465   1.057  1.00  0.00    -0.021 C 
HETATM   16  C8  UNL     1       0.707   1.981   1.125  1.00  0.00    -0.003 C 
BRANCH  16  17
HETATM   17  C9  UNL     1       1.858   1.545   0.362  1.00  0.00     0.010 C 
HETATM   18  C10 UNL     1       3.126   1.965   0.528  1.00  0.00    -0.016 C 
HETATM   19  C11 UNL     1       3.613   2.959   1.544  1.00  0.00     0.052 C 
BRANCH  18  20
HETATM   20  C12 UNL     1       4.219   1.449  -0.378  1.00  0.00     0.161 C 
HETATM   21  O1  UNL     1       5.154   2.210  -0.642  1.00  0.00    -0.292 OA
BRANCH  20  22
HETATM   22  C13 UNL     1       4.132   0.037  -0.975  1.00  0.00     0.080 C 
HETATM   23  C14 UNL     1       5.352  -0.245  -1.859  1.00  0.00     0.020 C 
BRANCH  22  24
HETATM   24  C15 UNL     1       3.988  -1.038   0.107  1.00  0.00     0.176 C 
BRANCH  24  25
HETATM   25  O2  UNL     1       5.144  -1.094   0.932  1.00  0.00    -0.400 OA
HETATM   26  H22 UNL     1       5.050  -1.870   1.512  1.00  0.00     0.209 HD
ENDBRANCH  24  25
ENDBRANCH  22  24
ENDBRANCH  20  22
ENDBRANCH  18  20
ENDBRANCH  16  17
ENDBRANCH   2  15
BRANCH   1  27
HETATM   27  C3  UNL     1      -1.628   1.870  -1.747  1.00  0.00    -0.080 C 
HETATM   28  C2  UNL     1      -2.040   3.149  -1.620  1.00  0.00    -0.028 C 
HETATM   29  C1  UNL     1      -1.688   4.320  -2.483  1.00  0.00     0.036 C 
HETATM   30  C4  UNL     1      -0.675   1.404  -2.819  1.00  0.00     0.043 C 
ENDBRANCH   1  27
TORSDOF 7
