REMARK  16 active torsions:
REMARK  status: ('A' for Active; 'I' for Inactive)
REMARK    1  A    between atoms: C2_2  and  C3_3 
REMARK    2  A    between atoms: C3_3  and  C4_4 
REMARK    3  A    between atoms: C4_4  and  C5_5 
REMARK    4  A    between atoms: C5_5  and  C6_6 
REMARK    5  A    between atoms: C8_8  and  C9_9 
REMARK    6  A    between atoms: C20_23  and  C21_24 
REMARK    7  A    between atoms: C21_24  and  N1_25 
REMARK    8  A    between atoms: N1_25  and  C22_26 
REMARK    9  A    between atoms: C22_26  and  C23_27 
REMARK   10  A    between atoms: C23_27  and  C24_28 
REMARK   11  A    between atoms: C24_28  and  O4_29 
REMARK   12  A    between atoms: C29_34  and  O5_35 
REMARK   13  A    between atoms: C30_36  and  O6_37 
REMARK   14  A    between atoms: C34_41  and  C35_42 
REMARK   15  A    between atoms: C41_48  and  O7_49 
REMARK   16  A    between atoms: C42_50  and  O8_51 
ROOT
HETATM    1  C6  UNL     1      -5.020  -0.224   0.176  1.00  0.00     0.016 C 
HETATM    2  C7  UNL     1      -3.867   0.043  -0.780  1.00  0.00     0.027 C 
HETATM    3  C8  UNL     1      -2.942   1.219  -0.312  1.00  0.00     0.051 C 
HETATM    4  C10 UNL     1      -1.600   1.106  -1.138  1.00  0.00     0.041 C 
HETATM    5  C11 UNL     1      -1.770   1.227  -2.657  1.00  0.00     0.010 C 
HETATM    6  C12 UNL     1      -0.574   0.570  -3.331  1.00  0.00     0.013 C 
HETATM    7  C13 UNL     1       0.785   1.164  -2.908  1.00  0.00    -0.002 C 
HETATM    8  C14 UNL     1       1.361   1.862  -4.170  1.00  0.00     0.019 C 
HETATM    9  C15 UNL     1       1.723   0.058  -2.345  1.00  0.00     0.036 C 
HETATM   10  C16 UNL     1       2.309  -1.090  -3.087  1.00  0.00    -0.035 C 
HETATM   11  C17 UNL     1       2.302  -1.468  -4.364  1.00  0.00     0.088 C 
HETATM   12  C18 UNL     1       3.217  -2.610  -4.445  1.00  0.00     0.284 C 
HETATM   13  O2  UNL     1       3.406  -3.292  -5.433  1.00  0.00    -0.260 OA
HETATM   14  O3  UNL     1       3.824  -2.798  -3.239  1.00  0.00    -0.304 OA
HETATM   15  C19 UNL     1       3.150  -2.011  -2.267  1.00  0.00     0.192 C 
HETATM   16  C20 UNL     1       4.095  -1.279  -1.323  1.00  0.00    -0.022 C 
HETATM   17  C26 UNL     1       3.921   0.037  -1.055  1.00  0.00    -0.014 C 
HETATM   18  C27 UNL     1       2.892   0.874  -1.773  1.00  0.00     0.021 C 
HETATM   19  C28 UNL     1       2.174   1.958  -0.974  1.00  0.00     0.051 C 
HETATM   20  C29 UNL     1       0.771   2.154  -1.660  1.00  0.00     0.098 C 
HETATM   21  C30 UNL     1      -0.489   2.069  -0.668  1.00  0.00     0.095 C 
HETATM   22  C31 UNL     1      -0.174   1.656   0.767  1.00  0.00     0.049 C 
HETATM   23  C32 UNL     1      -1.353   1.740   1.755  1.00  0.00     0.025 C 
HETATM   24  C33 UNL     1      -0.908   1.254   3.168  1.00  0.00     0.012 C 
HETATM   25  C34 UNL     1      -0.185  -0.122   3.249  1.00  0.00    -0.011 C 
HETATM   26  C38 UNL     1      -1.060  -1.354   2.922  1.00  0.00     0.005 C 
HETATM   27  C39 UNL     1      -1.970  -1.259   1.691  1.00  0.00     0.010 C 
HETATM   28  C40 UNL     1      -3.069  -0.210   1.903  1.00  0.00     0.051 C 
HETATM   29  C41 UNL     1      -4.491  -0.705   1.536  1.00  0.00     0.129 C 
HETATM   30  C42 UNL     1      -2.733   1.173   1.269  1.00  0.00     0.082 C 
ENDROOT
BRANCH  16  31
HETATM   31  C21 UNL     1       5.179  -2.160  -0.739  1.00  0.00     0.306 C 
BRANCH  31  32
HETATM   32  N1  UNL     1       6.026  -1.502   0.259  1.00  0.00     0.087 N 
HETATM   33  H29 UNL     1       6.415  -0.657  -0.162  1.00  0.00     0.316 HD
BRANCH  32  34
HETATM   34  C22 UNL     1       7.146  -2.374   0.635  1.00  0.00     0.272 C 
BRANCH  34  35
HETATM   35  C23 UNL     1       8.006  -1.706   1.714  1.00  0.00     0.056 C 
BRANCH  35  36
HETATM   36  C24 UNL     1       9.247  -2.534   2.015  1.00  0.00     0.168 C 
BRANCH  36  37
HETATM   37  O4  UNL     1       9.982  -2.002   3.118  1.00  0.00    -0.396 OA
HETATM   38  C25 UNL     1      10.788  -0.883   2.764  1.00  0.00     0.201 C 
ENDBRANCH  36  37
ENDBRANCH  35  36
ENDBRANCH  34  35
ENDBRANCH  32  34
ENDBRANCH  31  32
ENDBRANCH  16  31
BRANCH  20  39
HETATM   39  O5  UNL     1       0.793   3.519  -2.155  1.00  0.00    -0.386 OA
HETATM   40  H43 UNL     1      -0.077   3.680  -2.576  1.00  0.00     0.210 HD
ENDBRANCH  20  39
BRANCH  21  41
HETATM   41  O6  UNL     1      -1.041   3.396  -0.590  1.00  0.00    -0.386 OA
HETATM   42  H44 UNL     1      -0.278   4.012  -0.574  1.00  0.00     0.210 HD
ENDBRANCH  21  41
BRANCH   3  43
HETATM   43  C9  UNL     1      -3.637   2.539  -0.705  1.00  0.00     0.244 C 
HETATM   44  O1  UNL     1      -4.363   2.664  -1.691  1.00  0.00    -0.306 OA
ENDBRANCH   3  43
BRANCH  30  45
HETATM   45  O8  UNL     1      -3.717   2.081   1.853  1.00  0.00    -0.388 OA
HETATM   46  H65 UNL     1      -4.339   1.579   2.423  1.00  0.00     0.210 HD
ENDBRANCH  30  45
BRANCH   1  47
HETATM   47  C5  UNL     1      -6.031  -1.261  -0.377  1.00  0.00     0.007 C 
BRANCH  47  48
HETATM   48  C4  UNL     1      -6.695  -0.927  -1.720  1.00  0.00     0.000 C 
BRANCH  48  49
HETATM   49  C3  UNL     1      -7.464   0.394  -1.727  1.00  0.00    -0.000 C 
BRANCH  49  50
HETATM   50  C2  UNL     1      -8.107   0.653  -3.094  1.00  0.00    -0.005 C 
HETATM   51  C1  UNL     1      -8.845   1.980  -3.112  1.00  0.00     0.005 C 
ENDBRANCH  49  50
ENDBRANCH  48  49
ENDBRANCH  47  48
ENDBRANCH   1  47
BRANCH  25  52
HETATM   52  C35 UNL     1       0.561  -0.266   4.619  1.00  0.00    -0.019 C 
HETATM   53  C36 UNL     1      -0.369  -0.369   5.827  1.00  0.00     0.010 C 
HETATM   54  C37 UNL     1       1.550  -1.432   4.612  1.00  0.00     0.010 C 
ENDBRANCH  25  52
BRANCH  29  55
HETATM   55  O7  UNL     1      -5.373  -0.170   2.542  1.00  0.00    -0.395 OA
HETATM   56  H64 UNL     1      -6.277  -0.474   2.338  1.00  0.00     0.210 HD
ENDBRANCH  29  55
TORSDOF 16
