REMARK  7 active torsions:
REMARK  status: ('A' for Active; 'I' for Inactive)
REMARK    1  A    between atoms: C2_2  and  C3_3 
REMARK    2  A    between atoms: C2_2  and  C9_11 
REMARK    3  A    between atoms: C3_3  and  C4_4 
REMARK    4  A    between atoms: C5_5  and  C6_6 
REMARK    5  A    between atoms: C6_6  and  O1_9 
REMARK    6  A    between atoms: O1_9  and  O2_10 
REMARK    7  A    between atoms: C10_12  and  O3_13 
ROOT
HETATM    1  C9  UNL     1       1.910   0.105   0.290  1.00  0.00     0.028 C 
HETATM    2  C10 UNL     1       2.009   0.691  -1.148  1.00  0.00     0.124 C 
HETATM    3  C11 UNL     1       0.591   0.618  -1.767  1.00  0.00     0.046 C 
HETATM    4  C12 UNL     1      -0.256  -0.191  -0.755  1.00  0.00    -0.010 C 
HETATM    5  C13 UNL     1      -0.063  -1.698  -1.119  1.00  0.00     0.021 C 
HETATM    6  C14 UNL     1      -1.766   0.023  -0.729  1.00  0.00    -0.070 C 
HETATM    7  C15 UNL     1      -2.466   0.292  -1.852  1.00  0.00    -0.022 C 
HETATM    8  C16 UNL     1      -3.965   0.393  -1.921  1.00  0.00     0.034 C 
HETATM    9  C17 UNL     1      -4.616   0.401  -0.528  1.00  0.00     0.013 C 
HETATM   10  C18 UNL     1      -6.175   0.488  -0.501  1.00  0.00     0.018 C 
HETATM   11  C19 UNL     1      -6.655   1.713  -1.307  1.00  0.00     0.023 C 
HETATM   12  C20 UNL     1      -6.901  -0.752  -1.036  1.00  0.00     0.023 C 
HETATM   13  C21 UNL     1      -6.616   0.699   0.959  1.00  0.00     0.135 C 
HETATM   14  O4  UNL     1      -7.763   1.044   1.250  1.00  0.00    -0.297 OA
HETATM   15  C22 UNL     1      -5.581   0.486   2.044  1.00  0.00     0.080 C 
HETATM   16  C23 UNL     1      -4.776  -0.770   1.743  1.00  0.00     0.017 C 
HETATM   17  C24 UNL     1      -3.968  -0.690   0.414  1.00  0.00    -0.031 C 
HETATM   18  C25 UNL     1      -3.948  -2.118  -0.197  1.00  0.00     0.016 C 
HETATM   19  C26 UNL     1      -2.475  -0.197   0.628  1.00  0.00     0.024 C 
HETATM   20  C27 UNL     1      -1.627  -1.033   1.622  1.00  0.00     0.010 C 
HETATM   21  C28 UNL     1      -0.133  -0.646   1.738  1.00  0.00     0.011 C 
HETATM   22  C29 UNL     1       0.382   0.257   0.603  1.00  0.00    -0.026 C 
HETATM   23  C30 UNL     1       0.085   1.745   0.972  1.00  0.00     0.016 C 
ENDROOT
BRANCH   1  24
HETATM   24  C2  UNL     1       2.895   0.657   1.371  1.00  0.00    -0.008 C 
HETATM   25  C1  UNL     1       3.442   2.068   1.122  1.00  0.00     0.011 C 
BRANCH  24  26
HETATM   26  C3  UNL     1       4.065  -0.322   1.662  1.00  0.00     0.031 C 
BRANCH  26  27
HETATM   27  C4  UNL     1       5.060  -0.490   0.548  1.00  0.00    -0.027 C 
HETATM   28  C5  UNL     1       6.343  -0.095   0.627  1.00  0.00     0.009 C 
BRANCH  28  29
HETATM   29  C6  UNL     1       7.428  -0.223  -0.432  1.00  0.00     0.106 C 
HETATM   30  C7  UNL     1       6.956  -0.896  -1.732  1.00  0.00     0.053 C 
HETATM   31  C8  UNL     1       8.616  -1.026   0.120  1.00  0.00     0.053 C 
BRANCH  29  32
HETATM   32  O1  UNL     1       7.868   1.095  -0.834  1.00  0.00    -0.229 OA
BRANCH  32  33
HETATM   33  O2  UNL     1       8.409   1.780   0.339  1.00  0.00    -0.249 OA
HETATM   34  H15 UNL     1       7.715   2.461   0.384  1.00  0.00     0.253 HD
ENDBRANCH  32  33
ENDBRANCH  29  32
ENDBRANCH  28  29
ENDBRANCH  26  27
ENDBRANCH  24  26
ENDBRANCH   1  24
BRANCH   2  35
HETATM   35  O3  UNL     1       2.936  -0.040  -1.939  1.00  0.00    -0.395 OA
HETATM   36  H18 UNL     1       2.596  -0.942  -2.062  1.00  0.00     0.210 HD
ENDBRANCH   2  35
TORSDOF 7
