REMARK  9 active torsions:
REMARK  status: ('A' for Active; 'I' for Inactive)
REMARK    1  A    between atoms: C2_2  and  C35_40 
REMARK    2  A    between atoms: C3_3  and  C4_4 
REMARK    3  A    between atoms: C4_4  and  O1_5 
REMARK    4  A    between atoms: C4_4  and  C5_6 
REMARK    5  A    between atoms: C5_6  and  C6_7 
REMARK    6  A    between atoms: C6_7  and  C8_9 
REMARK    7  A    between atoms: C10_11  and  O2_12 
REMARK    8  A    between atoms: C33_37  and  O5_38 
REMARK    9  A    between atoms: C35_40  and  O7_42 
ROOT
HETATM    1  C8  UNL     1       2.144   1.542  -0.051  1.00  0.00     0.002 C 
HETATM    2  C9  UNL     1       1.938   1.886  -1.548  1.00  0.00     0.038 C 
HETATM    3  C10 UNL     1       0.468   1.629  -1.856  1.00  0.00     0.132 C 
HETATM    4  C11 UNL     1       0.160   0.346  -1.041  1.00  0.00     0.017 C 
HETATM    5  C12 UNL     1       0.873  -0.847  -1.766  1.00  0.00     0.023 C 
HETATM    6  C13 UNL     1      -1.352   0.060  -0.896  1.00  0.00    -0.029 C 
HETATM    7  C14 UNL     1      -2.055   0.277   0.244  1.00  0.00     0.003 C 
HETATM    8  C15 UNL     1      -1.471   1.213   1.256  1.00  0.00     0.157 C 
HETATM    9  O3  UNL     1      -2.178   1.775   2.094  1.00  0.00    -0.293 OA
HETATM   10  C16 UNL     1      -0.004   1.529   1.239  1.00  0.00     0.094 C 
HETATM   11  C17 UNL     1       0.875   0.620   0.351  1.00  0.00    -0.016 C 
HETATM   12  C18 UNL     1       1.235  -0.696   1.152  1.00  0.00     0.011 C 
HETATM   13  C19 UNL     1       0.173  -1.797   1.369  1.00  0.00     0.001 C 
HETATM   14  C20 UNL     1      -0.807  -1.564   2.520  1.00  0.00     0.000 C 
HETATM   15  C21 UNL     1      -2.194  -2.189   2.316  1.00  0.00     0.001 C 
HETATM   16  C22 UNL     1      -2.957  -1.949   0.993  1.00  0.00     0.015 C 
HETATM   17  C23 UNL     1      -3.382  -0.478   0.543  1.00  0.00    -0.003 C 
HETATM   18  C24 UNL     1      -4.238   0.131   1.683  1.00  0.00     0.022 C 
HETATM   19  C25 UNL     1      -5.594  -0.523   1.870  1.00  0.00     0.080 C 
HETATM   20  C26 UNL     1      -6.428  -0.497   0.617  1.00  0.00     0.136 C 
HETATM   21  O4  UNL     1      -7.631  -0.762   0.686  1.00  0.00    -0.297 OA
HETATM   22  C27 UNL     1      -5.753  -0.115  -0.705  1.00  0.00     0.025 C 
HETATM   23  C28 UNL     1      -6.584  -0.754  -1.854  1.00  0.00     0.024 C 
HETATM   24  C29 UNL     1      -5.826   1.425  -0.852  1.00  0.00     0.044 C 
HETATM   25  C30 UNL     1      -4.805   1.997  -1.785  1.00  0.00    -0.029 C 
HETATM   26  C31 UNL     1      -3.825   1.274  -2.346  1.00  0.00    -0.023 C 
HETATM   27  C32 UNL     1      -3.586  -0.200  -2.069  1.00  0.00     0.047 C 
HETATM   28  C33 UNL     1      -2.084  -0.571  -2.064  1.00  0.00     0.156 C 
HETATM   29  C34 UNL     1      -4.285  -0.672  -0.768  1.00  0.00     0.025 C 
ENDROOT
BRANCH   1  30
HETATM   30  C6  UNL     1       3.586   1.057   0.302  1.00  0.00    -0.011 C 
HETATM   31  C7  UNL     1       3.866   1.254   1.802  1.00  0.00     0.010 C 
BRANCH  30  32
HETATM   32  C5  UNL     1       4.690   1.804  -0.495  1.00  0.00     0.040 C 
BRANCH  32  33
HETATM   33  C4  UNL     1       6.124   1.278  -0.278  1.00  0.00     0.142 C 
BRANCH  33  34
HETATM   34  C3  UNL     1       6.280  -0.148  -0.714  1.00  0.00     0.018 C 
HETATM   35  C2  UNL     1       6.994  -1.127  -0.120  1.00  0.00     0.010 C 
HETATM   36  C1  UNL     1       7.827  -0.999   1.119  1.00  0.00     0.055 C 
BRANCH  35  37
HETATM   37  C35 UNL     1       6.942  -2.453  -0.780  1.00  0.00     0.171 C 
HETATM   38  O6  UNL     1       6.112  -2.830  -1.588  1.00  0.00    -0.646 OA
BRANCH  37  39
HETATM   39  O7  UNL     1       7.953  -3.255  -0.402  1.00  0.00    -0.773 OA
HETATM   40  H48 UNL     1       7.800  -4.061  -0.933  1.00  0.00     0.167 HD
ENDBRANCH  37  39
ENDBRANCH  35  37
ENDBRANCH  33  34
BRANCH  33  41
HETATM   41  O1  UNL     1       7.011   2.037  -1.094  1.00  0.00    -0.392 OA
HETATM   42  H6  UNL     1       6.913   2.970  -0.837  1.00  0.00     0.210 HD
ENDBRANCH  33  41
ENDBRANCH  32  33
ENDBRANCH  30  32
ENDBRANCH   1  30
BRANCH   3  43
HETATM   43  O2  UNL     1      -0.299   2.754  -1.444  1.00  0.00    -0.394 OA
HETATM   44  H17 UNL     1      -1.215   2.588  -1.735  1.00  0.00     0.210 HD
ENDBRANCH   3  43
BRANCH  28  45
HETATM   45  O5  UNL     1      -1.515  -0.133  -3.296  1.00  0.00    -0.390 OA
HETATM   46  H46 UNL     1      -2.046  -0.511  -4.014  1.00  0.00     0.210 HD
ENDBRANCH  28  45
TORSDOF 9
