REMARK  4 active torsions:
REMARK  status: ('A' for Active; 'I' for Inactive)
REMARK    1  A    between atoms: C2_2  and  C3_3 
REMARK    2  A    between atoms: C2_2  and  C9_9 
REMARK    3  A    between atoms: C3_3  and  C4_4 
REMARK    4  A    between atoms: C4_4  and  C5_5 
ROOT
HETATM    1  C9  UNL     1       2.207  -0.063  -0.044  1.00  0.00     0.018 C 
HETATM    2  C10 UNL     1       2.351  -0.358   1.465  1.00  0.00     0.010 C 
HETATM    3  C11 UNL     1       0.972  -0.110   2.106  1.00  0.00     0.011 C 
HETATM    4  C12 UNL     1      -0.045  -0.088   0.935  1.00  0.00    -0.032 C 
HETATM    5  C13 UNL     1      -0.345  -1.576   0.590  1.00  0.00     0.016 C 
HETATM    6  C14 UNL     1       0.822   0.618  -0.131  1.00  0.00     0.002 C 
HETATM    7  C15 UNL     1       0.186   0.644  -1.507  1.00  0.00     0.006 C 
HETATM    8  C16 UNL     1      -1.342   0.634  -1.491  1.00  0.00     0.006 C 
HETATM    9  C17 UNL     1      -2.071   1.163  -0.217  1.00  0.00     0.003 C 
HETATM   10  C18 UNL     1      -3.639   0.882  -0.265  1.00  0.00    -0.035 C 
HETATM   11  C19 UNL     1      -4.375   1.903   0.649  1.00  0.00     0.016 C 
HETATM   12  C20 UNL     1      -4.207   1.067  -1.699  1.00  0.00     0.017 C 
HETATM   13  C21 UNL     1      -5.713   0.869  -1.792  1.00  0.00     0.080 C 
HETATM   14  C22 UNL     1      -6.236  -0.171  -0.827  1.00  0.00     0.135 C 
HETATM   15  O1  UNL     1      -7.440  -0.188  -0.556  1.00  0.00    -0.297 OA
HETATM   16  C23 UNL     1      -5.263  -1.229  -0.285  1.00  0.00     0.017 C 
HETATM   17  C24 UNL     1      -5.030  -2.231  -1.443  1.00  0.00     0.023 C 
HETATM   18  C25 UNL     1      -5.974  -2.018   0.834  1.00  0.00     0.023 C 
HETATM   19  C26 UNL     1      -3.880  -0.597   0.162  1.00  0.00     0.009 C 
HETATM   20  C27 UNL     1      -3.486  -0.825   1.629  1.00  0.00     0.007 C 
HETATM   21  C28 UNL     1      -2.326   0.014   2.170  1.00  0.00     0.011 C 
HETATM   22  C29 UNL     1      -1.381   0.752   1.169  1.00  0.00    -0.032 C 
HETATM   23  C30 UNL     1      -1.052   2.109   1.892  1.00  0.00     0.016 C 
ENDROOT
BRANCH   1  24
HETATM   24  C2  UNL     1       3.415   0.649  -0.637  1.00  0.00    -0.084 C 
HETATM   25  C1  UNL     1       3.449   1.954  -0.963  1.00  0.00     0.014 C 
BRANCH  24  26
HETATM   26  C3  UNL     1       4.630  -0.219  -0.933  1.00  0.00     0.037 C 
BRANCH  26  27
HETATM   27  C4  UNL     1       5.575  -0.372   0.265  1.00  0.00     0.031 C 
BRANCH  27  28
HETATM   28  C5  UNL     1       6.825  -1.121  -0.115  1.00  0.00    -0.024 C 
HETATM   29  C6  UNL     1       8.035  -0.600  -0.398  1.00  0.00    -0.091 C 
HETATM   30  C7  UNL     1       8.351   0.871  -0.437  1.00  0.00     0.042 C 
HETATM   31  C8  UNL     1       9.202  -1.495  -0.728  1.00  0.00     0.042 C 
ENDBRANCH  27  28
ENDBRANCH  26  27
ENDBRANCH  24  26
ENDBRANCH   1  24
TORSDOF 4
