REMARK  13 active torsions:
REMARK  status: ('A' for Active; 'I' for Inactive)
REMARK    1  A    between atoms: C5_6  and  C6_7 
REMARK    2  A    between atoms: C5_6  and  C29_33 
REMARK    3  A    between atoms: C19_20  and  O2_21 
REMARK    4  A    between atoms: C28_31  and  O4_32 
REMARK    5  A    between atoms: C30_35  and  C31_36 
REMARK    6  A    between atoms: C31_36  and  O6_38 
REMARK    7  A    between atoms: C31_36  and  C33_39 
REMARK    8  A    between atoms: C33_39  and  C35_41 
REMARK    9  A    between atoms: C33_39  and  C36_43 
REMARK   10  A    between atoms: C35_41  and  O7_42 
REMARK   11  A    between atoms: C36_43  and  C37_44 
REMARK   12  A    between atoms: C37_44  and  C38_45 
REMARK   13  A    between atoms: C41_49  and  N2_50 
ROOT
HETATM    1  C1  UNL     1       0.324  -4.483  -1.831  1.00  0.00     0.010 C 
HETATM    2  C2  UNL     1       0.816  -3.034  -1.854  1.00  0.00    -0.014 C 
HETATM    3  C3  UNL     1       0.631  -2.419  -3.239  1.00  0.00     0.030 C 
HETATM    4  C4  UNL     1       1.042  -0.957  -3.210  1.00  0.00     0.169 C 
HETATM    5  O1  UNL     1       0.296  -0.217  -2.253  1.00  0.00    -0.377 OA
HETATM    6  C5  UNL     1       0.380  -0.674  -0.890  1.00  0.00     0.094 C 
HETATM    7  C43 UNL     1       0.070  -2.186  -0.816  1.00  0.00     0.045 C 
ENDROOT
BRANCH   6   8
HETATM    8  C6  UNL     1      -0.690   0.145  -0.062  1.00  0.00     0.035 C 
HETATM    9  C7  UNL     1      -0.412   1.713  -0.094  1.00  0.00     0.016 C 
HETATM   10  C8  UNL     1      -1.784   2.394  -0.162  1.00  0.00     0.026 C 
HETATM   11  C9  UNL     1      -2.012   3.720   0.543  1.00  0.00     0.013 C 
HETATM   12  C28 UNL     1      -2.692   1.326   0.420  1.00  0.00     0.094 C 
HETATM   13  C10 UNL     1      -3.507   4.118   0.417  1.00  0.00     0.043 C 
HETATM   14  C11 UNL     1      -4.504   2.967   0.486  1.00  0.00    -0.006 C 
HETATM   15  C12 UNL     1      -4.137   1.674   0.435  1.00  0.00    -0.030 C 
HETATM   16  C22 UNL     1      -5.923   3.302   0.811  1.00  0.00     0.161 C 
HETATM   17  C13 UNL     1      -5.054   0.519   0.710  1.00  0.00     0.031 C 
HETATM   18  C14 UNL     1      -4.586  -0.860   0.140  1.00  0.00    -0.005 C 
HETATM   19  C23 UNL     1      -6.536   0.798   0.338  1.00  0.00    -0.022 C 
HETATM   20  C15 UNL     1      -5.439  -1.988   0.754  1.00  0.00     0.006 C 
HETATM   21  C25 UNL     1      -3.057  -1.116   0.286  1.00  0.00     0.018 C 
HETATM   22  C16 UNL     1      -6.955  -1.730   0.627  1.00  0.00     0.006 C 
HETATM   23  C17 UNL     1      -7.324  -0.315   1.106  1.00  0.00    -0.003 C 
HETATM   24  C18 UNL     1      -8.820  -0.017   1.132  1.00  0.00     0.037 C 
HETATM   25  C19 UNL     1      -9.098   1.317   1.854  1.00  0.00     0.119 C 
HETATM   26  C20 UNL     1      -7.852   2.202   2.042  1.00  0.00     0.045 C 
HETATM   27  C21 UNL     1      -7.009   2.226   0.759  1.00  0.00     0.072 C 
HETATM   28  C26 UNL     1      -2.250   0.055  -0.348  1.00  0.00    -0.002 C 
HETATM   29  C27 UNL     1      -2.552   0.116  -1.869  1.00  0.00     0.019 C 
HETATM   30  C24 UNL     1      -6.773   0.733  -1.201  1.00  0.00     0.017 C 
HETATM   31  O3  UNL     1      -6.206   4.461   1.118  1.00  0.00    -0.292 OA
BRANCH  25  32
HETATM   32  O2  UNL     1     -10.077   2.023   1.091  1.00  0.00    -0.396 OA
HETATM   33  H27 UNL     1     -10.278   2.852   1.560  1.00  0.00     0.210 HD
ENDBRANCH  25  32
BRANCH  12  34
HETATM   34  O4  UNL     1      -2.358   1.147   1.819  1.00  0.00    -0.384 OA
HETATM   35  H39 UNL     1      -2.803   1.842   2.335  1.00  0.00     0.211 HD
ENDBRANCH  12  34
ENDBRANCH   6   8
BRANCH   6  36
HETATM   36  C29 UNL     1       1.771  -0.299  -0.349  1.00  0.00     0.189 A 
HETATM   37  O5  UNL     1       1.882  -0.527   1.070  1.00  0.00    -0.369 OA
HETATM   38  C30 UNL     1       2.841  -1.220   0.260  1.00  0.00     0.189 A 
BRANCH  38  39
HETATM   39  C31 UNL     1       4.270  -0.782   0.593  1.00  0.00     0.092 C 
HETATM   40  C32 UNL     1       4.688  -1.511   1.888  1.00  0.00     0.049 C 
BRANCH  39  41
HETATM   41  O6  UNL     1       4.249   0.619   0.937  1.00  0.00    -0.387 OA
HETATM   42  H45 UNL     1       3.451   0.736   1.495  1.00  0.00     0.210 HD
ENDBRANCH  39  41
BRANCH  39  43
HETATM   43  C33 UNL     1       5.282  -0.955  -0.613  1.00  0.00     0.011 C 
HETATM   44  C34 UNL     1       4.961   0.057  -1.743  1.00  0.00     0.020 C 
BRANCH  43  45
HETATM   45  C35 UNL     1       5.191  -2.364  -1.263  1.00  0.00     0.176 C 
BRANCH  45  46
HETATM   46  O7  UNL     1       5.492  -3.396  -0.340  1.00  0.00    -0.400 OA
HETATM   47  H51 UNL     1       6.223  -3.928  -0.709  1.00  0.00     0.209 HD
ENDBRANCH  45  46
ENDBRANCH  43  45
BRANCH  43  48
HETATM   48  C36 UNL     1       6.782  -0.740  -0.188  1.00  0.00     0.019 C 
BRANCH  48  49
HETATM   49  C37 UNL     1       7.141   0.626   0.416  1.00  0.00     0.039 C 
BRANCH  49  50
HETATM   50  C38 UNL     1       8.632   0.777   0.627  1.00  0.00    -0.053 A 
HETATM   51  C39 UNL     1       9.452   1.242  -0.401  1.00  0.00     0.024 A 
HETATM   52  C40 UNL     1      10.813   1.375  -0.172  1.00  0.00     0.090 A 
HETATM   53  N1  UNL     1      11.327   1.066   1.028  1.00  0.00    -0.353 N 
HETATM   54  C41 UNL     1      10.583   0.635   2.055  1.00  0.00     0.098 A 
HETATM   55  H58 UNL     1      12.329   1.147   1.171  1.00  0.00     0.166 HD
HETATM   56  C42 UNL     1       9.214   0.453   1.857  1.00  0.00     0.055 A 
BRANCH  54  57
HETATM   57  N2  UNL     1      11.197   0.291   3.246  1.00  0.00    -0.385 N 
HETATM   58  H59 UNL     1      10.639   0.468   4.082  1.00  0.00     0.157 HD
HETATM   59  H60 UNL     1      12.178   0.492   3.398  1.00  0.00     0.157 HD
ENDBRANCH  54  57
ENDBRANCH  49  50
ENDBRANCH  48  49
ENDBRANCH  43  48
ENDBRANCH  39  43
ENDBRANCH  38  39
ENDBRANCH   6  36
TORSDOF 13
