REMARK  8 active torsions:
REMARK  status: ('A' for Active; 'I' for Inactive)
REMARK    1  A    between atoms: C3_3  and  O1_4 
REMARK    2  A    between atoms: N1_14  and  O2_16 
REMARK    3  A    between atoms: O2_16  and  C13_17 
REMARK    4  A    between atoms: C13_17  and  C14_18 
REMARK       I    between atoms: C14_18  and  N2_20 
REMARK    5  A    between atoms: N2_20  and  C15_21 
REMARK    6  A    between atoms: C15_21  and  C16_22 
REMARK    7  A    between atoms: C16_22  and  O4_23 
REMARK    8  A    between atoms: C16_22  and  C17_24 
ROOT
HETATM    1  C1  UNL     1      -9.742   2.370  -0.116  1.00  0.00     0.015 C 
HETATM    2  C2  UNL     1      -8.727   1.822   0.220  1.00  0.00    -0.078 C 
HETATM    3  C3  UNL     1      -7.481   1.166   0.658  1.00  0.00     0.128 C 
HETATM    4  C4  UNL     1      -7.774  -0.160   1.369  1.00  0.00     0.052 C 
HETATM    5  C5  UNL     1      -6.437  -0.882   1.312  1.00  0.00     0.010 C 
HETATM    6  C6  UNL     1      -5.995  -0.662  -0.139  1.00  0.00     0.002 C 
HETATM    7  C7  UNL     1      -4.503  -0.985  -0.364  1.00  0.00    -0.004 C 
HETATM    8  C8  UNL     1      -4.220  -1.353  -1.822  1.00  0.00     0.010 C 
HETATM    9  C9  UNL     1      -2.810  -1.917  -1.992  1.00  0.00     0.035 C 
HETATM   10  C10 UNL     1      -1.768  -1.258  -1.116  1.00  0.00    -0.069 C 
HETATM   11  C11 UNL     1      -0.610  -1.904  -0.887  1.00  0.00     0.030 C 
HETATM   12  C12 UNL     1       0.510  -1.261  -0.154  1.00  0.00     0.032 C 
HETATM   13  N1  UNL     1       1.532  -2.003   0.166  1.00  0.00    -0.271 N 
ATOM     14  H1  UNL     1       1.584  -3.007  -0.006  1.00  0.00     0.194 HD
HETATM   15  C23 UNL     1       0.395   0.224   0.118  1.00  0.00     0.060 C 
HETATM   16  C24 UNL     1      -1.040   0.552   0.511  1.00  0.00     0.020 C 
HETATM   17  C25 UNL     1      -2.099   0.125  -0.555  1.00  0.00    -0.016 C 
HETATM   18  C26 UNL     1      -2.021   1.131  -1.729  1.00  0.00     0.020 C 
HETATM   19  C27 UNL     1      -3.511   0.087   0.173  1.00  0.00     0.002 C 
HETATM   20  C28 UNL     1      -4.153   1.476   0.369  1.00  0.00     0.007 C 
HETATM   21  C29 UNL     1      -5.281   1.766  -0.618  1.00  0.00     0.014 C 
HETATM   22  C30 UNL     1      -6.472   0.785  -0.503  1.00  0.00     0.003 C 
HETATM   23  C31 UNL     1      -7.171   0.727  -1.884  1.00  0.00     0.020 C 
ENDROOT
BRANCH   3  24
HETATM   24  O1  UNL     1      -6.866   2.026   1.618  1.00  0.00    -0.377 OA
HETATM   25  H2  UNL     1      -7.557   2.281   2.254  1.00  0.00     0.211 HD
ENDBRANCH   3  24
BRANCH  13  26
HETATM   26  O2  UNL     1       2.551  -1.259   0.775  1.00  0.00    -0.271 OA
BRANCH  26  27
HETATM   27  C13 UNL     1       3.244  -2.094   1.697  1.00  0.00     0.303 C 
BRANCH  27  28
HETATM   28  C14 UNL     1       4.688  -1.638   1.811  1.00  0.00     0.243 C 
HETATM   29  O3  UNL     1       5.243  -1.430   2.887  1.00  0.00    -0.271 OA
HETATM   30  N2  UNL     1       5.347  -1.512   0.608  1.00  0.00    -0.356 N 
HETATM   31  H16 UNL     1       4.809  -1.670  -0.240  1.00  0.00     0.162 HD
BRANCH  30  32
HETATM   32  C15 UNL     1       6.782  -1.273   0.505  1.00  0.00     0.159 C 
BRANCH  32  33
HETATM   33  C16 UNL     1       7.230   0.133   0.971  1.00  0.00     0.170 C 
BRANCH  33  34
HETATM   34  O4  UNL     1       7.284   0.223   2.397  1.00  0.00    -0.389 OA
HETATM   35  H20 UNL     1       6.520  -0.284   2.751  1.00  0.00     0.210 HD
ENDBRANCH  33  34
BRANCH  33  36
HETATM   36  C17 UNL     1       8.600   0.452   0.420  1.00  0.00    -0.013 A 
HETATM   37  C18 UNL     1       9.776   0.111   1.092  1.00  0.00     0.013 A 
HETATM   38  C19 UNL     1      11.013   0.386   0.513  1.00  0.00     0.025 A 
HETATM   39  C20 UNL     1      11.048   0.988  -0.740  1.00  0.00     0.005 A 
HETATM   40  C21 UNL     1      12.367   1.305  -1.382  1.00  0.00     0.068 C 
HETATM   41  N3  UNL     1       9.926   1.329  -1.416  1.00  0.00    -0.369 N 
HETATM   42  C22 UNL     1       8.739   1.062  -0.823  1.00  0.00     0.097 A 
ATOM     43  H3  UNL     1       9.973   1.769  -2.335  1.00  0.00     0.165 HD
ENDBRANCH  33  36
ENDBRANCH  32  33
ENDBRANCH  30  32
ENDBRANCH  27  28
ENDBRANCH  26  27
ENDBRANCH  13  26
TORSDOF 8
