REMARK  4 active torsions:
REMARK  status: ('A' for Active; 'I' for Inactive)
REMARK    1  A    between atoms: C4_4  and  C5_5 
REMARK    2  A    between atoms: C5_5  and  C6_6 
REMARK    3  A    between atoms: C6_6  and  C7_7 
REMARK    4  A    between atoms: C7_7  and  C9_9 
ROOT
HETATM    1  C9  UNL     1      -1.902   0.424   0.114  1.00  0.00    -0.002 C 
HETATM    2  C10 UNL     1      -2.071   1.905   0.525  1.00  0.00     0.006 C 
HETATM    3  C11 UNL     1      -0.679   2.531   0.573  1.00  0.00     0.011 C 
HETATM    4  C12 UNL     1       0.282   1.545  -0.148  1.00  0.00    -0.032 C 
HETATM    5  C13 UNL     1       0.116   1.830  -1.668  1.00  0.00     0.016 C 
HETATM    6  C14 UNL     1       1.772   1.799   0.340  1.00  0.00     0.004 C 
HETATM    7  C15 UNL     1       2.862   2.026  -0.736  1.00  0.00     0.007 C 
HETATM    8  C16 UNL     1       3.431   0.752  -1.338  1.00  0.00     0.007 C 
HETATM    9  C17 UNL     1       3.948  -0.292  -0.337  1.00  0.00     0.010 C 
HETATM   10  C18 UNL     1       5.495  -0.518  -0.288  1.00  0.00     0.018 C 
HETATM   11  C19 UNL     1       5.977  -1.208  -1.578  1.00  0.00     0.023 C 
HETATM   12  C20 UNL     1       6.305   0.772  -0.090  1.00  0.00     0.023 C 
HETATM   13  C21 UNL     1       5.806  -1.478   0.879  1.00  0.00     0.135 C 
HETATM   14  O1  UNL     1       6.936  -1.583   1.360  1.00  0.00    -0.297 OA
HETATM   15  C22 UNL     1       4.679  -2.371   1.358  1.00  0.00     0.080 C 
HETATM   16  C23 UNL     1       3.467  -1.553   1.800  1.00  0.00     0.018 C 
HETATM   17  C24 UNL     1       3.373  -0.213   1.077  1.00  0.00    -0.026 A 
HETATM   18  C25 UNL     1       3.624   0.999   1.955  1.00  0.00     0.021 A 
HETATM   19  C26 UNL     1       2.239   0.780   1.386  1.00  0.00    -0.027 A 
HETATM   20  C27 UNL     1       1.182   0.454   2.400  1.00  0.00     0.011 C 
HETATM   21  C28 UNL     1      -0.043  -0.201   1.782  1.00  0.00     0.011 C 
HETATM   22  C29 UNL     1      -0.357   0.162   0.300  1.00  0.00    -0.032 C 
HETATM   23  C30 UNL     1       0.119  -0.986  -0.614  1.00  0.00     0.016 C 
ENDROOT
BRANCH   1  24
HETATM   24  C7  UNL     1      -2.958  -0.490   0.809  1.00  0.00    -0.014 C 
HETATM   25  C8  UNL     1      -2.817  -1.968   0.444  1.00  0.00     0.010 C 
BRANCH  24  26
HETATM   26  C6  UNL     1      -4.420  -0.025   0.564  1.00  0.00     0.008 C 
BRANCH  26  27
HETATM   27  C5  UNL     1      -4.867   0.007  -0.903  1.00  0.00     0.028 C 
BRANCH  27  28
HETATM   28  C4  UNL     1      -6.307   0.436  -1.000  1.00  0.00    -0.025 C 
HETATM   29  C2  UNL     1      -7.373  -0.295  -1.383  1.00  0.00    -0.091 C 
HETATM   30  C1  UNL     1      -8.751   0.318  -1.407  1.00  0.00     0.042 C 
HETATM   31  C3  UNL     1      -7.338  -1.739  -1.802  1.00  0.00     0.042 C 
ENDBRANCH  27  28
ENDBRANCH  26  27
ENDBRANCH  24  26
ENDBRANCH   1  24
TORSDOF 4
