REMARK  6 active torsions:
REMARK  status: ('A' for Active; 'I' for Inactive)
REMARK    1  A    between atoms: C4_4  and  C5_5 
REMARK    2  A    between atoms: C5_5  and  O1_6 
REMARK    3  A    between atoms: C5_5  and  C6_7 
REMARK    4  A    between atoms: C6_7  and  O2_10 
REMARK    5  A    between atoms: C29_33  and  O5_34 
REMARK    6  A    between atoms: C30_35  and  O6_36 
ROOT
HETATM    1  C1  UNL     1       3.505   1.791  -0.208  1.00  0.00     0.013 C 
HETATM    2  C2  UNL     1       3.429   0.917   1.041  1.00  0.00     0.024 C 
HETATM    3  C3  UNL     1       4.707   0.021   1.169  1.00  0.00     0.042 C 
HETATM    4  C4  UNL     1       4.685  -1.354   0.441  1.00  0.00     0.154 C 
HETATM    5  O3  UNL     1       3.371  -2.016   0.469  1.00  0.00    -0.375 OA
HETATM    6  C9  UNL     1       2.335  -1.120   0.112  1.00  0.00     0.160 C 
HETATM    7  C10 UNL     1       0.910  -1.690   0.002  1.00  0.00     0.048 C 
HETATM    8  C11 UNL     1       0.059  -0.380  -0.044  1.00  0.00     0.000 C 
HETATM    9  C12 UNL     1       0.387   0.316  -1.421  1.00  0.00     0.019 C 
HETATM   10  C13 UNL     1      -1.537  -0.486   0.127  1.00  0.00    -0.029 C 
HETATM   11  C14 UNL     1      -1.938  -1.392   1.326  1.00  0.00     0.016 C 
HETATM   12  C15 UNL     1      -2.188  -1.083  -1.149  1.00  0.00     0.011 C 
HETATM   13  C16 UNL     1      -3.716  -1.088  -1.109  1.00  0.00     0.007 C 
HETATM   14  C17 UNL     1      -4.373   0.287  -0.829  1.00  0.00     0.009 C 
HETATM   15  C18 UNL     1      -5.951   0.147  -0.672  1.00  0.00     0.017 C 
HETATM   16  C19 UNL     1      -6.456  -1.253  -0.257  1.00  0.00     0.023 C 
HETATM   17  C20 UNL     1      -6.597   0.491  -2.032  1.00  0.00     0.023 C 
HETATM   18  C21 UNL     1      -6.524   1.087   0.398  1.00  0.00     0.135 C 
HETATM   19  O4  UNL     1      -7.599   1.675   0.240  1.00  0.00    -0.297 OA
HETATM   20  C22 UNL     1      -5.803   1.194   1.726  1.00  0.00     0.080 C 
HETATM   21  C23 UNL     1      -4.332   0.800   1.650  1.00  0.00     0.017 C 
HETATM   22  C24 UNL     1      -3.680   1.148   0.295  1.00  0.00    -0.035 C 
HETATM   23  C25 UNL     1      -3.959   2.663  -0.014  1.00  0.00     0.016 C 
HETATM   24  C26 UNL     1      -2.103   0.988   0.271  1.00  0.00     0.003 C 
HETATM   25  C27 UNL     1      -1.336   1.849   1.330  1.00  0.00     0.009 C 
HETATM   26  C28 UNL     1       0.215   1.831   1.184  1.00  0.00     0.042 C 
HETATM   27  C29 UNL     1       0.709   0.396   1.159  1.00  0.00     0.100 C 
HETATM   28  C30 UNL     1       2.224  -0.012   1.178  1.00  0.00     0.119 C 
ENDROOT
BRANCH   4  29
HETATM   29  C5  UNL     1       5.220  -1.387  -1.024  1.00  0.00     0.180 C 
BRANCH  29  30
HETATM   30  O1  UNL     1       4.947  -2.717  -1.524  1.00  0.00    -0.390 OA
HETATM   31  H9  UNL     1       4.171  -3.047  -1.015  1.00  0.00     0.210 HD
ENDBRANCH  29  30
BRANCH  29  32
HETATM   32  C6  UNL     1       6.738  -1.049  -1.222  1.00  0.00     0.079 C 
HETATM   33  C7  UNL     1       7.356  -1.852  -2.377  1.00  0.00     0.048 C 
HETATM   34  C8  UNL     1       6.957   0.441  -1.527  1.00  0.00     0.048 C 
BRANCH  32  35
HETATM   35  O2  UNL     1       7.478  -1.415  -0.049  1.00  0.00    -0.388 OA
HETATM   36  H16 UNL     1       8.031  -0.664   0.240  1.00  0.00     0.210 HD
ENDBRANCH  32  35
ENDBRANCH  29  32
ENDBRANCH   4  29
BRANCH  28  37
HETATM   37  O6  UNL     1       2.450  -0.614   2.509  1.00  0.00    -0.384 OA
HETATM   38  H50 UNL     1       2.137  -1.544   2.433  1.00  0.00     0.210 HD
ENDBRANCH  28  37
BRANCH  27  39
HETATM   39  O5  UNL     1       0.192  -0.157   2.399  1.00  0.00    -0.386 OA
HETATM   40  H49 UNL     1       0.898  -0.006   3.068  1.00  0.00     0.210 HD
ENDBRANCH  27  39
TORSDOF 6
