REMARK  11 active torsions:
REMARK  status: ('A' for Active; 'I' for Inactive)
REMARK    1  A    between atoms: C12_13  and  O2_14 
REMARK    2  A    between atoms: C19_21  and  O3_22 
REMARK    3  A    between atoms: C19_21  and  C20_23 
REMARK    4  A    between atoms: C20_23  and  C21_25 
REMARK    5  A    between atoms: C21_25  and  O5_26 
REMARK    6  A    between atoms: O5_26  and  C22_27 
REMARK    7  A    between atoms: C22_27  and  C23_29 
REMARK    8  A    between atoms: C23_29  and  C24_30 
REMARK    9  A    between atoms: C24_30  and  C25_31 
REMARK       I    between atoms: C25_31  and  N1_33 
REMARK   10  A    between atoms: N1_33  and  C26_34 
REMARK   11  A    between atoms: C26_34  and  C27_35 
ROOT
HETATM    1  C1  UNL     1      -6.469  -1.574   0.112  1.00  0.00     0.025 C 
HETATM    2  C2  UNL     1      -5.326  -0.893  -0.691  1.00  0.00     0.004 A 
HETATM    3  C3  UNL     1      -6.046  -0.181  -1.830  1.00  0.00    -0.009 A 
HETATM    4  C4  UNL     1      -5.850  -0.428  -3.132  1.00  0.00     0.052 A 
HETATM    5  C5  UNL     1      -4.884  -1.456  -3.569  1.00  0.00     0.172 A 
HETATM    6  O1  UNL     1      -4.684  -1.677  -4.756  1.00  0.00    -0.289 OA
HETATM    7  C6  UNL     1      -4.188  -2.223  -2.515  1.00  0.00     0.058 A 
HETATM    8  C7  UNL     1      -4.395  -1.990  -1.205  1.00  0.00    -0.064 A 
HETATM    9  C8  UNL     1      -3.637  -2.788  -0.160  1.00  0.00     0.036 C 
HETATM   10  C9  UNL     1      -3.309  -1.976   1.100  1.00  0.00     0.010 C 
HETATM   11  C10 UNL     1      -3.178  -0.485   0.761  1.00  0.00    -0.002 C 
HETATM   12  C11 UNL     1      -4.533   0.100   0.263  1.00  0.00     0.035 C 
HETATM   13  C12 UNL     1      -4.238   1.509  -0.303  1.00  0.00     0.124 C 
HETATM   14  C13 UNL     1      -3.753   2.437   0.812  1.00  0.00     0.045 C 
HETATM   15  C14 UNL     1      -2.638   1.894   1.749  1.00  0.00     0.001 C 
HETATM   16  C15 UNL     1      -2.966   2.508   3.153  1.00  0.00     0.019 C 
HETATM   17  C16 UNL     1      -2.607   0.342   1.929  1.00  0.00     0.002 C 
HETATM   18  C17 UNL     1      -1.126  -0.014   2.210  1.00  0.00     0.009 C 
HETATM   19  C18 UNL     1      -0.338   1.290   2.202  1.00  0.00     0.047 C 
HETATM   20  C19 UNL     1      -1.160   2.262   1.353  1.00  0.00     0.128 C 
ENDROOT
BRANCH  20  21
HETATM   21  O3  UNL     1      -0.856   3.586   1.848  1.00  0.00    -0.381 OA
HETATM   22  H25 UNL     1      -0.817   4.192   1.072  1.00  0.00     0.211 HD
ENDBRANCH  20  21
BRANCH  20  23
HETATM   23  C20 UNL     1      -0.802   2.342  -0.155  1.00  0.00     0.185 C 
HETATM   24  O4  UNL     1      -1.034   3.411  -0.749  1.00  0.00    -0.292 OA
BRANCH  23  25
HETATM   25  C21 UNL     1      -0.237   1.158  -0.945  1.00  0.00     0.260 C 
BRANCH  25  26
HETATM   26  O5  UNL     1       0.826   0.391  -0.401  1.00  0.00    -0.314 OA
BRANCH  26  27
HETATM   27  C22 UNL     1       2.064   0.942  -0.509  1.00  0.00     0.259 C 
HETATM   28  O6  UNL     1       2.303   2.062  -0.934  1.00  0.00    -0.265 OA
BRANCH  27  29
HETATM   29  C23 UNL     1       3.088  -0.032   0.006  1.00  0.00     0.120 C 
BRANCH  29  30
HETATM   30  C24 UNL     1       4.504   0.456  -0.250  1.00  0.00     0.112 C 
BRANCH  30  31
HETATM   31  C25 UNL     1       5.528  -0.546   0.247  1.00  0.00     0.218 C 
HETATM   32  O7  UNL     1       5.241  -1.675   0.632  1.00  0.00    -0.274 OA
HETATM   33  N1  UNL     1       6.813  -0.061   0.211  1.00  0.00    -0.357 N 
HETATM   34  H32 UNL     1       6.990   0.847  -0.204  1.00  0.00     0.162 HD
BRANCH  33  35
HETATM   35  C26 UNL     1       7.949  -0.863   0.597  1.00  0.00     0.161 C 
BRANCH  35  36
HETATM   36  C27 UNL     1       8.753  -1.252  -0.612  1.00  0.00    -0.038 A 
HETATM   37  C28 UNL     1       8.419  -2.395  -1.341  1.00  0.00     0.025 A 
HETATM   38  C29 UNL     1       9.165  -2.704  -2.467  1.00  0.00     0.088 A 
HETATM   39  N2  UNL     1      10.203  -1.960  -2.910  1.00  0.00    -0.375 N 
HETATM   40  C30 UNL     1      10.507  -0.858  -2.193  1.00  0.00     0.088 A 
ATOM     41  H2  UNL     1      10.730  -2.219  -3.744  1.00  0.00     0.164 HD
HETATM   42  C31 UNL     1       9.820  -0.465  -1.057  1.00  0.00     0.025 A 
ENDBRANCH  35  36
ENDBRANCH  33  35
ENDBRANCH  30  31
ENDBRANCH  29  30
ENDBRANCH  27  29
ENDBRANCH  26  27
ENDBRANCH  25  26
ENDBRANCH  23  25
ENDBRANCH  20  23
BRANCH  13  43
HETATM   43  O2  UNL     1      -3.256   1.458  -1.324  1.00  0.00    -0.395 OA
HETATM   44  H14 UNL     1      -3.320   2.303  -1.822  1.00  0.00     0.210 HD
ENDBRANCH  13  43
TORSDOF 11
