REMARK  8 active torsions:
REMARK  status: ('A' for Active; 'I' for Inactive)
REMARK    1  A    between atoms: C11_11  and  O1_12 
REMARK    2  A    between atoms: O1_12  and  C12_13 
REMARK    3  A    between atoms: C14_16  and  O3_17 
REMARK    4  A    between atoms: C15_18  and  O4_19 
REMARK    5  A    between atoms: C16_20  and  O5_21 
REMARK    6  A    between atoms: C19_24  and  C20_25 
REMARK    7  A    between atoms: C21_27  and  O7_28 
REMARK    8  A    between atoms: C24_31  and  C25_32 
ROOT
HETATM    1  C1  UNL     1      -4.180  -1.644  -1.379  1.00  0.00     0.019 C 
HETATM    2  C2  UNL     1      -3.807  -0.247  -0.841  1.00  0.00    -0.005 C 
HETATM    3  C3  UNL     1      -2.753   0.382  -1.790  1.00  0.00     0.013 C 
HETATM    4  C4  UNL     1      -1.379  -0.275  -1.703  1.00  0.00     0.007 C 
HETATM    5  C5  UNL     1      -0.809  -0.237  -0.272  1.00  0.00     0.012 C 
HETATM    6  C6  UNL     1      -1.823  -0.878   0.731  1.00  0.00     0.027 C 
HETATM    7  C7  UNL     1      -1.288  -0.800   2.181  1.00  0.00     0.012 C 
HETATM    8  C8  UNL     1       0.108  -1.397   2.333  1.00  0.00     0.036 C 
HETATM    9  C9  UNL     1       1.041  -0.765   1.331  1.00  0.00    -0.065 C 
HETATM   10  C10 UNL     1       2.106  -0.055   1.755  1.00  0.00     0.009 C 
HETATM   11  C11 UNL     1       2.969   0.797   0.875  1.00  0.00     0.148 C 
HETATM   12  C17 UNL     1       2.274   1.097  -0.455  1.00  0.00     0.037 C 
HETATM   13  C18 UNL     1       1.689  -0.179  -1.055  1.00  0.00     0.024 C 
HETATM   14  C19 UNL     1       0.625  -0.867  -0.143  1.00  0.00     0.040 C 
HETATM   15  C21 UNL     1      -3.261  -0.297   0.614  1.00  0.00     0.070 C 
HETATM   16  C22 UNL     1      -3.416   1.153   1.090  1.00  0.00     0.040 C 
HETATM   17  C23 UNL     1      -4.748   1.617   0.503  1.00  0.00     0.013 C 
HETATM   18  C24 UNL     1      -5.029   0.743  -0.746  1.00  0.00     0.028 C 
ENDROOT
BRANCH  11  19
HETATM   19  O1  UNL     1       4.167   0.059   0.646  1.00  0.00    -0.349 OA
BRANCH  19  20
HETATM   20  C12 UNL     1       5.349   0.835   0.854  1.00  0.00     0.291 C 
HETATM   21  O2  UNL     1       5.438   1.916  -0.078  1.00  0.00    -0.356 OA
HETATM   22  C13 UNL     1       6.190   1.579  -1.248  1.00  0.00     0.205 C 
HETATM   23  C14 UNL     1       7.666   1.397  -0.872  1.00  0.00     0.173 C 
HETATM   24  C15 UNL     1       7.820   0.642   0.462  1.00  0.00     0.182 C 
HETATM   25  C16 UNL     1       6.549  -0.137   0.791  1.00  0.00     0.204 C 
BRANCH  23  26
HETATM   26  O3  UNL     1       8.275   2.694  -0.752  1.00  0.00    -0.391 OA
HETATM   27  H20 UNL     1       7.717   3.226  -0.156  1.00  0.00     0.210 HD
ENDBRANCH  23  26
BRANCH  24  28
HETATM   28  O4  UNL     1       8.923  -0.273   0.387  1.00  0.00    -0.390 OA
HETATM   29  H22 UNL     1       8.881  -0.798   1.211  1.00  0.00     0.210 HD
ENDBRANCH  24  28
BRANCH  25  30
HETATM   30  O5  UNL     1       6.718  -0.838   2.036  1.00  0.00    -0.388 OA
HETATM   31  H24 UNL     1       5.889  -1.335   2.177  1.00  0.00     0.210 HD
ENDBRANCH  25  30
ENDBRANCH  19  20
ENDBRANCH  11  19
BRANCH  14  32
HETATM   32  C20 UNL     1       0.605  -2.333  -0.639  1.00  0.00     0.245 C 
HETATM   33  O6  UNL     1       0.455  -3.335   0.051  1.00  0.00    -0.306 OA
ENDBRANCH  14  32
BRANCH  15  34
HETATM   34  O7  UNL     1      -4.147  -1.107   1.398  1.00  0.00    -0.389 OA
HETATM   35  H30 UNL     1      -3.940  -0.983   2.341  1.00  0.00     0.210 HD
ENDBRANCH  15  34
BRANCH  18  36
HETATM   36  C25 UNL     1      -6.410   0.142  -0.753  1.00  0.00    -0.045 A 
HETATM   37  C26 UNL     1      -7.126  -0.352   0.259  1.00  0.00     0.087 A 
HETATM   38  C27 UNL     1      -8.404  -0.798  -0.291  1.00  0.00     0.283 A 
HETATM   39  O8  UNL     1      -9.306  -1.295   0.358  1.00  0.00    -0.260 OA
HETATM   40  O9  UNL     1      -8.424  -0.555  -1.628  1.00  0.00    -0.314 OA
HETATM   41  C28 UNL     1      -7.190   0.048  -2.011  1.00  0.00     0.213 A 
ENDBRANCH  18  36
TORSDOF 8
