REMARK  18 active torsions:
REMARK  status: ('A' for Active; 'I' for Inactive)
REMARK    1  A    between atoms: C2_2  and  C4_4 
REMARK    2  A    between atoms: C4_4  and  N1_5 
REMARK    3  A    between atoms: C4_4  and  C30_38 
REMARK       I    between atoms: N1_5  and  C5_6 
REMARK    4  A    between atoms: C5_6  and  C6_8 
REMARK    5  A    between atoms: C6_8  and  C7_9 
REMARK    6  A    between atoms: C7_9  and  C8_10 
REMARK    7  A    between atoms: C8_10  and  O3_12 
REMARK    8  A    between atoms: O3_12  and  C9_13 
REMARK    9  A    between atoms: C9_13  and  C10_14 
REMARK   10  A    between atoms: C10_14  and  C11_16 
REMARK   11  A    between atoms: C11_16  and  O5_17 
REMARK   12  A    between atoms: C26_33  and  O7_34 
REMARK       I    between atoms: C30_38  and  N2_40 
REMARK   13  A    between atoms: N2_40  and  C31_41 
REMARK   14  A    between atoms: C31_41  and  C32_42 
REMARK   15  A    between atoms: C32_42  and  C33_43 
REMARK   16  A    between atoms: C32_42  and  C35_47 
REMARK   17  A    between atoms: C33_43  and  C34_44 
REMARK   18  A    between atoms: C34_44  and  O10_46 
ROOT
HETATM    1  C8  UNL     1      -0.908  -1.926   1.047  1.00  0.00     0.259 C 
HETATM    2  O2  UNL     1      -0.631  -2.967   0.468  1.00  0.00    -0.265 OA
ENDROOT
BRANCH   1   3
HETATM    3  C7  UNL     1      -2.081  -1.780   1.987  1.00  0.00     0.120 C 
BRANCH   3   4
HETATM    4  C6  UNL     1      -2.900  -0.527   1.716  1.00  0.00     0.112 C 
BRANCH   4   5
HETATM    5  C5  UNL     1      -3.423  -0.532   0.296  1.00  0.00     0.218 C 
HETATM    6  N1  UNL     1      -4.661  -1.113   0.152  1.00  0.00    -0.347 N 
HETATM    7  H9  UNL     1      -5.167  -1.431   0.968  1.00  0.00     0.163 HD
HETATM    8  O1  UNL     1      -2.770  -0.083  -0.639  1.00  0.00    -0.274 OA
BRANCH   6   9
HETATM    9  C4  UNL     1      -5.296  -1.248  -1.172  1.00  0.00     0.179 C 
BRANCH   9  10
HETATM   10  C2  UNL     1      -6.383  -2.352  -1.123  1.00  0.00     0.009 C 
HETATM   11  C1  UNL     1      -7.136  -2.509  -2.449  1.00  0.00     0.012 C 
HETATM   12  C3  UNL     1      -5.771  -3.710  -0.747  1.00  0.00     0.012 C 
ENDBRANCH   9  10
BRANCH   9  13
HETATM   13  C30 UNL     1      -5.897   0.115  -1.609  1.00  0.00     0.240 C 
HETATM   14  O8  UNL     1      -6.144   0.383  -2.782  1.00  0.00    -0.271 OA
HETATM   15  N2  UNL     1      -6.266   0.946  -0.571  1.00  0.00    -0.359 N 
HETATM   16  H43 UNL     1      -6.191   0.582   0.368  1.00  0.00     0.162 HD
BRANCH  15  17
HETATM   17  C31 UNL     1      -7.051   2.145  -0.786  1.00  0.00     0.132 C 
BRANCH  17  18
HETATM   18  C32 UNL     1      -8.567   1.850  -0.788  1.00  0.00     0.046 C 
BRANCH  18  19
HETATM   19  C33 UNL     1      -9.348   3.133  -1.107  1.00  0.00     0.120 C 
BRANCH  19  20
HETATM   20  C34 UNL     1     -10.728   2.844  -1.633  1.00  0.00     0.140 C 
HETATM   21  O9  UNL     1     -11.430   1.873  -1.406  1.00  0.00    -0.650 OA
BRANCH  20  22
HETATM   22  O10 UNL     1     -11.181   3.842  -2.422  1.00  0.00    -0.776 OA
HETATM   23  H49 UNL     1     -12.077   3.547  -2.685  1.00  0.00     0.167 HD
ENDBRANCH  20  22
ENDBRANCH  19  20
ENDBRANCH  18  19
BRANCH  18  24
HETATM   24  C35 UNL     1      -8.991   1.208   0.531  1.00  0.00    -0.052 A 
HETATM   25  C36 UNL     1      -8.825   1.860   1.764  1.00  0.00     0.007 A 
HETATM   26  C37 UNL     1      -9.179   1.225   2.956  1.00  0.00     0.001 A 
HETATM   27  C38 UNL     1      -9.709  -0.062   2.932  1.00  0.00     0.000 A 
HETATM   28  C39 UNL     1      -9.893  -0.716   1.716  1.00  0.00     0.001 A 
HETATM   29  C40 UNL     1      -9.535  -0.087   0.524  1.00  0.00     0.007 A 
ENDBRANCH  18  24
ENDBRANCH  17  18
ENDBRANCH  15  17
ENDBRANCH   9  13
ENDBRANCH   6   9
ENDBRANCH   4   5
ENDBRANCH   3   4
ENDBRANCH   1   3
BRANCH   1  30
HETATM   30  O3  UNL     1      -0.197  -0.771   0.968  1.00  0.00    -0.314 OA
BRANCH  30  31
HETATM   31  C9  UNL     1       0.915  -0.819   0.073  1.00  0.00     0.260 C 
BRANCH  31  32
HETATM   32  C10 UNL     1       2.160  -1.382   0.745  1.00  0.00     0.185 C 
HETATM   33  O4  UNL     1       2.150  -1.769   1.923  1.00  0.00    -0.292 OA
BRANCH  32  34
HETATM   34  C11 UNL     1       3.475  -1.469  -0.052  1.00  0.00     0.128 C 
HETATM   35  C12 UNL     1       3.381  -1.427  -1.595  1.00  0.00     0.047 C 
HETATM   36  C13 UNL     1       4.668  -0.730  -2.090  1.00  0.00     0.009 C 
HETATM   37  C14 UNL     1       5.527  -0.579  -0.838  1.00  0.00     0.002 C 
HETATM   38  C15 UNL     1       6.670   0.444  -0.846  1.00  0.00    -0.002 C 
HETATM   39  C28 UNL     1       4.495  -0.338   0.288  1.00  0.00     0.001 C 
HETATM   40  C16 UNL     1       7.612   0.203  -2.047  1.00  0.00     0.010 C 
HETATM   41  C25 UNL     1       7.432   0.347   0.525  1.00  0.00     0.031 C 
HETATM   42  C17 UNL     1       8.880   1.055  -2.002  1.00  0.00     0.035 C 
HETATM   43  C18 UNL     1       9.538   0.881  -0.656  1.00  0.00    -0.068 C 
HETATM   44  C19 UNL     1      10.727   0.262  -0.557  1.00  0.00     0.053 C 
HETATM   45  C23 UNL     1       8.683   1.304   0.550  1.00  0.00    -0.014 C 
HETATM   46  C20 UNL     1      11.257  -0.174   0.758  1.00  0.00     0.149 C 
HETATM   47  O6  UNL     1      12.379  -0.670   0.825  1.00  0.00    -0.293 OA
HETATM   48  C21 UNL     1      10.340  -0.082   1.950  1.00  0.00     0.084 C 
HETATM   49  C22 UNL     1       9.518   1.191   1.857  1.00  0.00     0.022 C 
HETATM   50  C24 UNL     1       8.317   2.806   0.422  1.00  0.00     0.020 C 
HETATM   51  C26 UNL     1       6.476   0.439   1.750  1.00  0.00     0.124 C 
HETATM   52  C27 UNL     1       5.238  -0.477   1.634  1.00  0.00     0.045 C 
HETATM   53  C29 UNL     1       3.799   1.045   0.194  1.00  0.00     0.019 C 
BRANCH  34  54
HETATM   54  O5  UNL     1       4.041  -2.750   0.290  1.00  0.00    -0.381 OA
HETATM   55  H16 UNL     1       3.814  -2.913   1.230  1.00  0.00     0.211 HD
ENDBRANCH  34  54
BRANCH  51  56
HETATM   56  O7  UNL     1       6.060   1.776   1.982  1.00  0.00    -0.395 OA
HETATM   57  H37 UNL     1       5.538   1.788   2.803  1.00  0.00     0.210 HD
ENDBRANCH  51  56
ENDBRANCH  32  34
ENDBRANCH  31  32
ENDBRANCH  30  31
ENDBRANCH   1  30
TORSDOF 18
