REMARK  10 active torsions:
REMARK  status: ('A' for Active; 'I' for Inactive)
REMARK    1  A    between atoms: C3_3  and  O1_4 
REMARK    2  A    between atoms: N1_14  and  O2_16 
REMARK    3  A    between atoms: O2_16  and  C13_17 
REMARK    4  A    between atoms: C13_17  and  C14_18 
REMARK       I    between atoms: C14_18  and  N2_20 
REMARK    5  A    between atoms: N2_20  and  C15_21 
REMARK    6  A    between atoms: C15_21  and  C16_22 
REMARK    7  A    between atoms: C15_21  and  C19_29 
REMARK       I    between atoms: C16_22  and  N3_24 
REMARK    8  A    between atoms: N3_24  and  C17_25 
REMARK    9  A    between atoms: C17_25  and  C18_26 
REMARK   10  A    between atoms: C18_26  and  O6_28 
ROOT
HETATM    1  C1  UNL     1      -8.219   3.825  -1.569  1.00  0.00     0.015 C 
HETATM    2  C2  UNL     1      -7.719   3.036  -0.812  1.00  0.00    -0.078 C 
HETATM    3  C3  UNL     1      -7.110   2.106   0.155  1.00  0.00     0.128 C 
HETATM    4  C4  UNL     1      -8.099   1.028   0.611  1.00  0.00     0.052 C 
HETATM    5  C5  UNL     1      -7.186   0.011   1.292  1.00  0.00     0.010 C 
HETATM    6  C6  UNL     1      -6.007  -0.107   0.323  1.00  0.00     0.002 C 
HETATM    7  C7  UNL     1      -4.703  -0.720   0.896  1.00  0.00    -0.004 C 
HETATM    8  C8  UNL     1      -4.323  -0.317   2.331  1.00  0.00     0.010 C 
HETATM    9  C9  UNL     1      -3.048  -1.015   2.805  1.00  0.00     0.035 C 
HETATM   10  C10 UNL     1      -1.892  -0.919   1.832  1.00  0.00    -0.069 C 
HETATM   11  C11 UNL     1      -0.659  -0.628   2.283  1.00  0.00     0.030 C 
HETATM   12  C12 UNL     1       0.534  -0.669   1.395  1.00  0.00     0.032 C 
HETATM   13  N1  UNL     1       1.683  -0.315   1.896  1.00  0.00    -0.271 N 
ATOM     14  H1  UNL     1       1.829  -0.020   2.861  1.00  0.00     0.194 HD
HETATM   15  C22 UNL     1       0.343  -1.207  -0.012  1.00  0.00     0.060 C 
HETATM   16  C23 UNL     1      -1.019  -0.803  -0.556  1.00  0.00     0.020 C 
HETATM   17  C24 UNL     1      -2.204  -1.216   0.367  1.00  0.00    -0.016 C 
HETATM   18  C25 UNL     1      -2.402  -2.747   0.218  1.00  0.00     0.020 C 
HETATM   19  C26 UNL     1      -3.520  -0.465  -0.069  1.00  0.00     0.002 C 
HETATM   20  C27 UNL     1      -3.314   1.055  -0.301  1.00  0.00     0.007 C 
HETATM   21  C28 UNL     1      -4.535   1.950  -0.074  1.00  0.00     0.014 C 
HETATM   22  C29 UNL     1      -5.882   1.283  -0.389  1.00  0.00     0.003 C 
HETATM   23  C30 UNL     1      -5.979   1.054  -1.923  1.00  0.00     0.020 C 
ENDROOT
BRANCH   3  24
HETATM   24  O1  UNL     1      -6.745   2.848   1.324  1.00  0.00    -0.377 OA
HETATM   25  H2  UNL     1      -7.356   3.601   1.385  1.00  0.00     0.211 HD
ENDBRANCH   3  24
BRANCH  13  26
HETATM   26  O2  UNL     1       2.691  -0.395   0.926  1.00  0.00    -0.271 OA
BRANCH  26  27
HETATM   27  C13 UNL     1       3.920  -0.758   1.545  1.00  0.00     0.303 C 
BRANCH  27  28
HETATM   28  C14 UNL     1       4.948  -0.931   0.434  1.00  0.00     0.244 C 
HETATM   29  O3  UNL     1       4.669  -1.364  -0.681  1.00  0.00    -0.271 OA
HETATM   30  N2  UNL     1       6.228  -0.520   0.750  1.00  0.00    -0.346 N 
HETATM   31  H16 UNL     1       6.335   0.132   1.517  1.00  0.00     0.163 HD
BRANCH  30  32
HETATM   32  C15 UNL     1       7.310  -0.549  -0.249  1.00  0.00     0.180 C 
BRANCH  32  33
HETATM   33  C16 UNL     1       7.199   0.731  -1.129  1.00  0.00     0.241 C 
HETATM   34  O4  UNL     1       8.113   1.538  -1.279  1.00  0.00    -0.271 OA
HETATM   35  N3  UNL     1       5.987   0.853  -1.778  1.00  0.00    -0.349 N 
HETATM   36  H18 UNL     1       5.409   0.011  -1.817  1.00  0.00     0.163 HD
BRANCH  35  37
HETATM   37  C17 UNL     1       5.758   1.854  -2.802  1.00  0.00     0.232 C 
BRANCH  37  38
HETATM   38  C18 UNL     1       5.905   1.306  -4.219  1.00  0.00     0.158 C 
HETATM   39  O5  UNL     1       5.838   1.966  -5.248  1.00  0.00    -0.649 OA
BRANCH  38  40
HETATM   40  O6  UNL     1       6.044  -0.038  -4.289  1.00  0.00    -0.775 OA
HETATM   41  H21 UNL     1       6.080  -0.217  -5.254  1.00  0.00     0.167 HD
ENDBRANCH  38  40
ENDBRANCH  37  38
ENDBRANCH  35  37
ENDBRANCH  32  33
BRANCH  32  42
HETATM   42  C19 UNL     1       8.694  -0.697   0.429  1.00  0.00     0.009 C 
HETATM   43  C20 UNL     1       9.789  -1.009  -0.602  1.00  0.00     0.012 C 
HETATM   44  C21 UNL     1       8.696  -1.815   1.482  1.00  0.00     0.012 C 
ENDBRANCH  32  42
ENDBRANCH  30  32
ENDBRANCH  27  28
ENDBRANCH  26  27
ENDBRANCH  13  26
TORSDOF 10
