REMARK  7 active torsions:
REMARK  status: ('A' for Active; 'I' for Inactive)
REMARK    1  A    between atoms: C2_2  and  C4_4 
REMARK    2  A    between atoms: C4_4  and  C6_6 
REMARK    3  A    between atoms: C6_6  and  O1_7 
REMARK    4  A    between atoms: C6_6  and  C7_8 
REMARK    5  A    between atoms: C7_8  and  C8_9 
REMARK    6  A    between atoms: C8_9  and  C10_11 
REMARK    7  A    between atoms: C16_17  and  O2_18 
ROOT
HETATM    1  C10 UNL     1       1.870  -0.453  -0.373  1.00  0.00    -0.002 C 
HETATM    2  C11 UNL     1       2.135   0.966   0.206  1.00  0.00     0.006 C 
HETATM    3  C12 UNL     1       0.797   1.517   0.721  1.00  0.00     0.011 C 
HETATM    4  C13 UNL     1      -0.162   0.311   0.740  1.00  0.00    -0.030 C 
HETATM    5  C14 UNL     1       0.091  -0.443   2.082  1.00  0.00     0.016 C 
HETATM    6  C15 UNL     1      -1.673   0.672   0.604  1.00  0.00     0.032 C 
HETATM    7  C16 UNL     1      -2.291   1.353   1.843  1.00  0.00     0.124 C 
HETATM    8  C17 UNL     1      -3.763   1.692   1.604  1.00  0.00     0.038 C 
HETATM    9  C18 UNL     1      -4.597   0.412   1.507  1.00  0.00     0.012 C 
HETATM   10  C19 UNL     1      -6.129   0.651   1.314  1.00  0.00     0.018 C 
HETATM   11  C20 UNL     1      -6.702   1.444   2.508  1.00  0.00     0.023 C 
HETATM   12  C21 UNL     1      -6.484   1.412   0.027  1.00  0.00     0.023 C 
HETATM   13  C22 UNL     1      -6.828  -0.721   1.262  1.00  0.00     0.135 C 
HETATM   14  O3  UNL     1      -7.872  -0.956   1.874  1.00  0.00    -0.297 OA
HETATM   15  C23 UNL     1      -6.242  -1.768   0.342  1.00  0.00     0.080 C 
HETATM   16  C24 UNL     1      -4.754  -1.933   0.602  1.00  0.00     0.018 C 
HETATM   17  C25 UNL     1      -4.038  -0.594   0.490  1.00  0.00    -0.026 A 
HETATM   18  C26 UNL     1      -3.607  -0.176  -0.891  1.00  0.00     0.021 A 
HETATM   19  C27 UNL     1      -2.527  -0.534   0.120  1.00  0.00    -0.025 A 
HETATM   20  C28 UNL     1      -1.806  -1.873  -0.067  1.00  0.00     0.011 C 
HETATM   21  C29 UNL     1      -0.342  -1.851  -0.533  1.00  0.00     0.011 C 
HETATM   22  C30 UNL     1       0.313  -0.467  -0.542  1.00  0.00    -0.032 C 
HETATM   23  C31 UNL     1      -0.063   0.240  -1.880  1.00  0.00     0.016 C 
ENDROOT
BRANCH   1  24
HETATM   24  C8  UNL     1       2.790  -0.772  -1.592  1.00  0.00    -0.011 C 
HETATM   25  C9  UNL     1       2.505  -2.166  -2.167  1.00  0.00     0.010 C 
BRANCH  24  26
HETATM   26  C7  UNL     1       4.296  -0.681  -1.195  1.00  0.00     0.037 C 
BRANCH  26  27
HETATM   27  C6  UNL     1       5.184  -0.091  -2.308  1.00  0.00     0.126 C 
BRANCH  27  28
HETATM   28  C4  UNL     1       6.687   0.067  -1.935  1.00  0.00     0.038 C 
HETATM   29  C5  UNL     1       7.369  -1.275  -1.633  1.00  0.00     0.017 C 
BRANCH  28  30
HETATM   30  C2  UNL     1       6.936   1.133  -0.869  1.00  0.00    -0.087 C 
HETATM   31  C1  UNL     1       7.024   2.431  -1.208  1.00  0.00     0.014 C 
HETATM   32  C3  UNL     1       7.113   0.710   0.566  1.00  0.00     0.043 C 
ENDBRANCH  28  30
ENDBRANCH  27  28
BRANCH  27  33
HETATM   33  O1  UNL     1       5.072  -0.901  -3.481  1.00  0.00    -0.395 OA
HETATM   34  H11 UNL     1       5.560  -0.454  -4.193  1.00  0.00     0.210 HD
ENDBRANCH  27  33
ENDBRANCH  26  27
ENDBRANCH  24  26
ENDBRANCH   1  24
BRANCH   7  35
HETATM   35  O2  UNL     1      -1.608   2.567   2.152  1.00  0.00    -0.395 OA
HETATM   36  H28 UNL     1      -1.681   3.157   1.383  1.00  0.00     0.210 HD
ENDBRANCH   7  35
TORSDOF 7
