REMARK  12 active torsions:
REMARK  status: ('A' for Active; 'I' for Inactive)
REMARK    1  A    between atoms: C2_2  and  C3_3 
REMARK    2  A    between atoms: C4_5  and  C5_6 
REMARK    3  A    between atoms: C5_6  and  C7_8 
REMARK    4  A    between atoms: C7_8  and  C8_9 
REMARK    5  A    between atoms: C9_10  and  C10_11 
REMARK    6  A    between atoms: C17_19  and  C18_20 
REMARK    7  A    between atoms: C18_20  and  C19_21 
REMARK    8  A    between atoms: C28_33  and  C29_34 
REMARK    9  A    between atoms: C29_34  and  C30_36 
REMARK   10  A    between atoms: C30_36  and  C31_37 
REMARK   11  A    between atoms: C31_37  and  C32_38 
REMARK   12  A    between atoms: C32_38  and  O5_39 
ROOT
HETATM    1  C10 UNL     1       0.739   0.365  -0.847  1.00  0.00     0.066 C 
HETATM    2  C11 UNL     1       0.688   0.128  -2.345  1.00  0.00     0.166 A 
HETATM    3  O2  UNL     1       0.584   1.298  -3.161  1.00  0.00    -0.368 OA
HETATM    4  C12 UNL     1      -0.601   0.496  -3.042  1.00  0.00     0.088 A 
HETATM    5  C13 UNL     1      -0.969  -0.224  -4.299  1.00  0.00     0.049 C 
HETATM    6  C14 UNL     1      -1.662   1.099  -2.147  1.00  0.00     0.026 C 
HETATM    7  C15 UNL     1      -2.953   1.476  -2.873  1.00  0.00     0.014 C 
HETATM    8  C16 UNL     1      -1.881   0.228  -0.873  1.00  0.00     0.041 C 
HETATM    9  C17 UNL     1      -2.720  -1.049  -1.104  1.00  0.00     0.095 C 
HETATM   10  N2  UNL     1      -1.766  -2.118  -1.009  1.00  0.00    -0.355 N 
HETATM   11  C27 UNL     1      -0.560  -1.765  -0.466  1.00  0.00     0.235 C 
HETATM   12  O3  UNL     1       0.317  -2.580  -0.234  1.00  0.00    -0.272 OA
HETATM   13  C28 UNL     1      -0.533  -0.271  -0.197  1.00  0.00     0.116 C 
HETATM   14  H33 UNL     1      -1.956  -3.087  -1.247  1.00  0.00     0.162 HD
ENDROOT
BRANCH   9  15
HETATM   15  C18 UNL     1      -3.857  -1.242  -0.079  1.00  0.00     0.066 C 
BRANCH  15  16
HETATM   16  C19 UNL     1      -4.991  -0.287  -0.275  1.00  0.00    -0.028 A 
HETATM   17  C20 UNL     1      -5.985  -0.389  -1.230  1.00  0.00     0.096 A 
HETATM   18  N1  UNL     1      -6.820   0.688  -1.100  1.00  0.00    -0.365 N 
HETATM   19  C21 UNL     1      -6.393   1.500  -0.076  1.00  0.00     0.042 A 
HETATM   20  H28 UNL     1      -7.632   0.872  -1.671  1.00  0.00     0.165 HD
HETATM   21  C22 UNL     1      -6.927   2.703   0.401  1.00  0.00     0.030 A 
HETATM   22  C26 UNL     1      -5.255   0.908   0.473  1.00  0.00    -0.002 A 
HETATM   23  C23 UNL     1      -6.275   3.323   1.470  1.00  0.00     0.002 A 
HETATM   24  C24 UNL     1      -5.137   2.761   2.039  1.00  0.00     0.001 A 
HETATM   25  C25 UNL     1      -4.620   1.556   1.553  1.00  0.00     0.014 A 
ENDBRANCH  15  16
ENDBRANCH   9  15
BRANCH  13  26
HETATM   26  C29 UNL     1      -0.566   0.114   1.285  1.00  0.00     0.146 C 
HETATM   27  O4  UNL     1      -0.649   1.307   1.601  1.00  0.00    -0.297 OA
BRANCH  26  28
HETATM   28  C30 UNL     1      -0.586  -0.964   2.359  1.00  0.00     0.081 C 
BRANCH  28  29
HETATM   29  C31 UNL     1       0.017  -0.460   3.676  1.00  0.00     0.033 C 
BRANCH  29  30
HETATM   30  C32 UNL     1      -0.212  -1.427   4.833  1.00  0.00     0.164 C 
BRANCH  30  31
HETATM   31  O5  UNL     1       0.457  -2.663   4.618  1.00  0.00    -0.401 OA
HETATM   32  H40 UNL     1      -0.005  -3.152   3.917  1.00  0.00     0.209 HD
ENDBRANCH  30  31
ENDBRANCH  29  30
ENDBRANCH  28  29
ENDBRANCH  26  28
ENDBRANCH  13  26
BRANCH   1  33
HETATM   33  C9  UNL     1       2.047   0.016  -0.149  1.00  0.00    -0.022 C 
HETATM   34  C8  UNL     1       3.031  -0.774  -0.610  1.00  0.00    -0.029 C 
BRANCH  34  35
HETATM   35  C7  UNL     1       4.304  -1.064   0.139  1.00  0.00     0.035 C 
BRANCH  35  36
HETATM   36  C5  UNL     1       5.559  -0.439  -0.511  1.00  0.00     0.008 C 
HETATM   37  C6  UNL     1       5.771  -0.909  -1.956  1.00  0.00     0.014 C 
BRANCH  36  38
HETATM   38  C4  UNL     1       6.775  -0.802   0.313  1.00  0.00    -0.013 C 
HETATM   39  C2  UNL     1       7.568   0.018   1.029  1.00  0.00    -0.028 C 
HETATM   40  C1  UNL     1       7.448   1.503   1.174  1.00  0.00     0.051 C 
BRANCH  39  41
HETATM   41  C3  UNL     1       8.711  -0.594   1.778  1.00  0.00     0.265 C 
HETATM   42  O1  UNL     1       8.973  -1.791   1.778  1.00  0.00    -0.302 OA
ENDBRANCH  39  41
ENDBRANCH  36  38
ENDBRANCH  35  36
ENDBRANCH  34  35
ENDBRANCH   1  33
TORSDOF 12
