REMARK  10 active torsions:
REMARK  status: ('A' for Active; 'I' for Inactive)
REMARK    1  A    between atoms: C3_3  and  C4_4 
REMARK    2  A    between atoms: C4_4  and  O1_5 
REMARK    3  A    between atoms: O1_5  and  C5_6 
REMARK    4  A    between atoms: C6_8  and  C7_9 
REMARK    5  A    between atoms: C7_9  and  O3_10 
REMARK    6  A    between atoms: C8_11  and  O4_12 
REMARK    7  A    between atoms: C9_13  and  O5_14 
REMARK    8  A    between atoms: C10_15  and  O6_16 
REMARK    9  A    between atoms: C12_20  and  C13_21 
REMARK   10  A    between atoms: C13_21  and  C15_23 
ROOT
HETATM    1  C1  UNL     1       4.016   1.809   2.343  1.00  0.00     0.044 C 
HETATM    2  C2  UNL     1       3.208   1.707   1.083  1.00  0.00    -0.067 C 
HETATM    3  C3  UNL     1       3.729   1.600  -0.161  1.00  0.00     0.043 C 
HETATM    4  C11 UNL     1       2.815   1.581  -1.338  1.00  0.00     0.292 C 
HETATM    5  O7  UNL     1       3.219   1.808  -2.474  1.00  0.00    -0.260 OA
HETATM    6  O8  UNL     1       1.500   1.329  -1.101  1.00  0.00    -0.311 OA
HETATM    7  C12 UNL     1       1.075   0.828   0.190  1.00  0.00     0.140 C 
HETATM    8  C34 UNL     1       1.713   1.695   1.278  1.00  0.00     0.067 C 
ENDROOT
BRANCH   7   9
HETATM    9  C13 UNL     1      -0.491   0.824   0.206  1.00  0.00     0.016 C 
HETATM   10  C14 UNL     1      -1.028   0.642   1.626  1.00  0.00     0.013 C 
BRANCH   9  11
HETATM   11  C15 UNL     1      -1.029  -0.238  -0.810  1.00  0.00     0.000 C 
HETATM   12  C16 UNL     1      -0.917  -1.688  -0.308  1.00  0.00     0.006 C 
HETATM   13  C17 UNL     1      -2.328  -2.083   0.069  1.00  0.00     0.006 C 
HETATM   14  C18 UNL     1      -3.188  -1.467  -1.040  1.00  0.00    -0.002 C 
HETATM   15  C19 UNL     1      -4.681  -1.399  -0.669  1.00  0.00    -0.004 C 
HETATM   16  C32 UNL     1      -2.498  -0.123  -1.393  1.00  0.00    -0.036 C 
HETATM   17  C20 UNL     1      -5.567  -1.205  -1.912  1.00  0.00     0.006 C 
HETATM   18  C29 UNL     1      -4.973  -0.355   0.440  1.00  0.00     0.006 C 
HETATM   19  C21 UNL     1      -7.056  -1.123  -1.572  1.00  0.00     0.006 C 
HETATM   20  C22 UNL     1      -7.305  -0.030  -0.529  1.00  0.00     0.001 C 
HETATM   21  C23 UNL     1      -8.807   0.188  -0.294  1.00  0.00     0.006 C 
HETATM   22  C27 UNL     1      -6.513  -0.295   0.780  1.00  0.00     0.024 C 
HETATM   23  C24 UNL     1      -9.012   1.381   0.633  1.00  0.00     0.008 C 
HETATM   24  C25 UNL     1      -8.306   1.201   1.966  1.00  0.00     0.079 C 
HETATM   25  C26 UNL     1      -6.849   0.798   1.815  1.00  0.00     0.136 C 
HETATM   26  O9  UNL     1      -6.011   1.229   2.608  1.00  0.00    -0.297 OA
HETATM   27  C28 UNL     1      -6.934  -1.617   1.475  1.00  0.00     0.024 C 
HETATM   28  C30 UNL     1      -4.350   1.023   0.130  1.00  0.00     0.007 C 
HETATM   29  C31 UNL     1      -3.343   1.119  -1.023  1.00  0.00     0.010 C 
HETATM   30  C33 UNL     1      -2.322  -0.071  -2.939  1.00  0.00     0.016 C 
ENDBRANCH   9  11
ENDBRANCH   7   9
BRANCH   3  31
HETATM   31  C4  UNL     1       5.199   1.571  -0.490  1.00  0.00     0.216 C 
BRANCH  31  32
HETATM   32  O1  UNL     1       5.774   0.412   0.118  1.00  0.00    -0.354 OA
BRANCH  32  33
HETATM   33  C5  UNL     1       7.204   0.382   0.093  1.00  0.00     0.291 C 
HETATM   34  O2  UNL     1       7.596  -0.537   1.117  1.00  0.00    -0.348 OA
HETATM   35  C6  UNL     1       9.008  -0.749   1.218  1.00  0.00     0.179 C 
HETATM   36  C8  UNL     1       9.555  -1.344  -0.083  1.00  0.00     0.180 C 
HETATM   37  C9  UNL     1       9.219  -0.394  -1.227  1.00  0.00     0.183 C 
HETATM   38  C10 UNL     1       7.730  -0.068  -1.288  1.00  0.00     0.204 C 
BRANCH  35  39
HETATM   39  C7  UNL     1       9.259  -1.694   2.402  1.00  0.00     0.198 C 
BRANCH  39  40
HETATM   40  O3  UNL     1       8.814  -1.134   3.637  1.00  0.00    -0.398 OA
HETATM   41  H10 UNL     1       8.561  -0.202   3.471  1.00  0.00     0.209 HD
ENDBRANCH  39  40
ENDBRANCH  35  39
BRANCH  36  42
HETATM   42  O4  UNL     1      10.979  -1.489  -0.034  1.00  0.00    -0.390 OA
HETATM   43  H12 UNL     1      11.174  -2.389   0.284  1.00  0.00     0.210 HD
ENDBRANCH  36  42
BRANCH  37  44
HETATM   44  O5  UNL     1       9.614  -0.976  -2.479  1.00  0.00    -0.390 OA
HETATM   45  H14 UNL     1      10.587  -1.017  -2.455  1.00  0.00     0.210 HD
ENDBRANCH  37  44
BRANCH  38  46
HETATM   46  O6  UNL     1       7.566   0.958  -2.282  1.00  0.00    -0.388 OA
HETATM   47  H16 UNL     1       7.925   0.573  -3.108  1.00  0.00     0.210 HD
ENDBRANCH  38  46
ENDBRANCH  32  33
ENDBRANCH  31  32
ENDBRANCH   3  31
TORSDOF 10
