REMARK  10 active torsions:
REMARK  status: ('A' for Active; 'I' for Inactive)
REMARK    1  A    between atoms: C19_21  and  O3_22 
REMARK    2  A    between atoms: C19_21  and  C20_23 
REMARK    3  A    between atoms: C20_23  and  C21_25 
REMARK    4  A    between atoms: C21_25  and  O5_26 
REMARK    5  A    between atoms: O5_26  and  C22_27 
REMARK    6  A    between atoms: C22_27  and  C23_29 
REMARK    7  A    between atoms: C23_29  and  C24_30 
REMARK    8  A    between atoms: C24_30  and  C25_31 
REMARK       I    between atoms: C25_31  and  N1_33 
REMARK    9  A    between atoms: N1_33  and  C26_34 
REMARK   10  A    between atoms: C26_34  and  C27_35 
ROOT
HETATM    1  C1  UNL     1      -5.770   0.430  -1.304  1.00  0.00     0.021 C 
HETATM    2  C2  UNL     1      -5.162  -0.169  -0.015  1.00  0.00    -0.009 C 
HETATM    3  C3  UNL     1      -5.588  -1.663   0.119  1.00  0.00     0.022 C 
HETATM    4  C4  UNL     1      -7.047  -1.858   0.505  1.00  0.00     0.084 C 
HETATM    5  C5  UNL     1      -7.355  -1.113   1.776  1.00  0.00     0.149 C 
HETATM    6  O1  UNL     1      -8.192  -1.505   2.584  1.00  0.00    -0.293 OA
HETATM    7  C6  UNL     1      -6.673   0.182   2.003  1.00  0.00     0.053 C 
HETATM    8  C7  UNL     1      -5.716   0.635   1.176  1.00  0.00    -0.067 C 
HETATM    9  C8  UNL     1      -5.152   2.021   1.384  1.00  0.00     0.035 C 
HETATM   10  C9  UNL     1      -3.628   2.018   1.406  1.00  0.00     0.010 C 
HETATM   11  C10 UNL     1      -3.054   1.363   0.143  1.00  0.00     0.003 C 
HETATM   12  C11 UNL     1      -3.592  -0.091   0.006  1.00  0.00     0.072 C 
HETATM   13  C12 UNL     1      -2.873  -0.803  -1.156  1.00  0.00     0.133 C 
HETATM   14  O2  UNL     1      -3.457  -1.431  -2.036  1.00  0.00    -0.297 OA
HETATM   15  C13 UNL     1      -1.350  -0.759  -1.147  1.00  0.00     0.091 C 
HETATM   16  C14 UNL     1      -0.877   0.698  -1.080  1.00  0.00     0.005 C 
HETATM   17  C15 UNL     1      -1.270   1.426  -2.394  1.00  0.00     0.019 C 
HETATM   18  C16 UNL     1      -1.520   1.329   0.184  1.00  0.00     0.002 C 
HETATM   19  C17 UNL     1      -0.780   2.650   0.344  1.00  0.00     0.009 C 
HETATM   20  C18 UNL     1       0.647   2.356  -0.153  1.00  0.00     0.047 C 
HETATM   21  C19 UNL     1       0.630   0.918  -0.754  1.00  0.00     0.128 C 
ENDROOT
BRANCH  21  22
HETATM   22  O3  UNL     1       1.012   0.031   0.300  1.00  0.00    -0.381 OA
HETATM   23  H25 UNL     1       1.946   0.239   0.520  1.00  0.00     0.211 HD
ENDBRANCH  21  22
BRANCH  21  24
HETATM   24  C20 UNL     1       1.595   0.788  -1.960  1.00  0.00     0.185 C 
HETATM   25  O4  UNL     1       2.172   1.772  -2.436  1.00  0.00    -0.292 OA
BRANCH  24  26
HETATM   26  C21 UNL     1       1.776  -0.583  -2.631  1.00  0.00     0.260 C 
BRANCH  26  27
HETATM   27  O5  UNL     1       1.895  -1.784  -1.882  1.00  0.00    -0.314 OA
BRANCH  27  28
HETATM   28  C22 UNL     1       2.862  -1.780  -0.925  1.00  0.00     0.259 C 
HETATM   29  O6  UNL     1       3.467  -0.782  -0.555  1.00  0.00    -0.265 OA
BRANCH  28  30
HETATM   30  C23 UNL     1       3.041  -3.169  -0.362  1.00  0.00     0.120 C 
BRANCH  30  31
HETATM   31  C24 UNL     1       4.119  -3.190   0.718  1.00  0.00     0.112 C 
BRANCH  31  32
HETATM   32  C25 UNL     1       5.475  -2.811   0.152  1.00  0.00     0.218 C 
HETATM   33  O7  UNL     1       5.770  -2.982  -1.026  1.00  0.00    -0.274 OA
HETATM   34  N1  UNL     1       6.331  -2.281   1.090  1.00  0.00    -0.357 N 
HETATM   35  H32 UNL     1       5.966  -2.061   2.009  1.00  0.00     0.162 HD
BRANCH  34  36
HETATM   36  C26 UNL     1       7.545  -1.598   0.698  1.00  0.00     0.161 C 
BRANCH  36  37
HETATM   37  C27 UNL     1       7.347  -0.106   0.772  1.00  0.00    -0.038 A 
HETATM   38  C28 UNL     1       7.906   0.648   1.807  1.00  0.00     0.025 A 
HETATM   39  C29 UNL     1       7.654   2.011   1.846  1.00  0.00     0.088 A 
HETATM   40  N2  UNL     1       6.887   2.663   0.945  1.00  0.00    -0.375 N 
HETATM   41  C30 UNL     1       6.348   1.916  -0.042  1.00  0.00     0.088 A 
ATOM     42  H2  UNL     1       6.724   3.668   1.007  1.00  0.00     0.164 HD
HETATM   43  C31 UNL     1       6.552   0.551  -0.173  1.00  0.00     0.025 A 
ENDBRANCH  36  37
ENDBRANCH  34  36
ENDBRANCH  31  32
ENDBRANCH  30  31
ENDBRANCH  28  30
ENDBRANCH  27  28
ENDBRANCH  26  27
ENDBRANCH  24  26
ENDBRANCH  21  24
TORSDOF 10
