REMARK  11 active torsions:
REMARK  status: ('A' for Active; 'I' for Inactive)
REMARK    1  A    between atoms: C2_2  and  O1_3 
REMARK    2  A    between atoms: C2_2  and  C3_4 
REMARK    3  A    between atoms: C4_5  and  C5_6 
REMARK    4  A    between atoms: C5_6  and  O2_7 
REMARK    5  A    between atoms: C9_11  and  O3_12 
REMARK    6  A    between atoms: O3_12  and  C10_13 
REMARK    7  A    between atoms: C11_15  and  C12_16 
REMARK    8  A    between atoms: C12_16  and  O5_17 
REMARK    9  A    between atoms: C13_18  and  O6_19 
REMARK   10  A    between atoms: C14_20  and  O7_21 
REMARK   11  A    between atoms: C15_22  and  O8_23 
ROOT
HETATM    1  C5  UNL     1       1.907   0.841  -0.333  1.00  0.00     0.086 C 
HETATM    2  C6  UNL     1       1.430  -0.291  -1.317  1.00  0.00     0.023 C 
HETATM    3  C7  UNL     1       1.630   0.049  -2.804  1.00  0.00     0.013 C 
HETATM    4  C8  UNL     1      -0.054  -0.611  -1.090  1.00  0.00     0.039 C 
HETATM    5  C9  UNL     1      -0.318  -1.196   0.298  1.00  0.00     0.126 C 
HETATM    6  C16 UNL     1       0.780  -0.824   1.306  1.00  0.00     0.044 C 
HETATM    7  C17 UNL     1       1.339   0.617   1.152  1.00  0.00    -0.010 C 
HETATM    8  C18 UNL     1       0.230   1.638   1.512  1.00  0.00     0.018 C 
HETATM    9  C19 UNL     1       2.421   0.780   2.254  1.00  0.00     0.018 C 
ENDROOT
BRANCH   5  10
HETATM   10  O3  UNL     1      -1.572  -0.747   0.821  1.00  0.00    -0.353 OA
BRANCH  10  11
HETATM   11  C10 UNL     1      -2.717  -1.415   0.281  1.00  0.00     0.292 C 
HETATM   12  O4  UNL     1      -2.995  -0.999  -1.052  1.00  0.00    -0.348 OA
HETATM   13  C11 UNL     1      -3.986   0.027  -1.215  1.00  0.00     0.179 C 
HETATM   14  C13 UNL     1      -5.350  -0.431  -0.656  1.00  0.00     0.180 C 
HETATM   15  C14 UNL     1      -5.223  -1.369   0.552  1.00  0.00     0.183 C 
HETATM   16  C15 UNL     1      -3.890  -1.212   1.268  1.00  0.00     0.204 C 
BRANCH  13  17
HETATM   17  C12 UNL     1      -3.537   1.394  -0.663  1.00  0.00     0.198 C 
BRANCH  17  18
HETATM   18  O5  UNL     1      -2.599   1.988  -1.562  1.00  0.00    -0.398 OA
HETATM   19  H20 UNL     1      -1.804   2.233  -1.044  1.00  0.00     0.209 HD
ENDBRANCH  17  18
ENDBRANCH  13  17
BRANCH  14  20
HETATM   20  O6  UNL     1      -6.056  -1.172  -1.675  1.00  0.00    -0.390 OA
HETATM   21  H22 UNL     1      -6.248  -0.558  -2.405  1.00  0.00     0.210 HD
ENDBRANCH  14  20
BRANCH  15  22
HETATM   22  O7  UNL     1      -6.286  -1.095   1.484  1.00  0.00    -0.390 OA
HETATM   23  H24 UNL     1      -6.041  -1.553   2.312  1.00  0.00     0.210 HD
ENDBRANCH  15  22
BRANCH  16  24
HETATM   24  O8  UNL     1      -3.848  -2.141   2.374  1.00  0.00    -0.388 OA
HETATM   25  H26 UNL     1      -3.745  -3.039   2.012  1.00  0.00     0.210 HD
ENDBRANCH  16  24
ENDBRANCH  10  11
ENDBRANCH   5  10
BRANCH   1  26
HETATM   26  C4  UNL     1       3.413   1.074  -0.353  1.00  0.00     0.010 C 
HETATM   27  C3  UNL     1       4.392   0.242  -0.757  1.00  0.00     0.003 C 
BRANCH  27  28
HETATM   28  C2  UNL     1       5.873   0.526  -0.743  1.00  0.00     0.136 C 
HETATM   29  C1  UNL     1       6.636  -0.537   0.043  1.00  0.00     0.043 C 
BRANCH  28  30
HETATM   30  O1  UNL     1       6.147   1.802  -0.175  1.00  0.00    -0.392 OA
HETATM   31  H5  UNL     1       5.900   1.756   0.765  1.00  0.00     0.210 HD
ENDBRANCH  28  30
ENDBRANCH  27  28
ENDBRANCH   1  26
BRANCH   1  32
HETATM   32  O2  UNL     1       1.358   2.079  -0.829  1.00  0.00    -0.385 OA
HETATM   33  H8  UNL     1       1.872   2.339  -1.613  1.00  0.00     0.211 HD
ENDBRANCH   1  32
TORSDOF 11
