REMARK  13 active torsions:
REMARK  status: ('A' for Active; 'I' for Inactive)
REMARK    1  A    between atoms: C4_4  and  C5_5 
REMARK    2  A    between atoms: C5_5  and  C6_6 
REMARK    3  A    between atoms: C6_6  and  C7_7 
REMARK    4  A    between atoms: C9_9  and  C10_10 
REMARK    5  A    between atoms: C11_11  and  C12_12 
REMARK    6  A    between atoms: C14_14  and  C15_15 
REMARK    7  A    between atoms: C18_18  and  O1_19 
REMARK    8  A    between atoms: C19_21  and  C20_22 
REMARK    9  A    between atoms: C20_22  and  C21_23 
REMARK   10  A    between atoms: C21_23  and  C22_24 
REMARK   11  A    between atoms: C22_24  and  O3_25 
REMARK   12  A    between atoms: C24_27  and  C26_29 
REMARK   13  A    between atoms: C29_33  and  O5_35 
ROOT
HETATM    1  C15 UNL     1      -1.363   1.702   0.446  1.00  0.00     0.149 C 
HETATM    2  C16 UNL     1      -2.241   0.478   0.723  1.00  0.00     0.054 C 
HETATM    3  C17 UNL     1      -3.651   0.857   0.192  1.00  0.00     0.050 C 
HETATM    4  C18 UNL     1      -3.226   1.819  -0.932  1.00  0.00     0.270 C 
HETATM    5  O2  UNL     1      -2.095   2.546  -0.453  1.00  0.00    -0.351 OA
HETATM    6  C19 UNL     1      -4.381  -0.451  -0.332  1.00  0.00     0.032 C 
HETATM    7  C23 UNL     1      -4.711  -1.362   0.870  1.00  0.00    -0.066 C 
HETATM    8  C24 UNL     1      -4.318  -2.654   0.988  1.00  0.00    -0.021 C 
HETATM    9  C25 UNL     1      -4.592  -3.527   2.179  1.00  0.00     0.052 C 
HETATM   10  C27 UNL     1      -5.563  -0.674   1.916  1.00  0.00     0.038 C 
HETATM   11  C28 UNL     1      -4.917   0.607   2.428  1.00  0.00     0.042 C 
HETATM   12  C29 UNL     1      -4.511   1.587   1.302  1.00  0.00     0.067 C 
HETATM   13  C30 UNL     1      -3.875   2.817   1.973  1.00  0.00     0.047 C 
ENDROOT
BRANCH   4  14
HETATM   14  O1  UNL     1      -2.758   1.128  -2.078  1.00  0.00    -0.370 OA
HETATM   15  H26 UNL     1      -2.485   1.838  -2.686  1.00  0.00     0.212 HD
ENDBRANCH   4  14
BRANCH   6  16
HETATM   16  C20 UNL     1      -5.679  -0.314  -1.176  1.00  0.00     0.012 C 
BRANCH  16  17
HETATM   17  C21 UNL     1      -5.541   0.059  -2.656  1.00  0.00     0.027 C 
BRANCH  17  18
HETATM   18  C22 UNL     1      -4.744  -0.927  -3.505  1.00  0.00     0.164 C 
BRANCH  18  19
HETATM   19  O3  UNL     1      -5.294  -2.234  -3.416  1.00  0.00    -0.401 OA
HETATM   20  H34 UNL     1      -4.884  -2.652  -2.625  1.00  0.00     0.209 HD
ENDBRANCH  18  19
ENDBRANCH  17  18
ENDBRANCH  16  17
ENDBRANCH   6  16
BRANCH  12  21
HETATM   21  O5  UNL     1      -5.711   2.081   0.688  1.00  0.00    -0.389 OA
HETATM   22  H46 UNL     1      -6.251   2.525   1.366  1.00  0.00     0.210 HD
ENDBRANCH  12  21
BRANCH   1  23
HETATM   23  C14 UNL     1      -0.043   1.359  -0.188  1.00  0.00     0.011 C 
HETATM   24  C12 UNL     1       1.201   1.715   0.200  1.00  0.00    -0.063 C 
HETATM   25  C13 UNL     1       1.501   2.578   1.400  1.00  0.00     0.048 C 
BRANCH  24  26
HETATM   26  C11 UNL     1       2.340   1.227  -0.584  1.00  0.00     0.006 C 
HETATM   27  C10 UNL     1       3.626   1.585  -0.428  1.00  0.00     0.001 C 
BRANCH  27  28
HETATM   28  C9  UNL     1       4.698   1.011  -1.214  1.00  0.00     0.002 C 
HETATM   29  C7  UNL     1       5.989   1.398  -1.214  1.00  0.00    -0.084 C 
HETATM   30  C8  UNL     1       6.534   2.587  -0.465  1.00  0.00     0.043 C 
BRANCH  29  31
HETATM   31  C6  UNL     1       7.013   0.629  -2.037  1.00  0.00     0.037 C 
BRANCH  31  32
HETATM   32  C5  UNL     1       8.127  -0.039  -1.210  1.00  0.00     0.031 C 
BRANCH  32  33
HETATM   33  C4  UNL     1       7.617  -1.114  -0.284  1.00  0.00    -0.024 C 
HETATM   34  C2  UNL     1       7.992  -2.407  -0.209  1.00  0.00    -0.091 C 
HETATM   35  C1  UNL     1       9.036  -3.069  -1.065  1.00  0.00     0.042 C 
HETATM   36  C3  UNL     1       7.358  -3.325   0.805  1.00  0.00     0.042 C 
ENDBRANCH  32  33
ENDBRANCH  31  32
ENDBRANCH  29  31
ENDBRANCH  27  28
ENDBRANCH  24  26
ENDBRANCH   1  23
BRANCH   8  37
HETATM   37  C26 UNL     1      -3.593  -3.362  -0.110  1.00  0.00     0.265 C 
HETATM   38  O4  UNL     1      -3.911  -3.280  -1.290  1.00  0.00    -0.302 OA
ENDBRANCH   8  37
TORSDOF 13
