REMARK  8 active torsions:
REMARK  status: ('A' for Active; 'I' for Inactive)
REMARK    1  A    between atoms: P1_2  and  O2_3 
REMARK    2  A    between atoms: P1_2  and  O3_4 
REMARK    3  A    between atoms: P1_2  and  C1_5 
REMARK    4  A    between atoms: C1_5  and  C2_6 
REMARK    5  A    between atoms: C1_5  and  P2_14 
REMARK    6  A    between atoms: C2_6  and  C3_7 
REMARK    7  A    between atoms: P2_14  and  O5_16 
REMARK    8  A    between atoms: P2_14  and  O6_17 
ROOT
HETATM    1  C1  UNL     1      -0.951  -0.523  -0.458  1.00  0.00     0.214 C 
ENDROOT
BRANCH   1   2
HETATM    2  P1  UNL     1      -2.182   0.091  -1.607  1.00  0.00     0.252 P 
HETATM    3  O1  UNL     1      -2.747  -0.800  -2.656  1.00  0.00    -0.653 OA
BRANCH   2   4
HETATM    4  O2  UNL     1      -1.506   1.378  -2.299  1.00  0.00    -0.328 OA
HETATM    5  H1  UNL     1      -1.998   1.665  -3.092  1.00  0.00     0.220 HD
ENDBRANCH   2   4
BRANCH   2   6
HETATM    6  O3  UNL     1      -3.326   0.813  -0.750  1.00  0.00    -0.328 OA
HETATM    7  H2  UNL     1      -4.132   0.993  -1.269  1.00  0.00     0.220 HD
ENDBRANCH   2   6
ENDBRANCH   1   2
BRANCH   1   8
HETATM    8  C2  UNL     1      -0.504   0.595   0.495  1.00  0.00     0.085 C 
BRANCH   8   9
HETATM    9  C3  UNL     1       0.994   0.618   0.667  1.00  0.00     0.010 A 
HETATM   10  C4  UNL     1       1.731   1.747   0.323  1.00  0.00     0.025 A 
HETATM   11  C5  UNL     1       3.112   1.728   0.499  1.00  0.00     0.003 A 
HETATM   12  C6  UNL     1       3.718   0.589   1.013  1.00  0.00     0.017 A 
HETATM   13  C7  UNL     1       2.914  -0.490   1.332  1.00  0.00     0.088 A 
HETATM   14  N1  UNL     1       1.567  -0.505   1.170  1.00  0.00    -0.369 N 
ATOM     15  H1  UNL     1       1.010  -1.323   1.415  1.00  0.00     0.165 HD
ENDBRANCH   8   9
ENDBRANCH   1   8
BRANCH   1  16
HETATM   16  P2  UNL     1      -1.374  -2.041   0.403  1.00  0.00     0.252 P 
HETATM   17  O4  UNL     1      -1.910  -3.156  -0.429  1.00  0.00    -0.653 OA
BRANCH  16  18
HETATM   18  O5  UNL     1      -2.375  -1.622   1.583  1.00  0.00    -0.328 OA
HETATM   19  H10 UNL     1      -2.721  -2.420   2.030  1.00  0.00     0.220 HD
ENDBRANCH  16  18
BRANCH  16  20
HETATM   20  O6  UNL     1      -0.103  -2.485   1.273  1.00  0.00    -0.328 OA
HETATM   21  H11 UNL     1       0.604  -1.799   1.366  1.00  0.00     0.220 HD
ENDBRANCH  16  20
ENDBRANCH   1  16
TORSDOF 8
