REMARK  10 active torsions:
REMARK  status: ('A' for Active; 'I' for Inactive)
REMARK    1  A    between atoms: O1_2  and  C2_3 
REMARK    2  A    between atoms: C4_5  and  O2_6 
REMARK    3  A    between atoms: O2_6  and  C5_7 
REMARK    4  A    between atoms: C8_10  and  C9_11 
REMARK    5  A    between atoms: N1_12  and  C10_14 
REMARK    6  A    between atoms: C10_14  and  C11_15 
REMARK    7  A    between atoms: C21_27  and  C22_28 
REMARK    8  A    between atoms: C28_36  and  O5_37 
REMARK    9  A    between atoms: C32_41  and  O6_42 
REMARK   10  A    between atoms: C36_47  and  O8_48 
ROOT
HETATM    1  C5  UNL     1      -2.739   1.714  -0.334  1.00  0.00     0.127 C 
HETATM    2  C6  UNL     1      -1.550   2.314  -1.085  1.00  0.00     0.033 C 
HETATM    3  C7  UNL     1      -0.314   1.409  -1.085  1.00  0.00     0.021 C 
HETATM    4  C8  UNL     1       0.133   0.901   0.322  1.00  0.00     0.026 C 
HETATM    5  C16 UNL     1       1.257  -0.199   0.075  1.00  0.00     0.009 C 
HETATM    6  C17 UNL     1       2.686   0.388   0.072  1.00  0.00     0.007 C 
HETATM    7  C18 UNL     1       3.753  -0.668  -0.212  1.00  0.00     0.013 C 
HETATM    8  C19 UNL     1       3.701  -1.856   0.783  1.00  0.00    -0.005 C 
HETATM    9  C20 UNL     1       4.178  -1.393   2.174  1.00  0.00     0.019 C 
HETATM   10  C21 UNL     1       4.535  -3.076   0.282  1.00  0.00     0.028 C 
HETATM   11  C26 UNL     1       3.651  -3.693  -0.818  1.00  0.00     0.013 C 
HETATM   12  C27 UNL     1       2.205  -3.298  -0.484  1.00  0.00     0.040 C 
HETATM   13  C28 UNL     1       2.272  -2.472   0.819  1.00  0.00     0.070 C 
HETATM   14  C29 UNL     1       1.143  -1.422   1.012  1.00  0.00     0.026 C 
HETATM   15  C30 UNL     1      -0.266  -2.066   0.928  1.00  0.00     0.011 C 
HETATM   16  C31 UNL     1      -1.403  -1.085   0.619  1.00  0.00     0.039 C 
HETATM   17  C32 UNL     1      -1.095   0.335   1.113  1.00  0.00     0.073 C 
HETATM   18  C33 UNL     1      -2.310   1.284   1.067  1.00  0.00     0.071 C 
ENDROOT
BRANCH   1  19
HETATM   19  O2  UNL     1      -3.244   0.604  -1.084  1.00  0.00    -0.356 OA
BRANCH  19  20
HETATM   20  C4  UNL     1      -4.668   0.450  -0.983  1.00  0.00     0.263 C 
HETATM   21  C3  UNL     1      -5.054  -0.750  -1.838  1.00  0.00     0.095 C 
HETATM   22  C2  UNL     1      -6.573  -0.952  -1.869  1.00  0.00     0.156 C 
HETATM   23  C36 UNL     1      -7.285  -0.217  -0.717  1.00  0.00     0.175 C 
HETATM   24  C34 UNL     1      -6.425  -0.140   0.562  1.00  0.00     0.151 C 
HETATM   25  O7  UNL     1      -5.046   0.192   0.360  1.00  0.00    -0.354 OA
HETATM   26  C35 UNL     1      -6.456  -1.447   1.347  1.00  0.00     0.042 C 
BRANCH  22  27
HETATM   27  O1  UNL     1      -6.921  -2.343  -1.800  1.00  0.00    -0.388 OA
HETATM   28  C1  UNL     1      -6.575  -3.074  -2.971  1.00  0.00     0.202 C 
ENDBRANCH  22  27
BRANCH  23  29
HETATM   29  O8  UNL     1      -7.577   1.125  -1.147  1.00  0.00    -0.390 OA
HETATM   30  H50 UNL     1      -8.349   1.074  -1.738  1.00  0.00     0.210 HD
ENDBRANCH  23  29
ENDBRANCH  19  20
ENDBRANCH   1  19
BRANCH  17  31
HETATM   31  O6  UNL     1      -0.778   0.209   2.517  1.00  0.00    -0.389 OA
HETATM   32  H42 UNL     1      -1.567  -0.157   2.964  1.00  0.00     0.210 HD
ENDBRANCH  17  31
BRANCH   4  33
HETATM   33  C9  UNL     1       0.711   2.051   1.163  1.00  0.00     0.069 C 
HETATM   34  N1  UNL     1       0.934   3.219   0.666  1.00  0.00    -0.397 N 
ATOM     35  H1  UNL     1       0.731   3.462  -0.304  1.00  0.00     0.159 HD
BRANCH  34  36
HETATM   36  C10 UNL     1       1.506   4.163   1.624  1.00  0.00     0.158 C 
BRANCH  36  37
HETATM   37  C11 UNL     1       2.096   5.345   0.913  1.00  0.00    -0.025 A 
HETATM   38  C12 UNL     1       3.422   5.344   0.470  1.00  0.00     0.011 A 
HETATM   39  C13 UNL     1       3.927   6.452  -0.208  1.00  0.00     0.018 A 
HETATM   40  C14 UNL     1       3.079   7.525  -0.427  1.00  0.00     0.087 A 
HETATM   41  N2  UNL     1       1.790   7.562  -0.026  1.00  0.00    -0.375 N 
HETATM   42  C15 UNL     1       1.326   6.467   0.623  1.00  0.00     0.096 A 
ATOM     43  H2  UNL     1       1.196   8.372  -0.203  1.00  0.00     0.164 HD
ENDBRANCH  36  37
ENDBRANCH  34  36
ENDBRANCH   4  33
BRANCH  13  44
HETATM   44  O5  UNL     1       2.201  -3.406   1.910  1.00  0.00    -0.389 OA
HETATM   45  H36 UNL     1       1.359  -3.891   1.842  1.00  0.00     0.210 HD
ENDBRANCH  13  44
BRANCH  10  46
HETATM   46  C22 UNL     1       5.966  -2.821  -0.103  1.00  0.00    -0.045 A 
HETATM   47  C23 UNL     1       6.494  -2.584  -1.304  1.00  0.00     0.087 A 
HETATM   48  C24 UNL     1       7.941  -2.451  -1.125  1.00  0.00     0.283 A 
HETATM   49  O3  UNL     1       8.732  -2.200  -2.015  1.00  0.00    -0.260 OA
HETATM   50  O4  UNL     1       8.247  -2.643   0.185  1.00  0.00    -0.314 OA
HETATM   51  C25 UNL     1       7.045  -2.886   0.914  1.00  0.00     0.213 A 
ENDBRANCH  10  46
TORSDOF 10
