REMARK  12 active torsions:
REMARK  status: ('A' for Active; 'I' for Inactive)
REMARK    1  A    between atoms: C3_3  and  O1_4 
REMARK    2  A    between atoms: N1_14  and  O2_16 
REMARK    3  A    between atoms: O2_16  and  C13_17 
REMARK    4  A    between atoms: C13_17  and  C14_18 
REMARK       I    between atoms: C14_18  and  N2_20 
REMARK    5  A    between atoms: N2_20  and  C15_21 
REMARK    6  A    between atoms: C15_21  and  C16_22 
REMARK    7  A    between atoms: C15_21  and  C27_38 
REMARK       I    between atoms: C16_22  and  N3_24 
REMARK    8  A    between atoms: N3_24  and  C17_25 
REMARK    9  A    between atoms: C17_25  and  C18_26 
REMARK   10  A    between atoms: C17_25  and  C20_30 
REMARK   11  A    between atoms: C18_26  and  C19_27 
REMARK   12  A    between atoms: C19_27  and  O6_29 
ROOT
HETATM    1  C1  UNL     1      -9.627   2.191   1.564  1.00  0.00     0.015 C 
HETATM    2  C2  UNL     1      -8.438   2.257   1.395  1.00  0.00    -0.078 C 
HETATM    3  C3  UNL     1      -6.975   2.373   1.190  1.00  0.00     0.128 C 
HETATM    4  C4  UNL     1      -6.253   1.283   1.994  1.00  0.00     0.052 C 
HETATM    5  C5  UNL     1      -6.169   0.067   1.061  1.00  0.00     0.010 C 
HETATM    6  C6  UNL     1      -6.563   0.555  -0.345  1.00  0.00     0.002 C 
HETATM    7  C7  UNL     1      -5.813  -0.068  -1.542  1.00  0.00    -0.004 C 
HETATM    8  C8  UNL     1      -5.877  -1.613  -1.543  1.00  0.00     0.010 C 
HETATM    9  C9  UNL     1      -4.554  -2.287  -1.878  1.00  0.00     0.035 C 
HETATM   10  C10 UNL     1      -3.485  -1.696  -1.001  1.00  0.00    -0.069 C 
HETATM   11  C11 UNL     1      -2.941  -2.418  -0.006  1.00  0.00     0.030 C 
HETATM   12  C12 UNL     1      -1.933  -1.847   0.920  1.00  0.00     0.032 C 
HETATM   13  N1  UNL     1      -1.449  -2.633   1.840  1.00  0.00    -0.271 N 
ATOM     14  H1  UNL     1      -1.718  -3.610   1.959  1.00  0.00     0.194 HD
HETATM   15  C30 UNL     1      -1.501  -0.407   0.714  1.00  0.00     0.060 C 
HETATM   16  C31 UNL     1      -2.582   0.419   0.019  1.00  0.00     0.020 C 
HETATM   17  C32 UNL     1      -3.148  -0.233  -1.267  1.00  0.00    -0.016 C 
HETATM   18  C33 UNL     1      -2.027  -0.201  -2.344  1.00  0.00     0.020 C 
HETATM   19  C34 UNL     1      -4.408   0.521  -1.867  1.00  0.00     0.002 C 
HETATM   20  C35 UNL     1      -4.393   2.058  -1.767  1.00  0.00     0.007 C 
HETATM   21  C36 UNL     1      -5.066   2.625  -0.517  1.00  0.00     0.014 C 
HETATM   22  C37 UNL     1      -6.509   2.100  -0.276  1.00  0.00     0.003 C 
HETATM   23  C38 UNL     1      -7.441   2.752  -1.319  1.00  0.00     0.020 C 
ENDROOT
BRANCH   3  24
HETATM   24  O1  UNL     1      -6.571   3.663   1.625  1.00  0.00    -0.377 OA
HETATM   25  H2  UNL     1      -6.938   3.782   2.520  1.00  0.00     0.211 HD
ENDBRANCH   3  24
BRANCH  13  26
HETATM   26  O2  UNL     1      -0.513  -1.971   2.645  1.00  0.00    -0.271 OA
BRANCH  26  27
HETATM   27  C13 UNL     1       0.136  -2.911   3.497  1.00  0.00     0.303 C 
BRANCH  27  28
HETATM   28  C14 UNL     1       1.604  -3.017   3.106  1.00  0.00     0.244 C 
HETATM   29  O3  UNL     1       2.502  -3.199   3.927  1.00  0.00    -0.271 OA
HETATM   30  N2  UNL     1       1.829  -2.938   1.746  1.00  0.00    -0.346 N 
HETATM   31  H16 UNL     1       1.067  -2.490   1.244  1.00  0.00     0.163 HD
BRANCH  30  32
HETATM   32  C15 UNL     1       3.170  -2.684   1.230  1.00  0.00     0.180 C 
BRANCH  32  33
HETATM   33  C16 UNL     1       3.337  -1.148   1.170  1.00  0.00     0.241 C 
HETATM   34  O4  UNL     1       2.378  -0.386   1.027  1.00  0.00    -0.271 OA
HETATM   35  N3  UNL     1       4.639  -0.704   1.237  1.00  0.00    -0.354 N 
HETATM   36  H18 UNL     1       5.377  -1.374   1.452  1.00  0.00     0.162 HD
BRANCH  35  37
HETATM   37  C17 UNL     1       4.990   0.714   1.333  1.00  0.00     0.098 C 
BRANCH  37  38
HETATM   38  C18 UNL     1       5.511   1.026   2.748  1.00  0.00     0.135 C 
BRANCH  38  39
HETATM   39  C19 UNL     1       6.780   0.285   3.077  1.00  0.00     0.141 C 
HETATM   40  O5  UNL     1       7.155  -0.769   2.590  1.00  0.00    -0.650 OA
BRANCH  39  41
HETATM   41  O6  UNL     1       7.491   0.897   4.043  1.00  0.00    -0.776 OA
HETATM   42  H22 UNL     1       8.263   0.313   4.195  1.00  0.00     0.167 HD
ENDBRANCH  39  41
ENDBRANCH  38  39
ENDBRANCH  37  38
BRANCH  37  43
HETATM   43  C20 UNL     1       5.951   1.110   0.185  1.00  0.00     0.014 C 
HETATM   44  C21 UNL     1       6.424   2.572   0.289  1.00  0.00     0.033 C 
HETATM   45  C22 UNL     1       6.788   3.173  -1.063  1.00  0.00     0.169 C 
HETATM   46  O7  UNL     1       7.293   2.181  -1.943  1.00  0.00    -0.381 OA
HETATM   47  C23 UNL     1       6.326   1.190  -2.325  1.00  0.00     0.054 C 
HETATM   48  C24 UNL     1       7.135  -0.071  -2.654  1.00  0.00     0.045 C 
HETATM   49  C25 UNL     1       5.604   1.662  -3.594  1.00  0.00     0.045 C 
HETATM   50  C26 UNL     1       5.312   0.902  -1.199  1.00  0.00     0.044 C 
ENDBRANCH  37  43
ENDBRANCH  35  37
ENDBRANCH  32  33
BRANCH  32  51
HETATM   51  C27 UNL     1       3.375  -3.379  -0.135  1.00  0.00     0.009 C 
HETATM   52  C28 UNL     1       4.856  -3.471  -0.521  1.00  0.00     0.012 C 
HETATM   53  C29 UNL     1       2.566  -2.741  -1.270  1.00  0.00     0.012 C 
ENDBRANCH  32  51
ENDBRANCH  30  32
ENDBRANCH  27  28
ENDBRANCH  26  27
ENDBRANCH  13  26
TORSDOF 12
