REMARK  2 active torsions:
REMARK  status: ('A' for Active; 'I' for Inactive)
REMARK    1  A    between atoms: C14_15  and  C15_16 
REMARK    2  A    between atoms: C19_21  and  O3_22 
ROOT
HETATM    1  C1  UNL     1       5.863   1.950  -0.286  1.00  0.00     0.023 C 
HETATM    2  C2  UNL     1       5.202   0.555  -0.273  1.00  0.00     0.017 C 
HETATM    3  C3  UNL     1       5.882  -0.267   0.840  1.00  0.00     0.023 C 
HETATM    4  C4  UNL     1       5.513  -0.086  -1.631  1.00  0.00     0.135 C 
HETATM    5  O1  UNL     1       6.563  -0.690  -1.854  1.00  0.00    -0.297 OA
HETATM    6  C5  UNL     1       4.509   0.137  -2.731  1.00  0.00     0.080 C 
HETATM    7  C6  UNL     1       3.113  -0.347  -2.355  1.00  0.00     0.017 C 
HETATM    8  C7  UNL     1       2.795  -0.406  -0.819  1.00  0.00    -0.035 C 
HETATM    9  C8  UNL     1       3.160  -1.830  -0.344  1.00  0.00     0.016 C 
HETATM   10  C9  UNL     1       1.252  -0.079  -0.618  1.00  0.00     0.003 C 
HETATM   11  C10 UNL     1       0.295  -1.030  -1.385  1.00  0.00     0.006 C 
HETATM   12  C11 UNL     1      -1.182  -0.607  -1.333  1.00  0.00     0.006 C 
HETATM   13  C12 UNL     1      -1.615  -0.398   0.112  1.00  0.00    -0.000 C 
HETATM   14  C13 UNL     1      -3.095  -0.151   0.398  1.00  0.00     0.008 C 
HETATM   15  C14 UNL     1      -4.232  -0.788  -0.410  1.00  0.00     0.030 C 
HETATM   16  C18 UNL     1      -5.450  -0.676   0.559  1.00  0.00     0.040 C 
HETATM   17  C19 UNL     1      -4.889  -0.218   1.926  1.00  0.00     0.127 C 
HETATM   18  C20 UNL     1      -3.395  -0.591   1.859  1.00  0.00    -0.013 C 
HETATM   19  C21 UNL     1      -3.292  -2.123   2.125  1.00  0.00     0.018 C 
HETATM   20  C22 UNL     1      -2.437   0.107   2.851  1.00  0.00     0.013 C 
HETATM   21  C23 UNL     1      -1.390   1.062   2.243  1.00  0.00     0.011 C 
HETATM   22  C24 UNL     1      -0.764   0.718   0.830  1.00  0.00    -0.032 C 
HETATM   23  C25 UNL     1      -0.864   2.075   0.042  1.00  0.00     0.016 C 
HETATM   24  C26 UNL     1       0.773   0.206   0.870  1.00  0.00    -0.032 C 
HETATM   25  C27 UNL     1       0.856  -1.061   1.768  1.00  0.00     0.016 C 
HETATM   26  C28 UNL     1       1.726   1.274   1.476  1.00  0.00     0.011 C 
HETATM   27  C29 UNL     1       3.215   0.936   1.353  1.00  0.00     0.007 C 
HETATM   28  C30 UNL     1       3.646   0.707  -0.107  1.00  0.00     0.009 C 
ENDROOT
BRANCH  15  29
HETATM   29  C15 UNL     1      -4.522  -0.144  -1.751  1.00  0.00     0.083 A 
HETATM   30  C16 UNL     1      -4.588   1.352  -1.854  1.00  0.00     0.049 C 
HETATM   31  C17 UNL     1      -4.298  -0.942  -3.023  1.00  0.00     0.207 A 
HETATM   32  O2  UNL     1      -5.600  -0.796  -2.452  1.00  0.00    -0.375 OA
ENDBRANCH  15  29
BRANCH  17  33
HETATM   33  O3  UNL     1      -5.049   1.193   2.054  1.00  0.00    -0.395 OA
HETATM   34  H30 UNL     1      -6.004   1.377   2.050  1.00  0.00     0.210 HD
ENDBRANCH  17  33
TORSDOF 2
