REMARK  10 active torsions:
REMARK  status: ('A' for Active; 'I' for Inactive)
REMARK    1  A    between atoms: C2_2  and  C3_3 
REMARK    2  A    between atoms: C2_2  and  C9_12 
REMARK    3  A    between atoms: C3_3  and  C4_4 
REMARK    4  A    between atoms: C4_4  and  C5_5 
REMARK    5  A    between atoms: C5_5  and  O1_6 
REMARK    6  A    between atoms: C5_5  and  C6_7 
REMARK    7  A    between atoms: C6_7  and  O2_9 
REMARK    8  A    between atoms: C6_7  and  C8_10 
REMARK    9  A    between atoms: C8_10  and  O3_11 
REMARK   10  A    between atoms: C16_19  and  O4_20 
ROOT
HETATM    1  C9  UNL     1       1.883   1.181   0.591  1.00  0.00    -0.002 C 
HETATM    2  C10 UNL     1       1.718   1.201   2.137  1.00  0.00     0.007 C 
HETATM    3  C11 UNL     1       0.301   0.682   2.454  1.00  0.00     0.015 C 
HETATM    4  C12 UNL     1      -0.201   0.047   1.139  1.00  0.00    -0.005 C 
HETATM    5  C13 UNL     1       0.387  -1.396   1.081  1.00  0.00     0.021 C 
HETATM    6  C14 UNL     1      -1.695  -0.127   0.874  1.00  0.00     0.002 C 
HETATM    7  C15 UNL     1      -2.197  -0.106  -0.391  1.00  0.00    -0.032 C 
HETATM    8  C16 UNL     1      -1.263   0.130  -1.588  1.00  0.00     0.149 C 
HETATM    9  C17 UNL     1       0.215   0.474  -1.299  1.00  0.00     0.047 C 
HETATM   10  C18 UNL     1       0.408   1.069   0.098  1.00  0.00    -0.026 C 
HETATM   11  C19 UNL     1      -0.271   2.472   0.149  1.00  0.00     0.016 C 
HETATM   12  C20 UNL     1      -3.730  -0.200  -0.681  1.00  0.00    -0.012 C 
HETATM   13  C21 UNL     1      -4.224   1.266  -0.734  1.00  0.00     0.021 C 
HETATM   14  C22 UNL     1      -4.048  -0.893  -2.033  1.00  0.00     0.021 C 
HETATM   15  C23 UNL     1      -5.531  -1.113  -2.283  1.00  0.00     0.080 C 
HETATM   16  C24 UNL     1      -6.129  -1.946  -1.180  1.00  0.00     0.135 C 
HETATM   17  O5  UNL     1      -6.851  -2.905  -1.459  1.00  0.00    -0.297 OA
HETATM   18  C25 UNL     1      -5.892  -1.483   0.266  1.00  0.00     0.018 C 
HETATM   19  C26 UNL     1      -6.208  -2.680   1.200  1.00  0.00     0.023 C 
HETATM   20  C27 UNL     1      -6.919  -0.387   0.586  1.00  0.00     0.023 C 
HETATM   21  C28 UNL     1      -4.389  -1.067   0.448  1.00  0.00     0.020 C 
HETATM   22  C29 UNL     1      -4.087  -0.461   1.821  1.00  0.00     0.090 C 
HETATM   23  C30 UNL     1      -2.600  -0.346   2.049  1.00  0.00     0.157 C 
HETATM   24  O6  UNL     1      -2.150  -0.414   3.193  1.00  0.00    -0.293 OA
ENDROOT
BRANCH   1  25
HETATM   25  C2  UNL     1       2.788   2.338   0.088  1.00  0.00    -0.014 C 
HETATM   26  C1  UNL     1       2.864   2.452  -1.439  1.00  0.00     0.010 C 
BRANCH  25  27
HETATM   27  C3  UNL     1       4.214   2.310   0.709  1.00  0.00     0.007 C 
BRANCH  27  28
HETATM   28  C4  UNL     1       4.981   0.974   0.778  1.00  0.00     0.035 C 
BRANCH  28  29
HETATM   29  C5  UNL     1       5.245   0.276  -0.560  1.00  0.00     0.154 C 
BRANCH  29  30
HETATM   30  O1  UNL     1       5.935   1.165  -1.451  1.00  0.00    -0.392 OA
HETATM   31  H10 UNL     1       6.730   1.484  -0.990  1.00  0.00     0.210 HD
ENDBRANCH  29  30
BRANCH  29  32
HETATM   32  C6  UNL     1       5.996  -1.091  -0.512  1.00  0.00     0.101 C 
HETATM   33  C7  UNL     1       5.137  -2.156   0.179  1.00  0.00     0.051 C 
BRANCH  32  34
HETATM   34  O2  UNL     1       6.191  -1.536  -1.875  1.00  0.00    -0.385 OA
HETATM   35  H14 UNL     1       5.880  -0.808  -2.457  1.00  0.00     0.210 HD
ENDBRANCH  32  34
BRANCH  32  36
HETATM   36  C8  UNL     1       7.401  -1.036   0.117  1.00  0.00     0.204 C 
BRANCH  36  37
HETATM   37  O3  UNL     1       7.377  -0.724   1.500  1.00  0.00    -0.398 OA
HETATM   38  H17 UNL     1       8.299  -0.758   1.817  1.00  0.00     0.209 HD
ENDBRANCH  36  37
ENDBRANCH  32  36
ENDBRANCH  29  32
ENDBRANCH  28  29
ENDBRANCH  27  28
ENDBRANCH  25  27
ENDBRANCH   1  25
BRANCH   8  39
HETATM   39  O4  UNL     1      -1.257  -1.026  -2.418  1.00  0.00    -0.391 OA
HETATM   40  H27 UNL     1      -0.984  -1.779  -1.865  1.00  0.00     0.210 HD
ENDBRANCH   8  39
TORSDOF 10
