REMARK  11 active torsions:
REMARK  status: ('A' for Active; 'I' for Inactive)
REMARK    1  A    between atoms: C3_3  and  O1_4 
REMARK    2  A    between atoms: N1_14  and  O2_16 
REMARK    3  A    between atoms: O2_16  and  C13_17 
REMARK    4  A    between atoms: C13_17  and  C14_18 
REMARK       I    between atoms: C14_18  and  N2_20 
REMARK    5  A    between atoms: N2_20  and  C15_21 
REMARK    6  A    between atoms: C15_21  and  C16_22 
REMARK    7  A    between atoms: C15_21  and  C17_25 
REMARK    8  A    between atoms: C16_22  and  O5_24 
REMARK    9  A    between atoms: C17_25  and  O6_26 
REMARK   10  A    between atoms: C17_25  and  C18_27 
REMARK   11  A    between atoms: C22_31  and  N3_32 
ROOT
HETATM    1  C1  UNL     1       8.873  -0.250   2.658  1.00  0.00     0.015 C 
HETATM    2  C2  UNL     1       8.364   0.057   1.613  1.00  0.00    -0.078 C 
HETATM    3  C3  UNL     1       7.749   0.436   0.331  1.00  0.00     0.128 C 
HETATM    4  C4  UNL     1       7.112   1.830   0.382  1.00  0.00     0.052 C 
HETATM    5  C5  UNL     1       5.964   1.805  -0.637  1.00  0.00     0.010 C 
HETATM    6  C6  UNL     1       5.914   0.377  -1.213  1.00  0.00     0.002 C 
HETATM    7  C7  UNL     1       4.521  -0.116  -1.663  1.00  0.00    -0.004 C 
HETATM    8  C8  UNL     1       3.889   0.856  -2.667  1.00  0.00     0.010 C 
HETATM    9  C9  UNL     1       2.578   0.305  -3.205  1.00  0.00     0.035 C 
HETATM   10  C10 UNL     1       1.605  -0.012  -2.095  1.00  0.00    -0.069 C 
HETATM   11  C11 UNL     1       0.336   0.423  -2.188  1.00  0.00     0.030 C 
HETATM   12  C12 UNL     1      -0.715   0.006  -1.227  1.00  0.00     0.032 C 
HETATM   13  N1  UNL     1      -1.935   0.397  -1.468  1.00  0.00    -0.271 N 
ATOM     14  H1  UNL     1      -2.195   1.015  -2.237  1.00  0.00     0.194 HD
HETATM   15  C24 UNL     1      -0.319  -0.916  -0.093  1.00  0.00     0.060 C 
HETATM   16  C25 UNL     1       1.152  -0.752   0.268  1.00  0.00     0.020 C 
HETATM   17  C26 UNL     1       2.123  -0.878  -0.943  1.00  0.00    -0.016 C 
HETATM   18  C27 UNL     1       2.147  -2.346  -1.425  1.00  0.00     0.020 C 
HETATM   19  C28 UNL     1       3.554  -0.385  -0.481  1.00  0.00     0.002 C 
HETATM   20  C29 UNL     1       4.227  -1.325   0.538  1.00  0.00     0.007 C 
HETATM   21  C30 UNL     1       5.577  -0.791   1.022  1.00  0.00     0.014 C 
HETATM   22  C31 UNL     1       6.584  -0.496  -0.123  1.00  0.00     0.003 C 
HETATM   23  C32 UNL     1       7.104  -1.819  -0.720  1.00  0.00     0.020 C 
ENDROOT
BRANCH   3  24
HETATM   24  O1  UNL     1       8.771   0.472  -0.668  1.00  0.00    -0.377 OA
HETATM   25  H2  UNL     1       9.527   0.942  -0.277  1.00  0.00     0.211 HD
ENDBRANCH   3  24
BRANCH  13  26
HETATM   26  O2  UNL     1      -2.848  -0.133  -0.545  1.00  0.00    -0.271 OA
BRANCH  26  27
HETATM   27  C13 UNL     1      -4.147  -0.095  -1.128  1.00  0.00     0.303 C 
BRANCH  27  28
HETATM   28  C14 UNL     1      -5.187  -0.437  -0.074  1.00  0.00     0.244 C 
HETATM   29  O3  UNL     1      -6.034  -1.311  -0.236  1.00  0.00    -0.271 OA
HETATM   30  N2  UNL     1      -5.128   0.353   1.055  1.00  0.00    -0.342 N 
HETATM   31  H16 UNL     1      -4.239   0.818   1.237  1.00  0.00     0.163 HD
BRANCH  30  32
HETATM   32  C15 UNL     1      -5.992   0.107   2.218  1.00  0.00     0.216 C 
BRANCH  32  33
HETATM   33  C16 UNL     1      -5.191   0.362   3.495  1.00  0.00     0.166 C 
HETATM   34  O4  UNL     1      -5.636   0.326   4.634  1.00  0.00    -0.648 OA
BRANCH  33  35
HETATM   35  O5  UNL     1      -3.889   0.672   3.289  1.00  0.00    -0.775 OA
HETATM   36  H18 UNL     1      -3.514   0.770   4.191  1.00  0.00     0.167 HD
ENDBRANCH  33  35
ENDBRANCH  32  33
BRANCH  32  37
HETATM   37  C17 UNL     1      -7.242   1.026   2.281  1.00  0.00     0.184 C 
BRANCH  37  38
HETATM   38  O6  UNL     1      -8.141   0.617   3.322  1.00  0.00    -0.388 OA
HETATM   39  H20 UNL     1      -7.655   0.649   4.170  1.00  0.00     0.210 HD
ENDBRANCH  37  38
BRANCH  37  40
HETATM   40  C18 UNL     1      -8.064   1.046   1.006  1.00  0.00    -0.025 A 
HETATM   41  C19 UNL     1      -8.098   2.194   0.199  1.00  0.00     0.010 A 
HETATM   42  C20 UNL     1      -8.841   2.218  -0.984  1.00  0.00     0.003 A 
HETATM   43  C21 UNL     1      -9.557   1.092  -1.385  1.00  0.00     0.036 A 
HETATM   44  C22 UNL     1      -9.534  -0.058  -0.586  1.00  0.00     0.103 A 
HETATM   45  C23 UNL     1      -8.800  -0.084   0.606  1.00  0.00     0.045 A 
BRANCH  44  46
HETATM   46  N3  UNL     1     -10.286  -1.248  -1.004  1.00  0.00    -0.116 N 
HETATM   47  O7  UNL     1     -10.404  -2.177  -0.192  1.00  0.00    -0.532 OA
HETATM   48  O8  UNL     1     -10.771  -1.249  -2.147  1.00  0.00    -0.532 OA
ENDBRANCH  44  46
ENDBRANCH  37  40
ENDBRANCH  32  37
ENDBRANCH  30  32
ENDBRANCH  27  28
ENDBRANCH  26  27
ENDBRANCH  13  26
TORSDOF 11
