REMARK  10 active torsions:
REMARK  status: ('A' for Active; 'I' for Inactive)
REMARK    1  A    between atoms: N1_2  and  C2_3 
REMARK    2  A    between atoms: C2_3  and  C3_4 
REMARK    3  A    between atoms: C3_4  and  O1_5 
REMARK    4  A    between atoms: O1_5  and  C4_6 
REMARK    5  A    between atoms: C4_6  and  C5_8 
REMARK    6  A    between atoms: C17_21  and  O4_22 
REMARK    7  A    between atoms: O4_22  and  C18_23 
REMARK    8  A    between atoms: C18_23  and  C19_25 
REMARK    9  A    between atoms: C19_25  and  C20_26 
REMARK   10  A    between atoms: C20_26  and  O6_29 
ROOT
HETATM    1  C5  UNL     1      -4.302  -0.098  -0.856  1.00  0.00     0.085 C 
HETATM    2  C6  UNL     1      -3.419  -1.079  -0.584  1.00  0.00    -0.070 C 
HETATM    3  C7  UNL     1      -2.314  -1.285  -1.607  1.00  0.00     0.035 C 
HETATM    4  C8  UNL     1      -1.486  -2.543  -1.357  1.00  0.00     0.010 C 
HETATM    5  C9  UNL     1      -0.915  -2.684   0.081  1.00  0.00     0.006 C 
HETATM    6  C10 UNL     1      -1.898  -2.093   1.157  1.00  0.00     0.068 C 
HETATM    7  C11 UNL     1      -1.484  -0.731   1.727  1.00  0.00     0.132 C 
HETATM    8  O3  UNL     1      -2.293   0.031   2.255  1.00  0.00    -0.298 OA
HETATM    9  C12 UNL     1      -0.022  -0.390   1.828  1.00  0.00     0.085 C 
HETATM   10  C13 UNL     1       0.751  -0.776   0.567  1.00  0.00     0.011 C 
HETATM   11  C14 UNL     1       2.209  -0.152   0.521  1.00  0.00    -0.016 C 
HETATM   12  C15 UNL     1       2.089   1.393   0.360  1.00  0.00     0.018 C 
HETATM   13  C16 UNL     1       3.036  -0.374   1.810  1.00  0.00     0.018 C 
HETATM   14  C17 UNL     1       2.974  -0.699  -0.726  1.00  0.00     0.140 C 
HETATM   15  C23 UNL     1       2.945  -2.227  -0.803  1.00  0.00     0.034 C 
HETATM   16  C24 UNL     1       1.505  -2.707  -0.910  1.00  0.00     0.012 C 
HETATM   17  C25 UNL     1       0.622  -2.316   0.310  1.00  0.00    -0.035 C 
HETATM   18  C26 UNL     1       1.081  -3.182   1.519  1.00  0.00     0.016 C 
HETATM   19  C27 UNL     1      -3.355  -2.050   0.596  1.00  0.00     0.022 C 
HETATM   20  C28 UNL     1      -4.430  -1.974   1.690  1.00  0.00     0.015 C 
ENDROOT
BRANCH   1  21
HETATM   21  C4  UNL     1      -5.447   0.404  -0.079  1.00  0.00     0.283 C 
HETATM   22  O2  UNL     1      -6.590   0.416  -0.514  1.00  0.00    -0.260 OA
BRANCH  21  23
HETATM   23  O1  UNL     1      -4.987   1.013   1.034  1.00  0.00    -0.316 OA
BRANCH  23  24
HETATM   24  C3  UNL     1      -5.970   1.703   1.820  1.00  0.00     0.209 C 
BRANCH  24  25
HETATM   25  C2  UNL     1      -6.181   3.113   1.262  1.00  0.00     0.295 C 
BRANCH  25  26
HETATM   26  N1  UNL     1      -7.045   3.967   2.083  1.00  0.00     0.081 N 
HETATM   27  C1  UNL     1      -8.460   3.616   1.935  1.00  0.00     0.306 C 
HETATM   28  H4  UNL     1      -6.919   4.932   1.768  1.00  0.00     0.315 HD
ENDBRANCH  25  26
ENDBRANCH  24  25
ENDBRANCH  23  24
ENDBRANCH  21  23
ENDBRANCH   1  21
BRANCH  14  29
HETATM   29  O4  UNL     1       4.362  -0.305  -0.711  1.00  0.00    -0.315 OA
BRANCH  29  30
HETATM   30  C18 UNL     1       4.731   0.713  -1.541  1.00  0.00     0.262 C 
HETATM   31  O5  UNL     1       3.978   1.322  -2.292  1.00  0.00    -0.265 OA
BRANCH  30  32
HETATM   32  C19 UNL     1       6.199   1.009  -1.354  1.00  0.00     0.148 C 
BRANCH  32  33
HETATM   33  C20 UNL     1       6.741   2.072  -2.325  1.00  0.00     0.059 C 
HETATM   34  C21 UNL     1       6.721   1.622  -3.791  1.00  0.00     0.045 C 
HETATM   35  C22 UNL     1       8.181   2.418  -1.933  1.00  0.00     0.045 C 
BRANCH  33  36
HETATM   36  O6  UNL     1       5.985   3.273  -2.190  1.00  0.00    -0.390 OA
HETATM   37  H34 UNL     1       5.103   3.119  -2.589  1.00  0.00     0.210 HD
ENDBRANCH  33  36
ENDBRANCH  32  33
ENDBRANCH  30  32
ENDBRANCH  29  30
ENDBRANCH  14  29
TORSDOF 10
