REMARK  8 active torsions:
REMARK  status: ('A' for Active; 'I' for Inactive)
REMARK    1  A    between atoms: C2_2  and  O2_4 
REMARK    2  A    between atoms: O2_4  and  C3_5 
REMARK    3  A    between atoms: C12_15  and  C13_16 
REMARK    4  A    between atoms: C13_16  and  O5_18 
REMARK    5  A    between atoms: O5_18  and  C14_19 
REMARK    6  A    between atoms: C14_19  and  C15_20 
REMARK    7  A    between atoms: C15_20  and  N1_21 
REMARK    8  A    between atoms: C25_31  and  O6_32 
ROOT
HETATM    1  C3  UNL     1      -4.179   0.897   0.461  1.00  0.00     0.097 C 
HETATM    2  C4  UNL     1      -4.527   2.231   1.157  1.00  0.00     0.050 C 
HETATM    3  C5  UNL     1      -2.706   0.473   0.829  1.00  0.00     0.038 C 
HETATM    4  C6  UNL     1      -1.666   1.523   0.408  1.00  0.00     0.087 C 
HETATM    5  C7  UNL     1      -0.293   1.182   0.938  1.00  0.00     0.132 C 
HETATM    6  O3  UNL     1       0.423   2.073   1.396  1.00  0.00    -0.298 OA
HETATM    7  C8  UNL     1       0.203  -0.246   0.740  1.00  0.00     0.068 C 
HETATM    8  C9  UNL     1       1.516  -0.527   1.522  1.00  0.00     0.022 C 
HETATM    9  C10 UNL     1       1.405  -0.357   3.047  1.00  0.00     0.015 C 
HETATM   10  C11 UNL     1       1.996  -1.937   1.194  1.00  0.00    -0.070 C 
HETATM   11  C12 UNL     1       3.198  -2.305   0.700  1.00  0.00     0.085 C 
HETATM   12  C18 UNL     1       0.956  -3.007   1.467  1.00  0.00     0.035 C 
HETATM   13  C19 UNL     1      -0.354  -2.710   0.734  1.00  0.00     0.010 C 
HETATM   14  C20 UNL     1      -0.900  -1.294   1.040  1.00  0.00     0.006 C 
HETATM   15  C21 UNL     1      -2.273  -0.960   0.329  1.00  0.00    -0.033 C 
HETATM   16  C22 UNL     1      -2.121  -1.060  -1.210  1.00  0.00     0.016 C 
HETATM   17  C23 UNL     1      -3.348  -1.989   0.771  1.00  0.00     0.012 C 
HETATM   18  C24 UNL     1      -4.770  -1.598   0.385  1.00  0.00     0.035 C 
HETATM   19  C25 UNL     1      -5.144  -0.231   0.946  1.00  0.00     0.153 C 
ENDROOT
BRANCH  11  20
HETATM   20  C13 UNL     1       4.403  -1.535   0.310  1.00  0.00     0.283 C 
HETATM   21  O4  UNL     1       5.463  -2.096   0.066  1.00  0.00    -0.260 OA
BRANCH  20  22
HETATM   22  O5  UNL     1       4.172  -0.211   0.215  1.00  0.00    -0.316 OA
BRANCH  22  23
HETATM   23  C14 UNL     1       5.292   0.599  -0.187  1.00  0.00     0.209 C 
BRANCH  23  24
HETATM   24  C15 UNL     1       5.332   0.707  -1.720  1.00  0.00     0.298 C 
BRANCH  24  25
HETATM   25  N1  UNL     1       6.401   1.519  -2.323  1.00  0.00     0.082 N 
HETATM   26  C16 UNL     1       7.723   0.930  -2.122  1.00  0.00     0.309 C 
HETATM   27  C17 UNL     1       6.373   2.910  -1.880  1.00  0.00     0.309 C 
ENDBRANCH  24  25
ENDBRANCH  23  24
ENDBRANCH  22  23
ENDBRANCH  20  22
ENDBRANCH  11  20
BRANCH   1  28
HETATM   28  O2  UNL     1      -4.187   1.066  -0.985  1.00  0.00    -0.308 OA
BRANCH  28  29
HETATM   29  C2  UNL     1      -5.267   1.544  -1.651  1.00  0.00     0.255 C 
HETATM   30  C1  UNL     1      -4.997   1.568  -3.124  1.00  0.00     0.126 C 
HETATM   31  O1  UNL     1      -6.322   1.884  -1.135  1.00  0.00    -0.266 OA
ENDBRANCH  28  29
ENDBRANCH   1  28
BRANCH  19  32
HETATM   32  O6  UNL     1      -6.526  -0.025   0.664  1.00  0.00    -0.393 OA
HETATM   33  H39 UNL     1      -6.650   0.805   0.158  1.00  0.00     0.210 HD
ENDBRANCH  19  32
TORSDOF 8
