REMARK  11 active torsions:
REMARK  status: ('A' for Active; 'I' for Inactive)
REMARK    1  A    between atoms: C2_2  and  C3_3 
REMARK    2  A    between atoms: C2_2  and  C10_11 
REMARK    3  A    between atoms: C4_4  and  C5_5 
REMARK    4  A    between atoms: C5_5  and  C7_7 
REMARK    5  A    between atoms: C7_7  and  C9_9 
REMARK    6  A    between atoms: C9_9  and  O1_10 
REMARK    7  A    between atoms: C11_12  and  O2_13 
REMARK    8  A    between atoms: C12_14  and  O3_15 
REMARK    9  A    between atoms: C23_26  and  O4_27 
REMARK   10  A    between atoms: C26_30  and  O5_31 
REMARK   11  A    between atoms: C28_33  and  O6_34 
ROOT
HETATM    1  C10 UNL     1       1.311  -0.964  -1.493  1.00  0.00     0.033 C 
HETATM    2  C11 UNL     1       1.480  -2.246  -0.620  1.00  0.00     0.152 C 
HETATM    3  C12 UNL     1       0.145  -2.415   0.162  1.00  0.00     0.155 C 
HETATM    4  C13 UNL     1      -0.760  -1.318  -0.402  1.00  0.00     0.060 C 
HETATM    5  C14 UNL     1       0.215  -0.144  -0.735  1.00  0.00    -0.028 C 
HETATM    6  C15 UNL     1       0.793   0.618   0.482  1.00  0.00     0.016 C 
HETATM    7  C16 UNL     1      -0.563   0.857  -1.607  1.00  0.00     0.011 C 
HETATM    8  C17 UNL     1      -1.853   1.337  -0.911  1.00  0.00     0.009 C 
HETATM    9  C18 UNL     1      -2.786   0.160  -0.513  1.00  0.00     0.029 C 
HETATM   10  C19 UNL     1      -4.187   0.604   0.066  1.00  0.00    -0.031 C 
HETATM   11  C20 UNL     1      -4.020   1.469   1.343  1.00  0.00     0.016 C 
HETATM   12  C21 UNL     1      -4.952   1.469  -0.993  1.00  0.00     0.012 C 
HETATM   13  C22 UNL     1      -6.430   1.102  -1.198  1.00  0.00     0.032 C 
HETATM   14  C23 UNL     1      -7.157   0.731   0.089  1.00  0.00     0.118 C 
HETATM   15  C24 UNL     1      -6.431  -0.353   0.899  1.00  0.00     0.039 C 
HETATM   16  C25 UNL     1      -5.027  -0.682   0.347  1.00  0.00     0.025 C 
HETATM   17  C26 UNL     1      -4.292  -1.708   1.228  1.00  0.00     0.126 C 
HETATM   18  C27 UNL     1      -2.947  -2.112   0.617  1.00  0.00     0.071 C 
HETATM   19  C28 UNL     1      -2.037  -0.906   0.359  1.00  0.00     0.071 C 
ENDROOT
BRANCH   1  20
HETATM   20  C2  UNL     1       2.584  -0.270  -2.055  1.00  0.00     0.011 C 
HETATM   21  C1  UNL     1       3.451  -1.279  -2.829  1.00  0.00     0.015 C 
BRANCH  20  22
HETATM   22  C3  UNL     1       3.404   0.591  -1.121  1.00  0.00    -0.026 C 
HETATM   23  C4  UNL     1       4.428   0.195  -0.350  1.00  0.00    -0.026 C 
BRANCH  23  24
HETATM   24  C5  UNL     1       5.170   1.107   0.600  1.00  0.00     0.009 C 
HETATM   25  C6  UNL     1       4.924   0.621   2.033  1.00  0.00     0.014 C 
BRANCH  24  26
HETATM   26  C7  UNL     1       6.671   1.252   0.230  1.00  0.00     0.012 C 
HETATM   27  C8  UNL     1       7.457  -0.065   0.278  1.00  0.00     0.012 C 
BRANCH  26  28
HETATM   28  C9  UNL     1       7.357   2.310   1.109  1.00  0.00     0.168 C 
BRANCH  28  29
HETATM   29  O1  UNL     1       8.642   2.620   0.585  1.00  0.00    -0.400 OA
HETATM   30  H17 UNL     1       9.045   3.269   1.184  1.00  0.00     0.209 HD
ENDBRANCH  28  29
ENDBRANCH  26  28
ENDBRANCH  24  26
ENDBRANCH  23  24
ENDBRANCH  20  22
ENDBRANCH   1  20
BRANCH   2  31
HETATM   31  O2  UNL     1       2.583  -2.212   0.267  1.00  0.00    -0.393 OA
HETATM   32  H20 UNL     1       2.214  -2.073   1.165  1.00  0.00     0.210 HD
ENDBRANCH   2  31
BRANCH   3  33
HETATM   33  O3  UNL     1       0.348  -2.260   1.570  1.00  0.00    -0.392 OA
HETATM   34  H22 UNL     1       0.210  -3.134   1.969  1.00  0.00     0.210 HD
ENDBRANCH   3  33
BRANCH  19  35
HETATM   35  O6  UNL     1      -1.704  -0.382   1.636  1.00  0.00    -0.389 OA
HETATM   36  H48 UNL     1      -0.963  -0.916   1.993  1.00  0.00     0.210 HD
ENDBRANCH  19  35
BRANCH  17  37
HETATM   37  O5  UNL     1      -5.081  -2.897   1.362  1.00  0.00    -0.395 OA
HETATM   38  H45 UNL     1      -5.305  -3.211   0.466  1.00  0.00     0.210 HD
ENDBRANCH  17  37
BRANCH  14  39
HETATM   39  O4  UNL     1      -7.321   1.895   0.899  1.00  0.00    -0.396 OA
HETATM   40  H40 UNL     1      -7.811   2.555   0.376  1.00  0.00     0.210 HD
ENDBRANCH  14  39
TORSDOF 11
