REMARK  5 active torsions:
REMARK  status: ('A' for Active; 'I' for Inactive)
REMARK    1  A    between atoms: C2_2  and  C4_4 
REMARK    2  A    between atoms: C7_7  and  C8_8 
REMARK    3  A    between atoms: C8_8  and  O2_10 
REMARK    4  A    between atoms: C22_25  and  C24_27 
REMARK    5  A    between atoms: C24_27  and  O4_28 
ROOT
HETATM    1  C4  UNL     1      -4.400   0.633   0.795  1.00  0.00     0.019 C 
HETATM    2  C5  UNL     1      -4.864  -0.802   1.053  1.00  0.00     0.011 C 
HETATM    3  C6  UNL     1      -4.929  -1.450  -0.326  1.00  0.00     0.021 C 
HETATM    4  C7  UNL     1      -4.006  -0.638  -1.267  1.00  0.00     0.050 C 
HETATM    5  C9  UNL     1      -2.889  -1.515  -1.867  1.00  0.00     0.022 C 
HETATM    6  C10 UNL     1      -1.853  -1.969  -0.839  1.00  0.00     0.011 C 
HETATM    7  C11 UNL     1      -1.133  -0.813  -0.077  1.00  0.00    -0.032 C 
HETATM    8  C12 UNL     1      -1.206  -1.190   1.430  1.00  0.00     0.016 C 
HETATM    9  C13 UNL     1      -1.873   0.545  -0.346  1.00  0.00     0.000 C 
HETATM   10  C14 UNL     1      -1.235   1.707   0.426  1.00  0.00     0.006 C 
HETATM   11  C15 UNL     1       0.252   1.875   0.087  1.00  0.00     0.006 C 
HETATM   12  C16 UNL     1       1.071   0.573   0.265  1.00  0.00     0.003 C 
HETATM   13  C17 UNL     1       2.646   0.775   0.134  1.00  0.00    -0.035 C 
HETATM   14  C18 UNL     1       3.051   1.398  -1.222  1.00  0.00     0.016 C 
HETATM   15  C19 UNL     1       3.099   1.791   1.240  1.00  0.00     0.017 C 
HETATM   16  C20 UNL     1       4.494   1.574   1.814  1.00  0.00     0.080 C 
HETATM   17  C21 UNL     1       5.415   0.814   0.896  1.00  0.00     0.137 C 
HETATM   18  O3  UNL     1       6.561   1.218   0.694  1.00  0.00    -0.297 OA
HETATM   19  C22 UNL     1       4.935  -0.545   0.376  1.00  0.00     0.042 C 
HETATM   20  C23 UNL     1       5.533  -0.805  -1.023  1.00  0.00     0.026 C 
HETATM   21  C25 UNL     1       3.362  -0.595   0.415  1.00  0.00     0.012 C 
HETATM   22  C26 UNL     1       2.779  -1.748  -0.423  1.00  0.00     0.007 C 
HETATM   23  C27 UNL     1       1.273  -1.914  -0.210  1.00  0.00     0.011 C 
HETATM   24  C28 UNL     1       0.434  -0.640  -0.532  1.00  0.00    -0.032 C 
HETATM   25  C29 UNL     1       0.503  -0.414  -2.073  1.00  0.00     0.016 C 
HETATM   26  C30 UNL     1      -3.435   0.552  -0.418  1.00  0.00     0.017 C 
ENDROOT
BRANCH   4  27
HETATM   27  C8  UNL     1      -4.879  -0.103  -2.411  1.00  0.00     0.149 C 
HETATM   28  O1  UNL     1      -5.315   1.031  -2.542  1.00  0.00    -0.649 OA
BRANCH  27  29
HETATM   29  O2  UNL     1      -5.201  -1.041  -3.323  1.00  0.00    -0.776 OA
HETATM   30  H11 UNL     1      -5.770  -0.561  -3.958  1.00  0.00     0.167 HD
ENDBRANCH  27  29
ENDBRANCH   4  27
BRANCH   1  31
HETATM   31  C2  UNL     1      -4.032   1.484   1.991  1.00  0.00    -0.088 C 
HETATM   32  C1  UNL     1      -3.638   1.012   3.182  1.00  0.00     0.014 C 
HETATM   33  C3  UNL     1      -4.229   2.968   1.798  1.00  0.00     0.043 C 
ENDBRANCH   1  31
BRANCH  19  34
HETATM   34  C24 UNL     1       5.513  -1.587   1.372  1.00  0.00     0.181 C 
BRANCH  34  35
HETATM   35  O4  UNL     1       6.924  -1.734   1.252  1.00  0.00    -0.400 OA
HETATM   36  H37 UNL     1       7.329  -0.846   1.346  1.00  0.00     0.209 HD
ENDBRANCH  34  35
ENDBRANCH  19  34
TORSDOF 5
