REMARK  10 active torsions:
REMARK  status: ('A' for Active; 'I' for Inactive)
REMARK    1  A    between atoms: C2_2  and  C3_3 
REMARK    2  A    between atoms: C3_3  and  N1_4 
REMARK    3  A    between atoms: N1_4  and  C4_5 
REMARK    4  A    between atoms: C9_12  and  C11_14 
REMARK    5  A    between atoms: C11_14  and  O1_15 
REMARK    6  A    between atoms: C12_16  and  O2_17 
REMARK    7  A    between atoms: C17_22  and  C18_23 
REMARK    8  A    between atoms: C18_23  and  C19_24 
REMARK       I    between atoms: C19_24  and  N3_26 
REMARK    9  A    between atoms: N3_26  and  C20_27 
REMARK   10  A    between atoms: C20_27  and  C22_29 
ROOT
HETATM    1  C4  UNL     1      -1.591   2.623   2.547  1.00  0.00     0.145 A 
HETATM    2  N2  UNL     1      -0.650   1.962   1.907  1.00  0.00    -0.339 N 
ATOM      3  H2  UNL     1       0.286   2.321   1.721  1.00  0.00     0.168 HD
HETATM    4  C5  UNL     1      -1.103   0.717   1.522  1.00  0.00     0.030 A 
HETATM    5  C6  UNL     1      -2.389   0.430   1.895  1.00  0.00     0.009 A 
HETATM    6  C7  UNL     1      -3.154  -0.784   1.532  1.00  0.00     0.054 C 
HETATM    7  C8  UNL     1      -2.430  -1.751   0.516  1.00  0.00     0.012 C 
HETATM    8  C9  UNL     1      -3.532  -2.472  -0.391  1.00  0.00     0.008 C 
HETATM    9  C10 UNL     1      -4.771  -2.900   0.459  1.00  0.00     0.020 C 
HETATM   10  C12 UNL     1      -4.016  -1.458  -1.473  1.00  0.00     0.128 C 
HETATM   11  C13 UNL     1      -2.878  -0.831  -2.274  1.00  0.00     0.033 C 
HETATM   12  C14 UNL     1      -1.836  -0.130  -1.390  1.00  0.00     0.013 C 
HETATM   13  C15 UNL     1      -1.225  -1.051  -0.296  1.00  0.00    -0.030 C 
HETATM   14  C16 UNL     1      -0.310  -2.082  -1.006  1.00  0.00     0.016 C 
HETATM   15  C17 UNL     1      -0.279  -0.255   0.734  1.00  0.00     0.054 C 
HETATM   16  S1  UNL     1      -3.051   1.727   2.773  1.00  0.00    -0.057 SA
ENDROOT
BRANCH  15  17
HETATM   17  C18 UNL     1       0.986   0.409   0.135  1.00  0.00     0.114 C 
BRANCH  17  18
HETATM   18  C19 UNL     1       2.217  -0.483   0.204  1.00  0.00     0.218 C 
HETATM   19  O3  UNL     1       2.253  -1.561   0.789  1.00  0.00    -0.274 OA
HETATM   20  N3  UNL     1       3.299   0.038  -0.470  1.00  0.00    -0.353 N 
HETATM   21  H28 UNL     1       3.252   0.987  -0.820  1.00  0.00     0.163 HD
BRANCH  20  22
HETATM   22  C20 UNL     1       4.588  -0.634  -0.490  1.00  0.00     0.113 C 
HETATM   23  C21 UNL     1       5.324  -0.461   0.843  1.00  0.00     0.037 C 
BRANCH  22  24
HETATM   24  C22 UNL     1       5.375  -0.157  -1.699  1.00  0.00    -0.036 A 
HETATM   25  C23 UNL     1       5.264  -0.862  -2.910  1.00  0.00     0.009 A 
HETATM   26  C24 UNL     1       5.944  -0.433  -4.050  1.00  0.00     0.001 A 
HETATM   27  C25 UNL     1       6.737   0.708  -3.999  1.00  0.00     0.000 A 
HETATM   28  C26 UNL     1       6.853   1.420  -2.808  1.00  0.00     0.001 A 
HETATM   29  C27 UNL     1       6.171   0.996  -1.666  1.00  0.00     0.009 A 
ENDBRANCH  22  24
ENDBRANCH  20  22
ENDBRANCH  17  18
ENDBRANCH  15  17
BRANCH   1  30
HETATM   30  N1  UNL     1      -1.393   3.899   2.942  1.00  0.00    -0.367 N 
HETATM   31  H6  UNL     1      -0.430   4.215   2.871  1.00  0.00     0.161 HD
BRANCH  30  32
HETATM   32  C3  UNL     1      -2.183   4.551   3.952  1.00  0.00     0.148 C 
BRANCH  32  33
HETATM   33  C2  UNL     1      -1.831   6.006   3.888  1.00  0.00    -0.018 C 
HETATM   34  C1  UNL     1      -1.097   6.668   4.795  1.00  0.00     0.008 C 
ENDBRANCH  32  33
ENDBRANCH  30  32
ENDBRANCH   1  30
BRANCH   8  35
HETATM   35  C11 UNL     1      -3.010  -3.812  -0.989  1.00  0.00     0.176 C 
BRANCH  35  36
HETATM   36  O1  UNL     1      -3.965  -4.392  -1.885  1.00  0.00    -0.400 OA
HETATM   37  H15 UNL     1      -3.587  -5.235  -2.201  1.00  0.00     0.209 HD
ENDBRANCH  35  36
ENDBRANCH   8  35
BRANCH  10  38
HETATM   38  O2  UNL     1      -4.963  -2.028  -2.377  1.00  0.00    -0.395 OA
HETATM   39  H17 UNL     1      -4.665  -2.946  -2.552  1.00  0.00     0.210 HD
ENDBRANCH  10  38
TORSDOF 10
