REMARK  11 active torsions:
REMARK  status: ('A' for Active; 'I' for Inactive)
REMARK    1  A    between atoms: C5_7  and  C6_8 
REMARK    2  A    between atoms: C6_8  and  C7_9 
REMARK    3  A    between atoms: C7_9  and  O3_10 
REMARK    4  A    between atoms: C7_9  and  C15_19 
REMARK    5  A    between atoms: O3_10  and  C8_11 
REMARK    6  A    between atoms: C8_11  and  C9_13 
REMARK    7  A    between atoms: C15_19  and  O5_21 
REMARK    8  A    between atoms: C15_19  and  C17_22 
REMARK    9  A    between atoms: C20_25  and  O6_26 
REMARK   10  A    between atoms: C26_33  and  O8_34 
REMARK   11  A    between atoms: C27_35  and  O9_36 
ROOT
HETATM    1  C17 UNL     1      -0.509  -0.024   0.515  1.00  0.00     0.034 C 
HETATM    2  C18 UNL     1      -0.759   0.710   1.840  1.00  0.00     0.012 C 
HETATM    3  C19 UNL     1       0.575   1.394   2.095  1.00  0.00     0.044 C 
HETATM    4  C20 UNL     1       1.609   0.289   1.832  1.00  0.00     0.089 C 
HETATM    5  C21 UNL     1       3.006   0.742   1.433  1.00  0.00    -0.037 C 
HETATM    6  C22 UNL     1       3.433   2.014   1.485  1.00  0.00     0.057 C 
HETATM    7  C23 UNL     1       4.761   2.422   0.979  1.00  0.00     0.154 C 
HETATM    8  O7  UNL     1       5.049   3.618   1.006  1.00  0.00    -0.293 OA
HETATM    9  C24 UNL     1       5.702   1.380   0.395  1.00  0.00     0.071 C 
HETATM   10  C25 UNL     1       5.746   1.548  -1.129  1.00  0.00     0.047 C 
HETATM   11  C26 UNL     1       6.498   0.435  -1.862  1.00  0.00     0.147 C 
HETATM   12  C27 UNL     1       7.198  -0.559  -0.928  1.00  0.00     0.147 C 
HETATM   13  C28 UNL     1       6.225  -1.138   0.096  1.00  0.00     0.044 C 
HETATM   14  C29 UNL     1       5.408  -0.065   0.891  1.00  0.00    -0.023 C 
HETATM   15  C30 UNL     1       5.899  -0.145   2.373  1.00  0.00     0.016 C 
HETATM   16  C31 UNL     1       3.866  -0.384   0.892  1.00  0.00     0.027 C 
HETATM   17  C32 UNL     1       3.246  -0.857  -0.442  1.00  0.00     0.011 C 
HETATM   18  C33 UNL     1       1.744  -0.556  -0.590  1.00  0.00     0.014 C 
HETATM   19  C34 UNL     1       0.936  -0.653   0.736  1.00  0.00    -0.002 C 
HETATM   20  C35 UNL     1       0.911  -2.122   1.211  1.00  0.00     0.019 C 
ENDROOT
BRANCH   1  21
HETATM   21  C15 UNL     1      -1.723  -0.895   0.047  1.00  0.00     0.085 C 
HETATM   22  C16 UNL     1      -1.452  -1.538  -1.324  1.00  0.00     0.049 C 
BRANCH  21  23
HETATM   23  C7  UNL     1      -3.072  -0.068  -0.011  1.00  0.00     0.167 C 
BRANCH  23  24
HETATM   24  C6  UNL     1      -3.047   1.133  -0.986  1.00  0.00     0.043 C 
BRANCH  24  25
HETATM   25  C5  UNL     1      -4.378   1.930  -1.002  1.00  0.00     0.026 C 
HETATM   26  C2  UNL     1      -4.162   3.349  -1.533  1.00  0.00     0.087 C 
HETATM   27  C1  UNL     1      -5.164   4.353  -0.977  1.00  0.00     0.021 C 
HETATM   28  C3  UNL     1      -4.383   3.176  -3.012  1.00  0.00     0.263 C 
HETATM   29  O1  UNL     1      -4.044   3.967  -3.877  1.00  0.00    -0.265 OA
HETATM   30  O2  UNL     1      -5.047   2.010  -3.256  1.00  0.00    -0.321 OA
HETATM   31  C4  UNL     1      -5.370   1.380  -2.015  1.00  0.00     0.184 C 
ENDBRANCH  24  25
ENDBRANCH  23  24
BRANCH  23  32
HETATM   32  O3  UNL     1      -4.166  -0.933  -0.404  1.00  0.00    -0.309 OA
BRANCH  32  33
HETATM   33  C8  UNL     1      -4.787  -1.606   0.599  1.00  0.00     0.293 C 
HETATM   34  O4  UNL     1      -4.518  -1.506   1.787  1.00  0.00    -0.259 OA
BRANCH  33  35
HETATM   35  C9  UNL     1      -5.871  -2.468   0.061  1.00  0.00     0.039 A 
HETATM   36  C10 UNL     1      -6.007  -2.735  -1.308  1.00  0.00     0.017 A 
HETATM   37  C11 UNL     1      -7.048  -3.547  -1.763  1.00  0.00     0.001 A 
HETATM   38  C12 UNL     1      -7.954  -4.097  -0.856  1.00  0.00     0.000 A 
HETATM   39  C13 UNL     1      -7.820  -3.841   0.508  1.00  0.00     0.001 A 
HETATM   40  C14 UNL     1      -6.780  -3.031   0.968  1.00  0.00     0.017 A 
ENDBRANCH  33  35
ENDBRANCH  32  33
ENDBRANCH  23  32
ENDBRANCH  21  23
BRANCH  21  41
HETATM   41  O5  UNL     1      -1.899  -1.986   0.960  1.00  0.00    -0.387 OA
HETATM   42  H19 UNL     1      -2.491  -1.709   1.689  1.00  0.00     0.210 HD
ENDBRANCH  21  41
ENDBRANCH   1  21
BRANCH   4  43
HETATM   43  O6  UNL     1       1.764  -0.416   3.068  1.00  0.00    -0.384 OA
HETATM   44  H25 UNL     1       2.243   0.167   3.682  1.00  0.00     0.211 HD
ENDBRANCH   4  43
BRANCH  12  45
HETATM   45  O9  UNL     1       8.286   0.075  -0.253  1.00  0.00    -0.393 OA
HETATM   46  H33 UNL     1       8.647   0.734  -0.881  1.00  0.00     0.210 HD
ENDBRANCH  12  45
BRANCH  11  47
HETATM   47  O8  UNL     1       7.485   1.034  -2.710  1.00  0.00    -0.393 OA
HETATM   48  H31 UNL     1       7.810   0.345  -3.317  1.00  0.00     0.210 HD
ENDBRANCH  11  47
TORSDOF 11
