REMARK  6 active torsions:
REMARK  status: ('A' for Active; 'I' for Inactive)
REMARK    1  A    between atoms: C2_2  and  C30_32 
REMARK    2  A    between atoms: C3_3  and  C4_4 
REMARK    3  A    between atoms: C4_4  and  C5_6 
REMARK    4  A    between atoms: C5_6  and  C6_7 
REMARK    5  A    between atoms: C6_7  and  C8_9 
REMARK    6  A    between atoms: C30_32  and  O4_34 
ROOT
HETATM    1  C8  UNL     1       2.185  -0.433   1.044  1.00  0.00    -0.001 C 
HETATM    2  C9  UNL     1       2.353   1.100   1.255  1.00  0.00     0.007 C 
HETATM    3  C10 UNL     1       1.075   1.780   0.729  1.00  0.00     0.015 C 
HETATM    4  C11 UNL     1       0.332   0.676  -0.052  1.00  0.00    -0.013 C 
HETATM    5  C12 UNL     1       0.967   0.655  -1.479  1.00  0.00     0.021 C 
HETATM    6  C13 UNL     1      -1.171   0.828  -0.256  1.00  0.00    -0.070 C 
HETATM    7  C14 UNL     1      -1.779   2.023  -0.314  1.00  0.00    -0.022 C 
HETATM    8  C15 UNL     1      -3.240   2.230  -0.555  1.00  0.00     0.034 C 
HETATM    9  C16 UNL     1      -4.093   0.986  -0.919  1.00  0.00     0.013 C 
HETATM   10  C17 UNL     1      -5.261   0.692   0.090  1.00  0.00     0.018 C 
HETATM   11  C18 UNL     1      -6.203   1.917   0.188  1.00  0.00     0.023 C 
HETATM   12  C19 UNL     1      -4.786   0.322   1.501  1.00  0.00     0.023 C 
HETATM   13  C20 UNL     1      -6.119  -0.471  -0.440  1.00  0.00     0.135 C 
HETATM   14  O2  UNL     1      -7.232  -0.726   0.023  1.00  0.00    -0.297 OA
HETATM   15  C21 UNL     1      -5.565  -1.296  -1.576  1.00  0.00     0.080 C 
HETATM   16  C22 UNL     1      -4.093  -1.563  -1.319  1.00  0.00     0.017 C 
HETATM   17  C23 UNL     1      -3.230  -0.269  -1.346  1.00  0.00    -0.031 C 
HETATM   18  C24 UNL     1      -2.772  -0.036  -2.816  1.00  0.00     0.016 C 
HETATM   19  C25 UNL     1      -1.981  -0.453  -0.405  1.00  0.00     0.024 C 
HETATM   20  C26 UNL     1      -1.107  -1.691  -0.739  1.00  0.00     0.010 C 
HETATM   21  C27 UNL     1       0.183  -1.855   0.099  1.00  0.00     0.011 C 
HETATM   22  C28 UNL     1       0.641  -0.581   0.837  1.00  0.00    -0.029 C 
HETATM   23  C29 UNL     1      -0.053  -0.539   2.236  1.00  0.00     0.016 C 
ENDROOT
BRANCH   1  24
HETATM   24  C6  UNL     1       2.896  -1.267   2.146  1.00  0.00    -0.007 C 
HETATM   25  C7  UNL     1       2.739  -2.778   1.947  1.00  0.00     0.011 C 
BRANCH  24  26
HETATM   26  C5  UNL     1       4.390  -0.896   2.304  1.00  0.00     0.087 C 
BRANCH  26  27
HETATM   27  C4  UNL     1       5.212  -0.981   1.027  1.00  0.00     0.150 C 
HETATM   28  O1  UNL     1       5.159  -1.946   0.271  1.00  0.00    -0.293 OA
BRANCH  27  29
HETATM   29  C3  UNL     1       6.136   0.157   0.758  1.00  0.00     0.063 C 
HETATM   30  C2  UNL     1       6.558   0.522  -0.467  1.00  0.00     0.015 C 
HETATM   31  C1  UNL     1       6.148  -0.083  -1.776  1.00  0.00     0.055 C 
BRANCH  30  32
HETATM   32  C30 UNL     1       7.499   1.664  -0.486  1.00  0.00     0.171 C 
HETATM   33  O3  UNL     1       7.749   2.407   0.447  1.00  0.00    -0.646 OA
BRANCH  32  34
HETATM   34  O4  UNL     1       8.097   1.821  -1.677  1.00  0.00    -0.773 OA
HETATM   35  H44 UNL     1       8.692   2.589  -1.547  1.00  0.00     0.167 HD
ENDBRANCH  32  34
ENDBRANCH  30  32
ENDBRANCH  27  29
ENDBRANCH  26  27
ENDBRANCH  24  26
ENDBRANCH   1  24
TORSDOF 6
