REMARK  13 active torsions:
REMARK  status: ('A' for Active; 'I' for Inactive)
REMARK    1  A    between atoms: C19_21  and  O3_22 
REMARK    2  A    between atoms: C19_21  and  C20_23 
REMARK    3  A    between atoms: C20_23  and  C21_25 
REMARK    4  A    between atoms: C21_25  and  O5_26 
REMARK    5  A    between atoms: O5_26  and  C22_27 
REMARK    6  A    between atoms: C22_27  and  C23_29 
REMARK    7  A    between atoms: C23_29  and  C24_30 
REMARK    8  A    between atoms: C24_30  and  C25_31 
REMARK       I    between atoms: C25_31  and  N1_33 
REMARK    9  A    between atoms: N1_33  and  C26_34 
REMARK   10  A    between atoms: C26_34  and  C27_35 
REMARK   11  A    between atoms: C26_34  and  C36_45 
REMARK   12  A    between atoms: C27_35  and  C28_36 
REMARK   13  A    between atoms: C36_45  and  O9_47 
ROOT
HETATM    1  C21 UNL     1       0.841   1.426   0.480  1.00  0.00     0.260 C 
ENDROOT
BRANCH   1   2
HETATM    2  C20 UNL     1       0.002   1.053  -0.740  1.00  0.00     0.185 C 
HETATM    3  O4  UNL     1       0.460   0.319  -1.622  1.00  0.00    -0.292 OA
BRANCH   2   4
HETATM    4  C19 UNL     1      -1.430   1.642  -0.823  1.00  0.00     0.128 C 
HETATM    5  C14 UNL     1      -2.588   0.631  -0.536  1.00  0.00     0.005 C 
HETATM    6  C13 UNL     1      -2.955   0.381   0.936  1.00  0.00     0.091 C 
HETATM    7  C15 UNL     1      -2.293  -0.748  -1.194  1.00  0.00     0.019 C 
HETATM    8  C16 UNL     1      -3.775   1.389  -1.209  1.00  0.00     0.002 C 
HETATM    9  C12 UNL     1      -4.300  -0.341   1.017  1.00  0.00     0.133 C 
HETATM   10  C11 UNL     1      -5.472   0.370   0.323  1.00  0.00     0.072 C 
HETATM   11  O2  UNL     1      -4.413  -1.392   1.639  1.00  0.00    -0.297 OA
HETATM   12  C2  UNL     1      -6.890  -0.259   0.482  1.00  0.00    -0.009 C 
HETATM   13  C10 UNL     1      -5.088   0.587  -1.173  1.00  0.00     0.003 C 
HETATM   14  C1  UNL     1      -6.995  -1.620  -0.245  1.00  0.00     0.021 C 
HETATM   15  C3  UNL     1      -7.272  -0.426   1.978  1.00  0.00     0.022 C 
HETATM   16  C7  UNL     1      -7.901   0.723  -0.133  1.00  0.00    -0.067 C 
HETATM   17  C4  UNL     1      -8.721  -0.868   2.186  1.00  0.00     0.084 C 
HETATM   18  C5  UNL     1      -9.697  -0.048   1.377  1.00  0.00     0.149 C 
HETATM   19  O1  UNL     1     -10.905  -0.063   1.604  1.00  0.00    -0.293 OA
HETATM   20  C6  UNL     1      -9.181   0.793   0.272  1.00  0.00     0.053 C 
HETATM   21  C8  UNL     1      -7.396   1.719  -1.155  1.00  0.00     0.035 C 
HETATM   22  C9  UNL     1      -6.234   1.204  -1.996  1.00  0.00     0.010 C 
HETATM   23  C17 UNL     1      -3.206   1.799  -2.562  1.00  0.00     0.009 C 
HETATM   24  C18 UNL     1      -1.724   2.109  -2.280  1.00  0.00     0.047 C 
BRANCH   4  25
HETATM   25  O3  UNL     1      -1.561   2.818  -0.017  1.00  0.00    -0.381 OA
HETATM   26  H25 UNL     1      -1.585   2.578   0.924  1.00  0.00     0.211 HD
ENDBRANCH   4  25
ENDBRANCH   2   4
ENDBRANCH   1   2
BRANCH   1  27
HETATM   27  O5  UNL     1       1.960   0.555   0.651  1.00  0.00    -0.314 OA
BRANCH  27  28
HETATM   28  C22 UNL     1       1.628  -0.669   1.144  1.00  0.00     0.259 C 
HETATM   29  O6  UNL     1       0.502  -0.972   1.519  1.00  0.00    -0.265 OA
BRANCH  28  30
HETATM   30  C23 UNL     1       2.794  -1.620   1.116  1.00  0.00     0.120 C 
BRANCH  30  31
HETATM   31  C24 UNL     1       4.092  -0.974   1.579  1.00  0.00     0.112 C 
BRANCH  31  32
HETATM   32  C25 UNL     1       5.226  -1.974   1.626  1.00  0.00     0.218 C 
HETATM   33  O7  UNL     1       5.079  -3.177   1.449  1.00  0.00    -0.274 OA
HETATM   34  N1  UNL     1       6.442  -1.387   1.886  1.00  0.00    -0.346 N 
HETATM   35  H32 UNL     1       6.441  -0.478   2.328  1.00  0.00     0.163 HD
BRANCH  34  36
HETATM   36  C26 UNL     1       7.663  -2.191   2.016  1.00  0.00     0.186 C 
BRANCH  36  37
HETATM   37  C27 UNL     1       8.892  -1.431   1.495  1.00  0.00     0.077 C 
BRANCH  37  38
HETATM   38  C28 UNL     1       8.793  -1.095   0.037  1.00  0.00    -0.028 A 
HETATM   39  C29 UNL     1       9.110  -1.934  -1.015  1.00  0.00     0.096 A 
HETATM   40  N2  UNL     1       8.846  -1.275  -2.185  1.00  0.00    -0.365 N 
HETATM   41  C30 UNL     1       8.370  -0.011  -1.923  1.00  0.00     0.042 A 
HETATM   42  H37 UNL     1       8.970  -1.659  -3.111  1.00  0.00     0.165 HD
HETATM   43  C31 UNL     1       7.969   1.001  -2.805  1.00  0.00     0.030 A 
HETATM   44  C35 UNL     1       8.337   0.137  -0.537  1.00  0.00    -0.002 A 
HETATM   45  C32 UNL     1       7.521   2.203  -2.251  1.00  0.00     0.002 A 
HETATM   46  C33 UNL     1       7.480   2.385  -0.871  1.00  0.00     0.001 A 
HETATM   47  C34 UNL     1       7.884   1.362  -0.004  1.00  0.00     0.014 A 
ENDBRANCH  37  38
ENDBRANCH  36  37
BRANCH  36  48
HETATM   48  C36 UNL     1       7.924  -2.574   3.474  1.00  0.00     0.163 C 
HETATM   49  O8  UNL     1       8.808  -3.317   3.873  1.00  0.00    -0.648 OA
BRANCH  48  50
HETATM   50  O9  UNL     1       7.121  -1.955   4.369  1.00  0.00    -0.775 OA
HETATM   51  H42 UNL     1       7.400  -2.335   5.229  1.00  0.00     0.167 HD
ENDBRANCH  48  50
ENDBRANCH  36  48
ENDBRANCH  34  36
ENDBRANCH  31  32
ENDBRANCH  30  31
ENDBRANCH  28  30
ENDBRANCH  27  28
ENDBRANCH   1  27
TORSDOF 13
