REMARK  10 active torsions:
REMARK  status: ('A' for Active; 'I' for Inactive)
REMARK    1  A    between atoms: C2_2  and  C3_3 
REMARK    2  A    between atoms: C5_5  and  S1_6 
REMARK    3  A    between atoms: C14_18  and  C15_19 
REMARK    4  A    between atoms: C15_19  and  O4_20 
REMARK    5  A    between atoms: C21_26  and  O5_27 
REMARK    6  A    between atoms: C33_40  and  C34_41 
REMARK    7  A    between atoms: C33_40  and  N1_49 
REMARK    8  A    between atoms: C34_41  and  C35_42 
REMARK    9  A    between atoms: C35_42  and  C36_43 
REMARK   10  A    between atoms: C36_43  and  O7_44 
REMARK       I    between atoms: C41_51  and  N2_52 
REMARK       I    between atoms: C41_51  and  N3_53 
ROOT
HETATM    1  C3  UNL     1       0.146  -4.193   0.812  1.00  0.00     0.019 C 
HETATM    2  C4  UNL     1      -0.071  -3.062   1.852  1.00  0.00     0.034 C 
HETATM    3  C5  UNL     1      -1.467  -2.404   1.848  1.00  0.00     0.157 C 
HETATM    4  C6  UNL     1      -1.794  -1.491   0.606  1.00  0.00     0.121 A 
HETATM    5  C7  UNL     1      -3.308  -1.345   0.455  1.00  0.00     0.005 C 
HETATM    6  C8  UNL     1      -3.831  -0.383  -0.326  1.00  0.00    -0.048 C 
HETATM    7  C9  UNL     1      -2.905   0.389  -1.214  1.00  0.00     0.044 C 
HETATM    8  C10 UNL     1      -1.861   1.032  -0.304  1.00  0.00     0.019 C 
HETATM    9  C11 UNL     1      -2.463   2.182   0.574  1.00  0.00     0.039 C 
HETATM   10  C12 UNL     1      -3.859   1.965   1.207  1.00  0.00     0.123 C 
HETATM   11  C13 UNL     1      -4.367   3.228   1.949  1.00  0.00     0.039 C 
HETATM   12  C14 UNL     1      -4.918   4.376   1.045  1.00  0.00     0.023 C 
HETATM   13  C16 UNL     1      -6.472   4.421   0.991  1.00  0.00     0.101 C 
HETATM   14  C17 UNL     1      -7.040   3.311   0.219  1.00  0.00    -0.101 C 
HETATM   15  C18 UNL     1      -7.289   2.323  -0.421  1.00  0.00    -0.066 C 
HETATM   16  C19 UNL     1      -7.307   1.083  -1.146  1.00  0.00     0.029 A 
HETATM   17  C20 UNL     1      -8.365   0.856  -2.034  1.00  0.00     0.057 A 
HETATM   18  C21 UNL     1      -8.429  -0.335  -2.744  1.00  0.00     0.067 A 
HETATM   19  C22 UNL     1      -7.448  -1.305  -2.594  1.00  0.00     0.037 A 
HETATM   20  C23 UNL     1      -6.382  -1.082  -1.718  1.00  0.00     0.014 A 
HETATM   21  C24 UNL     1      -6.275   0.119  -0.988  1.00  0.00    -0.006 A 
HETATM   22  C25 UNL     1      -5.139   0.286   0.026  1.00  0.00     0.185 C 
HETATM   23  O6  UNL     1      -4.805   1.673   0.178  1.00  0.00    -0.371 OA
HETATM   24  C26 UNL     1      -1.079  -0.065   0.535  1.00  0.00     0.115 A 
HETATM   25  C27 UNL     1       0.346  -0.166  -0.035  1.00  0.00    -0.035 A 
HETATM   26  C28 UNL     1       0.583  -0.440  -1.388  1.00  0.00     0.010 A 
HETATM   27  C29 UNL     1       1.885  -0.549  -1.888  1.00  0.00     0.012 A 
HETATM   28  C30 UNL     1       3.008  -0.450  -1.045  1.00  0.00    -0.003 A 
HETATM   29  C31 UNL     1       2.762  -0.140   0.306  1.00  0.00     0.012 A 
HETATM   30  C32 UNL     1       1.457   0.019   0.798  1.00  0.00     0.010 A 
HETATM   31  C33 UNL     1       4.422  -0.815  -1.603  1.00  0.00     0.170 C 
HETATM   32  O8  UNL     1       4.833  -2.227  -1.386  1.00  0.00    -0.316 OA
HETATM   33  C42 UNL     1       3.858  -3.059  -0.905  1.00  0.00     0.072 C 
HETATM   34  C43 UNL     1       2.863  -3.552  -1.748  1.00  0.00     0.037 C 
HETATM   35  C44 UNL     1       1.694  -4.061  -1.185  1.00  0.00     0.010 C 
HETATM   36  C45 UNL     1       1.544  -4.091   0.210  1.00  0.00    -0.054 C 
HETATM   37  C46 UNL     1       2.664  -3.829   1.019  1.00  0.00     0.010 C 
HETATM   38  C47 UNL     1       3.828  -3.311   0.461  1.00  0.00     0.037 C 
HETATM   39 NA1  UNL     1       0.000   0.000   0.000  1.00  0.00    -0.404 Na
ATOM     40  HA1 UNL     1       0.878   0.360  -0.373  1.00  0.00     0.154 HD
ENDROOT
BRANCH  31  41
HETATM   41  C34 UNL     1       5.545  -0.018  -0.855  1.00  0.00     0.070 C 
BRANCH  41  42
HETATM   42  C35 UNL     1       5.449   1.515  -0.974  1.00  0.00     0.043 C 
BRANCH  42  43
HETATM   43  C36 UNL     1       6.459   2.256  -0.090  1.00  0.00     0.058 C 
HETATM   44  C37 UNL     1       6.226   2.079   1.411  1.00  0.00     0.038 C 
HETATM   45  C38 UNL     1       6.957   3.254   2.057  1.00  0.00     0.003 C 
HETATM   46  C39 UNL     1       7.048   4.340   0.987  1.00  0.00     0.003 C 
HETATM   47  C40 UNL     1       6.362   3.775  -0.256  1.00  0.00     0.038 C 
BRANCH  43  48
HETATM   48  O7  UNL     1       7.790   1.836  -0.404  1.00  0.00    -0.390 OA
HETATM   49  H40 UNL     1       7.902   1.928  -1.365  1.00  0.00     0.210 HD
ENDBRANCH  43  48
ENDBRANCH  42  43
ENDBRANCH  41  42
ENDBRANCH  31  41
BRANCH  31  50
HETATM   50  N1  UNL     1       4.519  -0.334  -3.005  1.00  0.00    -0.336 N 
HETATM   51  C41 UNL     1       4.935  -1.060  -3.963  1.00  0.00     0.124 C 
HETATM   52  N2  UNL     1       5.342  -2.343  -3.994  1.00  0.00    -0.279 NA
HETATM   53  N3  UNL     1       4.983  -0.541  -5.210  1.00  0.00    -0.279 NA
HETATM   54  H49 UNL     1       5.486  -2.728  -3.059  1.00  0.00     0.126 HD
HETATM   55  H50 UNL     1       6.167  -2.480  -4.565  1.00  0.00     0.126 HD
HETATM   56  H51 UNL     1       4.490   0.349  -5.228  1.00  0.00     0.126 HD
HETATM   57  H52 UNL     1       4.598  -1.177  -5.898  1.00  0.00     0.126 HD
ATOM     58  H1  UNL     1       4.238   0.625  -3.209  1.00  0.00     0.165 HD
ENDBRANCH  31  50
BRANCH   1  59
HETATM   59  C2  UNL     1      -0.201  -5.607   1.330  1.00  0.00     0.005 C 
HETATM   60  C1  UNL     1       0.694  -6.163   2.432  1.00  0.00     0.006 C 
ENDBRANCH   1  59
BRANCH   3  61
HETATM   61  S1  UNL     1      -1.721  -1.592   3.460  1.00  0.00     0.108 S 
HETATM   62  O1  UNL     1      -1.836  -2.731   4.377  1.00  0.00    -0.595 OA
HETATM   63  O2  UNL     1      -2.958  -0.834   3.318  1.00  0.00    -0.595 OA
HETATM   64  O3  UNL     1      -0.528  -0.772   3.649  1.00  0.00    -0.595 OA
ENDBRANCH   3  61
BRANCH  12  65
HETATM   65  C15 UNL     1      -4.422   5.741   1.553  1.00  0.00     0.169 C 
BRANCH  65  66
HETATM   66  O4  UNL     1      -3.003   5.851   1.516  1.00  0.00    -0.400 OA
HETATM   67  H23 UNL     1      -2.669   5.271   0.814  1.00  0.00     0.209 HD
ENDBRANCH  65  66
ENDBRANCH  12  65
BRANCH  18  68
HETATM   68  O5  UNL     1      -9.490  -0.525  -3.581  1.00  0.00    -0.361 OA
HETATM   69  H27 UNL     1      -9.527  -1.471  -3.814  1.00  0.00     0.217 HD
ENDBRANCH  18  68
TORSDOF 10
