REMARK  10 active torsions:
REMARK  status: ('A' for Active; 'I' for Inactive)
REMARK    1  A    between atoms: C14_14  and  C15_15 
REMARK    2  A    between atoms: C15_15  and  C17_17 
REMARK    3  A    between atoms: C17_17  and  C18_18 
REMARK    4  A    between atoms: C18_18  and  C19_19 
REMARK    5  A    between atoms: C20_20  and  C22_22 
REMARK    6  A    between atoms: C22_22  and  O2_24 
REMARK    7  A    between atoms: C27_29  and  C28_30 
REMARK    8  A    between atoms: C28_30  and  C29_31 
REMARK    9  A    between atoms: C29_31  and  C30_32 
REMARK   10  A    between atoms: C30_32  and  O4_34 
ROOT
HETATM    1  C1  UNL     1      -6.024  -1.141   2.220  1.00  0.00     0.043 C 
HETATM    2  C2  UNL     1      -5.161  -0.026   1.659  1.00  0.00    -0.085 C 
HETATM    3  C3  UNL     1      -5.355   1.245   2.446  1.00  0.00     0.043 C 
HETATM    4  C4  UNL     1      -4.305  -0.217   0.617  1.00  0.00    -0.073 C 
HETATM    5  C5  UNL     1      -4.004  -1.642   0.169  1.00  0.00     0.035 C 
HETATM    6  C6  UNL     1      -2.690  -1.788  -0.598  1.00  0.00     0.010 C 
HETATM    7  C7  UNL     1      -1.525  -0.933  -0.028  1.00  0.00     0.003 C 
HETATM    8  C8  UNL     1      -1.929   0.602   0.247  1.00  0.00    -0.032 C 
HETATM    9  C9  UNL     1      -1.796   0.951   1.755  1.00  0.00     0.016 C 
HETATM   10  C10 UNL     1      -0.989   1.597  -0.503  1.00  0.00     0.011 C 
HETATM   11  C11 UNL     1       0.525   1.292  -0.518  1.00  0.00     0.011 C 
HETATM   12  C12 UNL     1       0.918  -0.187  -0.354  1.00  0.00    -0.032 C 
HETATM   13  C13 UNL     1       1.263  -0.477   1.144  1.00  0.00     0.016 C 
HETATM   14  C14 UNL     1       2.145  -0.672  -1.206  1.00  0.00    -0.002 C 
HETATM   15  C23 UNL     1       1.892  -2.210  -1.301  1.00  0.00     0.006 C 
HETATM   16  C24 UNL     1       0.436  -2.470  -0.866  1.00  0.00     0.011 C 
HETATM   17  C25 UNL     1      -0.238  -1.085  -0.914  1.00  0.00    -0.032 C 
HETATM   18  C26 UNL     1      -0.586  -0.839  -2.423  1.00  0.00     0.016 C 
HETATM   19  C27 UNL     1      -3.450   0.804  -0.168  1.00  0.00     0.024 C 
ENDROOT
BRANCH  14  20
HETATM   20  C15 UNL     1       3.594  -0.325  -0.740  1.00  0.00    -0.014 C 
HETATM   21  C16 UNL     1       3.789   1.193  -0.628  1.00  0.00     0.010 C 
BRANCH  20  22
HETATM   22  C17 UNL     1       4.649  -0.914  -1.720  1.00  0.00     0.008 C 
BRANCH  22  23
HETATM   23  C18 UNL     1       5.937  -1.406  -1.038  1.00  0.00     0.028 C 
BRANCH  23  24
HETATM   24  C19 UNL     1       6.814  -0.311  -0.503  1.00  0.00    -0.013 C 
HETATM   25  C20 UNL     1       7.124  -0.054   0.784  1.00  0.00     0.008 C 
HETATM   26  C21 UNL     1       6.610  -0.794   1.981  1.00  0.00     0.055 C 
BRANCH  25  27
HETATM   27  C22 UNL     1       8.043   1.090   1.025  1.00  0.00     0.171 C 
HETATM   28  O1  UNL     1       8.469   1.872   0.193  1.00  0.00    -0.646 OA
BRANCH  27  29
HETATM   29  O2  UNL     1       8.397   1.198   2.316  1.00  0.00    -0.773 OA
HETATM   30  H35 UNL     1       8.998   1.972   2.322  1.00  0.00     0.167 HD
ENDBRANCH  27  29
ENDBRANCH  25  27
ENDBRANCH  23  24
ENDBRANCH  22  23
ENDBRANCH  20  22
ENDBRANCH  14  20
BRANCH  19  31
HETATM   31  C28 UNL     1      -3.967   2.267  -0.270  1.00  0.00     0.020 C 
BRANCH  31  32
HETATM   32  C29 UNL     1      -5.027   2.460  -1.362  1.00  0.00     0.110 C 
BRANCH  32  33
HETATM   33  C30 UNL     1      -6.286   1.667  -1.169  1.00  0.00     0.139 C 
HETATM   34  O3  UNL     1      -6.570   0.618  -1.723  1.00  0.00    -0.650 OA
BRANCH  33  35
HETATM   35  O4  UNL     1      -7.144   2.247  -0.310  1.00  0.00    -0.776 OA
HETATM   36  H48 UNL     1      -7.889   1.612  -0.269  1.00  0.00     0.167 HD
ENDBRANCH  33  35
ENDBRANCH  32  33
ENDBRANCH  31  32
ENDBRANCH  19  31
TORSDOF 10
