REMARK  15 active torsions:
REMARK  status: ('A' for Active; 'I' for Inactive)
REMARK    1  A    between atoms: C2_2  and  C3_3 
REMARK    2  A    between atoms: C2_2  and  C37_47 
REMARK    3  A    between atoms: C3_3  and  C4_4 
REMARK    4  A    between atoms: C4_4  and  C5_5 
REMARK    5  A    between atoms: C5_5  and  C6_6 
REMARK    6  A    between atoms: C5_5  and  C13_20 
REMARK    7  A    between atoms: C6_6  and  O2_8 
REMARK    8  A    between atoms: O2_8  and  C7_9 
REMARK    9  A    between atoms: C8_11  and  C9_12 
REMARK   10  A    between atoms: C9_12  and  O4_13 
REMARK   11  A    between atoms: C10_14  and  O5_15 
REMARK   12  A    between atoms: C11_16  and  O6_17 
REMARK   13  A    between atoms: C12_18  and  O7_19 
REMARK   14  A    between atoms: C14_21  and  O8_22 
REMARK   15  A    between atoms: O8_22  and  C15_23 
ROOT
HETATM    1  C13 UNL     1      -1.458   0.751   1.386  1.00  0.00     0.038 C 
HETATM    2  C14 UNL     1      -1.623  -0.634   2.084  1.00  0.00     0.138 C 
HETATM    3  C17 UNL     1      -0.294  -1.391   1.898  1.00  0.00     0.047 C 
HETATM    4  C18 UNL     1       0.732  -0.302   1.518  1.00  0.00    -0.010 C 
HETATM    5  C19 UNL     1       1.216   0.369   2.842  1.00  0.00     0.021 C 
HETATM    6  C20 UNL     1       2.017  -0.706   0.801  1.00  0.00    -0.068 C 
HETATM    7  C21 UNL     1       2.657   0.187   0.002  1.00  0.00    -0.068 C 
HETATM    8  C22 UNL     1       2.077   1.590  -0.243  1.00  0.00     0.036 C 
HETATM    9  C23 UNL     1       0.677   1.898   0.340  1.00  0.00     0.015 C 
HETATM   10  C24 UNL     1      -0.139   0.616   0.566  1.00  0.00    -0.026 C 
HETATM   11  C25 UNL     1      -0.423  -0.025  -0.817  1.00  0.00     0.016 C 
HETATM   12  C26 UNL     1       3.981  -0.158  -0.732  1.00  0.00    -0.015 C 
HETATM   13  C27 UNL     1       3.620  -0.408  -2.220  1.00  0.00     0.020 C 
HETATM   14  C28 UNL     1       4.977   1.035  -0.643  1.00  0.00     0.021 C 
HETATM   15  C29 UNL     1       6.452   0.689  -0.842  1.00  0.00     0.080 C 
HETATM   16  C30 UNL     1       6.682  -0.676  -1.445  1.00  0.00     0.135 C 
HETATM   17  O10 UNL     1       7.460  -0.811  -2.390  1.00  0.00    -0.297 OA
HETATM   18  C31 UNL     1       5.999  -1.870  -0.769  1.00  0.00     0.018 C 
HETATM   19  C32 UNL     1       5.792  -2.994  -1.805  1.00  0.00     0.023 C 
HETATM   20  C33 UNL     1       6.990  -2.402   0.291  1.00  0.00     0.023 C 
HETATM   21  C34 UNL     1       4.681  -1.396  -0.064  1.00  0.00     0.013 C 
HETATM   22  C35 UNL     1       3.680  -2.536   0.170  1.00  0.00     0.011 C 
HETATM   23  C36 UNL     1       2.545  -2.093   1.084  1.00  0.00     0.036 C 
ENDROOT
BRANCH   1  24
HETATM   24  C5  UNL     1      -2.806   1.311   0.835  1.00  0.00     0.093 C 
BRANCH  24  25
HETATM   25  C4  UNL     1      -2.753   2.821   0.476  1.00  0.00     0.019 C 
BRANCH  25  26
HETATM   26  C3  UNL     1      -2.571   3.197  -1.005  1.00  0.00     0.034 C 
BRANCH  26  27
HETATM   27  C2  UNL     1      -2.800   4.686  -1.252  1.00  0.00    -0.086 C 
HETATM   28  C1  UNL     1      -3.867   5.076  -1.975  1.00  0.00     0.014 C 
BRANCH  27  29
HETATM   29  C37 UNL     1      -1.789   5.661  -0.647  1.00  0.00     0.005 C 
HETATM   30  C38 UNL     1      -2.337   7.064  -0.363  1.00  0.00     0.014 C 
HETATM   31  C39 UNL     1      -0.538   5.772  -1.520  1.00  0.00     0.014 C 
ENDBRANCH  27  29
ENDBRANCH  26  27
ENDBRANCH  25  26
ENDBRANCH  24  25
BRANCH  24  32
HETATM   32  C6  UNL     1      -3.716   0.548  -0.139  1.00  0.00     0.266 C 
HETATM   33  O1  UNL     1      -4.801   1.005  -0.488  1.00  0.00    -0.265 OA
BRANCH  32  34
HETATM   34  O2  UNL     1      -3.239  -0.648  -0.555  1.00  0.00    -0.287 OA
BRANCH  34  35
HETATM   35  C7  UNL     1      -4.001  -1.281  -1.606  1.00  0.00     0.301 C 
HETATM   36  O3  UNL     1      -5.018  -2.156  -1.103  1.00  0.00    -0.348 OA
HETATM   37  C8  UNL     1      -4.542  -3.265  -0.334  1.00  0.00     0.179 C 
HETATM   38  C10 UNL     1      -3.068  -3.627  -0.577  1.00  0.00     0.180 C 
HETATM   39  C11 UNL     1      -2.758  -3.475  -2.062  1.00  0.00     0.183 C 
HETATM   40  C12 UNL     1      -3.062  -2.054  -2.566  1.00  0.00     0.205 C 
BRANCH  37  41
HETATM   41  C9  UNL     1      -4.833  -3.021   1.144  1.00  0.00     0.198 C 
BRANCH  41  42
HETATM   42  O4  UNL     1      -4.193  -4.009   1.952  1.00  0.00    -0.398 OA
HETATM   43  H12 UNL     1      -4.105  -3.596   2.843  1.00  0.00     0.209 HD
ENDBRANCH  41  42
ENDBRANCH  37  41
BRANCH  38  44
HETATM   44  O5  UNL     1      -2.783  -4.973  -0.175  1.00  0.00    -0.390 OA
HETATM   45  H14 UNL     1      -3.124  -5.045   0.745  1.00  0.00     0.210 HD
ENDBRANCH  38  44
BRANCH  39  46
HETATM   46  O6  UNL     1      -1.381  -3.805  -2.283  1.00  0.00    -0.390 OA
HETATM   47  H16 UNL     1      -1.271  -4.686  -1.870  1.00  0.00     0.210 HD
ENDBRANCH  39  46
BRANCH  40  48
HETATM   48  O7  UNL     1      -3.679  -2.153  -3.867  1.00  0.00    -0.388 OA
HETATM   49  H18 UNL     1      -4.547  -2.580  -3.746  1.00  0.00     0.210 HD
ENDBRANCH  40  48
ENDBRANCH  34  35
ENDBRANCH  32  34
ENDBRANCH  24  32
ENDBRANCH   1  24
BRANCH   2  50
HETATM   50  O8  UNL     1      -1.854  -0.381   3.484  1.00  0.00    -0.316 OA
BRANCH  50  51
HETATM   51  C15 UNL     1      -2.648  -1.237   4.172  1.00  0.00     0.255 C 
HETATM   52  C16 UNL     1      -2.803  -0.775   5.588  1.00  0.00     0.126 C 
HETATM   53  O9  UNL     1      -3.217  -2.215   3.714  1.00  0.00    -0.266 OA
ENDBRANCH  50  51
ENDBRANCH   2  50
TORSDOF 15
