REMARK  5 active torsions:
REMARK  status: ('A' for Active; 'I' for Inactive)
REMARK    1  A    between atoms: C2_2  and  C25_28 
REMARK    2  A    between atoms: C3_3  and  C4_4 
REMARK    3  A    between atoms: C4_4  and  C6_6 
REMARK    4  A    between atoms: C15_15  and  O1_16 
REMARK    5  A    between atoms: C25_28  and  C27_30 
ROOT
HETATM    1  C6  UNL     1       1.306   0.349  -0.352  1.00  0.00     0.001 C 
HETATM    2  C7  UNL     1       1.556  -0.826   0.642  1.00  0.00     0.006 C 
HETATM    3  C8  UNL     1       0.181  -1.396   1.023  1.00  0.00     0.009 C 
HETATM    4  C9  UNL     1      -0.783  -0.665   0.097  1.00  0.00     0.036 C 
HETATM    5  C10 UNL     1      -2.289  -0.735   0.374  1.00  0.00     0.123 C 
HETATM    6  C11 UNL     1      -2.755  -0.391   1.768  1.00  0.00     0.014 C 
HETATM    7  C12 UNL     1      -4.068  -0.582   1.957  1.00  0.00     0.014 C 
HETATM    8  C13 UNL     1      -4.803  -1.028   0.711  1.00  0.00     0.124 C 
HETATM    9  C14 UNL     1      -6.277  -1.348   0.979  1.00  0.00     0.078 C 
HETATM   10  C15 UNL     1      -7.006  -1.771  -0.298  1.00  0.00     0.121 C 
HETATM   11  C16 UNL     1      -6.834  -0.766  -1.438  1.00  0.00     0.033 C 
HETATM   12  C17 UNL     1      -5.364  -0.440  -1.703  1.00  0.00     0.015 C 
HETATM   13  C18 UNL     1      -4.604   0.032  -0.430  1.00  0.00     0.001 C 
HETATM   14  C19 UNL     1      -5.167   1.417  -0.015  1.00  0.00     0.019 C 
HETATM   15  C20 UNL     1      -3.049   0.072  -0.734  1.00  0.00     0.039 C 
HETATM   16  C21 UNL     1      -2.444   1.467  -0.997  1.00  0.00     0.010 C 
HETATM   17  C22 UNL     1      -0.921   1.433  -1.223  1.00  0.00     0.010 C 
HETATM   18  C23 UNL     1      -0.175   0.753  -0.057  1.00  0.00    -0.033 C 
HETATM   19  C24 UNL     1      -0.258   1.635   1.208  1.00  0.00     0.016 C 
HETATM   20  O2  UNL     1      -4.175  -2.258   0.255  1.00  0.00    -0.223 OA
HETATM   21  O3  UNL     1      -2.688  -2.123   0.202  1.00  0.00    -0.224 OA
ENDROOT
BRANCH   1  22
HETATM   22  C4  UNL     1       2.424   1.423  -0.268  1.00  0.00     0.009 C 
HETATM   23  C5  UNL     1       2.219   2.584  -1.242  1.00  0.00     0.014 C 
BRANCH  22  24
HETATM   24  C3  UNL     1       3.773   0.794  -0.576  1.00  0.00    -0.019 C 
HETATM   25  C2  UNL     1       4.920   0.879   0.132  1.00  0.00    -0.083 C 
HETATM   26  C1  UNL     1       5.090   1.686   1.393  1.00  0.00     0.043 C 
BRANCH  25  27
HETATM   27  C25 UNL     1       6.192   0.146  -0.317  1.00  0.00     0.013 C 
HETATM   28  C26 UNL     1       6.673   0.712  -1.662  1.00  0.00     0.015 C 
BRANCH  27  29
HETATM   29  C27 UNL     1       6.030  -1.405  -0.335  1.00  0.00    -0.015 C 
HETATM   30  C28 UNL     1       5.637  -1.946   1.048  1.00  0.00     0.010 C 
HETATM   31  C29 UNL     1       7.310  -2.113  -0.795  1.00  0.00     0.010 C 
ENDBRANCH  27  29
ENDBRANCH  25  27
ENDBRANCH  22  24
ENDBRANCH   1  22
BRANCH  10  32
HETATM   32  O1  UNL     1      -8.396  -1.931  -0.020  1.00  0.00    -0.395 OA
HETATM   33  H20 UNL     1      -8.755  -1.067   0.249  1.00  0.00     0.210 HD
ENDBRANCH  10  32
TORSDOF 5
