REMARK  12 active torsions:
REMARK  status: ('A' for Active; 'I' for Inactive)
REMARK    1  A    between atoms: O1_2  and  C2_3 
REMARK    2  A    between atoms: C2_3  and  C3_4 
REMARK    3  A    between atoms: C3_4  and  C4_5 
REMARK    4  A    between atoms: C4_5  and  O2_6 
REMARK    5  A    between atoms: O2_6  and  C5_7 
REMARK    6  A    between atoms: C20_23  and  C21_24 
REMARK    7  A    between atoms: C21_24  and  O4_26 
REMARK    8  A    between atoms: C21_24  and  C23_27 
REMARK    9  A    between atoms: C23_27  and  O5_28 
REMARK   10  A    between atoms: C23_27  and  C24_29 
REMARK   11  A    between atoms: C29_36  and  O7_37 
REMARK   12  A    between atoms: C36_44  and  O8_45 
ROOT
HETATM    1  C5  UNL     1      -5.558  -0.424   1.319  1.00  0.00     0.122 C 
HETATM    2  C6  UNL     1      -4.593  -0.054   2.448  1.00  0.00     0.033 C 
HETATM    3  C7  UNL     1      -3.166   0.183   1.956  1.00  0.00     0.013 C 
HETATM    4  C8  UNL     1      -2.583  -0.997   1.111  1.00  0.00    -0.026 C 
HETATM    5  C9  UNL     1      -2.451  -2.233   2.036  1.00  0.00     0.016 C 
HETATM    6  C10 UNL     1      -3.576  -1.299  -0.048  1.00  0.00     0.071 C 
HETATM    7  C11 UNL     1      -5.004  -1.573   0.462  1.00  0.00     0.045 C 
HETATM    8  C12 UNL     1      -3.614  -0.165  -1.084  1.00  0.00     0.161 C 
HETATM    9  O3  UNL     1      -4.652   0.199  -1.637  1.00  0.00    -0.292 OA
HETATM   10  C13 UNL     1      -2.326   0.445  -1.495  1.00  0.00    -0.006 C 
HETATM   11  C14 UNL     1      -1.225   0.135  -0.790  1.00  0.00    -0.030 C 
HETATM   12  C15 UNL     1      -1.168  -0.569   0.558  1.00  0.00     0.027 C 
HETATM   13  C16 UNL     1      -0.039  -1.637   0.570  1.00  0.00     0.011 C 
HETATM   14  C17 UNL     1       1.330  -1.081   0.074  1.00  0.00     0.014 C 
HETATM   15  C18 UNL     1       1.220  -0.505  -1.353  1.00  0.00    -0.002 C 
HETATM   16  C19 UNL     1       0.872  -1.687  -2.305  1.00  0.00     0.019 C 
HETATM   17  C20 UNL     1       2.393   0.405  -1.916  1.00  0.00     0.034 C 
HETATM   18  C32 UNL     1       1.616   1.395  -2.913  1.00  0.00     0.016 C 
HETATM   19  C33 UNL     1       0.130   1.085  -2.727  1.00  0.00     0.026 C 
HETATM   20  C34 UNL     1      -0.971   2.100  -2.964  1.00  0.00     0.013 C 
HETATM   21  C35 UNL     1      -2.325   1.385  -2.693  1.00  0.00     0.043 C 
HETATM   22  C36 UNL     1       0.104   0.580  -1.293  1.00  0.00     0.094 C 
ENDROOT
BRANCH  17  23
HETATM   23  C21 UNL     1       3.710  -0.149  -2.561  1.00  0.00     0.087 C 
HETATM   24  C22 UNL     1       4.572   1.030  -3.071  1.00  0.00     0.049 C 
BRANCH  23  25
HETATM   25  O4  UNL     1       3.372  -0.904  -3.742  1.00  0.00    -0.387 OA
HETATM   26  H33 UNL     1       3.219  -1.818  -3.423  1.00  0.00     0.210 HD
ENDBRANCH  23  25
BRANCH  23  27
HETATM   27  C23 UNL     1       4.624  -1.087  -1.695  1.00  0.00     0.181 C 
BRANCH  27  28
HETATM   28  O5  UNL     1       3.905  -2.310  -1.485  1.00  0.00    -0.390 OA
HETATM   29  H35 UNL     1       4.546  -3.040  -1.449  1.00  0.00     0.210 HD
ENDBRANCH  27  28
BRANCH  27  30
HETATM   30  C24 UNL     1       5.192  -0.462  -0.398  1.00  0.00     0.158 C 
HETATM   31  O6  UNL     1       4.184  -0.280   0.595  1.00  0.00    -0.373 OA
HETATM   32  C25 UNL     1       4.829  -0.015   1.853  1.00  0.00     0.185 C 
HETATM   33  C26 UNL     1       6.174  -0.743   1.801  1.00  0.00     0.027 C 
HETATM   34  C29 UNL     1       4.952   1.512   2.113  1.00  0.00     0.383 C 
HETATM   35  C27 UNL     1       7.317   0.120   2.337  1.00  0.00     0.038 C 
HETATM   36  C30 UNL     1       6.343  -1.176   0.331  1.00  0.00     0.020 C 
HETATM   37  C28 UNL     1       7.370   1.518   1.718  1.00  0.00     0.273 C 
HETATM   38  N1  UNL     1       6.075   2.125   1.426  1.00  0.00     0.114 N 
HETATM   39  H43 UNL     1       6.104   3.126   1.598  1.00  0.00     0.319 HD
HETATM   40  C31 UNL     1       6.367  -2.700   0.236  1.00  0.00     0.013 C 
BRANCH  34  41
HETATM   41  O7  UNL     1       5.067   1.772   3.499  1.00  0.00    -0.366 OA
HETATM   42  H45 UNL     1       5.029   2.739   3.590  1.00  0.00     0.212 HD
ENDBRANCH  34  41
ENDBRANCH  27  30
ENDBRANCH  23  27
ENDBRANCH  17  23
BRANCH  22  43
HETATM   43  O8  UNL     1       0.486   1.638  -0.393  1.00  0.00    -0.384 OA
HETATM   44  H57 UNL     1      -0.184   2.337  -0.456  1.00  0.00     0.211 HD
ENDBRANCH  22  43
BRANCH   1  45
HETATM   45  O2  UNL     1      -6.799  -0.790   1.937  1.00  0.00    -0.386 OA
BRANCH  45  46
HETATM   46  C4  UNL     1      -7.892  -0.867   1.019  1.00  0.00     0.170 C 
BRANCH  46  47
HETATM   47  C3  UNL     1      -9.081  -0.117   1.617  1.00  0.00     0.052 C 
BRANCH  47  48
HETATM   48  C2  UNL     1      -8.829   1.388   1.676  1.00  0.00     0.169 C 
BRANCH  48  49
HETATM   49  O1  UNL     1      -8.718   1.893   0.345  1.00  0.00    -0.396 OA
HETATM   50  C1  UNL     1      -8.346   3.264   0.329  1.00  0.00     0.201 C 
ENDBRANCH  48  49
ENDBRANCH  47  48
ENDBRANCH  46  47
ENDBRANCH  45  46
ENDBRANCH   1  45
TORSDOF 12
