REMARK  13 active torsions:
REMARK  status: ('A' for Active; 'I' for Inactive)
REMARK    1  A    between atoms: C3_3  and  O1_4 
REMARK    2  A    between atoms: N1_14  and  O2_16 
REMARK    3  A    between atoms: O2_16  and  C13_17 
REMARK    4  A    between atoms: C13_17  and  C14_18 
REMARK       I    between atoms: C14_18  and  N2_20 
REMARK    5  A    between atoms: N2_20  and  C15_21 
REMARK    6  A    between atoms: C15_21  and  C16_22 
REMARK    7  A    between atoms: C15_21  and  C21_32 
REMARK       I    between atoms: C16_22  and  N3_24 
REMARK    8  A    between atoms: N3_24  and  C17_25 
REMARK    9  A    between atoms: C17_25  and  C18_26 
REMARK   10  A    between atoms: C17_25  and  C19_28 
REMARK   11  A    between atoms: C18_26  and  S1_27 
REMARK   12  A    between atoms: C19_28  and  C20_29 
REMARK   13  A    between atoms: C20_29  and  O6_31 
ROOT
HETATM    1  C1  UNL     1      -7.762  -4.582  -0.668  1.00  0.00     0.015 C 
HETATM    2  C2  UNL     1      -7.121  -3.574  -0.814  1.00  0.00    -0.078 C 
HETATM    3  C3  UNL     1      -6.376  -2.318  -1.013  1.00  0.00     0.128 C 
HETATM    4  C4  UNL     1      -7.325  -1.160  -1.363  1.00  0.00     0.052 C 
HETATM    5  C5  UNL     1      -6.443   0.066  -1.184  1.00  0.00     0.010 C 
HETATM    6  C6  UNL     1      -5.630  -0.243   0.086  1.00  0.00     0.002 C 
HETATM    7  C7  UNL     1      -4.269   0.478   0.211  1.00  0.00    -0.004 C 
HETATM    8  C8  UNL     1      -3.405   0.555  -1.064  1.00  0.00     0.010 C 
HETATM    9  C9  UNL     1      -1.900   0.333  -0.880  1.00  0.00     0.035 C 
HETATM   10  C10 UNL     1      -1.284   0.744   0.436  1.00  0.00    -0.069 C 
HETATM   11  C11 UNL     1       0.037   0.982   0.510  1.00  0.00     0.030 C 
HETATM   12  C12 UNL     1       0.719   1.249   1.812  1.00  0.00     0.032 C 
HETATM   13  N1  UNL     1       1.929   1.710   1.943  1.00  0.00    -0.271 N 
ATOM     14  H1  UNL     1       2.406   1.828   2.837  1.00  0.00     0.194 HD
HETATM   15  C24 UNL     1      -0.046   0.970   3.096  1.00  0.00     0.060 C 
HETATM   16  C25 UNL     1      -1.364   0.230   2.873  1.00  0.00     0.020 C 
HETATM   17  C26 UNL     1      -2.176   0.777   1.668  1.00  0.00    -0.016 C 
HETATM   18  C27 UNL     1      -2.556   2.258   1.948  1.00  0.00     0.020 C 
HETATM   19  C28 UNL     1      -3.483  -0.064   1.429  1.00  0.00     0.002 C 
HETATM   20  C29 UNL     1      -3.261  -1.597   1.341  1.00  0.00     0.007 C 
HETATM   21  C30 UNL     1      -4.144  -2.323   0.318  1.00  0.00     0.014 C 
HETATM   22  C31 UNL     1      -5.593  -1.799   0.245  1.00  0.00     0.003 C 
HETATM   23  C32 UNL     1      -6.318  -2.168   1.568  1.00  0.00     0.020 C 
ENDROOT
BRANCH   3  24
HETATM   24  O1  UNL     1      -5.483  -2.501  -2.119  1.00  0.00    -0.377 OA
HETATM   25  H2  UNL     1      -6.019  -2.820  -2.868  1.00  0.00     0.211 HD
ENDBRANCH   3  24
BRANCH  13  26
HETATM   26  O2  UNL     1       2.494   2.024   0.697  1.00  0.00    -0.271 OA
BRANCH  26  27
HETATM   27  C13 UNL     1       3.520   2.998   0.875  1.00  0.00     0.303 C 
BRANCH  27  28
HETATM   28  C14 UNL     1       4.269   3.046  -0.444  1.00  0.00     0.244 C 
HETATM   29  O3  UNL     1       4.063   3.898  -1.302  1.00  0.00    -0.271 OA
HETATM   30  N2  UNL     1       5.167   2.010  -0.601  1.00  0.00    -0.346 N 
HETATM   31  H16 UNL     1       5.217   1.302   0.128  1.00  0.00     0.163 HD
BRANCH  30  32
HETATM   32  C15 UNL     1       5.862   1.730  -1.864  1.00  0.00     0.180 C 
BRANCH  32  33
HETATM   33  C16 UNL     1       5.696   0.218  -2.164  1.00  0.00     0.241 C 
HETATM   34  O4  UNL     1       6.527  -0.455  -2.770  1.00  0.00    -0.271 OA
HETATM   35  N3  UNL     1       4.465  -0.282  -1.763  1.00  0.00    -0.353 N 
HETATM   36  H18 UNL     1       3.897   0.379  -1.243  1.00  0.00     0.163 HD
BRANCH  35  37
HETATM   37  C17 UNL     1       4.257  -1.707  -1.506  1.00  0.00     0.103 C 
BRANCH  37  38
HETATM   38  C18 UNL     1       2.755  -2.040  -1.636  1.00  0.00     0.096 C 
BRANCH  38  39
HETATM   39  S1  UNL     1       2.357  -3.799  -1.425  1.00  0.00    -0.180 SA
HETATM   40  H22 UNL     1       2.546  -3.852  -0.095  1.00  0.00     0.101 HD
ENDBRANCH  38  39
ENDBRANCH  37  38
BRANCH  37  41
HETATM   41  C19 UNL     1       4.894  -2.092  -0.160  1.00  0.00     0.136 C 
BRANCH  41  42
HETATM   42  C20 UNL     1       4.138  -1.535   1.014  1.00  0.00     0.141 C 
HETATM   43  O5  UNL     1       3.464  -2.179   1.802  1.00  0.00    -0.650 OA
BRANCH  42  44
HETATM   44  O6  UNL     1       4.260  -0.196   1.129  1.00  0.00    -0.776 OA
HETATM   45  H25 UNL     1       3.644   0.045   1.868  1.00  0.00     0.167 HD
ENDBRANCH  42  44
ENDBRANCH  41  42
ENDBRANCH  37  41
ENDBRANCH  35  37
ENDBRANCH  32  33
BRANCH  32  46
HETATM   46  C21 UNL     1       7.340   2.170  -1.831  1.00  0.00     0.009 C 
HETATM   47  C22 UNL     1       7.458   3.697  -1.793  1.00  0.00     0.012 C 
HETATM   48  C23 UNL     1       8.126   1.557  -0.664  1.00  0.00     0.012 C 
ENDBRANCH  32  46
ENDBRANCH  30  32
ENDBRANCH  27  28
ENDBRANCH  26  27
ENDBRANCH  13  26
TORSDOF 13
