REMARK  12 active torsions:
REMARK  status: ('A' for Active; 'I' for Inactive)
REMARK    1  A    between atoms: C5_5  and  C6_6 
REMARK    2  A    between atoms: C6_6  and  C8_8 
REMARK    3  A    between atoms: C8_8  and  O1_9 
REMARK    4  A    between atoms: C13_15  and  O3_17 
REMARK    5  A    between atoms: C18_21  and  O4_23 
REMARK    6  A    between atoms: O4_23  and  C20_24 
REMARK    7  A    between atoms: C20_24  and  C21_26 
REMARK    8  A    between atoms: C21_26  and  C22_27 
REMARK    9  A    between atoms: C21_26  and  O6_29 
REMARK   10  A    between atoms: O6_29  and  C24_30 
REMARK   11  A    between atoms: C24_30  and  C25_32 
REMARK   12  A    between atoms: C25_32  and  C26_33 
ROOT
HETATM    1  C1  UNL     1      -4.798   1.819   0.110  1.00  0.00     0.015 C 
HETATM    2  C2  UNL     1      -3.570   1.592   0.609  1.00  0.00    -0.077 C 
HETATM    3  C3  UNL     1      -2.651   2.731   0.971  1.00  0.00     0.034 C 
HETATM    4  C4  UNL     1      -1.174   2.374   0.785  1.00  0.00     0.010 C 
HETATM    5  C5  UNL     1      -0.927   1.330  -0.321  1.00  0.00    -0.001 C 
HETATM    6  C9  UNL     1      -1.607  -0.026   0.108  1.00  0.00     0.037 C 
HETATM    7  C10 UNL     1      -3.009   0.191   0.790  1.00  0.00     0.090 C 
HETATM    8  C11 UNL     1      -3.102  -0.166   2.285  1.00  0.00     0.138 C 
HETATM    9  O2  UNL     1      -2.684   0.593   3.167  1.00  0.00    -0.297 OA
HETATM   10  C12 UNL     1      -3.799  -1.467   2.690  1.00  0.00     0.119 C 
HETATM   11  C13 UNL     1      -3.571  -2.709   1.796  1.00  0.00     0.087 C 
HETATM   12  C14 UNL     1      -3.994  -3.967   2.579  1.00  0.00     0.049 C 
HETATM   13  C15 UNL     1      -2.088  -2.891   1.306  1.00  0.00     0.156 C 
HETATM   14  C16 UNL     1      -1.931  -3.148  -0.201  1.00  0.00     0.038 C 
HETATM   15  C17 UNL     1      -0.528  -2.896  -0.760  1.00  0.00     0.043 C 
HETATM   16  C18 UNL     1       0.326  -1.894   0.059  1.00  0.00     0.093 C 
HETATM   17  C19 UNL     1       1.236  -2.747   0.985  1.00  0.00     0.049 C 
HETATM   18  C28 UNL     1      -0.617  -0.971   0.895  1.00  0.00     0.162 C 
HETATM   19  O8  UNL     1      -1.293  -1.824   1.823  1.00  0.00    -0.374 OA
ENDROOT
BRANCH  16  20
HETATM   20  O4  UNL     1       1.152  -1.198  -0.914  1.00  0.00    -0.306 OA
BRANCH  20  21
HETATM   21  C20 UNL     1       2.192  -0.420  -0.491  1.00  0.00     0.289 C 
HETATM   22  O5  UNL     1       2.408  -0.105   0.672  1.00  0.00    -0.262 OA
BRANCH  21  23
HETATM   23  C21 UNL     1       3.075  -0.014  -1.680  1.00  0.00     0.231 C 
BRANCH  23  24
HETATM   24  C22 UNL     1       3.767  -1.241  -2.290  1.00  0.00     0.038 C 
HETATM   25  C23 UNL     1       4.765  -1.913  -1.353  1.00  0.00     0.008 C 
ENDBRANCH  23  24
BRANCH  23  26
HETATM   26  O6  UNL     1       4.093   0.927  -1.306  1.00  0.00    -0.306 OA
BRANCH  26  27
HETATM   27  C24 UNL     1       3.627   2.166  -0.991  1.00  0.00     0.259 C 
HETATM   28  O7  UNL     1       2.463   2.524  -1.105  1.00  0.00    -0.265 OA
BRANCH  27  29
HETATM   29  C25 UNL     1       4.744   3.049  -0.504  1.00  0.00     0.111 C 
BRANCH  29  30
HETATM   30  C26 UNL     1       5.269   2.578   0.847  1.00  0.00     0.005 C 
HETATM   31  C27 UNL     1       6.346   3.509   1.380  1.00  0.00     0.005 C 
ENDBRANCH  29  30
ENDBRANCH  27  29
ENDBRANCH  26  27
ENDBRANCH  23  26
ENDBRANCH  21  23
ENDBRANCH  20  21
ENDBRANCH  16  20
BRANCH   5  32
HETATM   32  C6  UNL     1      -1.367   1.800  -1.755  1.00  0.00     0.010 C 
HETATM   33  C7  UNL     1      -0.955   3.248  -2.068  1.00  0.00     0.012 C 
BRANCH  32  34
HETATM   34  C8  UNL     1      -0.790   0.883  -2.853  1.00  0.00     0.168 C 
BRANCH  34  35
HETATM   35  O1  UNL     1      -1.336   1.200  -4.130  1.00  0.00    -0.400 OA
HETATM   36  H14 UNL     1      -2.305   1.186  -4.046  1.00  0.00     0.209 HD
ENDBRANCH  34  35
ENDBRANCH  32  34
ENDBRANCH   5  32
BRANCH  11  37
HETATM   37  O3  UNL     1      -4.478  -2.636   0.682  1.00  0.00    -0.387 OA
HETATM   38  H22 UNL     1      -5.390  -2.682   1.022  1.00  0.00     0.210 HD
ENDBRANCH  11  37
TORSDOF 12
