REMARK  13 active torsions:
REMARK  status: ('A' for Active; 'I' for Inactive)
REMARK    1  A    between atoms: C4_4  and  C5_5 
REMARK    2  A    between atoms: C5_5  and  C6_6 
REMARK    3  A    between atoms: C6_6  and  C7_7 
REMARK    4  A    between atoms: C9_9  and  C10_10 
REMARK    5  A    between atoms: C11_11  and  C12_12 
REMARK    6  A    between atoms: C14_14  and  C15_15 
REMARK    7  A    between atoms: C18_18  and  C19_19 
REMARK    8  A    between atoms: C19_19  and  C20_20 
REMARK    9  A    between atoms: C20_20  and  C21_21 
REMARK   10  A    between atoms: C21_21  and  O1_22 
REMARK   11  A    between atoms: C23_24  and  C25_26 
REMARK   12  A    between atoms: C28_30  and  O3_32 
REMARK   13  A    between atoms: C30_33  and  O4_34 
ROOT
HETATM    1  C15 UNL     1      -1.222   0.818   0.063  1.00  0.00     0.149 C 
HETATM    2  C16 UNL     1      -2.126   0.517  -1.123  1.00  0.00     0.054 C 
HETATM    3  C17 UNL     1      -3.193  -0.467  -0.579  1.00  0.00     0.050 C 
HETATM    4  C18 UNL     1      -4.545   0.282  -0.158  1.00  0.00     0.032 C 
HETATM    5  C22 UNL     1      -5.708  -0.694   0.191  1.00  0.00    -0.066 C 
HETATM    6  C23 UNL     1      -6.981  -0.287   0.458  1.00  0.00    -0.021 C 
HETATM    7  C24 UNL     1      -7.532   1.098   0.246  1.00  0.00     0.052 C 
HETATM    8  C26 UNL     1      -5.315  -2.163   0.177  1.00  0.00     0.038 C 
HETATM    9  C27 UNL     1      -4.568  -2.593  -1.091  1.00  0.00     0.042 C 
HETATM   10  C28 UNL     1      -3.591  -1.541  -1.662  1.00  0.00     0.067 C 
HETATM   11  C29 UNL     1      -4.202  -0.926  -2.939  1.00  0.00     0.047 C 
HETATM   12  C30 UNL     1      -2.426  -1.080   0.632  1.00  0.00     0.270 C 
HETATM   13  O5  UNL     1      -1.270  -0.311   0.930  1.00  0.00    -0.351 OA
ENDROOT
BRANCH   4  14
HETATM   14  C19 UNL     1      -4.398   1.479   0.830  1.00  0.00     0.012 C 
BRANCH  14  15
HETATM   15  C20 UNL     1      -4.247   1.173   2.326  1.00  0.00     0.027 C 
BRANCH  15  16
HETATM   16  C21 UNL     1      -4.224   2.457   3.156  1.00  0.00     0.164 C 
BRANCH  16  17
HETATM   17  O1  UNL     1      -3.102   3.240   2.777  1.00  0.00    -0.401 OA
HETATM   18  H32 UNL     1      -3.069   4.014   3.367  1.00  0.00     0.209 HD
ENDBRANCH  16  17
ENDBRANCH  15  16
ENDBRANCH  14  15
ENDBRANCH   4  14
BRANCH  10  19
HETATM   19  O3  UNL     1      -2.429  -2.239  -2.138  1.00  0.00    -0.389 OA
HETATM   20  H44 UNL     1      -1.991  -2.615  -1.343  1.00  0.00     0.210 HD
ENDBRANCH  10  19
BRANCH  12  21
HETATM   21  O4  UNL     1      -1.948  -2.395   0.387  1.00  0.00    -0.370 OA
HETATM   22  H46 UNL     1      -1.414  -2.589   1.182  1.00  0.00     0.212 HD
ENDBRANCH  12  21
BRANCH   1  23
HETATM   23  C14 UNL     1       0.198   1.206  -0.242  1.00  0.00     0.011 C 
HETATM   24  C12 UNL     1       1.243   0.454  -0.651  1.00  0.00    -0.063 C 
HETATM   25  C13 UNL     1       1.142  -1.013  -0.980  1.00  0.00     0.048 C 
BRANCH  24  26
HETATM   26  C11 UNL     1       2.558   1.091  -0.758  1.00  0.00     0.006 C 
HETATM   27  C10 UNL     1       3.701   0.522  -1.183  1.00  0.00     0.001 C 
BRANCH  27  28
HETATM   28  C9  UNL     1       4.970   1.223  -1.191  1.00  0.00     0.002 C 
HETATM   29  C7  UNL     1       6.141   0.771  -1.687  1.00  0.00    -0.084 C 
HETATM   30  C8  UNL     1       6.338  -0.538  -2.411  1.00  0.00     0.043 C 
BRANCH  29  31
HETATM   31  C6  UNL     1       7.393   1.633  -1.574  1.00  0.00     0.037 C 
BRANCH  31  32
HETATM   32  C5  UNL     1       8.548   1.003  -0.774  1.00  0.00     0.031 C 
BRANCH  32  33
HETATM   33  C4  UNL     1       8.236   0.818   0.688  1.00  0.00    -0.024 C 
HETATM   34  C2  UNL     1       8.309  -0.309   1.423  1.00  0.00    -0.091 C 
HETATM   35  C1  UNL     1       7.969  -0.281   2.893  1.00  0.00     0.042 C 
HETATM   36  C3  UNL     1       8.707  -1.668   0.915  1.00  0.00     0.042 C 
ENDBRANCH  32  33
ENDBRANCH  31  32
ENDBRANCH  29  31
ENDBRANCH  27  28
ENDBRANCH  24  26
ENDBRANCH   1  23
BRANCH   6  37
HETATM   37  C25 UNL     1      -8.013  -1.212   1.040  1.00  0.00     0.265 C 
HETATM   38  O2  UNL     1      -9.173  -0.872   1.262  1.00  0.00    -0.302 OA
ENDBRANCH   6  37
TORSDOF 13
