REMARK  7 active torsions:
REMARK  status: ('A' for Active; 'I' for Inactive)
REMARK    1  A    between atoms: C2_2  and  C4_4 
REMARK    2  A    between atoms: C4_4  and  O2_6 
REMARK    3  A    between atoms: O2_6  and  C5_7 
REMARK    4  A    between atoms: C5_7  and  C6_8 
REMARK    5  A    between atoms: C6_8  and  C7_10 
REMARK    6  A    between atoms: C8_12  and  C9_13 
REMARK    7  A    between atoms: C29_35  and  O7_36 
ROOT
HETATM    1  C7  UNL     1      -1.016  -0.787   0.773  1.00  0.00     0.160 C 
HETATM    2  O4  UNL     1      -1.451   0.126  -0.235  1.00  0.00    -0.339 OA
HETATM    3  C8  UNL     1      -2.417   0.978   0.387  1.00  0.00     0.266 C 
HETATM    4  O5  UNL     1      -2.182   1.016   1.792  1.00  0.00    -0.352 OA
HETATM    5  C15 UNL     1      -1.250  -0.022   2.087  1.00  0.00     0.168 C 
HETATM    6  C16 UNL     1       0.102   0.597   2.495  1.00  0.00     0.041 C 
HETATM    7  C17 UNL     1       0.989   0.378   1.270  1.00  0.00     0.004 C 
HETATM    8  C18 UNL     1       2.514   0.538   1.456  1.00  0.00    -0.001 C 
HETATM    9  C19 UNL     1       2.805   2.059   1.447  1.00  0.00     0.010 C 
HETATM   10  C20 UNL     1       4.277   2.419   1.407  1.00  0.00     0.036 C 
HETATM   11  C21 UNL     1       4.933   1.718   0.251  1.00  0.00    -0.064 A 
HETATM   12  C22 UNL     1       5.555   2.418  -0.715  1.00  0.00     0.058 A 
HETATM   13  C23 UNL     1       6.216   1.751  -1.857  1.00  0.00     0.172 A 
HETATM   14  O6  UNL     1       6.767   2.397  -2.740  1.00  0.00    -0.289 OA
HETATM   15  C24 UNL     1       6.188   0.278  -1.886  1.00  0.00     0.052 A 
HETATM   16  C25 UNL     1       5.562  -0.415  -0.925  1.00  0.00    -0.009 A 
HETATM   17  C26 UNL     1       4.832   0.196   0.259  1.00  0.00     0.004 A 
HETATM   18  C27 UNL     1       5.601  -0.339   1.499  1.00  0.00     0.025 C 
HETATM   19  C28 UNL     1       3.322  -0.263   0.361  1.00  0.00     0.035 C 
HETATM   20  C29 UNL     1       2.465  -0.348  -0.934  1.00  0.00     0.124 C 
HETATM   21  C30 UNL     1       1.133  -1.119  -0.706  1.00  0.00     0.045 C 
HETATM   22  C31 UNL     1       0.532  -0.979   0.711  1.00  0.00     0.004 C 
HETATM   23  C32 UNL     1       0.948  -2.176   1.607  1.00  0.00     0.019 C 
ENDROOT
BRANCH   1  24
HETATM   24  C6  UNL     1      -1.816  -2.096   0.690  1.00  0.00     0.188 C 
HETATM   25  O3  UNL     1      -2.194  -2.696   1.702  1.00  0.00    -0.292 OA
BRANCH  24  26
HETATM   26  C5  UNL     1      -2.041  -2.671  -0.708  1.00  0.00     0.260 C 
BRANCH  26  27
HETATM   27  O2  UNL     1      -2.969  -3.758  -0.704  1.00  0.00    -0.314 OA
BRANCH  27  28
HETATM   28  C4  UNL     1      -4.261  -3.375  -0.507  1.00  0.00     0.262 C 
HETATM   29  O1  UNL     1      -4.640  -2.210  -0.472  1.00  0.00    -0.265 OA
BRANCH  28  30
HETATM   30  C2  UNL     1      -5.196  -4.566  -0.407  1.00  0.00     0.077 C 
HETATM   31  C1  UNL     1      -4.591  -5.719   0.393  1.00  0.00     0.020 C 
HETATM   32  C3  UNL     1      -5.610  -5.011  -1.803  1.00  0.00     0.020 C 
ENDBRANCH  28  30
ENDBRANCH  27  28
ENDBRANCH  26  27
ENDBRANCH  24  26
ENDBRANCH   1  24
BRANCH   3  33
HETATM   33  C9  UNL     1      -2.311   2.392  -0.204  1.00  0.00     0.041 C 
HETATM   34  C10 UNL     1      -2.431   2.373  -1.741  1.00  0.00     0.009 C 
HETATM   35  C11 UNL     1      -2.912   3.698  -2.337  1.00  0.00     0.001 C 
HETATM   36  C12 UNL     1      -2.521   4.889  -1.475  1.00  0.00     0.000 C 
HETATM   37  C13 UNL     1      -3.113   4.793  -0.069  1.00  0.00     0.001 C 
HETATM   38  C14 UNL     1      -3.333   3.355   0.412  1.00  0.00     0.009 C 
ENDBRANCH   3  33
BRANCH  20  39
HETATM   39  O7  UNL     1       3.128  -1.046  -1.984  1.00  0.00    -0.395 OA
HETATM   40  H39 UNL     1       2.670  -0.832  -2.816  1.00  0.00     0.210 HD
ENDBRANCH  20  39
TORSDOF 7
