REMARK  16 active torsions:
REMARK  status: ('A' for Active; 'I' for Inactive)
REMARK    1  A    between atoms: C4_4  and  C5_5 
REMARK    2  A    between atoms: C5_5  and  C6_6 
REMARK    3  A    between atoms: C6_6  and  C7_7 
REMARK    4  A    between atoms: C9_9  and  C10_10 
REMARK    5  A    between atoms: C10_10  and  O1_11 
REMARK    6  A    between atoms: C10_10  and  C11_12 
REMARK    7  A    between atoms: C11_12  and  C12_13 
REMARK    8  A    between atoms: C14_15  and  C15_16 
REMARK    9  A    between atoms: C15_16  and  C16_17 
REMARK   10  A    between atoms: C16_17  and  C17_18 
REMARK   11  A    between atoms: C19_20  and  C20_21 
REMARK   12  A    between atoms: C20_21  and  C21_22 
REMARK   13  A    between atoms: C21_22  and  C22_23 
REMARK   14  A    between atoms: C22_23  and  O2_24 
REMARK   15  A    between atoms: C24_26  and  C26_28 
REMARK   16  A    between atoms: C29_32  and  O4_34 
ROOT
HETATM    1  C17 UNL     1      -3.117  -0.494   1.324  1.00  0.00    -0.006 C 
HETATM    2  C18 UNL     1      -3.565  -1.126   2.672  1.00  0.00     0.019 C 
HETATM    3  C19 UNL     1      -4.373   0.007   0.460  1.00  0.00     0.026 C 
HETATM    4  C23 UNL     1      -4.857  -0.995  -0.604  1.00  0.00    -0.066 C 
HETATM    5  C24 UNL     1      -5.361  -0.639  -1.813  1.00  0.00    -0.021 C 
HETATM    6  C25 UNL     1      -5.818  -1.621  -2.857  1.00  0.00     0.052 C 
HETATM    7  C27 UNL     1      -4.687  -2.432  -0.190  1.00  0.00     0.038 C 
HETATM    8  C28 UNL     1      -3.231  -2.778   0.115  1.00  0.00     0.042 C 
HETATM    9  C29 UNL     1      -2.327  -1.575   0.485  1.00  0.00     0.062 C 
HETATM   10  C30 UNL     1      -1.664  -1.010  -0.787  1.00  0.00     0.046 C 
ENDROOT
BRANCH   1  11
HETATM   11  C16 UNL     1      -2.252   0.783   1.668  1.00  0.00     0.016 C 
BRANCH  11  12
HETATM   12  C15 UNL     1      -1.028   0.663   2.595  1.00  0.00     0.028 C 
BRANCH  12  13
HETATM   13  C14 UNL     1       0.282   0.398   1.907  1.00  0.00    -0.024 C 
HETATM   14  C12 UNL     1       1.122   1.291   1.346  1.00  0.00    -0.085 C 
HETATM   15  C13 UNL     1       0.876   2.774   1.287  1.00  0.00     0.043 C 
BRANCH  14  16
HETATM   16  C11 UNL     1       2.446   0.820   0.758  1.00  0.00     0.069 C 
BRANCH  16  17
HETATM   17  C10 UNL     1       2.312   0.237  -0.661  1.00  0.00     0.145 C 
BRANCH  17  18
HETATM   18  C9  UNL     1       3.555  -0.496  -1.097  1.00  0.00     0.007 C 
HETATM   19  C7  UNL     1       4.733  -0.009  -1.542  1.00  0.00    -0.085 C 
HETATM   20  C8  UNL     1       5.059   1.453  -1.689  1.00  0.00     0.043 C 
BRANCH  19  21
HETATM   21  C6  UNL     1       5.834  -0.960  -1.977  1.00  0.00     0.037 C 
BRANCH  21  22
HETATM   22  C5  UNL     1       6.604  -1.622  -0.825  1.00  0.00     0.031 C 
BRANCH  22  23
HETATM   23  C4  UNL     1       7.407  -0.656   0.006  1.00  0.00    -0.024 C 
HETATM   24  C2  UNL     1       8.722  -0.378  -0.096  1.00  0.00    -0.091 C 
HETATM   25  C1  UNL     1       9.648  -0.959  -1.127  1.00  0.00     0.042 C 
HETATM   26  C3  UNL     1       9.377   0.596   0.848  1.00  0.00     0.042 C 
ENDBRANCH  22  23
ENDBRANCH  21  22
ENDBRANCH  19  21
ENDBRANCH  17  18
BRANCH  17  27
HETATM   27  O1  UNL     1       1.997   1.245  -1.616  1.00  0.00    -0.391 OA
HETATM   28  H17 UNL     1       1.113   1.575  -1.382  1.00  0.00     0.210 HD
ENDBRANCH  17  27
ENDBRANCH  16  17
ENDBRANCH  14  16
ENDBRANCH  12  13
ENDBRANCH  11  12
ENDBRANCH   1  11
BRANCH   3  29
HETATM   29  C20 UNL     1      -5.623   0.475   1.260  1.00  0.00     0.012 C 
BRANCH  29  30
HETATM   30  C21 UNL     1      -5.527   1.921   1.765  1.00  0.00     0.027 C 
BRANCH  30  31
HETATM   31  C22 UNL     1      -6.890   2.600   1.843  1.00  0.00     0.164 C 
BRANCH  31  32
HETATM   32  O2  UNL     1      -7.534   2.652   0.577  1.00  0.00    -0.401 OA
HETATM   33  H38 UNL     1      -6.852   2.592  -0.128  1.00  0.00     0.209 HD
ENDBRANCH  31  32
ENDBRANCH  30  31
ENDBRANCH  29  30
ENDBRANCH   3  29
BRANCH   9  34
HETATM   34  O4  UNL     1      -1.263  -2.120   1.279  1.00  0.00    -0.389 OA
HETATM   35  H50 UNL     1      -0.838  -2.835   0.769  1.00  0.00     0.210 HD
ENDBRANCH   9  34
BRANCH   5  36
HETATM   36  C26 UNL     1      -5.529   0.791  -2.243  1.00  0.00     0.265 C 
HETATM   37  O3  UNL     1      -5.761   1.731  -1.492  1.00  0.00    -0.302 OA
ENDBRANCH   5  36
TORSDOF 16
