REMARK  12 active torsions:
REMARK  status: ('A' for Active; 'I' for Inactive)
REMARK    1  A    between atoms: O1_2  and  P1_3 
REMARK    2  A    between atoms: P1_3  and  O3_5 
REMARK    3  A    between atoms: P1_3  and  O4_6 
REMARK    4  A    between atoms: O4_6  and  C2_7 
REMARK    5  A    between atoms: C4_10  and  C5_11 
REMARK    6  A    between atoms: C5_11  and  C7_13 
REMARK    7  A    between atoms: C20_26  and  O6_27 
REMARK    8  A    between atoms: C21_28  and  O7_29 
REMARK    9  A    between atoms: C23_31  and  O8_32 
REMARK   10  A    between atoms: C24_33  and  O9_34 
REMARK   11  A    between atoms: O9_34  and  S1_35 
REMARK   12  A    between atoms: S1_35  and  O12_38 
ROOT
HETATM    1  C2  UNL     1      -0.946  -1.027   0.771  1.00  0.00     0.168 C 
HETATM    2  C3  UNL     1      -2.313  -1.182   0.071  1.00  0.00     0.157 C 
HETATM    3  O5  UNL     1      -3.416  -0.948   0.933  1.00  0.00    -0.377 OA
HETATM    4  C4  UNL     1      -4.673  -0.717   0.274  1.00  0.00     0.126 C 
HETATM    5  C10 UNL     1      -4.644  -1.097  -1.229  1.00  0.00     0.037 C 
HETATM    6  C11 UNL     1      -3.462  -0.495  -2.026  1.00  0.00    -0.009 C 
HETATM    7  C12 UNL     1      -3.905   0.693  -2.881  1.00  0.00     0.010 C 
HETATM    8  C13 UNL     1      -2.320  -0.147  -1.063  1.00  0.00     0.030 C 
HETATM    9  C14 UNL     1      -0.847  -0.120  -1.527  1.00  0.00    -0.031 C 
HETATM   10  C15 UNL     1      -0.470  -1.367  -2.357  1.00  0.00     0.016 C 
HETATM   11  C16 UNL     1      -0.429   1.156  -2.269  1.00  0.00     0.010 C 
HETATM   12  C17 UNL     1       1.097   1.244  -2.451  1.00  0.00     0.007 C 
HETATM   13  C18 UNL     1       1.918   1.001  -1.153  1.00  0.00     0.001 C 
HETATM   14  C19 UNL     1       1.368  -0.123  -0.222  1.00  0.00     0.029 C 
HETATM   15  C20 UNL     1       2.018   0.005   1.180  1.00  0.00     0.152 C 
HETATM   16  C21 UNL     1       3.449   0.582   1.127  1.00  0.00     0.154 C 
HETATM   17  C22 UNL     1       4.159   0.107  -0.153  1.00  0.00     0.057 C 
HETATM   18  C23 UNL     1       5.699   0.222  -0.088  1.00  0.00     0.156 C 
HETATM   19  C24 UNL     1       6.201   1.658  -0.253  1.00  0.00     0.173 C 
HETATM   20  C25 UNL     1       5.637   2.278  -1.537  1.00  0.00     0.037 C 
HETATM   21  C26 UNL     1       4.109   2.238  -1.582  1.00  0.00     0.012 C 
HETATM   22  C27 UNL     1       3.489   0.822  -1.389  1.00  0.00    -0.031 C 
HETATM   23  C28 UNL     1       3.751  -0.023  -2.661  1.00  0.00     0.016 C 
HETATM   24  C29 UNL     1      -0.164  -0.048  -0.134  1.00  0.00     0.033 C 
ENDROOT
BRANCH   1  25
HETATM   25  O4  UNL     1      -0.261  -2.268   0.849  1.00  0.00    -0.288 OA
BRANCH  25  26
HETATM   26  P1  UNL     1      -0.506  -3.221   2.122  1.00  0.00     0.393 P 
HETATM   27  O2  UNL     1       0.540  -4.276   2.287  1.00  0.00    -0.631 OA
BRANCH  26  28
HETATM   28  O1  UNL     1      -2.006  -3.761   2.007  1.00  0.00    -0.302 OA
HETATM   29  C1  UNL     1      -2.205  -4.868   1.150  1.00  0.00     0.214 C 
ENDBRANCH  26  28
BRANCH  26  30
HETATM   30  O3  UNL     1      -0.547  -2.240   3.388  1.00  0.00    -0.307 OA
HETATM   31  H4  UNL     1      -0.115  -2.669   4.150  1.00  0.00     0.222 HD
ENDBRANCH  26  30
ENDBRANCH  25  26
ENDBRANCH   1  25
BRANCH   4  32
HETATM   32  C5  UNL     1      -5.171   0.732   0.569  1.00  0.00     0.014 C 
HETATM   33  C6  UNL     1      -6.598   0.942   0.035  1.00  0.00     0.013 C 
BRANCH  32  34
HETATM   34  C7  UNL     1      -5.112   1.172   2.067  1.00  0.00    -0.017 C 
HETATM   35  C8  UNL     1      -3.693   1.526   2.526  1.00  0.00     0.010 C 
HETATM   36  C9  UNL     1      -5.748   0.168   3.031  1.00  0.00     0.010 C 
ENDBRANCH  32  34
ENDBRANCH   4  32
BRANCH  15  37
HETATM   37  O6  UNL     1       2.117  -1.268   1.833  1.00  0.00    -0.393 OA
HETATM   38  H36 UNL     1       2.007  -1.978   1.171  1.00  0.00     0.210 HD
ENDBRANCH  15  37
BRANCH  16  39
HETATM   39  O7  UNL     1       4.161   0.200   2.318  1.00  0.00    -0.392 OA
HETATM   40  H38 UNL     1       3.721  -0.642   2.583  1.00  0.00     0.210 HD
ENDBRANCH  16  39
BRANCH  18  41
HETATM   41  O8  UNL     1       6.309  -0.590  -1.094  1.00  0.00    -0.392 OA
HETATM   42  H41 UNL     1       6.269  -1.514  -0.795  1.00  0.00     0.210 HD
ENDBRANCH  18  41
BRANCH  19  43
HETATM   43  O9  UNL     1       5.803   2.449   0.861  1.00  0.00    -0.256 OA
BRANCH  43  44
HETATM   44  S1  UNL     1       6.689   2.406   2.222  1.00  0.00     0.240 S 
HETATM   45  O10 UNL     1       7.526   1.227   2.213  1.00  0.00    -0.579 OA
HETATM   46  O11 UNL     1       7.244   3.717   2.436  1.00  0.00    -0.579 OA
BRANCH  44  47
HETATM   47  O12 UNL     1       5.564   2.153   3.343  1.00  0.00    -0.274 OA
HETATM   48  H43 UNL     1       5.039   1.354   3.081  1.00  0.00     0.234 HD
ENDBRANCH  44  47
ENDBRANCH  43  44
ENDBRANCH  19  43
TORSDOF 12
