REMARK  5 active torsions:
REMARK  status: ('A' for Active; 'I' for Inactive)
REMARK    1  A    between atoms: C2_2  and  C4_4 
REMARK    2  A    between atoms: C7_7  and  C8_8 
REMARK    3  A    between atoms: C8_8  and  O2_10 
REMARK    4  A    between atoms: C11_13  and  C12_14 
REMARK    5  A    between atoms: C12_14  and  O4_16 
ROOT
HETATM    1  C4  UNL     1      -4.372  -0.813   0.148  1.00  0.00     0.019 C 
HETATM    2  C5  UNL     1      -5.126  -0.215  -1.042  1.00  0.00     0.011 C 
HETATM    3  C6  UNL     1      -5.247   1.252  -0.654  1.00  0.00     0.021 C 
HETATM    4  C7  UNL     1      -3.861   1.625  -0.075  1.00  0.00     0.050 C 
HETATM    5  C9  UNL     1      -2.976   2.190  -1.198  1.00  0.00     0.022 C 
HETATM    6  C10 UNL     1      -1.484   2.193  -0.874  1.00  0.00     0.023 C 
HETATM    7  C11 UNL     1      -0.911   0.812  -0.474  1.00  0.00     0.057 C 
HETATM    8  C13 UNL     1      -1.792   0.152   0.642  1.00  0.00     0.011 C 
HETATM    9  C14 UNL     1      -1.256  -1.232   1.032  1.00  0.00     0.007 C 
HETATM   10  C15 UNL     1       0.221  -1.223   1.451  1.00  0.00     0.006 C 
HETATM   11  C16 UNL     1       1.143  -0.516   0.429  1.00  0.00     0.003 C 
HETATM   12  C17 UNL     1       2.704  -0.663   0.710  1.00  0.00    -0.035 C 
HETATM   13  C18 UNL     1       3.096  -0.107   2.098  1.00  0.00     0.016 C 
HETATM   14  C19 UNL     1       3.072  -2.179   0.683  1.00  0.00     0.017 C 
HETATM   15  C20 UNL     1       4.567  -2.466   0.683  1.00  0.00     0.080 C 
HETATM   16  C21 UNL     1       5.280  -1.733  -0.425  1.00  0.00     0.135 C 
HETATM   17  O5  UNL     1       6.121  -2.326  -1.104  1.00  0.00    -0.297 OA
HETATM   18  C22 UNL     1       5.005  -0.228  -0.583  1.00  0.00     0.017 C 
HETATM   19  C23 UNL     1       5.846   0.531   0.454  1.00  0.00     0.023 C 
HETATM   20  C24 UNL     1       5.521   0.194  -1.983  1.00  0.00     0.023 C 
HETATM   21  C25 UNL     1       3.459   0.020  -0.493  1.00  0.00     0.009 C 
HETATM   22  C26 UNL     1       3.056   1.501  -0.633  1.00  0.00     0.007 C 
HETATM   23  C27 UNL     1       1.558   1.663  -0.910  1.00  0.00     0.011 C 
HETATM   24  C28 UNL     1       0.620   0.942   0.104  1.00  0.00    -0.022 C 
HETATM   25  C29 UNL     1       0.655   1.840   1.387  1.00  0.00     0.017 C 
HETATM   26  C30 UNL     1      -3.348   0.293   0.580  1.00  0.00     0.018 C 
ENDROOT
BRANCH   4  27
HETATM   27  C8  UNL     1      -4.002   2.716   0.988  1.00  0.00     0.149 C 
HETATM   28  O1  UNL     1      -3.306   2.855   1.981  1.00  0.00    -0.649 OA
BRANCH  27  29
HETATM   29  O2  UNL     1      -4.959   3.623   0.711  1.00  0.00    -0.776 OA
HETATM   30  H11 UNL     1      -4.903   4.262   1.452  1.00  0.00     0.167 HD
ENDBRANCH  27  29
ENDBRANCH   4  27
BRANCH   1  31
HETATM   31  C2  UNL     1      -4.055  -2.294   0.094  1.00  0.00    -0.088 C 
HETATM   32  C1  UNL     1      -4.156  -3.047   1.206  1.00  0.00     0.014 C 
HETATM   33  C3  UNL     1      -3.748  -2.960  -1.218  1.00  0.00     0.043 C 
ENDBRANCH   1  31
BRANCH   7  34
HETATM   34  C12 UNL     1      -0.918  -0.050  -1.764  1.00  0.00     0.149 C 
HETATM   35  O3  UNL     1       0.023  -0.362  -2.475  1.00  0.00    -0.649 OA
BRANCH  34  36
HETATM   36  O4  UNL     1      -2.137  -0.450  -2.151  1.00  0.00    -0.776 OA
HETATM   37  H16 UNL     1      -1.959  -0.939  -2.982  1.00  0.00     0.167 HD
ENDBRANCH  34  36
ENDBRANCH   7  34
TORSDOF 5
