REMARK  4 active torsions:
REMARK  status: ('A' for Active; 'I' for Inactive)
REMARK    1  A    between atoms: C2_2  and  C3_3 
REMARK    2  A    between atoms: C6_6  and  C7_7 
REMARK    3  A    between atoms: C7_7  and  O1_9 
REMARK    4  A    between atoms: C23_29  and  O6_30 
ROOT
HETATM    1  C3  UNL     1      -2.057   1.548   1.286  1.00  0.00     0.008 C 
HETATM    2  C4  UNL     1      -2.254   1.558  -0.209  1.00  0.00    -0.023 C 
HETATM    3  C5  UNL     1      -2.596   0.558  -1.042  1.00  0.00     0.004 C 
HETATM    4  C6  UNL     1      -2.959  -0.887  -0.798  1.00  0.00     0.182 C 
HETATM    5  O2  UNL     1      -1.844  -1.640  -0.267  1.00  0.00    -0.308 OA
HETATM    6  C9  UNL     1      -0.840  -1.945  -1.138  1.00  0.00     0.276 C 
HETATM    7  O3  UNL     1      -0.798  -1.580  -2.310  1.00  0.00    -0.264 OA
HETATM    8  C10 UNL     1       0.252  -2.857  -0.489  1.00  0.00     0.095 C 
HETATM    9  C11 UNL     1      -0.127  -3.334   0.930  1.00  0.00     0.036 C 
HETATM   10  C12 UNL     1       0.222  -4.095  -1.366  1.00  0.00     0.003 C 
HETATM   11  C13 UNL     1       1.198  -4.914  -1.767  1.00  0.00     0.072 C 
HETATM   12  C14 UNL     1       2.631  -4.882  -1.457  1.00  0.00     0.245 C 
HETATM   13  O4  UNL     1       3.299  -5.893  -1.675  1.00  0.00    -0.268 OA
HETATM   14  N1  UNL     1       3.236  -3.764  -1.006  1.00  0.00    -0.320 N 
HETATM   15  C15 UNL     1       2.823  -2.503  -0.661  1.00  0.00     0.098 C 
HETATM   16  C16 UNL     1       1.566  -2.077  -0.451  1.00  0.00     0.045 C 
HETATM   17  C17 UNL     1       1.405  -0.666   0.023  1.00  0.00     0.194 C 
HETATM   18  O5  UNL     1       0.424  -0.345   0.675  1.00  0.00    -0.287 OA
HETATM   19  C18 UNL     1       2.459   0.324  -0.188  1.00  0.00     0.046 A 
HETATM   20  C19 UNL     1       3.757  -0.141  -0.318  1.00  0.00     0.032 A 
HETATM   21  C20 UNL     1       4.833   0.757  -0.360  1.00  0.00     0.026 A 
HETATM   22  C21 UNL     1       4.608   2.139  -0.315  1.00  0.00    -0.027 A 
HETATM   23  C22 UNL     1       5.765   3.093  -0.408  1.00  0.00     0.051 C 
HETATM   24  C23 UNL     1       3.287   2.602  -0.274  1.00  0.00     0.086 A 
HETATM   25  C24 UNL     1       2.213   1.705  -0.170  1.00  0.00     0.059 A 
HETATM   26  C25 UNL     1       0.845   2.244  -0.288  1.00  0.00     0.163 C 
HETATM   27  O7  UNL     1       0.375   2.252  -1.424  1.00  0.00    -0.292 OA
HETATM   28  C26 UNL     1       0.191   2.944   0.895  1.00  0.00     0.084 C 
HETATM   29  C27 UNL     1      -0.693   2.096   1.811  1.00  0.00     0.016 C 
HETATM   30  C28 UNL     1       3.998  -1.584  -0.437  1.00  0.00     0.210 C 
HETATM   31  O8  UNL     1       5.140  -2.034  -0.404  1.00  0.00    -0.285 OA
HETATM   32  H20 UNL     1       4.250  -3.892  -0.969  1.00  0.00     0.169 HD
ENDROOT
BRANCH   4  33
HETATM   33  C7  UNL     1      -4.156  -1.105   0.159  1.00  0.00     0.147 C 
HETATM   34  C8  UNL     1      -5.441  -0.447  -0.326  1.00  0.00     0.042 C 
BRANCH  33  35
HETATM   35  O1  UNL     1      -4.417  -2.514   0.282  1.00  0.00    -0.393 OA
HETATM   36  H14 UNL     1      -3.583  -2.912   0.589  1.00  0.00     0.210 HD
ENDBRANCH  33  35
ENDBRANCH   4  33
BRANCH   1  37
HETATM   37  C2  UNL     1      -3.245   2.257   1.982  1.00  0.00     0.004 C 
HETATM   38  C1  UNL     1      -3.383   3.745   1.679  1.00  0.00     0.006 C 
ENDBRANCH   1  37
BRANCH  24  39
HETATM   39  O6  UNL     1       3.091   3.954  -0.378  1.00  0.00    -0.359 OA
HETATM   40  H25 UNL     1       2.307   4.119  -0.938  1.00  0.00     0.217 HD
ENDBRANCH  24  39
TORSDOF 4
