REMARK  13 active torsions:
REMARK  status: ('A' for Active; 'I' for Inactive)
REMARK    1  A    between atoms: C19_21  and  O3_22 
REMARK    2  A    between atoms: C19_21  and  C20_23 
REMARK    3  A    between atoms: C20_23  and  C21_25 
REMARK    4  A    between atoms: C21_25  and  O5_26 
REMARK    5  A    between atoms: O5_26  and  C22_27 
REMARK    6  A    between atoms: C22_27  and  C23_29 
REMARK    7  A    between atoms: C23_29  and  C24_30 
REMARK    8  A    between atoms: C24_30  and  C25_31 
REMARK       I    between atoms: C25_31  and  N1_33 
REMARK    9  A    between atoms: N1_33  and  C26_34 
REMARK   10  A    between atoms: C26_34  and  C27_35 
REMARK   11  A    between atoms: C27_35  and  C28_36 
REMARK   12  A    between atoms: C27_35  and  C29_39 
REMARK   13  A    between atoms: C28_36  and  O9_38 
ROOT
HETATM    1  C20 UNL     1      -0.236   0.754   1.853  1.00  0.00     0.185 C 
HETATM    2  O4  UNL     1      -0.675   1.311   2.862  1.00  0.00    -0.292 OA
ENDROOT
BRANCH   1   3
HETATM    3  C19 UNL     1      -1.170   0.259   0.725  1.00  0.00     0.128 C 
HETATM    4  C14 UNL     1      -2.714   0.375   0.970  1.00  0.00     0.005 C 
HETATM    5  C13 UNL     1      -3.328   1.766   0.768  1.00  0.00     0.091 C 
HETATM    6  C15 UNL     1      -3.122  -0.161   2.373  1.00  0.00     0.019 C 
HETATM    7  C16 UNL     1      -3.226  -0.536  -0.179  1.00  0.00     0.002 C 
HETATM    8  C12 UNL     1      -4.846   1.658   0.697  1.00  0.00     0.133 C 
HETATM    9  C11 UNL     1      -5.415   0.693  -0.362  1.00  0.00     0.072 C 
HETATM   10  O2  UNL     1      -5.545   2.376   1.409  1.00  0.00    -0.297 OA
HETATM   11  C2  UNL     1      -6.982   0.639  -0.462  1.00  0.00    -0.009 C 
HETATM   12  C10 UNL     1      -4.754  -0.707  -0.206  1.00  0.00     0.003 C 
HETATM   13  C1  UNL     1      -7.649   0.215   0.866  1.00  0.00     0.021 C 
HETATM   14  C3  UNL     1      -7.502   2.048  -0.883  1.00  0.00     0.022 C 
HETATM   15  C7  UNL     1      -7.369  -0.401  -1.531  1.00  0.00    -0.067 C 
HETATM   16  C4  UNL     1      -8.921   2.047  -1.431  1.00  0.00     0.084 C 
HETATM   17  C5  UNL     1      -9.025   1.093  -2.590  1.00  0.00     0.149 C 
HETATM   18  O1  UNL     1      -9.756   1.298  -3.555  1.00  0.00    -0.293 OA
HETATM   19  C6  UNL     1      -8.260  -0.172  -2.512  1.00  0.00     0.053 C 
HETATM   20  C8  UNL     1      -6.701  -1.752  -1.435  1.00  0.00     0.035 C 
HETATM   21  C9  UNL     1      -5.184  -1.630  -1.355  1.00  0.00     0.010 C 
HETATM   22  C17 UNL     1      -2.366  -1.785  -0.040  1.00  0.00     0.009 C 
HETATM   23  C18 UNL     1      -0.995  -1.252   0.419  1.00  0.00     0.047 C 
BRANCH   3  24
HETATM   24  O3  UNL     1      -0.810   0.976  -0.467  1.00  0.00    -0.381 OA
HETATM   25  H25 UNL     1      -0.882   1.931  -0.284  1.00  0.00     0.211 HD
ENDBRANCH   3  24
ENDBRANCH   1   3
BRANCH   1  26
HETATM   26  C21 UNL     1       1.275   0.711   1.622  1.00  0.00     0.260 C 
BRANCH  26  27
HETATM   27  O5  UNL     1       1.701  -0.399   0.841  1.00  0.00    -0.314 OA
BRANCH  27  28
HETATM   28  C22 UNL     1       2.698  -0.144  -0.050  1.00  0.00     0.259 C 
HETATM   29  O6  UNL     1       3.271   0.929  -0.180  1.00  0.00    -0.265 OA
BRANCH  28  30
HETATM   30  C23 UNL     1       2.947  -1.371  -0.895  1.00  0.00     0.120 C 
BRANCH  30  31
HETATM   31  C24 UNL     1       4.200  -1.205  -1.745  1.00  0.00     0.112 C 
BRANCH  31  32
HETATM   32  C25 UNL     1       5.456  -1.298  -0.903  1.00  0.00     0.218 C 
HETATM   33  O7  UNL     1       5.471  -1.754   0.235  1.00  0.00    -0.274 OA
HETATM   34  N1  UNL     1       6.584  -0.860  -1.562  1.00  0.00    -0.360 N 
HETATM   35  H32 UNL     1       6.451  -0.212  -2.331  1.00  0.00     0.162 HD
BRANCH  34  36
HETATM   36  C26 UNL     1       7.871  -0.801  -0.884  1.00  0.00     0.142 C 
BRANCH  36  37
HETATM   37  C27 UNL     1       7.987   0.351   0.131  1.00  0.00     0.134 C 
BRANCH  37  38
HETATM   38  C28 UNL     1       8.206   1.688  -0.566  1.00  0.00     0.150 C 
HETATM   39  O8  UNL     1       8.971   2.585  -0.247  1.00  0.00    -0.649 OA
BRANCH  38  40
HETATM   40  O9  UNL     1       7.388   1.886  -1.627  1.00  0.00    -0.776 OA
HETATM   41  H36 UNL     1       7.593   2.810  -1.891  1.00  0.00     0.167 HD
ENDBRANCH  38  40
ENDBRANCH  37  38
BRANCH  37  42
HETATM   42  C29 UNL     1       9.075   0.009   1.145  1.00  0.00    -0.042 A 
HETATM   43  C30 UNL     1       8.707  -0.475   2.412  1.00  0.00     0.008 A 
HETATM   44  C31 UNL     1       9.679  -0.840   3.344  1.00  0.00     0.001 A 
HETATM   45  C32 UNL     1      11.030  -0.734   3.023  1.00  0.00     0.000 A 
HETATM   46  C33 UNL     1      11.410  -0.266   1.768  1.00  0.00     0.001 A 
HETATM   47  C34 UNL     1      10.440   0.097   0.831  1.00  0.00     0.008 A 
ENDBRANCH  37  42
ENDBRANCH  36  37
ENDBRANCH  34  36
ENDBRANCH  31  32
ENDBRANCH  30  31
ENDBRANCH  28  30
ENDBRANCH  27  28
ENDBRANCH  26  27
ENDBRANCH   1  26
TORSDOF 13
