REMARK  9 active torsions:
REMARK  status: ('A' for Active; 'I' for Inactive)
REMARK    1  A    between atoms: C2_2  and  C3_3 
REMARK    2  A    between atoms: C2_2  and  C9_12 
REMARK    3  A    between atoms: C3_3  and  C4_4 
REMARK    4  A    between atoms: C4_4  and  C5_5 
REMARK    5  A    between atoms: C5_5  and  O1_6 
REMARK    6  A    between atoms: C5_5  and  C6_7 
REMARK    7  A    between atoms: C6_7  and  O2_9 
REMARK    8  A    between atoms: C6_7  and  C8_10 
REMARK    9  A    between atoms: C8_10  and  O3_11 
ROOT
HETATM    1  C9  UNL     1       1.833   0.693  -2.013  1.00  0.00    -0.002 C 
HETATM    2  C10 UNL     1       1.109   1.298  -3.251  1.00  0.00     0.007 C 
HETATM    3  C11 UNL     1      -0.315   1.676  -2.803  1.00  0.00     0.015 C 
HETATM    4  C12 UNL     1      -0.634   0.656  -1.695  1.00  0.00    -0.013 C 
HETATM    5  C13 UNL     1      -0.993  -0.680  -2.422  1.00  0.00     0.021 C 
HETATM    6  C14 UNL     1      -1.829   0.915  -0.772  1.00  0.00    -0.070 C 
HETATM    7  C15 UNL     1      -2.960   1.480  -1.234  1.00  0.00    -0.022 C 
HETATM    8  C16 UNL     1      -4.260   1.424  -0.495  1.00  0.00     0.034 C 
HETATM    9  C17 UNL     1      -4.307   0.161   0.393  1.00  0.00     0.013 C 
HETATM   10  C18 UNL     1      -5.742  -0.183   0.932  1.00  0.00     0.018 C 
HETATM   11  C19 UNL     1      -6.638  -0.614  -0.260  1.00  0.00     0.023 C 
HETATM   12  C20 UNL     1      -6.474   0.964   1.648  1.00  0.00     0.023 C 
HETATM   13  C21 UNL     1      -5.656  -1.374   1.901  1.00  0.00     0.135 C 
HETATM   14  O4  UNL     1      -6.523  -2.251   1.942  1.00  0.00    -0.297 OA
HETATM   15  C22 UNL     1      -4.532  -1.387   2.907  1.00  0.00     0.080 C 
HETATM   16  C23 UNL     1      -3.189  -1.140   2.237  1.00  0.00     0.017 C 
HETATM   17  C24 UNL     1      -3.127   0.179   1.428  1.00  0.00    -0.031 C 
HETATM   18  C25 UNL     1      -3.227   1.365   2.429  1.00  0.00     0.016 C 
HETATM   19  C26 UNL     1      -1.728   0.375   0.665  1.00  0.00     0.024 C 
HETATM   20  C27 UNL     1      -0.706  -0.780   0.780  1.00  0.00     0.010 C 
HETATM   21  C28 UNL     1       0.680  -0.522   0.120  1.00  0.00     0.011 C 
HETATM   22  C29 UNL     1       0.715   0.636  -0.897  1.00  0.00    -0.029 C 
HETATM   23  C30 UNL     1       0.969   1.966  -0.087  1.00  0.00     0.016 C 
ENDROOT
BRANCH   1  24
HETATM   24  C2  UNL     1       2.793  -0.487  -2.346  1.00  0.00    -0.014 C 
HETATM   25  C1  UNL     1       2.152  -1.752  -2.920  1.00  0.00     0.010 C 
BRANCH  24  26
HETATM   26  C3  UNL     1       3.762  -0.874  -1.197  1.00  0.00     0.007 C 
BRANCH  26  27
HETATM   27  C4  UNL     1       4.687   0.268  -0.752  1.00  0.00     0.035 C 
BRANCH  27  28
HETATM   28  C5  UNL     1       5.877  -0.148   0.137  1.00  0.00     0.154 C 
BRANCH  28  29
HETATM   29  O1  UNL     1       6.664  -1.120  -0.577  1.00  0.00    -0.392 OA
HETATM   30  H10 UNL     1       6.908  -0.721  -1.433  1.00  0.00     0.210 HD
ENDBRANCH  28  29
BRANCH  28  31
HETATM   31  C6  UNL     1       5.538  -0.745   1.534  1.00  0.00     0.101 C 
HETATM   32  C7  UNL     1       4.571   0.140   2.322  1.00  0.00     0.051 C 
BRANCH  31  33
HETATM   33  O2  UNL     1       4.924  -2.034   1.360  1.00  0.00    -0.385 OA
HETATM   34  H14 UNL     1       5.430  -2.460   0.640  1.00  0.00     0.210 HD
ENDBRANCH  31  33
BRANCH  31  35
HETATM   35  C8  UNL     1       6.833  -0.965   2.352  1.00  0.00     0.204 C 
BRANCH  35  36
HETATM   36  O3  UNL     1       7.535   0.253   2.585  1.00  0.00    -0.398 OA
HETATM   37  H17 UNL     1       8.413   0.157   2.171  1.00  0.00     0.209 HD
ENDBRANCH  35  36
ENDBRANCH  31  35
ENDBRANCH  28  31
ENDBRANCH  27  28
ENDBRANCH  26  27
ENDBRANCH  24  26
ENDBRANCH   1  24
TORSDOF 9
