REMARK  4 active torsions:
REMARK  status: ('A' for Active; 'I' for Inactive)
REMARK    1  A    between atoms: C4_4  and  C5_5 
REMARK    2  A    between atoms: C5_5  and  C6_7 
REMARK    3  A    between atoms: C6_7  and  C7_8 
REMARK    4  A    between atoms: C7_8  and  C9_10 
ROOT
HETATM    1  C9  UNL     1       2.063  -0.837  -0.015  1.00  0.00    -0.002 C 
HETATM    2  C10 UNL     1       1.931  -1.832  -1.208  1.00  0.00     0.006 C 
HETATM    3  C11 UNL     1       0.440  -2.198  -1.348  1.00  0.00     0.011 C 
HETATM    4  C12 UNL     1      -0.296  -1.186  -0.457  1.00  0.00    -0.032 C 
HETATM    5  C13 UNL     1      -0.440   0.129  -1.301  1.00  0.00     0.016 C 
HETATM    6  C14 UNL     1      -1.713  -1.613   0.058  1.00  0.00     0.004 C 
HETATM    7  C15 UNL     1      -2.671  -1.981  -1.103  1.00  0.00     0.007 C 
HETATM    8  C16 UNL     1      -4.030  -1.287  -1.173  1.00  0.00     0.007 C 
HETATM    9  C17 UNL     1      -3.961   0.194  -0.780  1.00  0.00     0.010 C 
HETATM   10  C18 UNL     1      -5.320   0.956  -0.917  1.00  0.00     0.018 C 
HETATM   11  C19 UNL     1      -6.421   0.411   0.007  1.00  0.00     0.023 C 
HETATM   12  C20 UNL     1      -5.824   0.916  -2.374  1.00  0.00     0.023 C 
HETATM   13  C21 UNL     1      -5.105   2.433  -0.553  1.00  0.00     0.135 C 
HETATM   14  O2  UNL     1      -5.969   3.289  -0.754  1.00  0.00    -0.297 OA
HETATM   15  C22 UNL     1      -3.771   2.825   0.031  1.00  0.00     0.080 C 
HETATM   16  C23 UNL     1      -3.362   1.834   1.107  1.00  0.00     0.018 C 
HETATM   17  C24 UNL     1      -3.356   0.388   0.620  1.00  0.00    -0.026 A 
HETATM   18  C25 UNL     1      -3.606  -0.693   1.655  1.00  0.00     0.021 A 
HETATM   19  C26 UNL     1      -2.220  -0.553   1.068  1.00  0.00    -0.027 A 
HETATM   20  C27 UNL     1      -1.198  -0.173   2.152  1.00  0.00     0.011 C 
HETATM   21  C28 UNL     1       0.226   0.089   1.644  1.00  0.00     0.011 C 
HETATM   22  C29 UNL     1       0.720  -1.058   0.748  1.00  0.00    -0.032 C 
HETATM   23  C30 UNL     1       0.850  -2.348   1.615  1.00  0.00     0.016 C 
ENDROOT
BRANCH   1  24
HETATM   24  C7  UNL     1       3.425  -0.982   0.720  1.00  0.00    -0.007 C 
HETATM   25  C8  UNL     1       3.560  -0.038   1.919  1.00  0.00     0.011 C 
BRANCH  24  26
HETATM   26  C6  UNL     1       4.640  -0.798  -0.223  1.00  0.00     0.087 C 
BRANCH  26  27
HETATM   27  C5  UNL     1       4.689   0.545  -0.934  1.00  0.00     0.149 C 
HETATM   28  O1  UNL     1       4.014   0.785  -1.934  1.00  0.00    -0.293 OA
BRANCH  27  29
HETATM   29  C4  UNL     1       5.494   1.644  -0.342  1.00  0.00     0.052 C 
HETATM   30  C2  UNL     1       6.828   1.641  -0.178  1.00  0.00    -0.084 C 
HETATM   31  C1  UNL     1       7.515   2.829   0.438  1.00  0.00     0.043 C 
HETATM   32  C3  UNL     1       7.754   0.537  -0.604  1.00  0.00     0.043 C 
ENDBRANCH  27  29
ENDBRANCH  26  27
ENDBRANCH  24  26
ENDBRANCH   1  24
TORSDOF 4
