REMARK  13 active torsions:
REMARK  status: ('A' for Active; 'I' for Inactive)
REMARK    1  A    between atoms: C5_6  and  C6_7 
REMARK    2  A    between atoms: C5_6  and  C27_31 
REMARK    3  A    between atoms: C18_19  and  O2_20 
REMARK    4  A    between atoms: C23_25  and  O3_26 
REMARK    5  A    between atoms: C28_33  and  C29_34 
REMARK    6  A    between atoms: C29_34  and  O6_36 
REMARK    7  A    between atoms: C29_34  and  C31_37 
REMARK    8  A    between atoms: C31_37  and  C33_39 
REMARK    9  A    between atoms: C31_37  and  C34_41 
REMARK   10  A    between atoms: C33_39  and  O7_40 
REMARK   11  A    between atoms: C34_41  and  C35_42 
REMARK   12  A    between atoms: C35_42  and  C36_43 
REMARK   13  A    between atoms: C39_48  and  N2_49 
ROOT
HETATM    1  C1  UNL     1      -0.208  -1.749  -4.828  1.00  0.00     0.010 C 
HETATM    2  C2  UNL     1       0.056  -2.181  -3.386  1.00  0.00    -0.014 C 
HETATM    3  C3  UNL     1      -0.325  -3.647  -3.171  1.00  0.00     0.030 C 
HETATM    4  C4  UNL     1      -0.709  -3.945  -1.728  1.00  0.00     0.169 C 
HETATM    5  O1  UNL     1      -0.048  -3.062  -0.826  1.00  0.00    -0.377 OA
HETATM    6  C5  UNL     1      -0.504  -1.696  -0.900  1.00  0.00     0.094 C 
HETATM    7  C41 UNL     1      -0.675  -1.275  -2.388  1.00  0.00     0.045 C 
ENDROOT
BRANCH   6   8
HETATM    8  C6  UNL     1       0.546  -0.804  -0.143  1.00  0.00     0.035 C 
HETATM    9  C7  UNL     1       0.629  -1.108   1.425  1.00  0.00     0.016 C 
HETATM   10  C8  UNL     1       2.113  -0.972   1.790  1.00  0.00     0.026 C 
HETATM   11  C9  UNL     1       2.588  -0.518   3.156  1.00  0.00     0.013 C 
HETATM   12  C18 UNL     1       2.614  -0.022   0.710  1.00  0.00     0.094 C 
HETATM   13  C10 UNL     1       4.144  -0.535   3.134  1.00  0.00     0.043 C 
HETATM   14  C11 UNL     1       4.776  -0.052   1.835  1.00  0.00    -0.006 C 
HETATM   15  C12 UNL     1       4.076   0.268   0.734  1.00  0.00    -0.030 C 
HETATM   16  C26 UNL     1       6.253   0.074   1.782  1.00  0.00     0.161 C 
HETATM   17  C13 UNL     1       4.585   1.004  -0.496  1.00  0.00     0.027 C 
HETATM   18  C14 UNL     1       3.997   0.394  -1.801  1.00  0.00     0.011 C 
HETATM   19  C19 UNL     1       6.141   1.299  -0.469  1.00  0.00    -0.026 C 
HETATM   20  C15 UNL     1       2.458   0.174  -1.751  1.00  0.00     0.014 C 
HETATM   21  C16 UNL     1       2.070  -0.728  -0.564  1.00  0.00    -0.002 C 
HETATM   22  C17 UNL     1       2.704  -2.131  -0.789  1.00  0.00     0.019 C 
HETATM   23  C20 UNL     1       6.722   1.302  -1.906  1.00  0.00     0.016 C 
HETATM   24  C21 UNL     1       6.363   2.717   0.149  1.00  0.00     0.013 C 
HETATM   25  C25 UNL     1       6.905   0.262   0.406  1.00  0.00     0.071 C 
HETATM   26  C22 UNL     1       7.833   3.088   0.338  1.00  0.00     0.032 C 
HETATM   27  C23 UNL     1       8.602   2.034   1.128  1.00  0.00     0.119 C 
HETATM   28  C24 UNL     1       8.394   0.621   0.580  1.00  0.00     0.045 C 
HETATM   29  O4  UNL     1       6.902  -0.055   2.818  1.00  0.00    -0.292 OA
BRANCH  27  30
HETATM   30  O3  UNL     1       9.991   2.357   1.103  1.00  0.00    -0.396 OA
HETATM   31  H34 UNL     1      10.309   2.265   0.189  1.00  0.00     0.210 HD
ENDBRANCH  27  30
BRANCH  12  32
HETATM   32  O2  UNL     1       1.985   1.264   0.866  1.00  0.00    -0.384 OA
HETATM   33  H25 UNL     1       2.395   1.714   1.624  1.00  0.00     0.211 HD
ENDBRANCH  12  32
ENDBRANCH   6   8
BRANCH   6  34
HETATM   34  C27 UNL     1      -1.838  -1.643  -0.125  1.00  0.00     0.189 A 
HETATM   35  O5  UNL     1      -2.210  -0.335   0.368  1.00  0.00    -0.369 OA
HETATM   36  C28 UNL     1      -3.117  -0.914  -0.562  1.00  0.00     0.189 A 
BRANCH  36  37
HETATM   37  C29 UNL     1      -4.500  -1.261  -0.032  1.00  0.00     0.092 C 
HETATM   38  C30 UNL     1      -4.465  -1.817   1.407  1.00  0.00     0.049 C 
BRANCH  37  39
HETATM   39  O6  UNL     1      -4.971  -2.340  -0.867  1.00  0.00    -0.387 OA
HETATM   40  H43 UNL     1      -4.456  -3.133  -0.638  1.00  0.00     0.210 HD
ENDBRANCH  37  39
BRANCH  37  41
HETATM   41  C31 UNL     1      -5.528  -0.037  -0.188  1.00  0.00     0.011 C 
HETATM   42  C32 UNL     1      -6.933  -0.486   0.290  1.00  0.00     0.020 C 
BRANCH  41  43
HETATM   43  C33 UNL     1      -5.688   0.387  -1.682  1.00  0.00     0.176 C 
BRANCH  43  44
HETATM   44  O7  UNL     1      -6.100  -0.674  -2.536  1.00  0.00    -0.400 OA
HETATM   45  H49 UNL     1      -5.800  -1.513  -2.125  1.00  0.00     0.209 HD
ENDBRANCH  43  44
ENDBRANCH  41  43
BRANCH  41  46
HETATM   46  C34 UNL     1      -5.026   1.194   0.643  1.00  0.00     0.019 C 
BRANCH  46  47
HETATM   47  C35 UNL     1      -5.881   2.477   0.669  1.00  0.00     0.039 C 
BRANCH  47  48
HETATM   48  C36 UNL     1      -7.077   2.457   1.587  1.00  0.00    -0.054 A 
HETATM   49  C37 UNL     1      -6.940   2.224   2.955  1.00  0.00     0.024 A 
HETATM   50  C38 UNL     1      -8.078   2.231   3.743  1.00  0.00     0.090 A 
HETATM   51  N1  UNL     1      -9.321   2.460   3.271  1.00  0.00    -0.357 N 
HETATM   52  C39 UNL     1      -9.451   2.700   1.959  1.00  0.00     0.077 A 
ATOM     53  H1  UNL     1     -10.132   2.451   3.890  1.00  0.00     0.166 HD
HETATM   54  C40 UNL     1      -8.361   2.716   1.092  1.00  0.00     0.049 A 
BRANCH  52  55
HETATM   55  N2  UNL     1     -10.737   2.960   1.472  1.00  0.00    -0.289 NA
HETATM   56  H56 UNL     1     -10.965   2.298   0.739  1.00  0.00     0.125 HD
HETATM   57  H57 UNL     1     -10.763   3.894   1.077  1.00  0.00     0.125 HD
ENDBRANCH  52  55
ENDBRANCH  47  48
ENDBRANCH  46  47
ENDBRANCH  41  46
ENDBRANCH  37  41
ENDBRANCH  36  37
ENDBRANCH   6  34
TORSDOF 13
