REMARK  4 active torsions:
REMARK  status: ('A' for Active; 'I' for Inactive)
REMARK    1  A    between atoms: C4_4  and  C5_5 
REMARK    2  A    between atoms: C5_5  and  C6_6 
REMARK    3  A    between atoms: C6_6  and  C7_7 
REMARK    4  A    between atoms: C7_7  and  C9_9 
ROOT
HETATM    1  C9  UNL     1      -2.207  -0.026  -1.058  1.00  0.00    -0.002 C 
HETATM    2  C10 UNL     1      -1.925  -0.967  -2.266  1.00  0.00     0.007 C 
HETATM    3  C11 UNL     1      -0.412  -1.257  -2.279  1.00  0.00     0.015 C 
HETATM    4  C12 UNL     1       0.102  -0.745  -0.918  1.00  0.00    -0.013 C 
HETATM    5  C13 UNL     1      -0.159  -1.896   0.102  1.00  0.00     0.021 C 
HETATM    6  C14 UNL     1       1.577  -0.394  -0.789  1.00  0.00    -0.070 C 
HETATM    7  C15 UNL     1       2.534  -0.885  -1.596  1.00  0.00    -0.022 C 
HETATM    8  C16 UNL     1       3.984  -0.585  -1.364  1.00  0.00     0.034 C 
HETATM    9  C17 UNL     1       4.250  -0.603   0.149  1.00  0.00     0.013 C 
HETATM   10  C18 UNL     1       5.756  -0.664   0.552  1.00  0.00     0.018 C 
HETATM   11  C19 UNL     1       6.276  -2.112   0.425  1.00  0.00     0.023 C 
HETATM   12  C20 UNL     1       6.663   0.232  -0.311  1.00  0.00     0.023 C 
HETATM   13  C21 UNL     1       5.905  -0.281   2.031  1.00  0.00     0.135 C 
HETATM   14  O1  UNL     1       6.977   0.108   2.499  1.00  0.00    -0.297 OA
HETATM   15  C22 UNL     1       4.714  -0.501   2.942  1.00  0.00     0.080 C 
HETATM   16  C23 UNL     1       3.379   0.014   2.392  1.00  0.00     0.017 C 
HETATM   17  C24 UNL     1       3.404   0.481   0.912  1.00  0.00    -0.031 C 
HETATM   18  C25 UNL     1       4.037   1.899   0.867  1.00  0.00     0.016 C 
HETATM   19  C26 UNL     1       1.949   0.645   0.273  1.00  0.00     0.024 C 
HETATM   20  C27 UNL     1       0.819   0.935   1.291  1.00  0.00     0.010 C 
HETATM   21  C28 UNL     1      -0.604   1.086   0.706  1.00  0.00     0.011 C 
HETATM   22  C29 UNL     1      -0.785   0.538  -0.725  1.00  0.00    -0.029 C 
HETATM   23  C30 UNL     1      -0.450   1.678  -1.740  1.00  0.00     0.016 C 
ENDROOT
BRANCH   1  24
HETATM   24  C7  UNL     1      -3.378   0.957  -1.335  1.00  0.00    -0.014 C 
HETATM   25  C8  UNL     1      -3.638   1.921  -0.173  1.00  0.00     0.010 C 
BRANCH  24  26
HETATM   26  C6  UNL     1      -4.689   0.242  -1.767  1.00  0.00     0.008 C 
BRANCH  26  27
HETATM   27  C5  UNL     1      -5.233  -0.888  -0.880  1.00  0.00     0.028 C 
BRANCH  27  28
HETATM   28  C4  UNL     1      -5.663  -0.467   0.495  1.00  0.00    -0.025 C 
HETATM   29  C2  UNL     1      -6.871  -0.000   0.865  1.00  0.00    -0.091 C 
HETATM   30  C1  UNL     1      -7.149   0.363   2.300  1.00  0.00     0.042 C 
HETATM   31  C3  UNL     1      -8.029   0.220  -0.067  1.00  0.00     0.042 C 
ENDBRANCH  27  28
ENDBRANCH  26  27
ENDBRANCH  24  26
ENDBRANCH   1  24
TORSDOF 4
