REMARK  8 active torsions:
REMARK  status: ('A' for Active; 'I' for Inactive)
REMARK    1  A    between atoms: C2_2  and  C3_3 
REMARK    2  A    between atoms: C2_2  and  C11_14 
REMARK    3  A    between atoms: C3_3  and  C4_4 
REMARK    4  A    between atoms: C4_4  and  C5_5 
REMARK       I    between atoms: C5_5  and  N1_7 
REMARK    5  A    between atoms: N1_7  and  C6_8 
REMARK    6  A    between atoms: C6_8  and  C7_9 
REMARK    7  A    between atoms: C16_19  and  O3_20 
REMARK    8  A    between atoms: C20_24  and  O4_25 
ROOT
HETATM    1  C11 UNL     1       0.516  -0.450  -0.979  1.00  0.00    -0.002 C 
HETATM    2  C12 UNL     1       0.219  -1.602  -1.986  1.00  0.00     0.006 C 
HETATM    3  C13 UNL     1      -1.299  -1.808  -2.015  1.00  0.00     0.006 C 
HETATM    4  C14 UNL     1      -1.844  -0.621  -1.238  1.00  0.00     0.001 C 
HETATM    5  C15 UNL     1      -3.296  -0.695  -0.733  1.00  0.00     0.024 C 
HETATM    6  C16 UNL     1      -4.269  -0.895  -1.921  1.00  0.00     0.123 C 
HETATM    7  C17 UNL     1      -5.671  -0.325  -1.675  1.00  0.00     0.037 C 
HETATM    8  C18 UNL     1      -6.032  -0.398  -0.186  1.00  0.00    -0.001 C 
HETATM    9  C19 UNL     1      -7.542  -0.190   0.060  1.00  0.00     0.037 C 
HETATM   10  C20 UNL     1      -7.996   1.264   0.067  1.00  0.00     0.118 C 
HETATM   11  C21 UNL     1      -7.149   2.104   1.015  1.00  0.00     0.032 C 
HETATM   12  C22 UNL     1      -5.662   1.999   0.684  1.00  0.00     0.012 C 
HETATM   13  C23 UNL     1      -5.108   0.544   0.662  1.00  0.00    -0.036 C 
HETATM   14  C24 UNL     1      -5.096  -0.006   2.110  1.00  0.00     0.016 C 
HETATM   15  C25 UNL     1      -3.646   0.602   0.044  1.00  0.00     0.001 C 
HETATM   16  C26 UNL     1      -2.552   1.023   1.057  1.00  0.00     0.007 C 
HETATM   17  C27 UNL     1      -1.123   0.983   0.491  1.00  0.00     0.010 C 
HETATM   18  C28 UNL     1      -0.791  -0.390  -0.125  1.00  0.00    -0.036 C 
HETATM   19  C29 UNL     1      -0.793  -1.493   0.960  1.00  0.00     0.016 C 
ENDROOT
BRANCH   1  20
HETATM   20  C2  UNL     1       1.894  -0.642  -0.273  1.00  0.00    -0.013 C 
HETATM   21  C1  UNL     1       2.172   0.441   0.771  1.00  0.00     0.010 C 
BRANCH  20  22
HETATM   22  C3  UNL     1       3.036  -0.688  -1.329  1.00  0.00     0.014 C 
BRANCH  22  23
HETATM   23  C4  UNL     1       4.407  -1.080  -0.768  1.00  0.00     0.103 C 
BRANCH  23  24
HETATM   24  C5  UNL     1       5.292   0.091  -0.381  1.00  0.00     0.217 C 
HETATM   25  O1  UNL     1       5.029   1.264  -0.617  1.00  0.00    -0.274 OA
HETATM   26  N1  UNL     1       6.444  -0.311   0.261  1.00  0.00    -0.359 N 
HETATM   27  H9  UNL     1       6.737  -1.276   0.156  1.00  0.00     0.162 HD
BRANCH  26  28
HETATM   28  C6  UNL     1       7.501   0.636   0.569  1.00  0.00     0.154 C 
BRANCH  28  29
HETATM   29  C7  UNL     1       8.535   0.008   1.512  1.00  0.00     0.139 C 
HETATM   30  C8  UNL     1       9.696   0.940   1.824  1.00  0.00     0.035 C 
HETATM   31  C9  UNL     1      10.699   0.592   0.754  1.00  0.00     0.029 C 
HETATM   32  C10 UNL     1      10.492  -0.899   0.601  1.00  0.00     0.168 C 
HETATM   33  O2  UNL     1       9.105  -1.153   0.862  1.00  0.00    -0.384 OA
ENDBRANCH  28  29
ENDBRANCH  26  28
ENDBRANCH  23  24
ENDBRANCH  22  23
ENDBRANCH  20  22
ENDBRANCH   1  20
BRANCH   6  34
HETATM   34  O3  UNL     1      -4.372  -2.300  -2.170  1.00  0.00    -0.395 OA
HETATM   35  H27 UNL     1      -4.936  -2.415  -2.953  1.00  0.00     0.210 HD
ENDBRANCH   6  34
BRANCH  10  36
HETATM   36  O4  UNL     1      -7.925   1.789  -1.255  1.00  0.00    -0.396 OA
HETATM   37  H34 UNL     1      -8.244   2.707  -1.223  1.00  0.00     0.210 HD
ENDBRANCH  10  36
TORSDOF 8
