REMARK  11 active torsions:
REMARK  status: ('A' for Active; 'I' for Inactive)
REMARK    1  A    between atoms: C3_3  and  O1_4 
REMARK    2  A    between atoms: N1_14  and  O2_16 
REMARK    3  A    between atoms: O2_16  and  C13_17 
REMARK    4  A    between atoms: C13_17  and  C14_18 
REMARK       I    between atoms: C14_18  and  N2_20 
REMARK    5  A    between atoms: N2_20  and  C15_21 
REMARK    6  A    between atoms: C15_21  and  C16_22 
REMARK    7  A    between atoms: C15_21  and  C17_25 
REMARK    8  A    between atoms: C16_22  and  O5_24 
REMARK    9  A    between atoms: C17_25  and  O6_26 
REMARK   10  A    between atoms: C17_25  and  C18_27 
REMARK   11  A    between atoms: C22_31  and  N3_32 
ROOT
HETATM    1  C1  UNL     1      -7.989  -0.686   2.005  1.00  0.00     0.015 C 
HETATM    2  C2  UNL     1      -7.726   0.246   1.294  1.00  0.00    -0.078 C 
HETATM    3  C3  UNL     1      -7.435   1.407   0.425  1.00  0.00     0.128 C 
HETATM    4  C4  UNL     1      -8.078   1.198  -0.954  1.00  0.00     0.052 C 
HETATM    5  C5  UNL     1      -7.086   0.299  -1.681  1.00  0.00     0.010 C 
HETATM    6  C6  UNL     1      -5.712   0.838  -1.258  1.00  0.00     0.002 C 
HETATM    7  C7  UNL     1      -4.542  -0.173  -1.277  1.00  0.00    -0.004 C 
HETATM    8  C8  UNL     1      -4.807  -1.569  -0.678  1.00  0.00     0.010 C 
HETATM    9  C9  UNL     1      -3.719  -2.148   0.239  1.00  0.00     0.035 C 
HETATM   10  C10 UNL     1      -2.288  -1.751  -0.035  1.00  0.00    -0.069 C 
HETATM   11  C11 UNL     1      -1.287  -2.474   0.498  1.00  0.00     0.030 C 
HETATM   12  C12 UNL     1       0.139  -2.080   0.348  1.00  0.00     0.032 C 
HETATM   13  N1  UNL     1       1.045  -2.929   0.745  1.00  0.00    -0.271 N 
ATOM     14  H1  UNL     1       0.838  -3.836   1.163  1.00  0.00     0.194 HD
HETATM   15  C24 UNL     1       0.466  -0.732  -0.274  1.00  0.00     0.060 C 
HETATM   16  C25 UNL     1      -0.741   0.202  -0.322  1.00  0.00     0.020 C 
HETATM   17  C26 UNL     1      -2.033  -0.486  -0.836  1.00  0.00    -0.016 C 
HETATM   18  C27 UNL     1      -1.816  -0.888  -2.320  1.00  0.00     0.020 C 
HETATM   19  C28 UNL     1      -3.261   0.484  -0.712  1.00  0.00     0.002 C 
HETATM   20  C29 UNL     1      -3.480   1.055   0.717  1.00  0.00     0.007 C 
HETATM   21  C30 UNL     1      -4.942   1.131   1.173  1.00  0.00     0.014 C 
HETATM   22  C31 UNL     1      -5.917   1.611   0.082  1.00  0.00     0.003 C 
HETATM   23  C32 UNL     1      -5.625   3.118  -0.172  1.00  0.00     0.020 C 
ENDROOT
BRANCH   3  24
HETATM   24  O1  UNL     1      -7.996   2.558   1.043  1.00  0.00    -0.377 OA
HETATM   25  H2  UNL     1      -8.922   2.347   1.249  1.00  0.00     0.211 HD
ENDBRANCH   3  24
BRANCH  13  26
HETATM   26  O2  UNL     1       2.340  -2.439   0.526  1.00  0.00    -0.271 OA
BRANCH  26  27
HETATM   27  C13 UNL     1       3.278  -3.454   0.869  1.00  0.00     0.303 C 
BRANCH  27  28
HETATM   28  C14 UNL     1       4.715  -2.948   0.761  1.00  0.00     0.244 C 
HETATM   29  O3  UNL     1       5.685  -3.682   0.936  1.00  0.00    -0.271 OA
HETATM   30  N2  UNL     1       4.844  -1.611   0.460  1.00  0.00    -0.342 N 
HETATM   31  H16 UNL     1       4.017  -1.039   0.612  1.00  0.00     0.163 HD
BRANCH  30  32
HETATM   32  C15 UNL     1       6.140  -0.924   0.571  1.00  0.00     0.216 C 
BRANCH  32  33
HETATM   33  C16 UNL     1       6.367  -0.440   2.011  1.00  0.00     0.166 C 
HETATM   34  O4  UNL     1       7.339   0.181   2.416  1.00  0.00    -0.648 OA
BRANCH  33  35
HETATM   35  O5  UNL     1       5.370  -0.738   2.873  1.00  0.00    -0.775 OA
HETATM   36  H18 UNL     1       5.690  -0.410   3.740  1.00  0.00     0.167 HD
ENDBRANCH  33  35
ENDBRANCH  32  33
BRANCH  32  37
HETATM   37  C17 UNL     1       6.187   0.271  -0.414  1.00  0.00     0.184 C 
BRANCH  37  38
HETATM   38  O6  UNL     1       5.218   1.252   0.002  1.00  0.00    -0.388 OA
HETATM   39  H20 UNL     1       5.698   1.956   0.475  1.00  0.00     0.210 HD
ENDBRANCH  37  38
BRANCH  37  40
HETATM   40  C18 UNL     1       7.518   0.950  -0.714  1.00  0.00    -0.025 A 
HETATM   41  C19 UNL     1       7.510   2.135  -1.480  1.00  0.00     0.010 A 
HETATM   42  C20 UNL     1       8.693   2.803  -1.812  1.00  0.00     0.003 A 
HETATM   43  C21 UNL     1       9.920   2.293  -1.398  1.00  0.00     0.036 A 
HETATM   44  C22 UNL     1       9.950   1.105  -0.659  1.00  0.00     0.103 A 
HETATM   45  C23 UNL     1       8.763   0.431  -0.324  1.00  0.00     0.045 A 
BRANCH  44  46
HETATM   46  N3  UNL     1      11.244   0.551  -0.239  1.00  0.00    -0.116 N 
HETATM   47  O7  UNL     1      11.261  -0.610   0.192  1.00  0.00    -0.532 OA
HETATM   48  O8  UNL     1      12.244   1.276  -0.350  1.00  0.00    -0.532 OA
ENDBRANCH  44  46
ENDBRANCH  37  40
ENDBRANCH  32  37
ENDBRANCH  30  32
ENDBRANCH  27  28
ENDBRANCH  26  27
ENDBRANCH  13  26
TORSDOF 11
