REMARK  13 active torsions:
REMARK  status: ('A' for Active; 'I' for Inactive)
REMARK    1  A    between atoms: C2_2  and  C3_3 
REMARK    2  A    between atoms: C2_2  and  C11_12 
REMARK    3  A    between atoms: C3_3  and  C4_4 
REMARK    4  A    between atoms: C4_4  and  C5_5 
REMARK    5  A    between atoms: C5_5  and  O1_7 
REMARK    6  A    between atoms: C5_5  and  C7_8 
REMARK    7  A    between atoms: C28_32  and  O5_33 
REMARK    8  A    between atoms: O5_33  and  C29_34 
REMARK    9  A    between atoms: C30_36  and  C31_37 
REMARK   10  A    between atoms: C31_37  and  O7_38 
REMARK   11  A    between atoms: C32_39  and  O8_40 
REMARK   12  A    between atoms: C33_41  and  O9_42 
REMARK   13  A    between atoms: C34_43  and  O10_44 
ROOT
HETATM    1  C11 UNL     1      -3.501  -0.158   0.019  1.00  0.00    -0.001 C 
HETATM    2  C12 UNL     1      -3.584  -1.636  -0.459  1.00  0.00     0.007 C 
HETATM    3  C13 UNL     1      -2.156  -2.107  -0.759  1.00  0.00     0.024 C 
HETATM    4  C14 UNL     1      -1.264  -0.949  -0.350  1.00  0.00     0.092 C 
HETATM    5  C15 UNL     1      -0.782  -1.060   1.135  1.00  0.00     0.272 C 
HETATM    6  O2  UNL     1      -1.380  -1.546   2.079  1.00  0.00    -0.264 OA
HETATM    7  O3  UNL     1       0.470  -0.468   1.238  1.00  0.00    -0.305 OA
HETATM    8  C16 UNL     1       0.795   0.131  -0.033  1.00  0.00     0.113 C 
HETATM    9  C17 UNL     1       0.051   1.521  -0.050  1.00  0.00     0.043 C 
HETATM   10  C18 UNL     1      -1.470   1.478   0.203  1.00  0.00     0.014 C 
HETATM   11  C19 UNL     1      -2.134   0.318  -0.563  1.00  0.00    -0.020 C 
HETATM   12  C20 UNL     1      -2.251   0.687  -2.066  1.00  0.00     0.017 C 
HETATM   13  C21 UNL     1       0.089  -0.812  -0.984  1.00  0.00     0.137 A 
HETATM   14  O4  UNL     1       0.593  -2.186  -1.038  1.00  0.00    -0.364 OA
HETATM   15  C22 UNL     1       0.816  -1.404  -2.187  1.00  0.00     0.162 A 
HETATM   16  C23 UNL     1       2.296  -1.201  -2.371  1.00  0.00     0.041 C 
HETATM   17  C24 UNL     1       2.998  -0.962  -0.995  1.00  0.00     0.009 C 
HETATM   18  C25 UNL     1       4.576  -1.079  -1.034  1.00  0.00    -0.017 C 
HETATM   19  C26 UNL     1       5.270  -0.242  -2.134  1.00  0.00     0.018 C 
HETATM   20  C27 UNL     1       4.950  -2.559  -1.345  1.00  0.00     0.018 C 
HETATM   21  C28 UNL     1       5.164  -0.754   0.383  1.00  0.00     0.133 C 
HETATM   22  C35 UNL     1       4.606   0.542   0.974  1.00  0.00     0.034 C 
HETATM   23  C36 UNL     1       3.087   0.507   1.076  1.00  0.00     0.015 C 
HETATM   24  C37 UNL     1       2.377   0.307  -0.287  1.00  0.00    -0.004 C 
HETATM   25  C38 UNL     1       2.633   1.570  -1.161  1.00  0.00     0.019 C 
ENDROOT
BRANCH  21  26
HETATM   26  O5  UNL     1       6.600  -0.692   0.294  1.00  0.00    -0.352 OA
BRANCH  26  27
HETATM   27  C29 UNL     1       7.268  -0.962   1.527  1.00  0.00     0.292 C 
HETATM   28  O6  UNL     1       7.521   0.214   2.300  1.00  0.00    -0.348 OA
HETATM   29  C30 UNL     1       8.453   1.157   1.742  1.00  0.00     0.179 C 
HETATM   30  C32 UNL     1       9.789   0.507   1.322  1.00  0.00     0.180 C 
HETATM   31  C33 UNL     1       9.588  -0.800   0.540  1.00  0.00     0.183 C 
HETATM   32  C34 UNL     1       8.582  -1.715   1.244  1.00  0.00     0.204 C 
BRANCH  29  33
HETATM   33  C31 UNL     1       7.817   2.068   0.678  1.00  0.00     0.198 C 
BRANCH  33  34
HETATM   34  O7  UNL     1       8.620   3.219   0.418  1.00  0.00    -0.398 OA
HETATM   35  H49 UNL     1       9.541   2.901   0.331  1.00  0.00     0.209 HD
ENDBRANCH  33  34
ENDBRANCH  29  33
BRANCH  30  36
HETATM   36  O8  UNL     1      10.599   1.414   0.558  1.00  0.00    -0.390 OA
HETATM   37  H51 UNL     1      10.612   1.046  -0.355  1.00  0.00     0.210 HD
ENDBRANCH  30  36
BRANCH  31  38
HETATM   38  O9  UNL     1       9.231  -0.468  -0.810  1.00  0.00    -0.390 OA
HETATM   39  H53 UNL     1       8.292  -0.723  -0.962  1.00  0.00     0.210 HD
ENDBRANCH  31  38
BRANCH  32  40
HETATM   40  O10 UNL     1       9.152  -2.215   2.464  1.00  0.00    -0.388 OA
HETATM   41  H55 UNL     1       8.991  -1.555   3.166  1.00  0.00     0.210 HD
ENDBRANCH  32  40
ENDBRANCH  26  27
ENDBRANCH  21  26
BRANCH   1  42
HETATM   42  C2  UNL     1      -4.800   0.643  -0.307  1.00  0.00    -0.014 C 
HETATM   43  C1  UNL     1      -4.669   2.121   0.086  1.00  0.00     0.010 C 
BRANCH  42  44
HETATM   44  C3  UNL     1      -6.015   0.010   0.424  1.00  0.00     0.007 C 
BRANCH  44  45
HETATM   45  C4  UNL     1      -7.381   0.475  -0.120  1.00  0.00     0.038 C 
BRANCH  45  46
HETATM   46  C5  UNL     1      -8.621  -0.012   0.692  1.00  0.00     0.061 C 
HETATM   47  C6  UNL     1      -8.589  -1.543   0.873  1.00  0.00     0.046 C 
BRANCH  46  48
HETATM   48  O1  UNL     1      -8.527   0.578   2.002  1.00  0.00    -0.389 OA
HETATM   49  H12 UNL     1      -7.818   0.130   2.494  1.00  0.00     0.210 HD
ENDBRANCH  46  48
BRANCH  46  50
HETATM   50  C7  UNL     1      -9.992   0.493   0.063  1.00  0.00    -0.021 C 
HETATM   51  C8  UNL     1     -11.187   0.171   0.996  1.00  0.00     0.017 C 
HETATM   52  C9  UNL     1      -9.997   2.028  -0.136  1.00  0.00     0.017 C 
HETATM   53  C10 UNL     1     -10.280  -0.161  -1.304  1.00  0.00     0.017 C 
ENDBRANCH  46  50
ENDBRANCH  45  46
ENDBRANCH  44  45
ENDBRANCH  42  44
ENDBRANCH   1  42
TORSDOF 13
