REMARK  5 active torsions:
REMARK  status: ('A' for Active; 'I' for Inactive)
REMARK    1  A    between atoms: C4_4  and  C5_5 
REMARK    2  A    between atoms: C5_5  and  C6_6 
REMARK    3  A    between atoms: C6_6  and  C7_7 
REMARK    4  A    between atoms: C7_7  and  C9_9 
REMARK    5  A    between atoms: C30_31  and  O2_32 
ROOT
HETATM    1  C9  UNL     1       2.191  -0.034  -1.169  1.00  0.00    -0.002 C 
HETATM    2  C10 UNL     1       2.260  -1.563  -0.930  1.00  0.00     0.007 C 
HETATM    3  C11 UNL     1       0.810  -2.042  -0.687  1.00  0.00     0.015 C 
HETATM    4  C12 UNL     1      -0.089  -0.864  -1.116  1.00  0.00    -0.010 C 
HETATM    5  C13 UNL     1      -0.266  -0.965  -2.666  1.00  0.00     0.021 C 
HETATM    6  C14 UNL     1      -1.502  -0.736  -0.546  1.00  0.00    -0.039 C 
HETATM    7  C15 UNL     1      -2.083   0.495  -0.483  1.00  0.00    -0.066 C 
HETATM    8  C16 UNL     1      -1.318   1.766  -0.887  1.00  0.00     0.036 C 
HETATM    9  C17 UNL     1       0.185   1.632  -1.218  1.00  0.00     0.015 C 
HETATM   10  C18 UNL     1       0.783   0.351  -0.626  1.00  0.00    -0.029 C 
HETATM   11  C19 UNL     1       0.816   0.504   0.924  1.00  0.00     0.016 C 
HETATM   12  C20 UNL     1      -3.529   0.689   0.052  1.00  0.00    -0.015 C 
HETATM   13  C21 UNL     1      -3.371   1.149   1.520  1.00  0.00     0.020 C 
HETATM   14  C22 UNL     1      -4.292   1.771  -0.752  1.00  0.00     0.021 C 
HETATM   15  C23 UNL     1      -5.744   1.923  -0.328  1.00  0.00     0.080 C 
HETATM   16  C24 UNL     1      -6.496   0.620  -0.437  1.00  0.00     0.135 C 
HETATM   17  O1  UNL     1      -7.634   0.612  -0.913  1.00  0.00    -0.297 OA
HETATM   18  C25 UNL     1      -5.860  -0.635   0.182  1.00  0.00     0.018 C 
HETATM   19  C26 UNL     1      -6.236  -0.674   1.671  1.00  0.00     0.023 C 
HETATM   20  C27 UNL     1      -6.523  -1.869  -0.487  1.00  0.00     0.023 C 
HETATM   21  C28 UNL     1      -4.323  -0.658  -0.126  1.00  0.00     0.016 C 
HETATM   22  C29 UNL     1      -3.557  -1.802   0.564  1.00  0.00     0.043 C 
HETATM   23  C30 UNL     1      -2.188  -2.007  -0.094  1.00  0.00     0.148 C 
ENDROOT
BRANCH   1  24
HETATM   24  C7  UNL     1       3.422   0.810  -0.718  1.00  0.00    -0.014 C 
HETATM   25  C8  UNL     1       4.449   0.849  -1.864  1.00  0.00     0.010 C 
BRANCH  24  26
HETATM   26  C6  UNL     1       4.113   0.339   0.585  1.00  0.00     0.008 C 
BRANCH  26  27
HETATM   27  C5  UNL     1       5.070   1.372   1.203  1.00  0.00     0.028 C 
BRANCH  27  28
HETATM   28  C4  UNL     1       6.519   1.106   0.892  1.00  0.00    -0.025 C 
HETATM   29  C2  UNL     1       7.401   0.429   1.652  1.00  0.00    -0.091 C 
HETATM   30  C1  UNL     1       8.838   0.288   1.225  1.00  0.00     0.042 C 
HETATM   31  C3  UNL     1       7.071  -0.248   2.953  1.00  0.00     0.042 C 
ENDBRANCH  27  28
ENDBRANCH  26  27
ENDBRANCH  24  26
ENDBRANCH   1  24
BRANCH  23  32
HETATM   32  O2  UNL     1      -2.362  -2.839  -1.238  1.00  0.00    -0.391 OA
HETATM   33  H48 UNL     1      -2.676  -3.702  -0.924  1.00  0.00     0.210 HD
ENDBRANCH  23  32
TORSDOF 5
