REMARK  9 active torsions:
REMARK  status: ('A' for Active; 'I' for Inactive)
REMARK    1  A    between atoms: C3_3  and  O1_4 
REMARK    2  A    between atoms: N1_14  and  O2_16 
REMARK    3  A    between atoms: O2_16  and  C13_17 
REMARK    4  A    between atoms: C13_17  and  C14_18 
REMARK       I    between atoms: C14_18  and  N2_20 
REMARK    5  A    between atoms: N2_20  and  C15_21 
REMARK    6  A    between atoms: C15_21  and  C16_22 
REMARK    7  A    between atoms: C15_21  and  C18_26 
REMARK    8  A    between atoms: C16_22  and  C17_23 
REMARK    9  A    between atoms: C17_23  and  O5_25 
ROOT
HETATM    1  C1  UNL     1      -9.375  -0.191  -0.786  1.00  0.00     0.015 C 
HETATM    2  C2  UNL     1      -8.496   0.621  -0.913  1.00  0.00    -0.078 C 
HETATM    3  C3  UNL     1      -7.445   1.635  -1.107  1.00  0.00     0.128 C 
HETATM    4  C4  UNL     1      -6.507   1.260  -2.242  1.00  0.00     0.052 C 
HETATM    5  C5  UNL     1      -5.319   2.191  -2.031  1.00  0.00     0.010 C 
HETATM    6  C6  UNL     1      -5.128   2.317  -0.502  1.00  0.00     0.002 C 
HETATM    7  C7  UNL     1      -3.899   1.493  -0.028  1.00  0.00    -0.004 C 
HETATM    8  C8  UNL     1      -3.410   1.901   1.383  1.00  0.00     0.010 C 
HETATM    9  C9  UNL     1      -2.816   0.746   2.201  1.00  0.00     0.035 C 
HETATM   10  C10 UNL     1      -2.029  -0.175   1.309  1.00  0.00    -0.069 C 
HETATM   11  C11 UNL     1      -0.701  -0.333   1.461  1.00  0.00     0.030 C 
HETATM   12  C12 UNL     1       0.096  -1.147   0.501  1.00  0.00     0.032 C 
HETATM   13  N1  UNL     1       1.295  -1.522   0.850  1.00  0.00    -0.271 N 
ATOM     14  H1  UNL     1       1.737  -1.288   1.739  1.00  0.00     0.194 HD
HETATM   15  C25 UNL     1      -0.535  -1.516  -0.833  1.00  0.00     0.060 C 
HETATM   16  C26 UNL     1      -1.892  -0.853  -1.067  1.00  0.00     0.020 C 
HETATM   17  C27 UNL     1      -2.815  -0.849   0.189  1.00  0.00    -0.016 C 
HETATM   18  C28 UNL     1      -3.142  -2.314   0.566  1.00  0.00     0.020 C 
HETATM   19  C29 UNL     1      -4.129  -0.031  -0.155  1.00  0.00     0.002 C 
HETATM   20  C30 UNL     1      -5.428  -0.468   0.564  1.00  0.00     0.007 C 
HETATM   21  C31 UNL     1      -6.324   0.663   1.064  1.00  0.00     0.014 C 
HETATM   22  C32 UNL     1      -6.504   1.885   0.126  1.00  0.00     0.003 C 
HETATM   23  C33 UNL     1      -7.065   3.040   0.996  1.00  0.00     0.020 C 
ENDROOT
BRANCH   3  24
HETATM   24  O1  UNL     1      -8.079   2.862  -1.499  1.00  0.00    -0.377 OA
HETATM   25  H2  UNL     1      -8.841   2.626  -2.055  1.00  0.00     0.211 HD
ENDBRANCH   3  24
BRANCH  13  26
HETATM   26  O2  UNL     1       1.899  -2.290  -0.159  1.00  0.00    -0.271 OA
BRANCH  26  27
HETATM   27  C13 UNL     1       2.453  -3.475   0.409  1.00  0.00     0.303 C 
BRANCH  27  28
HETATM   28  C14 UNL     1       3.973  -3.441   0.541  1.00  0.00     0.244 C 
HETATM   29  O3  UNL     1       4.619  -4.438   0.856  1.00  0.00    -0.271 OA
HETATM   30  N2  UNL     1       4.556  -2.212   0.297  1.00  0.00    -0.354 N 
HETATM   31  H16 UNL     1       3.926  -1.463   0.012  1.00  0.00     0.162 HD
BRANCH  30  32
HETATM   32  C15 UNL     1       6.011  -2.017   0.262  1.00  0.00     0.098 C 
BRANCH  32  33
HETATM   33  C16 UNL     1       6.570  -2.350  -1.131  1.00  0.00     0.135 C 
BRANCH  33  34
HETATM   34  C17 UNL     1       6.705  -3.828  -1.355  1.00  0.00     0.141 C 
HETATM   35  O4  UNL     1       6.118  -4.483  -2.201  1.00  0.00    -0.650 OA
BRANCH  34  36
HETATM   36  O5  UNL     1       7.611  -4.398  -0.534  1.00  0.00    -0.776 OA
HETATM   37  H20 UNL     1       7.529  -5.356  -0.724  1.00  0.00     0.167 HD
ENDBRANCH  34  36
ENDBRANCH  33  34
ENDBRANCH  32  33
BRANCH  32  38
HETATM   38  C18 UNL     1       6.363  -0.578   0.729  1.00  0.00     0.014 C 
HETATM   39  C19 UNL     1       7.849  -0.469   1.143  1.00  0.00     0.033 C 
HETATM   40  C20 UNL     1       8.465   0.879   0.780  1.00  0.00     0.169 C 
HETATM   41  O6  UNL     1       7.546   1.927   1.068  1.00  0.00    -0.381 OA
HETATM   42  C21 UNL     1       6.368   1.925   0.246  1.00  0.00     0.054 C 
HETATM   43  C22 UNL     1       5.233   2.469   1.129  1.00  0.00     0.045 C 
HETATM   44  C23 UNL     1       6.595   2.897  -0.918  1.00  0.00     0.045 C 
HETATM   45  C24 UNL     1       6.018   0.517  -0.294  1.00  0.00     0.044 C 
ENDBRANCH  32  38
ENDBRANCH  30  32
ENDBRANCH  27  28
ENDBRANCH  26  27
ENDBRANCH  13  26
TORSDOF 9
