REMARK  2 active torsions:
REMARK  status: ('A' for Active; 'I' for Inactive)
REMARK    1  A    between atoms: C4_5  and  S1_6 
REMARK    2  A    between atoms: S1_6  and  C5_7 
ROOT
HETATM    1  C5  UNL     1       1.402   0.283  -0.871  1.00  0.00     0.029 A 
HETATM    2  C6  UNL     1       2.067   1.349  -0.247  1.00  0.00     0.046 A 
HETATM    3  C7  UNL     1       3.125   1.113   0.637  1.00  0.00     0.057 A 
HETATM    4 CL2  UNL     1       3.878   2.483   1.371  1.00  0.00    -0.083 Cl
HETATM    5  C8  UNL     1       3.535  -0.198   0.898  1.00  0.00     0.057 A 
HETATM    6 CL3  UNL     1       4.832  -0.565   1.978  1.00  0.00    -0.082 Cl
HETATM    7  C9  UNL     1       2.889  -1.266   0.272  1.00  0.00     0.051 A 
HETATM    8  C10 UNL     1       1.830  -1.030  -0.612  1.00  0.00     0.052 A 
HETATM    9 CL4  UNL     1       1.107  -2.412  -1.359  1.00  0.00    -0.083 Cl
ENDROOT
BRANCH   1  10
HETATM   10  S1  UNL     1       0.059   0.694  -1.984  1.00  0.00    -0.089 SA
BRANCH  10  11
HETATM   11  C4  UNL     1      -1.351   0.315  -0.957  1.00  0.00     0.005 A 
HETATM   12  C3  UNL     1      -2.195  -0.745  -1.308  1.00  0.00     0.020 A 
HETATM   13  C2  UNL     1      -3.306  -1.053  -0.518  1.00  0.00     0.025 A 
HETATM   14  C1  UNL     1      -3.579  -0.295   0.618  1.00  0.00     0.034 A 
HETATM   15 CL1  UNL     1      -4.946  -0.673   1.591  1.00  0.00    -0.084 Cl
HETATM   16  C12 UNL     1      -2.753   0.771   0.970  1.00  0.00     0.025 A 
HETATM   17  C11 UNL     1      -1.641   1.078   0.180  1.00  0.00     0.020 A 
ENDBRANCH  10  11
ENDBRANCH   1  10
TORSDOF 2
