REMARK  14 active torsions:
REMARK  status: ('A' for Active; 'I' for Inactive)
REMARK    1  A    between atoms: O1_2  and  C2_3 
REMARK    2  A    between atoms: C8_9  and  O2_10 
REMARK    3  A    between atoms: O2_10  and  C9_11 
REMARK    4  A    between atoms: C10_13  and  C11_14 
REMARK    5  A    between atoms: C11_14  and  O4_15 
REMARK    6  A    between atoms: C12_16  and  O5_17 
REMARK    7  A    between atoms: C13_18  and  O6_19 
REMARK    8  A    between atoms: C14_20  and  O7_21 
REMARK    9  A    between atoms: C18_25  and  C19_26 
REMARK   10  A    between atoms: C24_32  and  C25_33 
REMARK   11  A    between atoms: C25_33  and  C27_35 
REMARK   12  A    between atoms: C27_35  and  C28_36 
REMARK   13  A    between atoms: C29_37  and  C30_38 
REMARK   14  A    between atoms: C30_38  and  O9_41 
ROOT
HETATM    1  C2  UNL     1      -0.461   2.403  -1.208  1.00  0.00     0.149 C 
HETATM    2  C3  UNL     1      -1.635   2.364  -0.295  1.00  0.00     0.009 C 
HETATM    3  C4  UNL     1      -2.379   1.268  -0.081  1.00  0.00    -0.066 C 
HETATM    4  C5  UNL     1      -2.024  -0.046  -0.745  1.00  0.00     0.031 C 
HETATM    5  C6  UNL     1      -3.146  -0.389  -1.756  1.00  0.00     0.013 C 
HETATM    6  C7  UNL     1      -4.565  -0.099  -1.236  1.00  0.00     0.034 C 
HETATM    7  C8  UNL     1      -4.622   0.081   0.287  1.00  0.00     0.136 C 
HETATM    8  C15 UNL     1      -3.690   1.269   0.737  1.00  0.00     0.002 C 
HETATM    9  C16 UNL     1      -3.348   1.081   2.228  1.00  0.00     0.022 C 
HETATM   10  C17 UNL     1      -4.445   2.617   0.598  1.00  0.00     0.022 C 
HETATM   11  C18 UNL     1      -0.524  -0.220  -1.264  1.00  0.00     0.027 C 
HETATM   12  C20 UNL     1       0.101  -1.407  -0.435  1.00  0.00     0.018 C 
HETATM   13  C21 UNL     1       1.623  -1.506  -0.231  1.00  0.00     0.011 C 
HETATM   14  C22 UNL     1       2.422  -0.235  -0.531  1.00  0.00    -0.032 C 
HETATM   15  C23 UNL     1       2.901  -0.333  -2.011  1.00  0.00     0.016 C 
HETATM   16  C24 UNL     1       3.680   0.041   0.369  1.00  0.00    -0.002 C 
HETATM   17  C34 UNL     1       3.879   1.578   0.203  1.00  0.00     0.006 C 
HETATM   18  C35 UNL     1       2.566   2.156  -0.354  1.00  0.00     0.011 C 
HETATM   19  C36 UNL     1       1.530   1.026  -0.214  1.00  0.00    -0.029 C 
HETATM   20  C37 UNL     1       0.995   1.116   1.250  1.00  0.00     0.016 C 
HETATM   21  C38 UNL     1       0.356   1.094  -1.234  1.00  0.00     0.043 C 
ENDROOT
BRANCH   7  22
HETATM   22  O2  UNL     1      -5.975   0.325   0.705  1.00  0.00    -0.352 OA
BRANCH  22  23
HETATM   23  C9  UNL     1      -6.689  -0.855   1.094  1.00  0.00     0.292 C 
HETATM   24  O3  UNL     1      -7.233  -1.485  -0.063  1.00  0.00    -0.348 OA
HETATM   25  C10 UNL     1      -8.589  -1.160  -0.391  1.00  0.00     0.179 C 
HETATM   26  C12 UNL     1      -9.507  -1.645   0.741  1.00  0.00     0.180 C 
HETATM   27  C13 UNL     1      -8.947  -1.377   2.151  1.00  0.00     0.183 C 
HETATM   28  C14 UNL     1      -7.735  -0.450   2.164  1.00  0.00     0.204 C 
BRANCH  25  29
HETATM   29  C11 UNL     1      -8.808   0.308  -0.780  1.00  0.00     0.198 C 
BRANCH  29  30
HETATM   30  O4  UNL     1      -8.019   0.647  -1.916  1.00  0.00    -0.398 OA
HETATM   31  H16 UNL     1      -7.145   0.924  -1.574  1.00  0.00     0.209 HD
ENDBRANCH  29  30
ENDBRANCH  25  29
BRANCH  26  32
HETATM   32  O5  UNL     1      -9.699  -3.074   0.627  1.00  0.00    -0.390 OA
HETATM   33  H18 UNL     1      -8.852  -3.442   0.304  1.00  0.00     0.210 HD
ENDBRANCH  26  32
BRANCH  27  34
HETATM   34  O6  UNL     1      -8.577  -2.613   2.804  1.00  0.00    -0.390 OA
HETATM   35  H20 UNL     1      -9.201  -3.267   2.431  1.00  0.00     0.210 HD
ENDBRANCH  27  34
BRANCH  28  36
HETATM   36  O7  UNL     1      -7.141  -0.450   3.472  1.00  0.00    -0.388 OA
HETATM   37  H22 UNL     1      -7.401  -1.307   3.879  1.00  0.00     0.210 HD
ENDBRANCH  28  36
ENDBRANCH  22  23
ENDBRANCH   7  22
BRANCH  11  38
HETATM   38  C19 UNL     1      -0.566  -0.639  -2.744  1.00  0.00     0.241 C 
HETATM   39  O8  UNL     1      -0.329  -1.771  -3.162  1.00  0.00    -0.306 OA
ENDBRANCH  11  38
BRANCH   1  40
HETATM   40  O1  UNL     1      -0.953   2.610  -2.545  1.00  0.00    -0.386 OA
HETATM   41  C1  UNL     1      -1.364   3.950  -2.800  1.00  0.00     0.202 C 
ENDBRANCH   1  40
BRANCH  16  42
HETATM   42  C25 UNL     1       5.004  -0.759   0.143  1.00  0.00    -0.010 C 
HETATM   43  C26 UNL     1       4.802  -2.260   0.386  1.00  0.00     0.010 C 
BRANCH  42  44
HETATM   44  C27 UNL     1       6.135  -0.205   1.057  1.00  0.00     0.031 C 
BRANCH  44  45
HETATM   45  C28 UNL     1       7.463  -0.897   0.891  1.00  0.00    -0.027 C 
HETATM   46  C29 UNL     1       8.489  -0.398   0.181  1.00  0.00     0.006 C 
BRANCH  46  47
HETATM   47  C30 UNL     1       9.862  -1.016  -0.019  1.00  0.00     0.070 C 
HETATM   48  C31 UNL     1      10.121  -2.322   0.751  1.00  0.00     0.050 C 
HETATM   49  C32 UNL     1      10.027  -1.312  -1.516  1.00  0.00     0.050 C 
BRANCH  47  50
HETATM   50  O9  UNL     1      10.858  -0.025   0.280  1.00  0.00    -0.382 OA
HETATM   51  C33 UNL     1      11.023   0.303   1.652  1.00  0.00     0.202 C 
ENDBRANCH  47  50
ENDBRANCH  46  47
ENDBRANCH  44  45
ENDBRANCH  42  44
ENDBRANCH  16  42
TORSDOF 14
