REMARK  8 active torsions:
REMARK  status: ('A' for Active; 'I' for Inactive)
REMARK    1  A    between atoms: C4_4  and  C5_5 
REMARK    2  A    between atoms: C5_5  and  C6_6 
REMARK    3  A    between atoms: C6_6  and  C7_7 
REMARK    4  A    between atoms: C7_7  and  C9_9 
REMARK    5  A    between atoms: C25_26  and  C27_28 
REMARK    6  A    between atoms: C27_28  and  O3_30 
REMARK    7  A    between atoms: C28_31  and  O4_32 
REMARK    8  A    between atoms: C30_34  and  O5_35 
ROOT
HETATM    1  C9  UNL     1       3.032  -0.623  -0.821  1.00  0.00    -0.002 C 
HETATM    2  C10 UNL     1       3.103   0.284  -2.083  1.00  0.00     0.007 C 
HETATM    3  C11 UNL     1       1.702   0.892  -2.286  1.00  0.00     0.015 C 
HETATM    4  C12 UNL     1       0.963   0.662  -0.953  1.00  0.00    -0.005 C 
HETATM    5  C13 UNL     1       1.408   1.801   0.019  1.00  0.00     0.021 C 
HETATM    6  C14 UNL     1      -0.562   0.688  -0.890  1.00  0.00    -0.000 C 
HETATM    7  C15 UNL     1      -1.241  -0.044   0.034  1.00  0.00    -0.058 C 
HETATM    8  C16 UNL     1      -0.481  -0.976   0.996  1.00  0.00     0.036 C 
HETATM    9  C17 UNL     1       1.047  -1.091   0.834  1.00  0.00     0.015 C 
HETATM   10  C18 UNL     1       1.496  -0.786  -0.596  1.00  0.00    -0.028 C 
HETATM   11  C19 UNL     1       0.913  -1.885  -1.530  1.00  0.00     0.016 C 
HETATM   12  C20 UNL     1      -2.800  -0.046   0.159  1.00  0.00     0.011 C 
HETATM   13  C21 UNL     1      -3.264  -1.315  -0.596  1.00  0.00     0.023 C 
HETATM   14  C22 UNL     1      -3.360   1.281  -0.454  1.00  0.00     0.029 C 
HETATM   15  C23 UNL     1      -2.806   1.536  -1.857  1.00  0.00     0.090 C 
HETATM   16  C24 UNL     1      -1.300   1.560  -1.859  1.00  0.00     0.157 C 
HETATM   17  O1  UNL     1      -0.703   2.251  -2.685  1.00  0.00    -0.293 OA
HETATM   18  C25 UNL     1      -4.919   1.503  -0.353  1.00  0.00     0.072 C 
HETATM   19  C26 UNL     1      -5.169   3.018  -0.109  1.00  0.00     0.030 C 
HETATM   20  C28 UNL     1      -5.542   0.665   0.797  1.00  0.00     0.139 C 
HETATM   21  C29 UNL     1      -4.606   0.549   1.994  1.00  0.00     0.065 C 
HETATM   22  C30 UNL     1      -3.246  -0.079   1.669  1.00  0.00     0.133 C 
ENDROOT
BRANCH   1  23
HETATM   23  C7  UNL     1       4.041  -1.809  -0.885  1.00  0.00    -0.014 C 
HETATM   24  C8  UNL     1       3.828  -2.822  -2.020  1.00  0.00     0.010 C 
BRANCH  23  25
HETATM   25  C6  UNL     1       4.236  -2.594   0.437  1.00  0.00     0.008 C 
BRANCH  25  26
HETATM   26  C5  UNL     1       5.060  -1.877   1.520  1.00  0.00     0.028 C 
BRANCH  26  27
HETATM   27  C4  UNL     1       4.276  -0.918   2.367  1.00  0.00    -0.025 C 
HETATM   28  C2  UNL     1       4.498   0.398   2.558  1.00  0.00    -0.091 C 
HETATM   29  C1  UNL     1       5.622   1.188   1.946  1.00  0.00     0.042 C 
HETATM   30  C3  UNL     1       3.576   1.212   3.428  1.00  0.00     0.042 C 
ENDBRANCH  26  27
ENDBRANCH  25  26
ENDBRANCH  23  25
ENDBRANCH   1  23
BRANCH  22  31
HETATM   31  O5  UNL     1      -3.220  -1.405   2.208  1.00  0.00    -0.394 OA
HETATM   32  H46 UNL     1      -3.946  -1.921   1.817  1.00  0.00     0.210 HD
ENDBRANCH  22  31
BRANCH  18  33
HETATM   33  C27 UNL     1      -5.644   1.153  -1.657  1.00  0.00     0.151 C 
HETATM   34  O2  UNL     1      -6.143   1.923  -2.459  1.00  0.00    -0.649 OA
BRANCH  33  35
HETATM   35  O3  UNL     1      -5.666  -0.164  -1.936  1.00  0.00    -0.776 OA
HETATM   36  H40 UNL     1      -6.160  -0.206  -2.784  1.00  0.00     0.167 HD
ENDBRANCH  33  35
ENDBRANCH  18  33
BRANCH  20  37
HETATM   37  O4  UNL     1      -6.770   1.249   1.242  1.00  0.00    -0.394 OA
HETATM   38  H42 UNL     1      -7.177   0.642   1.886  1.00  0.00     0.210 HD
ENDBRANCH  20  37
TORSDOF 8
