REMARK  8 active torsions:
REMARK  status: ('A' for Active; 'I' for Inactive)
REMARK    1  A    between atoms: C3_3  and  O1_4 
REMARK    2  A    between atoms: N1_14  and  O2_16 
REMARK    3  A    between atoms: O2_16  and  C13_17 
REMARK    4  A    between atoms: C13_17  and  C14_18 
REMARK       I    between atoms: C14_18  and  N2_20 
REMARK    5  A    between atoms: N2_20  and  C15_21 
REMARK    6  A    between atoms: C15_21  and  C16_22 
REMARK    7  A    between atoms: C16_22  and  O4_23 
REMARK    8  A    between atoms: C16_22  and  C17_24 
ROOT
HETATM    1  C1  UNL     1      -8.369   3.573   1.308  1.00  0.00     0.015 C 
HETATM    2  C2  UNL     1      -7.501   2.779   1.550  1.00  0.00    -0.078 C 
HETATM    3  C3  UNL     1      -6.421   1.830   1.865  1.00  0.00     0.128 C 
HETATM    4  C4  UNL     1      -6.857   0.775   2.888  1.00  0.00     0.052 C 
HETATM    5  C5  UNL     1      -5.726  -0.245   2.808  1.00  0.00     0.010 C 
HETATM    6  C6  UNL     1      -5.470  -0.381   1.302  1.00  0.00     0.002 C 
HETATM    7  C7  UNL     1      -4.093  -0.947   0.882  1.00  0.00    -0.004 C 
HETATM    8  C8  UNL     1      -2.866  -0.435   1.655  1.00  0.00     0.010 C 
HETATM    9  C9  UNL     1      -1.565  -1.080   1.169  1.00  0.00     0.035 C 
HETATM   10  C10 UNL     1      -1.385  -1.073  -0.335  1.00  0.00    -0.069 C 
HETATM   11  C11 UNL     1      -0.193  -0.742  -0.866  1.00  0.00     0.030 C 
HETATM   12  C12 UNL     1       0.077  -0.874  -2.330  1.00  0.00     0.032 C 
HETATM   13  N1  UNL     1       1.159  -0.504  -2.944  1.00  0.00    -0.271 N 
ATOM     14  H1  UNL     1       1.320  -0.636  -3.943  1.00  0.00     0.194 HD
HETATM   15  C23 UNL     1      -0.981  -1.562  -3.168  1.00  0.00     0.060 C 
HETATM   16  C24 UNL     1      -2.373  -1.188  -2.679  1.00  0.00     0.020 C 
HETATM   17  C25 UNL     1      -2.594  -1.500  -1.168  1.00  0.00    -0.016 C 
HETATM   18  C26 UNL     1      -2.769  -3.037  -1.029  1.00  0.00     0.020 C 
HETATM   19  C27 UNL     1      -3.891  -0.767  -0.645  1.00  0.00     0.002 C 
HETATM   20  C28 UNL     1      -3.964   0.732  -1.045  1.00  0.00     0.007 C 
HETATM   21  C29 UNL     1      -4.734   1.651  -0.092  1.00  0.00     0.014 C 
HETATM   22  C30 UNL     1      -5.900   0.978   0.651  1.00  0.00     0.003 C 
HETATM   23  C31 UNL     1      -7.032   0.686  -0.372  1.00  0.00     0.020 C 
ENDROOT
BRANCH   3  24
HETATM   24  O1  UNL     1      -5.348   2.566   2.462  1.00  0.00    -0.377 OA
HETATM   25  H2  UNL     1      -5.752   3.194   3.086  1.00  0.00     0.211 HD
ENDBRANCH   3  24
BRANCH  13  26
HETATM   26  O2  UNL     1       2.079   0.097  -2.076  1.00  0.00    -0.271 OA
BRANCH  26  27
HETATM   27  C13 UNL     1       3.242   0.446  -2.821  1.00  0.00     0.303 C 
BRANCH  27  28
HETATM   28  C14 UNL     1       4.385   0.652  -1.841  1.00  0.00     0.243 C 
HETATM   29  O3  UNL     1       4.673   1.742  -1.359  1.00  0.00    -0.271 OA
HETATM   30  N2  UNL     1       5.080  -0.505  -1.532  1.00  0.00    -0.356 N 
HETATM   31  H16 UNL     1       4.608  -1.383  -1.716  1.00  0.00     0.162 HD
BRANCH  30  32
HETATM   32  C15 UNL     1       6.084  -0.506  -0.471  1.00  0.00     0.159 C 
BRANCH  32  33
HETATM   33  C16 UNL     1       7.368   0.272  -0.845  1.00  0.00     0.170 C 
BRANCH  33  34
HETATM   34  O4  UNL     1       7.973  -0.377  -1.975  1.00  0.00    -0.389 OA
HETATM   35  H20 UNL     1       7.335  -0.272  -2.700  1.00  0.00     0.210 HD
ENDBRANCH  33  34
BRANCH  33  36
HETATM   36  C17 UNL     1       8.333   0.332   0.315  1.00  0.00    -0.013 A 
HETATM   37  C18 UNL     1       9.532  -0.380   0.353  1.00  0.00     0.013 A 
HETATM   38  C19 UNL     1      10.368  -0.279   1.463  1.00  0.00     0.025 A 
HETATM   39  C20 UNL     1       9.987   0.544   2.518  1.00  0.00     0.005 A 
HETATM   40  C21 UNL     1      10.863   0.675   3.727  1.00  0.00     0.068 C 
HETATM   41  N3  UNL     1       8.827   1.240   2.512  1.00  0.00    -0.369 N 
HETATM   42  C22 UNL     1       8.040   1.126   1.419  1.00  0.00     0.097 A 
ATOM     43  H3  UNL     1       8.557   1.827   3.301  1.00  0.00     0.165 HD
ENDBRANCH  33  36
ENDBRANCH  32  33
ENDBRANCH  30  32
ENDBRANCH  27  28
ENDBRANCH  26  27
ENDBRANCH  13  26
TORSDOF 8
