REMARK  19 active torsions:
REMARK  status: ('A' for Active; 'I' for Inactive)
REMARK    1  A    between atoms: C2_2  and  C3_3 
REMARK    2  A    between atoms: C3_3  and  C4_4 
REMARK    3  A    between atoms: C4_4  and  S1_5 
REMARK    4  A    between atoms: C4_4  and  C15_25 
REMARK    5  A    between atoms: S1_5  and  C5_6 
REMARK    6  A    between atoms: C5_6  and  C6_7 
REMARK    7  A    between atoms: C6_7  and  N1_8 
REMARK    8  A    between atoms: C6_7  and  C12_18 
REMARK       I    between atoms: N1_8  and  C7_9 
REMARK    9  A    between atoms: C7_9  and  C8_11 
REMARK   10  A    between atoms: C8_11  and  C9_12 
REMARK   11  A    between atoms: C9_12  and  C10_13 
REMARK   12  A    between atoms: C10_13  and  N2_14 
REMARK   13  A    between atoms: C10_13  and  C11_15 
REMARK   14  A    between atoms: C11_15  and  O3_17 
REMARK       I    between atoms: C12_18  and  N3_20 
REMARK   15  A    between atoms: N3_20  and  C13_21 
REMARK   16  A    between atoms: C13_21  and  C14_22 
REMARK   17  A    between atoms: C14_22  and  O6_24 
REMARK   18  A    between atoms: C19_29  and  C20_30 
REMARK   19  A    between atoms: C20_30  and  C21_31 
ROOT
HETATM    1  S1  UNL     1       0.740  -1.128  -0.999  1.00  0.00    -0.154 SA
ENDROOT
BRANCH   1   2
HETATM    2  C4  UNL     1       1.473  -2.247   0.287  1.00  0.00     0.113 C 
BRANCH   2   3
HETATM    3  C3  UNL     1       0.716  -3.579   0.698  1.00  0.00    -0.022 C 
HETATM    4  C30 UNL     1      -0.543  -3.358   1.582  1.00  0.00     0.011 C 
HETATM    5  C31 UNL     1      -0.405  -4.291   2.779  1.00  0.00     0.001 C 
HETATM    6  C32 UNL     1       1.089  -4.345   3.013  1.00  0.00     0.001 C 
HETATM    7  C33 UNL     1       1.661  -4.438   1.605  1.00  0.00     0.011 C 
BRANCH   3   8
HETATM    8  C2  UNL     1       0.355  -4.374  -0.598  1.00  0.00     0.006 C 
HETATM    9  C1  UNL     1      -0.371  -5.708  -0.426  1.00  0.00     0.006 C 
ENDBRANCH   3   8
ENDBRANCH   2   3
BRANCH   2  10
HETATM   10  C15 UNL     1       2.029  -1.384   1.406  1.00  0.00     0.075 C 
HETATM   11  C16 UNL     1       3.298  -1.054   1.644  1.00  0.00    -0.031 C 
HETATM   12  C17 UNL     1       4.564  -1.303   0.899  1.00  0.00     0.042 C 
HETATM   13  C28 UNL     1       3.372  -0.119   2.793  1.00  0.00     0.140 C 
HETATM   14  C18 UNL     1       5.140   0.039   0.410  1.00  0.00     0.038 C 
HETATM   15  C19 UNL     1       4.959   1.208   1.372  1.00  0.00    -0.078 C 
HETATM   16  C27 UNL     1       4.155   1.117   2.453  1.00  0.00    -0.005 C 
HETATM   17  C29 UNL     1       1.883   0.103   3.027  1.00  0.00     0.275 C 
HETATM   18  O7  UNL     1       1.397   0.906   3.816  1.00  0.00    -0.264 OA
HETATM   19  O8  UNL     1       1.121  -0.765   2.275  1.00  0.00    -0.281 OA
BRANCH  15  20
HETATM   20  C20 UNL     1       5.720   2.478   1.049  1.00  0.00     0.072 C 
BRANCH  20  21
HETATM   21  C21 UNL     1       5.407   3.036  -0.321  1.00  0.00    -0.054 A 
HETATM   22  C22 UNL     1       6.373   3.011  -1.338  1.00  0.00     0.007 A 
HETATM   23  C23 UNL     1       6.073   3.495  -2.613  1.00  0.00     0.001 A 
HETATM   24  C24 UNL     1       4.808   4.010  -2.881  1.00  0.00     0.000 A 
HETATM   25  C25 UNL     1       3.839   4.044  -1.878  1.00  0.00     0.001 A 
HETATM   26  C26 UNL     1       4.138   3.562  -0.604  1.00  0.00     0.007 A 
ENDBRANCH  20  21
ENDBRANCH  15  20
ENDBRANCH   2  10
ENDBRANCH   1   2
BRANCH   1  27
HETATM   27  C5  UNL     1      -0.898  -0.711  -0.304  1.00  0.00     0.109 C 
BRANCH  27  28
HETATM   28  C6  UNL     1      -1.648   0.355  -1.129  1.00  0.00     0.185 C 
BRANCH  28  29
HETATM   29  N1  UNL     1      -2.552   1.115  -0.244  1.00  0.00    -0.347 N 
HETATM   30  C7  UNL     1      -2.698   2.481  -0.357  1.00  0.00     0.218 C 
HETATM   31  O1  UNL     1      -2.075   3.170  -1.154  1.00  0.00    -0.274 OA
HETATM   32  H10 UNL     1      -3.220   0.592   0.314  1.00  0.00     0.163 HD
BRANCH  30  33
HETATM   33  C8  UNL     1      -3.707   3.073   0.606  1.00  0.00     0.105 C 
BRANCH  33  34
HETATM   34  C9  UNL     1      -4.468   4.255  -0.006  1.00  0.00     0.056 C 
BRANCH  34  35
HETATM   35  C10 UNL     1      -5.227   3.914  -1.296  1.00  0.00     0.315 C 
BRANCH  35  36
HETATM   36  N2  UNL     1      -5.974   5.090  -1.785  1.00  0.00     0.093 N 
HETATM   37  H16 UNL     1      -5.382   5.921  -1.717  1.00  0.00     0.314 HD
HETATM   38  H17 UNL     1      -6.773   5.247  -1.165  1.00  0.00     0.314 HD
ENDBRANCH  35  36
BRANCH  35  39
HETATM   39  C11 UNL     1      -6.177   2.733  -1.072  1.00  0.00     0.173 C 
HETATM   40  O2  UNL     1      -5.866   1.551  -1.156  1.00  0.00    -0.648 OA
BRANCH  39  41
HETATM   41  O3  UNL     1      -7.413   3.096  -0.670  1.00  0.00    -0.775 OA
HETATM   42  H18 UNL     1      -7.917   2.257  -0.604  1.00  0.00     0.167 HD
ENDBRANCH  39  41
ENDBRANCH  35  39
ENDBRANCH  34  35
ENDBRANCH  33  34
ENDBRANCH  30  33
ENDBRANCH  28  29
BRANCH  28  43
HETATM   43  C12 UNL     1      -2.425  -0.316  -2.290  1.00  0.00     0.241 C 
HETATM   44  O4  UNL     1      -1.938  -1.200  -2.995  1.00  0.00    -0.271 OA
HETATM   45  N3  UNL     1      -3.685   0.186  -2.542  1.00  0.00    -0.349 N 
HETATM   46  H19 UNL     1      -4.159   0.700  -1.809  1.00  0.00     0.163 HD
BRANCH  45  47
HETATM   47  C13 UNL     1      -4.531  -0.436  -3.547  1.00  0.00     0.232 C 
BRANCH  47  48
HETATM   48  C14 UNL     1      -5.191  -1.730  -3.080  1.00  0.00     0.158 C 
HETATM   49  O5  UNL     1      -5.868  -2.472  -3.778  1.00  0.00    -0.649 OA
BRANCH  48  50
HETATM   50  O6  UNL     1      -5.006  -2.029  -1.775  1.00  0.00    -0.775 OA
HETATM   51  H22 UNL     1      -5.423  -2.913  -1.694  1.00  0.00     0.167 HD
ENDBRANCH  48  50
ENDBRANCH  47  48
ENDBRANCH  45  47
ENDBRANCH  28  43
ENDBRANCH  27  28
ENDBRANCH   1  27
TORSDOF 19
