REMARK  13 active torsions:
REMARK  status: ('A' for Active; 'I' for Inactive)
REMARK    1  A    between atoms: C3_3  and  O1_4 
REMARK    2  A    between atoms: N1_14  and  O2_16 
REMARK    3  A    between atoms: O2_16  and  C13_17 
REMARK    4  A    between atoms: C13_17  and  C14_18 
REMARK       I    between atoms: C14_18  and  N2_20 
REMARK    5  A    between atoms: N2_20  and  C15_21 
REMARK    6  A    between atoms: C15_21  and  C16_22 
REMARK    7  A    between atoms: C15_21  and  C21_32 
REMARK       I    between atoms: C16_22  and  N3_24 
REMARK    8  A    between atoms: N3_24  and  C17_25 
REMARK    9  A    between atoms: C17_25  and  C18_26 
REMARK   10  A    between atoms: C17_25  and  C19_28 
REMARK   11  A    between atoms: C18_26  and  S1_27 
REMARK   12  A    between atoms: C19_28  and  C20_29 
REMARK   13  A    between atoms: C20_29  and  O6_31 
ROOT
HETATM    1  C1  UNL     1     -11.117   1.161   0.761  1.00  0.00     0.015 C 
HETATM    2  C2  UNL     1     -10.039   1.440   1.208  1.00  0.00    -0.078 C 
HETATM    3  C3  UNL     1      -8.711   1.804   1.760  1.00  0.00     0.128 C 
HETATM    4  C4  UNL     1      -8.373   0.884   2.942  1.00  0.00     0.052 C 
HETATM    5  C5  UNL     1      -7.446  -0.202   2.385  1.00  0.00     0.010 C 
HETATM    6  C6  UNL     1      -7.316   0.054   0.864  1.00  0.00     0.002 C 
HETATM    7  C7  UNL     1      -6.040  -0.500   0.164  1.00  0.00    -0.004 C 
HETATM    8  C8  UNL     1      -5.483  -1.726   0.911  1.00  0.00     0.010 C 
HETATM    9  C9  UNL     1      -4.304  -2.348   0.191  1.00  0.00     0.035 C 
HETATM   10  C10 UNL     1      -3.191  -1.348   0.032  1.00  0.00    -0.069 C 
HETATM   11  C11 UNL     1      -1.939  -1.678   0.400  1.00  0.00     0.030 C 
HETATM   12  C12 UNL     1      -0.774  -0.808   0.088  1.00  0.00     0.032 C 
HETATM   13  N1  UNL     1       0.403  -1.206   0.478  1.00  0.00    -0.271 N 
ATOM     14  H1  UNL     1       0.573  -2.045   1.033  1.00  0.00     0.194 HD
HETATM   15  C24 UNL     1      -1.029   0.443  -0.730  1.00  0.00     0.060 C 
HETATM   16  C25 UNL     1      -2.411   0.997  -0.417  1.00  0.00     0.020 C 
HETATM   17  C26 UNL     1      -3.562  -0.025  -0.630  1.00  0.00    -0.016 C 
HETATM   18  C27 UNL     1      -3.692  -0.302  -2.155  1.00  0.00     0.020 C 
HETATM   19  C28 UNL     1      -4.949   0.573  -0.131  1.00  0.00     0.002 C 
HETATM   20  C29 UNL     1      -4.911   1.581   1.029  1.00  0.00     0.007 C 
HETATM   21  C30 UNL     1      -6.243   2.331   1.227  1.00  0.00     0.014 C 
HETATM   22  C31 UNL     1      -7.527   1.579   0.760  1.00  0.00     0.003 C 
HETATM   23  C32 UNL     1      -7.902   2.042  -0.666  1.00  0.00     0.020 C 
ENDROOT
BRANCH   3  24
HETATM   24  O1  UNL     1      -8.772   3.154   2.200  1.00  0.00    -0.377 OA
HETATM   25  H2  UNL     1      -9.097   3.680   1.449  1.00  0.00     0.211 HD
ENDBRANCH   3  24
BRANCH  13  26
HETATM   26  O2  UNL     1       1.408  -0.331   0.035  1.00  0.00    -0.271 OA
BRANCH  26  27
HETATM   27  C13 UNL     1       2.667  -0.829   0.461  1.00  0.00     0.303 C 
BRANCH  27  28
HETATM   28  C14 UNL     1       3.800  -0.152  -0.305  1.00  0.00     0.244 C 
HETATM   29  O3  UNL     1       3.678   0.891  -0.944  1.00  0.00    -0.271 OA
HETATM   30  N2  UNL     1       4.997  -0.830  -0.219  1.00  0.00    -0.346 N 
HETATM   31  H16 UNL     1       5.099  -1.621   0.414  1.00  0.00     0.163 HD
BRANCH  30  32
HETATM   32  C15 UNL     1       6.218  -0.384  -0.883  1.00  0.00     0.180 C 
BRANCH  32  33
HETATM   33  C16 UNL     1       7.384  -0.811   0.038  1.00  0.00     0.241 C 
HETATM   34  O4  UNL     1       7.236  -1.662   0.921  1.00  0.00    -0.271 OA
HETATM   35  N3  UNL     1       8.587  -0.182  -0.204  1.00  0.00    -0.353 N 
HETATM   36  H18 UNL     1       8.645   0.492  -0.956  1.00  0.00     0.163 HD
BRANCH  35  37
HETATM   37  C17 UNL     1       9.762  -0.398   0.642  1.00  0.00     0.103 C 
BRANCH  37  38
HETATM   38  C18 UNL     1      10.976  -0.853  -0.193  1.00  0.00     0.096 C 
BRANCH  38  39
HETATM   39  S1  UNL     1      10.704  -2.454  -1.025  1.00  0.00    -0.180 SA
HETATM   40  H22 UNL     1      11.945  -2.586  -1.511  1.00  0.00     0.101 HD
ENDBRANCH  38  39
ENDBRANCH  37  38
BRANCH  37  41
HETATM   41  C19 UNL     1      10.123   0.889   1.389  1.00  0.00     0.136 C 
BRANCH  41  42
HETATM   42  C20 UNL     1       9.090   1.274   2.413  1.00  0.00     0.141 C 
HETATM   43  O5  UNL     1       7.909   1.497   2.212  1.00  0.00    -0.650 OA
BRANCH  42  44
HETATM   44  O6  UNL     1       9.617   1.438   3.645  1.00  0.00    -0.776 OA
HETATM   45  H25 UNL     1       8.854   1.724   4.196  1.00  0.00     0.167 HD
ENDBRANCH  42  44
ENDBRANCH  41  42
ENDBRANCH  37  41
ENDBRANCH  35  37
ENDBRANCH  32  33
BRANCH  32  46
HETATM   46  C21 UNL     1       6.283  -0.946  -2.321  1.00  0.00     0.009 C 
HETATM   47  C22 UNL     1       6.472  -2.467  -2.362  1.00  0.00     0.012 C 
HETATM   48  C23 UNL     1       7.347  -0.265  -3.184  1.00  0.00     0.012 C 
ENDBRANCH  32  46
ENDBRANCH  30  32
ENDBRANCH  27  28
ENDBRANCH  26  27
ENDBRANCH  13  26
TORSDOF 13
