REMARK  7 active torsions:
REMARK  status: ('A' for Active; 'I' for Inactive)
REMARK    1  A    between atoms: C2_2  and  C30_32 
REMARK    2  A    between atoms: C3_3  and  C4_4 
REMARK    3  A    between atoms: C4_4  and  O1_5 
REMARK    4  A    between atoms: C4_4  and  C5_6 
REMARK    5  A    between atoms: C5_6  and  C6_7 
REMARK    6  A    between atoms: C6_7  and  C8_9 
REMARK    7  A    between atoms: C30_32  and  O3_33 
ROOT
HETATM    1  C8  UNL     1       2.107   0.871  -1.789  1.00  0.00    -0.002 C 
HETATM    2  C9  UNL     1       1.585   1.523  -3.103  1.00  0.00     0.007 C 
HETATM    3  C10 UNL     1       0.046   1.428  -3.072  1.00  0.00     0.015 C 
HETATM    4  C11 UNL     1      -0.260   0.385  -1.978  1.00  0.00    -0.013 C 
HETATM    5  C12 UNL     1      -0.076  -1.017  -2.650  1.00  0.00     0.021 C 
HETATM    6  C13 UNL     1      -1.657   0.365  -1.363  1.00  0.00    -0.070 C 
HETATM    7  C14 UNL     1      -2.755   0.692  -2.068  1.00  0.00    -0.022 C 
HETATM    8  C15 UNL     1      -4.159   0.537  -1.569  1.00  0.00     0.034 C 
HETATM    9  C16 UNL     1      -4.285   0.192  -0.065  1.00  0.00     0.013 C 
HETATM   10  C17 UNL     1      -5.752  -0.160   0.375  1.00  0.00     0.018 C 
HETATM   11  C18 UNL     1      -6.588  -0.835  -0.737  1.00  0.00     0.023 C 
HETATM   12  C19 UNL     1      -6.476   1.159   0.750  1.00  0.00     0.023 C 
HETATM   13  C20 UNL     1      -5.868  -1.062   1.614  1.00  0.00     0.135 C 
HETATM   14  O2  UNL     1      -6.980  -1.438   2.020  1.00  0.00    -0.297 OA
HETATM   15  C21 UNL     1      -4.645  -1.528   2.368  1.00  0.00     0.080 C 
HETATM   16  C22 UNL     1      -3.317  -0.949   1.928  1.00  0.00     0.017 C 
HETATM   17  C23 UNL     1      -3.166  -0.798   0.399  1.00  0.00    -0.031 C 
HETATM   18  C24 UNL     1      -3.279  -2.178  -0.285  1.00  0.00     0.016 C 
HETATM   19  C25 UNL     1      -1.767  -0.117   0.086  1.00  0.00     0.024 C 
HETATM   20  C26 UNL     1      -0.533  -0.933   0.547  1.00  0.00     0.010 C 
HETATM   21  C27 UNL     1       0.850  -0.346   0.179  1.00  0.00     0.011 C 
HETATM   22  C28 UNL     1       0.822   0.757  -0.901  1.00  0.00    -0.029 C 
HETATM   23  C29 UNL     1       0.563   2.128  -0.212  1.00  0.00     0.016 C 
ENDROOT
BRANCH   1  24
HETATM   24  C6  UNL     1       3.455   1.464  -1.266  1.00  0.00    -0.011 C 
HETATM   25  C7  UNL     1       3.515   2.985  -1.070  1.00  0.00     0.010 C 
BRANCH  24  26
HETATM   26  C5  UNL     1       3.937   0.731   0.012  1.00  0.00     0.040 C 
BRANCH  26  27
HETATM   27  C4  UNL     1       5.410   0.972   0.374  1.00  0.00     0.141 C 
BRANCH  27  28
HETATM   28  C3  UNL     1       5.791   0.314   1.676  1.00  0.00     0.009 C 
HETATM   29  C2  UNL     1       6.057  -0.987   1.931  1.00  0.00    -0.062 C 
HETATM   30  C1  UNL     1       6.462  -1.408   3.321  1.00  0.00     0.045 C 
BRANCH  29  31
HETATM   31  C30 UNL     1       5.981  -2.099   0.913  1.00  0.00     0.198 C 
BRANCH  31  32
HETATM   32  O3  UNL     1       5.047  -3.081   1.350  1.00  0.00    -0.397 OA
HETATM   33  H48 UNL     1       5.492  -3.614   2.030  1.00  0.00     0.209 HD
ENDBRANCH  31  32
ENDBRANCH  29  31
ENDBRANCH  27  28
BRANCH  27  34
HETATM   34  O1  UNL     1       6.263   0.514  -0.666  1.00  0.00    -0.392 OA
HETATM   35  H6  UNL     1       7.176   0.627  -0.350  1.00  0.00     0.210 HD
ENDBRANCH  27  34
ENDBRANCH  26  27
ENDBRANCH  24  26
ENDBRANCH   1  24
TORSDOF 7
