REMARK  4 active torsions:
REMARK  status: ('A' for Active; 'I' for Inactive)
REMARK    1  A    between atoms: C14_16  and  C15_17 
REMARK    2  A    between atoms: C15_17  and  C17_19 
REMARK    3  A    between atoms: C17_19  and  C18_20 
REMARK    4  A    between atoms: C18_20  and  C19_22 
ROOT
HETATM    1  C1  UNL     1      -6.506   1.134  -0.319  1.00  0.00     0.017 C 
HETATM    2  C2  UNL     1      -5.832  -0.030  -0.222  1.00  0.00    -0.060 C 
HETATM    3  C3  UNL     1      -6.561  -1.294   0.174  1.00  0.00     0.212 C 
HETATM    4  O1  UNL     1      -5.868  -2.175   1.076  1.00  0.00    -0.317 OA
HETATM    5  C4  UNL     1      -5.505  -1.824   2.332  1.00  0.00     0.259 C 
HETATM    6  O2  UNL     1      -5.394  -2.667   3.218  1.00  0.00    -0.265 OA
HETATM    7  C5  UNL     1      -5.147  -0.384   2.575  1.00  0.00     0.112 C 
HETATM    8  C6  UNL     1      -3.774  -0.013   2.005  1.00  0.00     0.020 C 
HETATM    9  C7  UNL     1      -3.437  -0.584   0.623  1.00  0.00    -0.024 A 
HETATM   10  C8  UNL     1      -2.893  -1.996   0.585  1.00  0.00     0.022 A 
HETATM   11  C9  UNL     1      -1.954  -0.860   0.235  1.00  0.00    -0.027 A 
HETATM   12  C10 UNL     1      -0.788  -0.775   1.251  1.00  0.00     0.011 C 
HETATM   13  C11 UNL     1       0.360   0.189   0.917  1.00  0.00     0.011 C 
HETATM   14  C12 UNL     1       0.812   0.045  -0.541  1.00  0.00    -0.032 C 
HETATM   15  C13 UNL     1       1.397  -1.381  -0.734  1.00  0.00     0.016 C 
HETATM   16  C14 UNL     1       1.832   1.105  -1.064  1.00  0.00    -0.002 C 
HETATM   17  C23 UNL     1       1.539   1.166  -2.592  1.00  0.00     0.006 C 
HETATM   18  C24 UNL     1       0.196   0.452  -2.829  1.00  0.00     0.011 C 
HETATM   19  C25 UNL     1      -0.452   0.352  -1.438  1.00  0.00    -0.032 C 
HETATM   20  C26 UNL     1      -1.118   1.742  -1.138  1.00  0.00     0.016 C 
HETATM   21  C27 UNL     1      -1.530  -0.767  -1.263  1.00  0.00     0.004 C 
HETATM   22  C28 UNL     1      -2.666  -0.640  -2.311  1.00  0.00     0.007 C 
HETATM   23  C29 UNL     1      -4.095  -0.826  -1.826  1.00  0.00     0.010 C 
HETATM   24  C30 UNL     1      -4.339  -0.074  -0.513  1.00  0.00     0.025 C 
ENDROOT
BRANCH  16  25
HETATM   25  C15 UNL     1       3.353   1.073  -0.726  1.00  0.00    -0.007 C 
HETATM   26  C16 UNL     1       4.189  -0.068  -1.324  1.00  0.00     0.011 C 
BRANCH  25  27
HETATM   27  C17 UNL     1       3.603   1.169   0.792  1.00  0.00     0.087 C 
BRANCH  27  28
HETATM   28  C18 UNL     1       5.022   1.611   1.115  1.00  0.00     0.149 C 
HETATM   29  O3  UNL     1       5.551   2.575   0.568  1.00  0.00    -0.293 OA
BRANCH  28  30
HETATM   30  C19 UNL     1       5.733   0.831   2.171  1.00  0.00     0.052 C 
HETATM   31  C20 UNL     1       7.037   0.497   2.133  1.00  0.00    -0.084 C 
HETATM   32  C21 UNL     1       7.986   0.817   1.006  1.00  0.00     0.043 C 
HETATM   33  C22 UNL     1       7.660  -0.275   3.267  1.00  0.00     0.043 C 
ENDBRANCH  28  30
ENDBRANCH  27  28
ENDBRANCH  25  27
ENDBRANCH  16  25
TORSDOF 4
