REMARK  10 active torsions:
REMARK  status: ('A' for Active; 'I' for Inactive)
REMARK    1  A    between atoms: C3_3  and  O1_4 
REMARK    2  A    between atoms: N1_14  and  O2_16 
REMARK    3  A    between atoms: O2_16  and  C13_17 
REMARK    4  A    between atoms: C13_17  and  C14_18 
REMARK       I    between atoms: C14_18  and  N2_20 
REMARK    5  A    between atoms: N2_20  and  C15_21 
REMARK    6  A    between atoms: C15_21  and  C16_22 
REMARK       I    between atoms: C16_22  and  N3_24 
REMARK    7  A    between atoms: N3_24  and  C17_25 
REMARK    8  A    between atoms: C17_25  and  C18_26 
REMARK    9  A    between atoms: C17_25  and  C19_29 
REMARK   10  A    between atoms: C18_26  and  O6_28 
ROOT
HETATM    1  C1  UNL     1      -9.029   3.275   0.658  1.00  0.00     0.015 C 
HETATM    2  C2  UNL     1      -7.877   3.056   0.396  1.00  0.00    -0.078 C 
HETATM    3  C3  UNL     1      -6.450   2.814   0.077  1.00  0.00     0.128 C 
HETATM    4  C4  UNL     1      -5.666   2.632   1.377  1.00  0.00     0.052 C 
HETATM    5  C5  UNL     1      -5.852   1.164   1.732  1.00  0.00     0.010 C 
HETATM    6  C6  UNL     1      -6.046   0.405   0.402  1.00  0.00     0.002 C 
HETATM    7  C7  UNL     1      -4.942  -0.626   0.078  1.00  0.00    -0.004 C 
HETATM    8  C8  UNL     1      -4.902  -1.772   1.098  1.00  0.00     0.010 C 
HETATM    9  C9  UNL     1      -3.884  -2.828   0.685  1.00  0.00     0.035 C 
HETATM   10  C10 UNL     1      -2.509  -2.242   0.458  1.00  0.00    -0.069 C 
HETATM   11  C11 UNL     1      -1.438  -2.832   1.020  1.00  0.00     0.030 C 
HETATM   12  C12 UNL     1      -0.050  -2.401   0.720  1.00  0.00     0.032 C 
HETATM   13  N1  UNL     1       0.923  -3.057   1.286  1.00  0.00    -0.271 N 
ATOM     14  H1  UNL     1       0.788  -3.807   1.964  1.00  0.00     0.194 HD
HETATM   15  C22 UNL     1       0.142  -1.285  -0.284  1.00  0.00     0.060 C 
HETATM   16  C23 UNL     1      -1.036  -0.320  -0.257  1.00  0.00     0.020 C 
HETATM   17  C24 UNL     1      -2.420  -1.007  -0.449  1.00  0.00    -0.016 C 
HETATM   18  C25 UNL     1      -2.563  -1.475  -1.915  1.00  0.00     0.020 C 
HETATM   19  C26 UNL     1      -3.542   0.029  -0.047  1.00  0.00     0.002 C 
HETATM   20  C27 UNL     1      -3.580   1.306  -0.918  1.00  0.00     0.007 C 
HETATM   21  C28 UNL     1      -4.914   1.538  -1.622  1.00  0.00     0.014 C 
HETATM   22  C29 UNL     1      -6.184   1.489  -0.715  1.00  0.00     0.003 C 
HETATM   23  C30 UNL     1      -7.353   1.132  -1.668  1.00  0.00     0.020 C 
ENDROOT
BRANCH   3  24
HETATM   24  O1  UNL     1      -5.961   3.952  -0.618  1.00  0.00    -0.377 OA
HETATM   25  H2  UNL     1      -6.212   4.734  -0.097  1.00  0.00     0.211 HD
ENDBRANCH   3  24
BRANCH  13  26
HETATM   26  O2  UNL     1       2.178  -2.608   0.852  1.00  0.00    -0.271 OA
BRANCH  26  27
HETATM   27  C13 UNL     1       3.184  -3.422   1.447  1.00  0.00     0.303 C 
BRANCH  27  28
HETATM   28  C14 UNL     1       4.572  -3.112   0.889  1.00  0.00     0.244 C 
HETATM   29  O3  UNL     1       5.592  -3.627   1.344  1.00  0.00    -0.271 OA
HETATM   30  N2  UNL     1       4.592  -2.240  -0.179  1.00  0.00    -0.350 N 
HETATM   31  H16 UNL     1       3.780  -1.636  -0.264  1.00  0.00     0.163 HD
BRANCH  30  32
HETATM   32  C15 UNL     1       5.846  -1.748  -0.709  1.00  0.00     0.225 C 
BRANCH  32  33
HETATM   33  C16 UNL     1       6.281  -0.472   0.018  1.00  0.00     0.236 C 
HETATM   34  O4  UNL     1       5.480   0.306   0.534  1.00  0.00    -0.272 OA
HETATM   35  N3  UNL     1       7.639  -0.243  -0.027  1.00  0.00    -0.345 N 
HETATM   36  H19 UNL     1       8.246  -1.041  -0.200  1.00  0.00     0.163 HD
BRANCH  35  37
HETATM   37  C17 UNL     1       8.272   0.860   0.704  1.00  0.00     0.185 C 
BRANCH  37  38
HETATM   38  C18 UNL     1       9.547   0.360   1.402  1.00  0.00     0.163 C 
HETATM   39  O5  UNL     1      10.283   1.009   2.128  1.00  0.00    -0.648 OA
BRANCH  38  40
HETATM   40  O6  UNL     1       9.847  -0.929   1.112  1.00  0.00    -0.775 OA
HETATM   41  H21 UNL     1      10.659  -1.102   1.636  1.00  0.00     0.167 HD
ENDBRANCH  38  40
ENDBRANCH  37  38
BRANCH  37  42
HETATM   42  C19 UNL     1       8.600   2.062  -0.209  1.00  0.00     0.010 C 
HETATM   43  C20 UNL     1       9.460   1.677  -1.420  1.00  0.00     0.012 C 
HETATM   44  C21 UNL     1       7.332   2.780  -0.680  1.00  0.00     0.012 C 
ENDBRANCH  37  42
ENDBRANCH  35  37
ENDBRANCH  32  33
ENDBRANCH  30  32
ENDBRANCH  27  28
ENDBRANCH  26  27
ENDBRANCH  13  26
TORSDOF 10
