REMARK  6 active torsions:
REMARK  status: ('A' for Active; 'I' for Inactive)
REMARK    1  A    between atoms: C3_3  and  C4_4 
REMARK    2  A    between atoms: C4_4  and  O1_5 
REMARK    3  A    between atoms: C7_9  and  O3_10 
REMARK    4  A    between atoms: C24_28  and  C25_29 
REMARK    5  A    between atoms: C43_49  and  O7_51 
REMARK    6  A    between atoms: C45_52  and  O8_53 
ROOT
HETATM    1  C1  UNL     1      -6.845   1.866  -3.250  1.00  0.00     0.013 C 
HETATM    2  C2  UNL     1      -6.618   1.430  -1.810  1.00  0.00     0.023 C 
HETATM    3  C3  UNL     1      -5.698   2.372  -0.999  1.00  0.00     0.047 C 
HETATM    4  C5  UNL     1      -4.807   1.405  -0.196  1.00  0.00     0.160 C 
HETATM    5  O2  UNL     1      -5.473   0.130  -0.267  1.00  0.00    -0.373 OA
HETATM    6  C6  UNL     1      -6.031   0.030  -1.602  1.00  0.00     0.167 C 
HETATM    7  C7  UNL     1      -4.949  -0.513  -2.587  1.00  0.00     0.226 C 
HETATM    8  C8  UNL     1      -4.108  -1.498  -1.876  1.00  0.00    -0.072 C 
HETATM    9  C9  UNL     1      -3.397  -2.095  -1.113  1.00  0.00    -0.103 C 
HETATM   10  C10 UNL     1      -2.514  -2.660  -0.080  1.00  0.00     0.100 C 
HETATM   11  C11 UNL     1      -1.188  -1.872  -0.006  1.00  0.00     0.014 C 
HETATM   12  C12 UNL     1       0.041  -2.862   0.130  1.00  0.00     0.000 C 
HETATM   13  C13 UNL     1       0.083  -3.567   1.491  1.00  0.00     0.006 C 
HETATM   14  C14 UNL     1      -0.809  -2.957   2.552  1.00  0.00     0.001 C 
HETATM   15  C15 UNL     1      -0.968  -1.437   2.510  1.00  0.00     0.014 C 
HETATM   16  C16 UNL     1      -1.037  -0.748   1.103  1.00  0.00     0.006 C 
HETATM   17  C17 UNL     1      -2.049   0.497   1.080  1.00  0.00     0.034 C 
HETATM   18  C18 UNL     1      -1.182   1.751   1.411  1.00  0.00     0.012 C 
HETATM   19  C19 UNL     1       0.238   1.259   1.659  1.00  0.00     0.044 C 
HETATM   20  C20 UNL     1       0.334   0.041   0.735  1.00  0.00     0.094 C 
HETATM   21  O4  UNL     1       0.273   0.485  -0.649  1.00  0.00    -0.363 OA
HETATM   22  C21 UNL     1       1.063   1.598  -1.096  1.00  0.00     0.263 C 
HETATM   23  C22 UNL     1       2.503   1.533  -0.803  1.00  0.00    -0.080 C 
HETATM   24  C23 UNL     1       3.682   1.536  -0.559  1.00  0.00    -0.093 C 
HETATM   25  C24 UNL     1       5.132   1.523  -0.219  1.00  0.00     0.121 C 
HETATM   26  C31 UNL     1       5.825   0.247  -0.753  1.00  0.00     0.190 C 
HETATM   27  O5  UNL     1       5.362  -0.871   0.007  1.00  0.00    -0.384 OA
HETATM   28  C32 UNL     1       5.643  -2.169  -0.516  1.00  0.00     0.122 C 
HETATM   29  C33 UNL     1       4.894  -2.441  -1.814  1.00  0.00     0.033 C 
HETATM   30  C34 UNL     1       3.413  -2.144  -1.625  1.00  0.00     0.013 C 
HETATM   31  C35 UNL     1       2.713  -2.881  -0.427  1.00  0.00    -0.025 C 
HETATM   32  C36 UNL     1       2.438  -4.326  -0.920  1.00  0.00     0.016 C 
HETATM   33  C37 UNL     1       1.363  -2.090  -0.172  1.00  0.00     0.031 C 
HETATM   34  C38 UNL     1       1.485  -0.934   0.815  1.00  0.00    -0.036 C 
HETATM   35  C39 UNL     1       2.470  -0.821   1.711  1.00  0.00     0.057 C 
HETATM   36  C40 UNL     1       3.512  -1.846   1.860  1.00  0.00     0.154 C 
HETATM   37  O6  UNL     1       4.219  -1.787   2.868  1.00  0.00    -0.293 OA
HETATM   38  C41 UNL     1       3.632  -2.979   0.842  1.00  0.00     0.071 C 
HETATM   39  C42 UNL     1       5.132  -3.185   0.514  1.00  0.00     0.045 C 
HETATM   40  C43 UNL     1      -3.411   0.562   1.880  1.00  0.00     0.087 C 
HETATM   41  C44 UNL     1      -3.207   0.893   3.386  1.00  0.00     0.049 C 
HETATM   42  C45 UNL     1      -4.412   1.663   1.274  1.00  0.00     0.181 C 
ENDROOT
BRANCH  25  43
HETATM   43  C25 UNL     1       5.841   2.772  -0.717  1.00  0.00    -0.040 A 
HETATM   44  C26 UNL     1       5.784   3.169  -2.065  1.00  0.00     0.008 A 
HETATM   45  C27 UNL     1       6.463   4.309  -2.502  1.00  0.00     0.001 A 
HETATM   46  C28 UNL     1       7.210   5.064  -1.598  1.00  0.00     0.000 A 
HETATM   47  C29 UNL     1       7.273   4.687  -0.260  1.00  0.00     0.001 A 
HETATM   48  C30 UNL     1       6.598   3.544   0.178  1.00  0.00     0.008 A 
ENDBRANCH  25  43
BRANCH  40  49
HETATM   49  O7  UNL     1      -4.041  -0.720   1.859  1.00  0.00    -0.387 OA
HETATM   50  H54 UNL     1      -4.666  -0.732   1.101  1.00  0.00     0.210 HD
ENDBRANCH  40  49
BRANCH  42  51
HETATM   51  O8  UNL     1      -5.639   1.718   2.030  1.00  0.00    -0.390 OA
HETATM   52  H56 UNL     1      -5.473   1.400   2.936  1.00  0.00     0.210 HD
ENDBRANCH  42  51
BRANCH   7  53
HETATM   53  O3  UNL     1      -4.093   0.529  -3.075  1.00  0.00    -0.381 OA
HETATM   54  H12 UNL     1      -3.214   0.133  -3.198  1.00  0.00     0.211 HD
ENDBRANCH   7  53
BRANCH   3  55
HETATM   55  C4  UNL     1      -6.472   3.438  -0.224  1.00  0.00     0.172 C 
BRANCH  55  56
HETATM   56  O1  UNL     1      -7.475   2.892   0.622  1.00  0.00    -0.400 OA
HETATM   57  H8  UNL     1      -7.008   2.279   1.229  1.00  0.00     0.209 HD
ENDBRANCH  55  56
ENDBRANCH   3  55
TORSDOF 6
