REMARK  13 active torsions:
REMARK  status: ('A' for Active; 'I' for Inactive)
REMARK    1  A    between atoms: C3_3  and  O1_4 
REMARK    2  A    between atoms: N1_14  and  O2_16 
REMARK    3  A    between atoms: O2_16  and  C13_17 
REMARK    4  A    between atoms: C13_17  and  C14_18 
REMARK       I    between atoms: C14_18  and  N2_20 
REMARK    5  A    between atoms: N2_20  and  C15_21 
REMARK    6  A    between atoms: C15_21  and  C16_22 
REMARK    7  A    between atoms: C15_21  and  C21_33 
REMARK       I    between atoms: C16_22  and  N3_24 
REMARK    8  A    between atoms: N3_24  and  C17_25 
REMARK    9  A    between atoms: C17_25  and  C18_26 
REMARK   10  A    between atoms: C17_25  and  C20_30 
REMARK   11  A    between atoms: C18_26  and  C19_27 
REMARK   12  A    between atoms: C19_27  and  O6_29 
REMARK   13  A    between atoms: C20_30  and  O8_32 
ROOT
HETATM    1  C1  UNL     1      -9.477  -1.184   1.541  1.00  0.00     0.015 C 
HETATM    2  C2  UNL     1      -8.357  -1.337   1.947  1.00  0.00    -0.078 C 
HETATM    3  C3  UNL     1      -6.982  -1.539   2.458  1.00  0.00     0.128 C 
HETATM    4  C4  UNL     1      -6.400  -2.834   1.880  1.00  0.00     0.052 C 
HETATM    5  C5  UNL     1      -5.684  -2.432   0.589  1.00  0.00     0.010 C 
HETATM    6  C6  UNL     1      -5.664  -0.885   0.538  1.00  0.00     0.002 C 
HETATM    7  C7  UNL     1      -4.360  -0.346  -0.096  1.00  0.00    -0.004 C 
HETATM    8  C8  UNL     1      -4.569   1.070  -0.690  1.00  0.00     0.010 C 
HETATM    9  C9  UNL     1      -3.314   1.939  -0.723  1.00  0.00     0.035 C 
HETATM   10  C10 UNL     1      -2.104   1.084  -0.952  1.00  0.00    -0.069 C 
HETATM   11  C11 UNL     1      -1.394   1.189  -2.087  1.00  0.00     0.030 C 
HETATM   12  C12 UNL     1      -0.231   0.308  -2.365  1.00  0.00     0.032 C 
HETATM   13  N1  UNL     1       0.490   0.575  -3.417  1.00  0.00    -0.271 N 
ATOM     14  H1  UNL     1       0.291   1.331  -4.072  1.00  0.00     0.194 HD
HETATM   15  C24 UNL     1       0.068  -0.823  -1.399  1.00  0.00     0.060 C 
HETATM   16  C25 UNL     1      -1.136  -1.170  -0.529  1.00  0.00     0.020 C 
HETATM   17  C26 UNL     1      -1.806   0.063   0.143  1.00  0.00    -0.016 C 
HETATM   18  C27 UNL     1      -0.810   0.691   1.142  1.00  0.00     0.020 C 
HETATM   19  C28 UNL     1      -3.134  -0.434   0.854  1.00  0.00     0.002 C 
HETATM   20  C29 UNL     1      -3.473   0.216   2.209  1.00  0.00     0.007 C 
HETATM   21  C30 UNL     1      -4.679  -0.464   2.865  1.00  0.00     0.014 C 
HETATM   22  C31 UNL     1      -5.965  -0.442   1.996  1.00  0.00     0.003 C 
HETATM   23  C32 UNL     1      -6.576   0.972   2.094  1.00  0.00     0.020 C 
ENDROOT
BRANCH   3  24
HETATM   24  O1  UNL     1      -7.043  -1.637   3.875  1.00  0.00    -0.377 OA
HETATM   25  H2  UNL     1      -7.540  -0.862   4.189  1.00  0.00     0.211 HD
ENDBRANCH   3  24
BRANCH  13  26
HETATM   26  O2  UNL     1       1.573  -0.306  -3.537  1.00  0.00    -0.271 OA
BRANCH  26  27
HETATM   27  C13 UNL     1       2.426   0.130  -4.592  1.00  0.00     0.303 C 
BRANCH  27  28
HETATM   28  C14 UNL     1       3.878   0.221  -4.128  1.00  0.00     0.244 C 
HETATM   29  O3  UNL     1       4.789   0.564  -4.880  1.00  0.00    -0.271 OA
HETATM   30  N2  UNL     1       4.087  -0.110  -2.812  1.00  0.00    -0.346 N 
HETATM   31  H16 UNL     1       3.276  -0.328  -2.235  1.00  0.00     0.163 HD
BRANCH  30  32
HETATM   32  C15 UNL     1       5.387  -0.032  -2.156  1.00  0.00     0.180 C 
BRANCH  32  33
HETATM   33  C16 UNL     1       5.107   0.162  -0.649  1.00  0.00     0.241 C 
HETATM   34  O4  UNL     1       4.054  -0.197  -0.120  1.00  0.00    -0.271 OA
HETATM   35  N3  UNL     1       6.120   0.748   0.065  1.00  0.00    -0.344 N 
HETATM   36  H18 UNL     1       6.959   1.078  -0.407  1.00  0.00     0.163 HD
BRANCH  35  37
HETATM   37  C17 UNL     1       6.036   0.977   1.509  1.00  0.00     0.192 C 
BRANCH  37  38
HETATM   38  C18 UNL     1       5.124   2.151   1.867  1.00  0.00     0.146 C 
BRANCH  38  39
HETATM   39  C19 UNL     1       5.683   3.468   1.413  1.00  0.00     0.141 C 
HETATM   40  O5  UNL     1       6.732   3.666   0.826  1.00  0.00    -0.650 OA
BRANCH  39  41
HETATM   41  O6  UNL     1       4.871   4.496   1.730  1.00  0.00    -0.776 OA
HETATM   42  H22 UNL     1       5.325   5.290   1.377  1.00  0.00     0.167 HD
ENDBRANCH  39  41
ENDBRANCH  38  39
ENDBRANCH  37  38
BRANCH  37  43
HETATM   43  C20 UNL     1       7.453   1.131   2.068  1.00  0.00     0.164 C 
HETATM   44  O7  UNL     1       8.490   0.853   1.483  1.00  0.00    -0.648 OA
BRANCH  43  45
HETATM   45  O8  UNL     1       7.487   1.561   3.345  1.00  0.00    -0.775 OA
HETATM   46  H23 UNL     1       8.445   1.608   3.552  1.00  0.00     0.167 HD
ENDBRANCH  43  45
ENDBRANCH  37  43
ENDBRANCH  35  37
ENDBRANCH  32  33
BRANCH  32  47
HETATM   47  C21 UNL     1       6.256  -1.270  -2.476  1.00  0.00     0.009 C 
HETATM   48  C22 UNL     1       7.716  -1.085  -2.058  1.00  0.00     0.012 C 
HETATM   49  C23 UNL     1       5.699  -2.565  -1.874  1.00  0.00     0.012 C 
ENDBRANCH  32  47
ENDBRANCH  30  32
ENDBRANCH  27  28
ENDBRANCH  26  27
ENDBRANCH  13  26
TORSDOF 13
