REMARK  12 active torsions:
REMARK  status: ('A' for Active; 'I' for Inactive)
REMARK    1  A    between atoms: C3_3  and  O1_4 
REMARK    2  A    between atoms: N1_14  and  O2_16 
REMARK    3  A    between atoms: O2_16  and  C13_17 
REMARK    4  A    between atoms: C13_17  and  C14_18 
REMARK       I    between atoms: C14_18  and  N2_20 
REMARK    5  A    between atoms: N2_20  and  C15_21 
REMARK    6  A    between atoms: C15_21  and  C16_22 
REMARK    7  A    between atoms: C15_21  and  C26_36 
REMARK       I    between atoms: C16_22  and  N3_24 
REMARK    8  A    between atoms: N3_24  and  C17_25 
REMARK    9  A    between atoms: C17_25  and  C18_26 
REMARK   10  A    between atoms: C17_25  and  C25_33 
REMARK   11  A    between atoms: C18_26  and  C19_27 
REMARK   12  A    between atoms: C25_33  and  O6_35 
ROOT
HETATM    1  C1  UNL     1     -10.534  -2.730  -0.435  1.00  0.00     0.015 C 
HETATM    2  C2  UNL     1      -9.919  -1.698  -0.516  1.00  0.00    -0.078 C 
HETATM    3  C3  UNL     1      -9.200  -0.408  -0.630  1.00  0.00     0.128 C 
HETATM    4  C4  UNL     1      -9.368   0.394   0.657  1.00  0.00     0.052 C 
HETATM    5  C5  UNL     1      -8.317  -0.201   1.581  1.00  0.00     0.010 C 
HETATM    6  C6  UNL     1      -7.067  -0.417   0.693  1.00  0.00     0.002 C 
HETATM    7  C7  UNL     1      -6.053   0.745   0.890  1.00  0.00    -0.004 C 
HETATM    8  C8  UNL     1      -5.427   0.809   2.300  1.00  0.00     0.010 C 
HETATM    9  C9  UNL     1      -4.221  -0.091   2.485  1.00  0.00     0.035 C 
HETATM   10  C10 UNL     1      -3.168   0.224   1.458  1.00  0.00    -0.069 C 
HETATM   11  C11 UNL     1      -1.933   0.592   1.840  1.00  0.00     0.030 C 
HETATM   12  C12 UNL     1      -0.848   0.827   0.852  1.00  0.00     0.032 C 
HETATM   13  N1  UNL     1       0.254   1.374   1.282  1.00  0.00    -0.271 N 
ATOM     14  H1  UNL     1       0.411   1.659   2.249  1.00  0.00     0.194 HD
HETATM   15  C29 UNL     1      -1.108   0.383  -0.572  1.00  0.00     0.060 C 
HETATM   16  C30 UNL     1      -2.546   0.717  -0.951  1.00  0.00     0.020 C 
HETATM   17  C31 UNL     1      -3.610   0.090   0.003  1.00  0.00    -0.016 C 
HETATM   18  C32 UNL     1      -3.712  -1.422  -0.302  1.00  0.00     0.020 C 
HETATM   19  C33 UNL     1      -4.968   0.873  -0.218  1.00  0.00     0.002 C 
HETATM   20  C34 UNL     1      -5.552   0.713  -1.639  1.00  0.00     0.007 C 
HETATM   21  C35 UNL     1      -7.076   0.616  -1.668  1.00  0.00     0.014 C 
HETATM   22  C36 UNL     1      -7.633  -0.530  -0.774  1.00  0.00     0.003 C 
HETATM   23  C37 UNL     1      -7.236  -1.882  -1.406  1.00  0.00     0.020 C 
ENDROOT
BRANCH   3  24
HETATM   24  O1  UNL     1      -9.776   0.312  -1.713  1.00  0.00    -0.377 OA
HETATM   25  H2  UNL     1     -10.743   0.233  -1.624  1.00  0.00     0.211 HD
ENDBRANCH   3  24
BRANCH  13  26
HETATM   26  O2  UNL     1       1.198   1.524   0.256  1.00  0.00    -0.271 OA
BRANCH  26  27
HETATM   27  C13 UNL     1       2.007   2.668   0.519  1.00  0.00     0.303 C 
BRANCH  27  28
HETATM   28  C14 UNL     1       3.481   2.300   0.619  1.00  0.00     0.244 C 
HETATM   29  O3  UNL     1       4.369   3.020   0.167  1.00  0.00    -0.271 OA
HETATM   30  N2  UNL     1       3.733   1.138   1.320  1.00  0.00    -0.346 N 
HETATM   31  H16 UNL     1       2.958   0.476   1.329  1.00  0.00     0.163 HD
BRANCH  30  32
HETATM   32  C15 UNL     1       5.081   0.573   1.361  1.00  0.00     0.180 C 
BRANCH  32  33
HETATM   33  C16 UNL     1       5.232  -0.370   0.147  1.00  0.00     0.241 C 
HETATM   34  O4  UNL     1       4.307  -1.066  -0.278  1.00  0.00    -0.271 OA
HETATM   35  N3  UNL     1       6.482  -0.368  -0.428  1.00  0.00    -0.345 N 
HETATM   36  H18 UNL     1       7.260   0.018   0.097  1.00  0.00     0.163 HD
BRANCH  35  37
HETATM   37  C17 UNL     1       6.825  -1.246  -1.549  1.00  0.00     0.186 C 
BRANCH  37  38
HETATM   38  C18 UNL     1       7.585  -0.490  -2.654  1.00  0.00     0.074 C 
BRANCH  38  39
HETATM   39  C19 UNL     1       8.832   0.225  -2.182  1.00  0.00    -0.056 A 
HETATM   40  C20 UNL     1       8.763   1.567  -1.775  1.00  0.00     0.007 A 
HETATM   41  C21 UNL     1       9.906   2.229  -1.321  1.00  0.00     0.001 A 
HETATM   42  C22 UNL     1      11.127   1.557  -1.266  1.00  0.00     0.000 A 
HETATM   43  C23 UNL     1      11.206   0.224  -1.670  1.00  0.00     0.001 A 
HETATM   44  C24 UNL     1      10.065  -0.440  -2.127  1.00  0.00     0.007 A 
ENDBRANCH  38  39
ENDBRANCH  37  38
BRANCH  37  45
HETATM   45  C25 UNL     1       7.601  -2.492  -1.113  1.00  0.00     0.163 C 
HETATM   46  O5  UNL     1       8.009  -3.377  -1.850  1.00  0.00    -0.648 OA
BRANCH  45  47
HETATM   47  O6  UNL     1       7.846  -2.566   0.212  1.00  0.00    -0.775 OA
HETATM   48  H27 UNL     1       8.322  -3.415   0.313  1.00  0.00     0.167 HD
ENDBRANCH  45  47
ENDBRANCH  37  45
ENDBRANCH  35  37
ENDBRANCH  32  33
BRANCH  32  49
HETATM   49  C26 UNL     1       5.351  -0.111   2.722  1.00  0.00     0.009 C 
HETATM   50  C27 UNL     1       4.613  -1.441   2.908  1.00  0.00     0.012 C 
HETATM   51  C28 UNL     1       6.849  -0.304   2.973  1.00  0.00     0.012 C 
ENDBRANCH  32  49
ENDBRANCH  30  32
ENDBRANCH  27  28
ENDBRANCH  26  27
ENDBRANCH  13  26
TORSDOF 12
