REMARK  9 active torsions:
REMARK  status: ('A' for Active; 'I' for Inactive)
REMARK    1  A    between atoms: C3_3  and  C4_4 
REMARK    2  A    between atoms: C3_3  and  C27_30 
REMARK    3  A    between atoms: C4_4  and  C5_5 
REMARK    4  A    between atoms: C5_5  and  C6_6 
REMARK    5  A    between atoms: C6_6  and  C8_8 
REMARK    6  A    between atoms: C15_15  and  O1_16 
REMARK    7  A    between atoms: C18_19  and  C19_20 
REMARK    8  A    between atoms: C19_20  and  O2_21 
REMARK    9  A    between atoms: C22_24  and  O3_25 
ROOT
HETATM    1  C8  UNL     1       1.519  -1.293  -1.582  1.00  0.00     0.001 C 
HETATM    2  C9  UNL     1       1.148  -2.797  -1.517  1.00  0.00     0.006 C 
HETATM    3  C10 UNL     1      -0.354  -2.865  -1.197  1.00  0.00     0.010 C 
HETATM    4  C11 UNL     1      -0.846  -1.428  -1.365  1.00  0.00     0.026 C 
HETATM    5  C12 UNL     1      -2.185  -0.990  -0.814  1.00  0.00    -0.072 C 
HETATM    6  C13 UNL     1      -2.416   0.324  -0.559  1.00  0.00    -0.064 C 
HETATM    7  C14 UNL     1      -1.302   1.367  -0.736  1.00  0.00     0.068 C 
HETATM    8  C15 UNL     1       0.048   0.857  -1.299  1.00  0.00     0.131 C 
HETATM    9  C16 UNL     1       0.345  -0.584  -0.837  1.00  0.00    -0.006 C 
HETATM   10  C17 UNL     1       0.506  -0.655   0.702  1.00  0.00     0.019 C 
HETATM   11  C18 UNL     1      -3.786   0.819  -0.002  1.00  0.00     0.009 C 
HETATM   12  C20 UNL     1      -4.229   2.198  -0.598  1.00  0.00     0.019 C 
HETATM   13  C21 UNL     1      -5.693   2.299  -1.057  1.00  0.00     0.033 C 
HETATM   14  C22 UNL     1      -6.689   1.585  -0.153  1.00  0.00     0.118 C 
HETATM   15  C23 UNL     1      -6.298   0.134   0.144  1.00  0.00     0.037 C 
HETATM   16  C24 UNL     1      -4.892  -0.225  -0.367  1.00  0.00     0.003 C 
HETATM   17  C25 UNL     1      -4.505  -1.641   0.056  1.00  0.00     0.010 C 
HETATM   18  C26 UNL     1      -3.219  -2.077  -0.639  1.00  0.00     0.035 C 
ENDROOT
BRANCH   1  19
HETATM   19  C6  UNL     1       2.983  -0.931  -1.190  1.00  0.00    -0.013 C 
HETATM   20  C7  UNL     1       3.884  -1.096  -2.426  1.00  0.00     0.010 C 
BRANCH  19  21
HETATM   21  C5  UNL     1       3.572  -1.747  -0.015  1.00  0.00     0.009 C 
BRANCH  21  22
HETATM   22  C4  UNL     1       4.871  -1.202   0.608  1.00  0.00     0.034 C 
BRANCH  22  23
HETATM   23  C3  UNL     1       4.750   0.157   1.280  1.00  0.00    -0.081 C 
HETATM   24  C2  UNL     1       4.336   0.297   2.557  1.00  0.00    -0.028 C 
HETATM   25  C1  UNL     1       3.903  -0.798   3.481  1.00  0.00     0.036 C 
BRANCH  23  26
HETATM   26  C27 UNL     1       5.228   1.343   0.439  1.00  0.00     0.006 C 
HETATM   27  C28 UNL     1       4.474   2.653   0.691  1.00  0.00     0.014 C 
HETATM   28  C29 UNL     1       6.733   1.561   0.627  1.00  0.00     0.014 C 
ENDBRANCH  23  26
ENDBRANCH  22  23
ENDBRANCH  21  22
ENDBRANCH  19  21
ENDBRANCH   1  19
BRANCH   8  29
HETATM   29  O1  UNL     1       1.089   1.768  -0.958  1.00  0.00    -0.394 OA
HETATM   30  H22 UNL     1       1.183   1.787   0.009  1.00  0.00     0.210 HD
ENDBRANCH   8  29
BRANCH  11  31
HETATM   31  C19 UNL     1      -3.556   0.963   1.541  1.00  0.00     0.178 C 
BRANCH  31  32
HETATM   32  O2  UNL     1      -4.687   1.461   2.244  1.00  0.00    -0.400 OA
HETATM   33  H28 UNL     1      -4.457   1.434   3.192  1.00  0.00     0.209 HD
ENDBRANCH  31  32
ENDBRANCH  11  31
BRANCH  14  34
HETATM   34  O3  UNL     1      -6.842   2.320   1.057  1.00  0.00    -0.396 OA
HETATM   35  H34 UNL     1      -6.045   2.134   1.601  1.00  0.00     0.210 HD
ENDBRANCH  14  34
TORSDOF 9
