REMARK  12 active torsions:
REMARK  status: ('A' for Active; 'I' for Inactive)
REMARK    1  A    between atoms: C2_2  and  C3_3 
REMARK    2  A    between atoms: C2_2  and  C32_39 
REMARK    3  A    between atoms: C3_3  and  C4_5 
REMARK    4  A    between atoms: C4_5  and  O2_6 
REMARK    5  A    between atoms: C4_5  and  C7_10 
REMARK    6  A    between atoms: O2_6  and  C5_7 
REMARK    7  A    between atoms: C7_10  and  C9_12 
REMARK    8  A    between atoms: C10_13  and  O4_14 
REMARK    9  A    between atoms: O4_14  and  C11_15 
REMARK   10  A    between atoms: C24_30  and  O7_31 
REMARK   11  A    between atoms: C32_39  and  C34_41 
REMARK   12  A    between atoms: C34_41  and  O8_42 
ROOT
HETATM    1  C9  UNL     1       0.634   0.366  -0.594  1.00  0.00     0.031 C 
HETATM    2  C10 UNL     1       0.453   1.687   0.218  1.00  0.00     0.138 C 
HETATM    3  C13 UNL     1      -0.763   2.416  -0.370  1.00  0.00     0.043 C 
HETATM    4  C14 UNL     1      -1.452   1.436  -1.343  1.00  0.00    -0.030 C 
HETATM    5  C15 UNL     1      -2.130   2.279  -2.447  1.00  0.00     0.016 C 
HETATM    6  C16 UNL     1      -2.490   0.546  -0.500  1.00  0.00     0.004 C 
HETATM    7  C17 UNL     1      -4.012   0.822  -0.863  1.00  0.00     0.007 C 
HETATM    8  C18 UNL     1      -5.087  -0.229  -0.438  1.00  0.00     0.007 C 
HETATM    9  C19 UNL     1      -4.575  -1.698  -0.349  1.00  0.00     0.008 C 
HETATM   10  C20 UNL     1      -5.532  -2.686   0.337  1.00  0.00     0.056 C 
HETATM   11  C21 UNL     1      -6.939  -2.659  -0.256  1.00  0.00     0.018 C 
HETATM   12  C22 UNL     1      -5.551  -2.478   1.846  1.00  0.00     0.133 C 
HETATM   13  O6  UNL     1      -6.591  -2.476   2.506  1.00  0.00    -0.297 OA
HETATM   14  C23 UNL     1      -4.207  -2.420   2.531  1.00  0.00     0.111 C 
HETATM   15  C24 UNL     1      -3.338  -1.365   1.862  1.00  0.00     0.134 C 
HETATM   16  C25 UNL     1      -3.236  -1.633   0.341  1.00  0.00    -0.001 A 
HETATM   17  C26 UNL     1      -1.885  -2.181   0.046  1.00  0.00     0.024 A 
HETATM   18  C27 UNL     1      -2.283  -0.939  -0.712  1.00  0.00    -0.025 A 
HETATM   19  C28 UNL     1      -2.113  -1.207  -2.192  1.00  0.00     0.011 C 
HETATM   20  C29 UNL     1      -0.736  -0.693  -2.626  1.00  0.00     0.011 C 
HETATM   21  C30 UNL     1      -0.224   0.598  -1.905  1.00  0.00    -0.030 C 
HETATM   22  C31 UNL     1       0.637   1.382  -2.930  1.00  0.00     0.016 C 
ENDROOT
BRANCH   1  23
HETATM   23  C7  UNL     1       2.128  -0.121  -0.694  1.00  0.00     0.026 C 
HETATM   24  C8  UNL     1       2.239  -1.464  -1.434  1.00  0.00     0.013 C 
BRANCH  23  25
HETATM   25  C4  UNL     1       2.787  -0.241   0.716  1.00  0.00     0.210 C 
BRANCH  25  26
HETATM   26  C3  UNL     1       4.242  -0.772   0.662  1.00  0.00     0.184 C 
HETATM   27  O1  UNL     1       4.573  -1.844   1.174  1.00  0.00    -0.290 OA
BRANCH  26  28
HETATM   28  C2  UNL     1       5.281   0.039  -0.058  1.00  0.00    -0.013 C 
HETATM   29  C1  UNL     1       6.010  -0.639  -0.962  1.00  0.00     0.023 C 
BRANCH  28  30
HETATM   30  C32 UNL     1       5.440   1.496   0.326  1.00  0.00     0.041 C 
HETATM   31  C33 UNL     1       6.262   2.324  -0.671  1.00  0.00     0.017 C 
BRANCH  30  32
HETATM   32  C34 UNL     1       6.021   1.632   1.747  1.00  0.00     0.173 C 
BRANCH  32  33
HETATM   33  O8  UNL     1       7.365   1.167   1.807  1.00  0.00    -0.400 OA
HETATM   34  H50 UNL     1       7.333   0.192   1.795  1.00  0.00     0.209 HD
ENDBRANCH  32  33
ENDBRANCH  30  32
ENDBRANCH  28  30
ENDBRANCH  26  28
ENDBRANCH  25  26
BRANCH  25  35
HETATM   35  O2  UNL     1       1.980  -1.106   1.535  1.00  0.00    -0.308 OA
BRANCH  35  36
HETATM   36  C5  UNL     1       2.207  -0.981   2.874  1.00  0.00     0.255 C 
HETATM   37  C6  UNL     1       1.389  -1.982   3.629  1.00  0.00     0.126 C 
HETATM   38  O3  UNL     1       2.947  -0.155   3.390  1.00  0.00    -0.266 OA
ENDBRANCH  35  36
ENDBRANCH  25  35
ENDBRANCH  23  25
ENDBRANCH   1  23
BRANCH   2  39
HETATM   39  O4  UNL     1       1.596   2.556   0.098  1.00  0.00    -0.316 OA
BRANCH  39  40
HETATM   40  C11 UNL     1       1.633   3.575   1.008  1.00  0.00     0.255 C 
HETATM   41  C12 UNL     1       2.731   4.540   0.680  1.00  0.00     0.126 C 
HETATM   42  O5  UNL     1       0.851   3.725   1.936  1.00  0.00    -0.266 OA
ENDBRANCH  39  40
ENDBRANCH   2  39
BRANCH  15  43
HETATM   43  O7  UNL     1      -3.849  -0.068   2.143  1.00  0.00    -0.394 OA
HETATM   44  H34 UNL     1      -3.863   0.052   3.109  1.00  0.00     0.210 HD
ENDBRANCH  15  43
TORSDOF 12
