REMARK  10 active torsions:
REMARK  status: ('A' for Active; 'I' for Inactive)
REMARK    1  A    between atoms: C15_16  and  C16_17 
REMARK    2  A    between atoms: C16_17  and  O2_18 
REMARK    3  A    between atoms: C29_32  and  C30_33 
REMARK    4  A    between atoms: C30_33  and  O5_35 
REMARK    5  A    between atoms: O5_35  and  C31_36 
REMARK    6  A    between atoms: C32_38  and  C33_39 
REMARK    7  A    between atoms: C33_39  and  O7_40 
REMARK    8  A    between atoms: C34_41  and  O8_42 
REMARK    9  A    between atoms: C35_43  and  O9_44 
REMARK   10  A    between atoms: C36_45  and  O10_46 
ROOT
HETATM    1  C1  UNL     1       2.963  -5.600   1.685  1.00  0.00     0.043 C 
HETATM    2  C2  UNL     1       2.947  -4.201   1.125  1.00  0.00    -0.081 C 
HETATM    3  C3  UNL     1       1.841  -3.571   0.657  1.00  0.00    -0.072 C 
HETATM    4  C4  UNL     1       0.495  -4.258   0.619  1.00  0.00     0.044 C 
HETATM    5  C5  UNL     1       1.998  -2.178  -0.011  1.00  0.00     0.062 C 
HETATM    6  C6  UNL     1       0.664  -1.464  -0.321  1.00  0.00    -0.065 C 
HETATM    7  C7  UNL     1      -0.038  -1.853  -1.407  1.00  0.00    -0.022 C 
HETATM    8  C8  UNL     1      -1.393  -1.351  -1.813  1.00  0.00     0.033 C 
HETATM    9  C9  UNL     1      -2.078  -0.504  -0.718  1.00  0.00     0.007 C 
HETATM   10  C10 UNL     1      -3.534   0.031  -1.093  1.00  0.00    -0.035 C 
HETATM   11  C11 UNL     1      -3.547   0.845  -2.411  1.00  0.00     0.016 C 
HETATM   12  C12 UNL     1      -4.477  -1.200  -1.303  1.00  0.00     0.012 C 
HETATM   13  C13 UNL     1      -5.975  -0.869  -1.289  1.00  0.00     0.034 C 
HETATM   14  C14 UNL     1      -6.361  -0.110  -0.023  1.00  0.00     0.135 C 
HETATM   15  O1  UNL     1      -7.761   0.145   0.011  1.00  0.00    -0.353 OA
HETATM   16  C15 UNL     1      -8.131   0.660   1.294  1.00  0.00     0.283 C 
HETATM   17  O3  UNL     1      -7.466   1.896   1.574  1.00  0.00    -0.358 OA
HETATM   18  C17 UNL     1      -6.041   1.761   1.527  1.00  0.00     0.183 C 
HETATM   19  C18 UNL     1      -5.575   1.210   0.152  1.00  0.00     0.008 C 
HETATM   20  C19 UNL     1      -5.964   2.271  -0.904  1.00  0.00     0.020 C 
HETATM   21  C20 UNL     1      -4.052   0.847   0.154  1.00  0.00     0.007 C 
HETATM   22  C21 UNL     1      -3.100   2.008   0.486  1.00  0.00     0.007 C 
HETATM   23  C22 UNL     1      -1.744   1.454   0.927  1.00  0.00     0.011 C 
HETATM   24  C23 UNL     1      -1.044   0.527  -0.112  1.00  0.00    -0.028 C 
HETATM   25  C24 UNL     1      -0.471   1.453  -1.229  1.00  0.00     0.016 C 
HETATM   26  C25 UNL     1       0.172  -0.325   0.588  1.00  0.00    -0.012 C 
HETATM   27  C26 UNL     1      -0.287  -0.963   1.933  1.00  0.00     0.021 C 
HETATM   28  C27 UNL     1       1.376   0.608   0.883  1.00  0.00     0.016 C 
HETATM   29  C28 UNL     1       2.575  -0.109   1.490  1.00  0.00     0.022 C 
HETATM   30  C29 UNL     1       3.122  -1.260   0.611  1.00  0.00     0.059 C 
HETATM   31  C37 UNL     1       4.108  -2.066   1.511  1.00  0.00     0.025 C 
HETATM   32  C38 UNL     1       4.282  -3.508   1.068  1.00  0.00     0.035 C 
ENDROOT
BRANCH  30  33
HETATM   33  C30 UNL     1       3.882  -0.590  -0.558  1.00  0.00     0.271 C 
HETATM   34  O4  UNL     1       3.399  -0.323  -1.651  1.00  0.00    -0.264 OA
BRANCH  33  35
HETATM   35  O5  UNL     1       5.140  -0.213  -0.195  1.00  0.00    -0.286 OA
BRANCH  35  36
HETATM   36  C31 UNL     1       5.893   0.474  -1.203  1.00  0.00     0.301 C 
HETATM   37  O6  UNL     1       7.277   0.515  -0.834  1.00  0.00    -0.348 OA
HETATM   38  C32 UNL     1       7.627   1.421   0.214  1.00  0.00     0.179 C 
HETATM   39  C34 UNL     1       7.030   2.829   0.037  1.00  0.00     0.180 C 
HETATM   40  C35 UNL     1       6.342   2.979  -1.325  1.00  0.00     0.183 C 
HETATM   41  C36 UNL     1       5.298   1.874  -1.498  1.00  0.00     0.205 C 
BRANCH  38  42
HETATM   42  C33 UNL     1       7.351   0.837   1.612  1.00  0.00     0.198 C 
BRANCH  42  43
HETATM   43  O7  UNL     1       7.798   1.674   2.669  1.00  0.00    -0.398 OA
HETATM   44  H48 UNL     1       8.552   2.208   2.359  1.00  0.00     0.209 HD
ENDBRANCH  42  43
ENDBRANCH  38  42
BRANCH  39  45
HETATM   45  O8  UNL     1       8.075   3.806   0.197  1.00  0.00    -0.390 OA
HETATM   46  H50 UNL     1       8.626   3.795  -0.605  1.00  0.00     0.210 HD
ENDBRANCH  39  45
BRANCH  40  47
HETATM   47  O9  UNL     1       5.681   4.253  -1.369  1.00  0.00    -0.390 OA
HETATM   48  H52 UNL     1       6.021   4.728  -2.146  1.00  0.00     0.210 HD
ENDBRANCH  40  47
BRANCH  41  49
HETATM   49  O10 UNL     1       4.781   1.914  -2.842  1.00  0.00    -0.388 OA
HETATM   50  H54 UNL     1       3.997   1.319  -2.845  1.00  0.00     0.210 HD
ENDBRANCH  41  49
ENDBRANCH  35  36
ENDBRANCH  33  35
ENDBRANCH  30  33
BRANCH  16  51
HETATM   51  C16 UNL     1      -9.648   0.929   1.313  1.00  0.00     0.224 C 
BRANCH  51  52
HETATM   52  O2  UNL     1     -10.007   1.996   0.425  1.00  0.00    -0.396 OA
HETATM   53  H23 UNL     1      -9.244   2.609   0.440  1.00  0.00     0.209 HD
ENDBRANCH  51  52
ENDBRANCH  16  51
TORSDOF 10
