REMARK  7 active torsions:
REMARK  status: ('A' for Active; 'I' for Inactive)
REMARK    1  A    between atoms: C3_3  and  C5_5 
REMARK    2  A    between atoms: C6_6  and  C7_7 
REMARK    3  A    between atoms: C8_8  and  C9_9 
REMARK    4  A    between atoms: C10_10  and  C12_12 
REMARK    5  A    between atoms: C12_12  and  C13_14 
REMARK    6  A    between atoms: C13_14  and  C15_16 
REMARK    7  A    between atoms: C15_16  and  O2_17 
ROOT
HETATM    1  C5  UNL     1      -2.022   0.889  -1.279  1.00  0.00     0.058 C 
HETATM    2  C6  UNL     1      -1.331  -0.523  -1.287  1.00  0.00     0.024 C 
HETATM    3  C16 UNL     1      -1.898  -1.487  -0.176  1.00  0.00     0.003 C 
HETATM    4  C17 UNL     1      -2.541  -2.736  -0.809  1.00  0.00     0.041 C 
HETATM    5  C18 UNL     1      -3.117  -3.656   0.224  1.00  0.00     0.157 A 
HETATM    6  O3  UNL     1      -4.460  -3.321   0.612  1.00  0.00    -0.370 OA
HETATM    7  C19 UNL     1      -3.455  -3.170   1.620  1.00  0.00     0.084 A 
HETATM    8  C20 UNL     1      -3.574  -4.163   2.732  1.00  0.00     0.049 C 
HETATM    9  C21 UNL     1      -3.156  -1.746   2.004  1.00  0.00     0.048 C 
HETATM   10  C22 UNL     1      -2.914  -0.831   0.792  1.00  0.00     0.025 C 
HETATM   11  C23 UNL     1      -2.441   0.534   1.216  1.00  0.00     0.162 A 
HETATM   12  O4  UNL     1      -3.273   1.603   0.758  1.00  0.00    -0.368 OA
HETATM   13  C24 UNL     1      -1.982   1.479   0.127  1.00  0.00     0.092 A 
HETATM   14  C25 UNL     1      -1.070   2.613   0.465  1.00  0.00     0.049 C 
ENDROOT
BRANCH   2  15
HETATM   15  C7  UNL     1       0.193  -0.518  -1.269  1.00  0.00    -0.021 C 
HETATM   16  C8  UNL     1       0.979  -0.374  -0.188  1.00  0.00    -0.003 C 
BRANCH  16  17
HETATM   17  C9  UNL     1       2.422  -0.470  -0.248  1.00  0.00     0.010 C 
HETATM   18  C10 UNL     1       3.264  -0.391   0.799  1.00  0.00    -0.016 C 
HETATM   19  C11 UNL     1       2.920  -0.222   2.245  1.00  0.00     0.052 C 
BRANCH  18  20
HETATM   20  C12 UNL     1       4.708  -0.605   0.459  1.00  0.00     0.161 C 
HETATM   21  O1  UNL     1       5.031  -1.639  -0.130  1.00  0.00    -0.292 OA
BRANCH  20  22
HETATM   22  C13 UNL     1       5.757   0.438   0.842  1.00  0.00     0.080 C 
HETATM   23  C14 UNL     1       6.176   0.269   2.299  1.00  0.00     0.020 C 
BRANCH  22  24
HETATM   24  C15 UNL     1       5.321   1.871   0.535  1.00  0.00     0.176 C 
BRANCH  24  25
HETATM   25  O2  UNL     1       5.390   2.138  -0.864  1.00  0.00    -0.400 OA
HETATM   26  H22 UNL     1       4.797   1.525  -1.333  1.00  0.00     0.209 HD
ENDBRANCH  24  25
ENDBRANCH  22  24
ENDBRANCH  20  22
ENDBRANCH  18  20
ENDBRANCH  16  17
ENDBRANCH   2  15
BRANCH   1  27
HETATM   27  C3  UNL     1      -1.714   1.845  -2.445  1.00  0.00    -0.080 C 
HETATM   28  C2  UNL     1      -2.741   2.411  -3.116  1.00  0.00    -0.028 C 
HETATM   29  C1  UNL     1      -2.678   3.338  -4.289  1.00  0.00     0.036 C 
HETATM   30  C4  UNL     1      -0.279   2.144  -2.785  1.00  0.00     0.043 C 
ENDBRANCH   1  27
TORSDOF 7
