REMARK  10 active torsions:
REMARK  status: ('A' for Active; 'I' for Inactive)
REMARK    1  A    between atoms: C2_2  and  C3_3 
REMARK    2  A    between atoms: C5_5  and  C6_6 
REMARK    3  A    between atoms: C6_6  and  C7_7 
REMARK    4  A    between atoms: C13_13  and  C15_15 
REMARK    5  A    between atoms: C15_15  and  O1_16 
REMARK    6  A    between atoms: O1_16  and  C16_17 
REMARK    7  A    between atoms: C17_19  and  C18_20 
REMARK    8  A    between atoms: C18_20  and  O3_21 
REMARK    9  A    between atoms: C19_22  and  O4_23 
REMARK   10  A    between atoms: C20_24  and  O5_25 
ROOT
HETATM    1  C7  UNL     1      -3.011   1.050  -0.550  1.00  0.00     0.025 C 
HETATM    2  C8  UNL     1      -3.280  -0.285  -1.217  1.00  0.00    -0.084 C 
HETATM    3  C9  UNL     1      -4.210  -0.451  -2.171  1.00  0.00     0.015 C 
HETATM    4  C10 UNL     1      -2.409  -1.403  -0.737  1.00  0.00     0.034 C 
HETATM    5  C11 UNL     1      -0.941  -1.049  -0.927  1.00  0.00     0.010 C 
HETATM    6  C12 UNL     1      -0.494   0.330  -0.339  1.00  0.00     0.005 C 
HETATM    7  C13 UNL     1       1.033   0.612  -0.701  1.00  0.00    -0.018 C 
HETATM    8  C14 UNL     1       1.638   1.704   0.217  1.00  0.00     0.018 C 
HETATM    9  C21 UNL     1       1.164   1.042  -2.185  1.00  0.00     0.012 C 
HETATM   10  C22 UNL     1       0.190   2.132  -2.621  1.00  0.00     0.002 C 
HETATM   11  C23 UNL     1      -1.263   1.811  -2.270  1.00  0.00     0.010 C 
HETATM   12  C24 UNL     1      -1.496   1.484  -0.765  1.00  0.00    -0.032 C 
HETATM   13  C25 UNL     1      -1.295   2.790   0.048  1.00  0.00     0.016 C 
ENDROOT
BRANCH   7  14
HETATM   14  C15 UNL     1       1.913  -0.663  -0.481  1.00  0.00     0.180 C 
BRANCH  14  15
HETATM   15  O1  UNL     1       3.285  -0.405  -0.807  1.00  0.00    -0.358 OA
BRANCH  15  16
HETATM   16  C16 UNL     1       4.126  -1.497  -0.436  1.00  0.00     0.291 C 
HETATM   17  O2  UNL     1       4.316  -1.519   0.984  1.00  0.00    -0.348 OA
HETATM   18  C17 UNL     1       5.374  -0.570   1.298  1.00  0.00     0.179 C 
HETATM   19  C19 UNL     1       6.066  -0.220  -0.030  1.00  0.00     0.182 C 
HETATM   20  C20 UNL     1       5.537  -1.282  -0.987  1.00  0.00     0.204 C 
BRANCH  18  21
HETATM   21  C18 UNL     1       6.338  -1.209   2.302  1.00  0.00     0.198 C 
BRANCH  21  22
HETATM   22  O3  UNL     1       5.697  -1.367   3.567  1.00  0.00    -0.398 OA
HETATM   23  H27 UNL     1       6.346  -1.766   4.171  1.00  0.00     0.209 HD
ENDBRANCH  21  22
ENDBRANCH  18  21
BRANCH  19  24
HETATM   24  O4  UNL     1       5.671   1.089  -0.461  1.00  0.00    -0.390 OA
HETATM   25  H29 UNL     1       4.712   1.053  -0.657  1.00  0.00     0.210 HD
ENDBRANCH  19  24
BRANCH  20  26
HETATM   26  O5  UNL     1       6.327  -2.475  -0.891  1.00  0.00    -0.388 OA
HETATM   27  H31 UNL     1       6.008  -2.983  -0.121  1.00  0.00     0.210 HD
ENDBRANCH  20  26
ENDBRANCH  15  16
ENDBRANCH  14  15
ENDBRANCH   7  14
BRANCH   1  28
HETATM   28  C6  UNL     1      -3.454   1.023   0.949  1.00  0.00     0.037 C 
BRANCH  28  29
HETATM   29  C5  UNL     1      -4.903   0.635   1.141  1.00  0.00    -0.019 C 
HETATM   30  C3  UNL     1      -5.438  -0.354   1.888  1.00  0.00    -0.067 C 
HETATM   31  C4  UNL     1      -6.937  -0.541   1.886  1.00  0.00     0.048 C 
BRANCH  30  32
HETATM   32  C2  UNL     1      -4.642  -1.261   2.706  1.00  0.00    -0.004 C 
HETATM   33  C1  UNL     1      -5.104  -2.295   3.422  1.00  0.00     0.012 C 
ENDBRANCH  30  32
ENDBRANCH  28  29
ENDBRANCH   1  28
TORSDOF 10
