REMARK  4 active torsions:
REMARK  status: ('A' for Active; 'I' for Inactive)
REMARK    1  A    between atoms: C2_2  and  C4_4 
REMARK    2  A    between atoms: C4_4  and  C5_5 
REMARK    3  A    between atoms: C5_5  and  O1_6 
REMARK    4  A    between atoms: C8_9  and  C9_10 
ROOT
HETATM    1  C9  UNL     1       1.066  -0.576   0.052  1.00  0.00     0.001 C 
HETATM    2  C10 UNL     1       1.066  -1.352  -1.278  1.00  0.00     0.007 C 
HETATM    3  C11 UNL     1      -0.007  -2.439  -1.150  1.00  0.00     0.011 C 
HETATM    4  C12 UNL     1      -0.815  -2.119   0.130  1.00  0.00    -0.032 C 
HETATM    5  C13 UNL     1      -1.389  -3.441   0.703  1.00  0.00     0.016 C 
HETATM    6  C14 UNL     1      -2.059  -1.181  -0.157  1.00  0.00     0.004 C 
HETATM    7  C15 UNL     1      -2.015  -0.185  -1.335  1.00  0.00     0.007 C 
HETATM    8  C16 UNL     1      -3.402   0.424  -1.639  1.00  0.00     0.007 C 
HETATM    9  C17 UNL     1      -4.473   0.234  -0.530  1.00  0.00     0.010 C 
HETATM   10  C18 UNL     1      -5.742   1.116  -0.728  1.00  0.00     0.018 C 
HETATM   11  C19 UNL     1      -6.886   0.653   0.194  1.00  0.00     0.023 C 
HETATM   12  C20 UNL     1      -6.261   1.031  -2.177  1.00  0.00     0.023 C 
HETATM   13  C21 UNL     1      -5.426   2.580  -0.403  1.00  0.00     0.135 C 
HETATM   14  O2  UNL     1      -6.086   3.507  -0.873  1.00  0.00    -0.297 OA
HETATM   15  C22 UNL     1      -4.254   2.875   0.500  1.00  0.00     0.080 C 
HETATM   16  C23 UNL     1      -4.048   1.764   1.512  1.00  0.00     0.018 C 
HETATM   17  C24 UNL     1      -3.824   0.411   0.854  1.00  0.00    -0.026 A 
HETATM   18  C25 UNL     1      -3.788  -0.793   1.777  1.00  0.00     0.021 A 
HETATM   19  C26 UNL     1      -2.519  -0.385   1.073  1.00  0.00    -0.027 A 
HETATM   20  C27 UNL     1      -1.409   0.255   1.874  1.00  0.00     0.011 C 
HETATM   21  C28 UNL     1      -0.322  -0.736   2.244  1.00  0.00     0.011 C 
HETATM   22  C29 UNL     1       0.296  -1.495   1.055  1.00  0.00    -0.032 C 
HETATM   23  C30 UNL     1       1.229  -2.564   1.678  1.00  0.00     0.016 C 
ENDROOT
BRANCH   1  24
HETATM   24  C8  UNL     1       2.432   0.035   0.474  1.00  0.00     0.014 C 
HETATM   25  C7  UNL     1       2.688   1.321  -0.339  1.00  0.00     0.010 C 
HETATM   26  C6  UNL     1       4.135   1.775  -0.191  1.00  0.00     0.041 C 
HETATM   27  C4  UNL     1       5.142   0.695  -0.670  1.00  0.00     0.085 C 
HETATM   28  O3  UNL     1       4.493  -0.600  -0.716  1.00  0.00    -0.377 OA
HETATM   29  C31 UNL     1       3.658  -0.891   0.403  1.00  0.00     0.174 C 
BRANCH  27  30
HETATM   30  C2  UNL     1       6.392   0.646   0.272  1.00  0.00     0.014 C 
HETATM   31  C1  UNL     1       7.311  -0.553   0.001  1.00  0.00     0.012 C 
HETATM   32  C3  UNL     1       7.222   1.936   0.257  1.00  0.00     0.012 C 
ENDBRANCH  27  30
BRANCH  27  33
HETATM   33  C5  UNL     1       5.559   0.966  -2.143  1.00  0.00     0.202 C 
BRANCH  33  34
HETATM   34  O1  UNL     1       4.432   0.855  -3.016  1.00  0.00    -0.398 OA
HETATM   35  H10 UNL     1       4.015   0.007  -2.765  1.00  0.00     0.209 HD
ENDBRANCH  33  34
ENDBRANCH  27  33
ENDBRANCH   1  24
TORSDOF 4
