REMARK  13 active torsions:
REMARK  status: ('A' for Active; 'I' for Inactive)
REMARK    1  A    between atoms: N1_2  and  C2_3 
REMARK    2  A    between atoms: C2_3  and  C3_4 
REMARK    3  A    between atoms: C3_4  and  C4_5 
REMARK    4  A    between atoms: C19_22  and  C23_27 
REMARK    5  A    between atoms: C20_23  and  O3_24 
REMARK    6  A    between atoms: C25_29  and  O4_30 
REMARK    7  A    between atoms: C27_32  and  C28_33 
REMARK    8  A    between atoms: C28_33  and  C30_35 
REMARK    9  A    between atoms: C30_35  and  C31_36 
REMARK   10  A    between atoms: C31_36  and  O5_37 
REMARK   11  A    between atoms: C31_36  and  C32_38 
REMARK   12  A    between atoms: C33_39  and  C35_41 
REMARK   13  A    between atoms: C35_41  and  O7_43 
ROOT
HETATM    1  C4  UNL     1       5.057  -0.020   0.908  1.00  0.00     0.023 C 
HETATM    2  C5  UNL     1       5.806   1.321   1.119  1.00  0.00     0.024 C 
HETATM    3  C6  UNL     1       4.669  -0.579   2.289  1.00  0.00     0.135 C 
HETATM    4  O1  UNL     1       5.306  -1.484   2.836  1.00  0.00    -0.297 OA
HETATM    5  C7  UNL     1       3.459  -0.000   2.988  1.00  0.00     0.080 C 
HETATM    6  C8  UNL     1       2.893   1.208   2.264  1.00  0.00     0.022 C 
HETATM    7  C9  UNL     1       2.491   0.883   0.805  1.00  0.00    -0.004 C 
HETATM    8  C10 UNL     1       2.280   2.251   0.043  1.00  0.00     0.015 C 
HETATM    9  C11 UNL     1       1.225   3.225   0.603  1.00  0.00     0.001 C 
HETATM   10  C12 UNL     1       0.185   3.708  -0.422  1.00  0.00     0.000 C 
HETATM   11  C13 UNL     1      -1.124   2.900  -0.440  1.00  0.00     0.001 C 
HETATM   12  C14 UNL     1      -1.014   1.531  -1.130  1.00  0.00     0.011 C 
HETATM   13  C15 UNL     1      -1.501   0.212  -0.370  1.00  0.00    -0.016 C 
HETATM   14  C16 UNL     1      -1.426   0.320   1.151  1.00  0.00     0.094 C 
HETATM   15  C17 UNL     1       0.012   0.331   1.640  1.00  0.00     0.157 C 
HETATM   16  O2  UNL     1       0.232   0.452   2.843  1.00  0.00    -0.293 OA
HETATM   17  C18 UNL     1       1.143   0.122   0.653  1.00  0.00     0.003 C 
HETATM   18  C19 UNL     1       0.862  -0.671  -0.415  1.00  0.00    -0.029 C 
HETATM   19  C20 UNL     1       1.969  -1.113  -1.323  1.00  0.00     0.149 C 
HETATM   20  C21 UNL     1       3.283  -1.198  -0.556  1.00  0.00     0.043 C 
HETATM   21  C22 UNL     1       3.720   0.145   0.063  1.00  0.00     0.017 C 
HETATM   22  C23 UNL     1      -0.589  -1.040  -0.766  1.00  0.00     0.017 C 
HETATM   23  C24 UNL     1      -0.899  -2.372  -0.018  1.00  0.00     0.023 C 
HETATM   24  C25 UNL     1      -0.994  -1.183  -2.263  1.00  0.00     0.132 C 
HETATM   25  C26 UNL     1      -2.509  -0.894  -2.295  1.00  0.00     0.038 C 
HETATM   26  C27 UNL     1      -2.885  -0.256  -0.928  1.00  0.00     0.002 C 
ENDROOT
BRANCH  26  27
HETATM   27  C28 UNL     1      -4.060   0.755  -1.031  1.00  0.00    -0.011 C 
HETATM   28  C29 UNL     1      -4.417   1.396   0.315  1.00  0.00     0.010 C 
BRANCH  27  29
HETATM   29  C30 UNL     1      -5.326   0.155  -1.701  1.00  0.00     0.040 C 
BRANCH  29  30
HETATM   30  C31 UNL     1      -5.887  -1.172  -1.159  1.00  0.00     0.142 C 
BRANCH  30  31
HETATM   31  O5  UNL     1      -6.993  -1.551  -1.973  1.00  0.00    -0.392 OA
HETATM   32  H48 UNL     1      -7.335  -2.388  -1.613  1.00  0.00     0.210 HD
ENDBRANCH  30  31
BRANCH  30  33
HETATM   33  C32 UNL     1      -6.306  -1.164   0.282  1.00  0.00     0.018 C 
HETATM   34  C33 UNL     1      -7.468  -0.754   0.827  1.00  0.00     0.010 C 
HETATM   35  C34 UNL     1      -8.615  -0.120   0.101  1.00  0.00     0.055 C 
BRANCH  34  36
HETATM   36  C35 UNL     1      -7.587  -0.900   2.300  1.00  0.00     0.171 C 
HETATM   37  O6  UNL     1      -6.675  -1.087   3.088  1.00  0.00    -0.646 OA
BRANCH  36  38
HETATM   38  O7  UNL     1      -8.863  -0.824   2.715  1.00  0.00    -0.773 OA
HETATM   39  H53 UNL     1      -8.797  -0.937   3.687  1.00  0.00     0.167 HD
ENDBRANCH  36  38
ENDBRANCH  34  36
ENDBRANCH  30  33
ENDBRANCH  29  30
ENDBRANCH  27  29
ENDBRANCH  26  27
BRANCH  24  40
HETATM   40  O4  UNL     1      -0.749  -2.465  -2.820  1.00  0.00    -0.394 OA
HETATM   41  H37 UNL     1       0.204  -2.649  -2.661  1.00  0.00     0.210 HD
ENDBRANCH  24  40
BRANCH  19  42
HETATM   42  O3  UNL     1       1.682  -2.405  -1.850  1.00  0.00    -0.391 OA
HETATM   43  H29 UNL     1       2.001  -3.066  -1.209  1.00  0.00     0.210 HD
ENDBRANCH  19  42
BRANCH   1  44
HETATM   44  C3  UNL     1       6.086  -1.008   0.253  1.00  0.00     0.047 C 
BRANCH  44  45
HETATM   45  C2  UNL     1       6.654  -0.556  -1.103  1.00  0.00     0.270 C 
BRANCH  45  46
HETATM   46  N1  UNL     1       7.387  -1.618  -1.799  1.00  0.00     0.079 N 
HETATM   47  C1  UNL     1       8.588  -2.042  -1.086  1.00  0.00     0.306 C 
HETATM   48  H4  UNL     1       7.662  -1.277  -2.722  1.00  0.00     0.315 HD
ENDBRANCH  45  46
ENDBRANCH  44  45
ENDBRANCH   1  44
TORSDOF 13
