REMARK  20 active torsions:
REMARK  status: ('A' for Active; 'I' for Inactive)
REMARK    1  A    between atoms: C2_2  and  C3_3 
REMARK    2  A    between atoms: C2_2  and  C28_35 
REMARK    3  A    between atoms: C4_4  and  C5_5 
REMARK    4  A    between atoms: C6_6  and  C7_7 
REMARK    5  A    between atoms: C6_6  and  C9_11 
REMARK    6  A    between atoms: C7_7  and  O1_8 
REMARK    7  A    between atoms: O1_8  and  C8_9 
REMARK    8  A    between atoms: C8_9  and  O2_10 
REMARK    9  A    between atoms: C13_15  and  O3_16 
REMARK   10  A    between atoms: C14_17  and  C15_18 
REMARK   11  A    between atoms: C15_18  and  C16_19 
REMARK   12  A    between atoms: C16_19  and  C17_20 
REMARK   13  A    between atoms: C17_20  and  O4_21 
REMARK   14  A    between atoms: C19_23  and  C21_25 
REMARK   15  A    between atoms: C24_29  and  O6_30 
REMARK   16  A    between atoms: C24_29  and  C25_31 
REMARK   17  A    between atoms: C25_31  and  C26_32 
REMARK   18  A    between atoms: C26_32  and  N1_33 
REMARK   19  A    between atoms: C28_35  and  C29_36 
REMARK   20  A    between atoms: C29_36  and  C30_37 
ROOT
HETATM    1  C9  UNL     1      -0.182   0.996   0.508  1.00  0.00     0.046 C 
HETATM    2  C10 UNL     1      -1.265   1.057   1.603  1.00  0.00     0.013 C 
HETATM    3  C11 UNL     1      -2.624   0.990   0.892  1.00  0.00     0.017 C 
HETATM    4  C12 UNL     1      -2.352   0.657  -0.620  1.00  0.00     0.025 C 
HETATM    5  C13 UNL     1      -0.902   0.077  -0.515  1.00  0.00     0.138 C 
HETATM    6  C14 UNL     1      -2.388   2.072  -1.404  1.00  0.00     0.029 C 
HETATM    7  C18 UNL     1      -3.814   2.667  -1.323  1.00  0.00    -0.066 C 
HETATM    8  C19 UNL     1      -4.111   3.888  -0.812  1.00  0.00    -0.021 C 
HETATM    9  C20 UNL     1      -5.503   4.433  -0.677  1.00  0.00     0.052 C 
HETATM   10  C22 UNL     1      -4.879   1.729  -1.857  1.00  0.00     0.038 C 
HETATM   11  C23 UNL     1      -4.830   0.352  -1.193  1.00  0.00     0.043 C 
HETATM   12  C24 UNL     1      -3.433  -0.317  -1.251  1.00  0.00     0.070 C 
ENDROOT
BRANCH   5  13
HETATM   13  O3  UNL     1      -0.915  -1.257  -0.004  1.00  0.00    -0.394 OA
HETATM   14  H17 UNL     1      -0.005  -1.497   0.247  1.00  0.00     0.210 HD
ENDBRANCH   5  13
BRANCH   6  15
HETATM   15  C15 UNL     1      -1.947   2.189  -2.897  1.00  0.00     0.012 C 
BRANCH  15  16
HETATM   16  C16 UNL     1      -0.464   1.987  -3.228  1.00  0.00     0.027 C 
BRANCH  16  17
HETATM   17  C17 UNL     1      -0.167   0.754  -4.082  1.00  0.00     0.164 C 
BRANCH  17  18
HETATM   18  O4  UNL     1      -0.837   0.815  -5.336  1.00  0.00    -0.401 OA
HETATM   19  H25 UNL     1      -1.759   0.542  -5.173  1.00  0.00     0.209 HD
ENDBRANCH  17  18
ENDBRANCH  16  17
ENDBRANCH  15  16
ENDBRANCH   6  15
BRANCH  12  20
HETATM   20  O6  UNL     1      -3.093  -0.449  -2.659  1.00  0.00    -0.389 OA
HETATM   21  H34 UNL     1      -3.788  -0.987  -3.076  1.00  0.00     0.210 HD
ENDBRANCH  12  20
BRANCH  12  22
HETATM   22  C25 UNL     1      -3.534  -1.807  -0.791  1.00  0.00     0.068 C 
BRANCH  22  23
HETATM   23  C26 UNL     1      -3.788  -2.189   0.669  1.00  0.00     0.272 C 
BRANCH  23  24
HETATM   24  N1  UNL     1      -5.135  -1.821   1.115  1.00  0.00     0.079 N 
HETATM   25  C27 UNL     1      -5.325  -2.167   2.518  1.00  0.00     0.306 C 
HETATM   26  H39 UNL     1      -5.817  -2.334   0.558  1.00  0.00     0.315 HD
ENDBRANCH  23  24
ENDBRANCH  22  23
ENDBRANCH  12  22
BRANCH   1  27
HETATM   27  C6  UNL     1       1.232   0.687   1.025  1.00  0.00    -0.050 C 
HETATM   28  C5  UNL     1       2.197  -0.073   0.459  1.00  0.00     0.005 C 
BRANCH  28  29
HETATM   29  C4  UNL     1       2.190  -0.759  -0.812  1.00  0.00     0.001 C 
HETATM   30  C3  UNL     1       2.841  -1.873  -1.191  1.00  0.00     0.006 C 
BRANCH  30  31
HETATM   31  C2  UNL     1       3.763  -2.766  -0.488  1.00  0.00    -0.067 C 
HETATM   32  C1  UNL     1       3.884  -4.028  -0.943  1.00  0.00     0.019 C 
BRANCH  31  33
HETATM   33  C28 UNL     1       4.603  -2.219   0.654  1.00  0.00     0.041 C 
BRANCH  33  34
HETATM   34  C29 UNL     1       5.829  -3.036   1.093  1.00  0.00     0.032 C 
BRANCH  34  35
HETATM   35  C30 UNL     1       6.635  -2.291   2.127  1.00  0.00    -0.024 C 
HETATM   36  C31 UNL     1       7.749  -1.561   1.924  1.00  0.00    -0.091 C 
HETATM   37  C32 UNL     1       8.452  -0.887   3.074  1.00  0.00     0.042 C 
HETATM   38  C33 UNL     1       8.391  -1.321   0.582  1.00  0.00     0.042 C 
ENDBRANCH  34  35
ENDBRANCH  33  34
ENDBRANCH  31  33
ENDBRANCH  30  31
ENDBRANCH  28  29
BRANCH  27  39
HETATM   39  C7  UNL     1       1.624   1.454   2.286  1.00  0.00     0.205 C 
BRANCH  39  40
HETATM   40  O1  UNL     1       0.955   0.976   3.449  1.00  0.00    -0.363 OA
BRANCH  40  41
HETATM   41  C8  UNL     1       1.486  -0.244   3.930  1.00  0.00     0.334 C 
BRANCH  41  42
HETATM   42  O2  UNL     1       0.778  -0.594   5.103  1.00  0.00    -0.377 OA
HETATM   43  H10 UNL     1       0.807   0.211   5.649  1.00  0.00     0.212 HD
ENDBRANCH  41  42
ENDBRANCH  40  41
ENDBRANCH  39  40
ENDBRANCH  27  39
ENDBRANCH   1  27
BRANCH   8  44
HETATM   44  C21 UNL     1      -3.063   4.820  -0.296  1.00  0.00     0.265 C 
HETATM   45  O5  UNL     1      -1.993   5.031  -0.852  1.00  0.00    -0.302 OA
ENDBRANCH   8  44
TORSDOF 20
