REMARK  6 active torsions:
REMARK  status: ('A' for Active; 'I' for Inactive)
REMARK    1  A    between atoms: O1_2  and  C2_3 
REMARK    2  A    between atoms: C17_20  and  C18_21 
REMARK    3  A    between atoms: C22_27  and  O6_28 
REMARK    4  A    between atoms: O6_28  and  C23_29 
REMARK    5  A    between atoms: C26_33  and  O8_34 
REMARK    6  A    between atoms: C31_40  and  O10_41 
ROOT
HETATM    1  C2  UNL     1       6.382  -0.188   1.442  1.00  0.00     0.190 C 
HETATM    2  C3  UNL     1       7.838  -0.621   1.211  1.00  0.00     0.064 C 
HETATM    3  C4  UNL     1       8.264  -0.531  -0.250  1.00  0.00     0.174 C 
HETATM    4  O2  UNL     1       7.215  -0.963  -1.099  1.00  0.00    -0.356 OA
HETATM    5  C5  UNL     1       6.102  -0.055  -1.123  1.00  0.00     0.325 C 
HETATM    6  O3  UNL     1       5.000  -0.751  -1.723  1.00  0.00    -0.344 OA
HETATM    7  C6  UNL     1       3.774  -0.607  -1.019  1.00  0.00     0.177 C 
HETATM    8  C7  UNL     1       2.661  -1.012  -1.939  1.00  0.00     0.011 C 
HETATM    9  C8  UNL     1       1.482  -0.366  -2.037  1.00  0.00    -0.072 C 
HETATM   10  C9  UNL     1       0.433  -0.826  -3.017  1.00  0.00     0.035 C 
HETATM   11  C10 UNL     1      -0.903  -1.070  -2.322  1.00  0.00     0.012 C 
HETATM   12  C11 UNL     1      -1.381   0.165  -1.522  1.00  0.00     0.026 C 
HETATM   13  C12 UNL     1      -0.285   0.592  -0.505  1.00  0.00     0.005 C 
HETATM   14  C13 UNL     1      -0.769   1.778   0.345  1.00  0.00     0.007 C 
HETATM   15  C14 UNL     1      -2.081   1.458   1.052  1.00  0.00     0.013 C 
HETATM   16  C15 UNL     1      -3.236   1.082   0.080  1.00  0.00    -0.003 C 
HETATM   17  C16 UNL     1      -3.685   2.363  -0.652  1.00  0.00     0.019 C 
HETATM   18  C17 UNL     1      -4.391   0.426   0.914  1.00  0.00     0.058 C 
HETATM   19  C22 UNL     1      -3.903  -1.039   1.103  1.00  0.00     0.143 C 
HETATM   20  C25 UNL     1      -2.921  -1.345  -0.041  1.00  0.00     0.072 C 
HETATM   21  C26 UNL     1      -2.783  -0.059  -0.878  1.00  0.00     0.072 C 
HETATM   22  C27 UNL     1       1.120   0.850  -1.176  1.00  0.00    -0.014 C 
HETATM   23  C28 UNL     1       1.113   2.102  -2.087  1.00  0.00     0.020 C 
HETATM   24  C29 UNL     1       2.184   1.073  -0.057  1.00  0.00     0.049 C 
HETATM   25  C30 UNL     1       3.614   0.838  -0.539  1.00  0.00     0.159 C 
HETATM   26  O9  UNL     1       4.506   1.088   0.551  1.00  0.00    -0.341 OA
HETATM   27  C31 UNL     1       5.849   0.674   0.268  1.00  0.00     0.240 C 
ENDROOT
BRANCH  18  28
HETATM   28  C18 UNL     1      -5.822   0.562   0.444  1.00  0.00    -0.043 A 
HETATM   29  C19 UNL     1      -6.800   1.121   1.160  1.00  0.00     0.087 A 
HETATM   30  C20 UNL     1      -8.044   0.955   0.415  1.00  0.00     0.283 A 
HETATM   31  O4  UNL     1      -9.136   1.345   0.784  1.00  0.00    -0.260 OA
HETATM   32  O5  UNL     1      -7.784   0.275  -0.730  1.00  0.00    -0.314 OA
HETATM   33  C21 UNL     1      -6.375   0.035  -0.827  1.00  0.00     0.214 A 
ENDBRANCH  18  28
BRANCH  19  34
HETATM   34  O6  UNL     1      -4.956  -2.014   1.119  1.00  0.00    -0.316 OA
BRANCH  34  35
HETATM   35  C23 UNL     1      -5.614  -2.141   2.306  1.00  0.00     0.255 C 
HETATM   36  C24 UNL     1      -6.745  -3.113   2.167  1.00  0.00     0.126 C 
HETATM   37  O7  UNL     1      -5.352  -1.526   3.331  1.00  0.00    -0.266 OA
ENDBRANCH  34  35
ENDBRANCH  19  34
BRANCH  21  38
HETATM   38  O8  UNL     1      -3.730  -0.152  -1.950  1.00  0.00    -0.389 OA
HETATM   39  H35 UNL     1      -3.549  -0.953  -2.472  1.00  0.00     0.210 HD
ENDBRANCH  21  38
BRANCH  27  40
HETATM   40  O10 UNL     1       6.591   1.908   0.272  1.00  0.00    -0.360 OA
HETATM   41  H42 UNL     1       6.169   2.418   0.984  1.00  0.00     0.213 HD
ENDBRANCH  27  40
BRANCH   1  42
HETATM   42  O1  UNL     1       5.540  -1.340   1.628  1.00  0.00    -0.385 OA
HETATM   43  C1  UNL     1       5.546  -1.831   2.963  1.00  0.00     0.202 C 
ENDBRANCH   1  42
TORSDOF 6
