REMARK  6 active torsions:
REMARK  status: ('A' for Active; 'I' for Inactive)
REMARK    1  A    between atoms: C2_2  and  C3_3 
REMARK    2  A    between atoms: C2_2  and  C4_5 
REMARK    3  A    between atoms: C3_3  and  O1_4 
REMARK    4  A    between atoms: C4_5  and  C6_7 
REMARK    5  A    between atoms: C7_8  and  C8_9 
REMARK    6  A    between atoms: C8_9  and  C10_11 
ROOT
HETATM    1  C10 UNL     1      -0.870   2.320  -0.835  1.00  0.00     0.002 C 
HETATM    2  C11 UNL     1      -0.216   3.717  -0.668  1.00  0.00     0.007 C 
HETATM    3  C12 UNL     1       1.264   3.470  -0.337  1.00  0.00     0.010 C 
HETATM    4  C13 UNL     1       1.452   1.964  -0.527  1.00  0.00     0.023 C 
HETATM    5  C14 UNL     1       2.657   1.253   0.035  1.00  0.00    -0.070 C 
HETATM    6  C15 UNL     1       3.737   1.890   0.513  1.00  0.00     0.004 C 
HETATM    7  C16 UNL     1       4.961   1.196   0.814  1.00  0.00     0.004 C 
HETATM    8  C17 UNL     1       5.038  -0.144   0.883  1.00  0.00    -0.071 C 
HETATM    9  C18 UNL     1       6.340  -0.821   1.244  1.00  0.00     0.035 C 
HETATM   10  C19 UNL     1       6.629  -2.030   0.362  1.00  0.00     0.004 C 
HETATM   11  C20 UNL     1       5.453  -2.999   0.351  1.00  0.00     0.001 C 
HETATM   12  C21 UNL     1       4.184  -2.302  -0.137  1.00  0.00     0.014 C 
HETATM   13  C22 UNL     1       3.799  -1.028   0.672  1.00  0.00    -0.013 C 
HETATM   14  C23 UNL     1       3.321  -1.441   2.087  1.00  0.00     0.021 C 
HETATM   15  C24 UNL     1       2.655  -0.268  -0.143  1.00  0.00     0.027 C 
HETATM   16  C25 UNL     1       1.249  -0.902   0.061  1.00  0.00     0.011 C 
HETATM   17  C26 UNL     1       0.083  -0.101  -0.539  1.00  0.00     0.011 C 
HETATM   18  C27 UNL     1       0.098   1.366  -0.068  1.00  0.00    -0.032 C 
HETATM   19  C28 UNL     1      -0.084   1.439   1.464  1.00  0.00     0.016 C 
ENDROOT
BRANCH   1  20
HETATM   20  C8  UNL     1      -2.408   2.305  -0.601  1.00  0.00     0.008 C 
HETATM   21  C9  UNL     1      -2.907   2.832   0.750  1.00  0.00     0.014 C 
BRANCH  20  22
HETATM   22  C7  UNL     1      -3.009   0.971  -1.010  1.00  0.00    -0.026 C 
HETATM   23  C6  UNL     1      -3.697   0.112  -0.237  1.00  0.00    -0.026 C 
BRANCH  23  24
HETATM   24  C4  UNL     1      -4.299  -1.222  -0.656  1.00  0.00     0.009 C 
HETATM   25  C5  UNL     1      -3.621  -1.820  -1.899  1.00  0.00     0.014 C 
BRANCH  24  26
HETATM   26  C2  UNL     1      -5.846  -1.109  -0.828  1.00  0.00     0.012 C 
HETATM   27  C1  UNL     1      -6.528  -0.618   0.461  1.00  0.00     0.012 C 
BRANCH  26  28
HETATM   28  C3  UNL     1      -6.502  -2.426  -1.280  1.00  0.00     0.168 C 
BRANCH  28  29
HETATM   29  O1  UNL     1      -6.196  -3.498  -0.400  1.00  0.00    -0.400 OA
HETATM   30  H7  UNL     1      -6.645  -3.326   0.445  1.00  0.00     0.209 HD
ENDBRANCH  28  29
ENDBRANCH  26  28
ENDBRANCH  24  26
ENDBRANCH  23  24
ENDBRANCH  20  22
ENDBRANCH   1  20
TORSDOF 6
