REMARK  4 active torsions:
REMARK  status: ('A' for Active; 'I' for Inactive)
REMARK    1  A    between atoms: C3_8  and  C4_9 
REMARK       I    between atoms: N4_17  and  C11_18 
REMARK    2  A    between atoms: C11_18  and  C12_20 
REMARK    3  A    between atoms: C12_20  and  O3_21 
REMARK    4  A    between atoms: O3_21  and  C13_22 
ROOT
HETATM    1  C4  UNL     1      -5.524  -0.831   0.682  1.00  0.00     0.011 A 
HETATM    2  C5  UNL     1      -4.868  -1.543   1.706  1.00  0.00     0.018 A 
HETATM    3  C6  UNL     1      -3.474  -1.657   1.733  1.00  0.00     0.039 A 
HETATM    4  C7  UNL     1      -2.730  -1.048   0.734  1.00  0.00     0.090 A 
HETATM    5  O1  UNL     1      -1.359  -1.096   0.797  1.00  0.00    -0.347 OA
HETATM    6  C8  UNL     1      -0.802   0.194   1.140  1.00  0.00     0.213 C 
HETATM    7  C9  UNL     1       0.369   0.571   0.189  1.00  0.00     0.265 C 
HETATM    8  C10 UNL     1       1.454  -0.539   0.330  1.00  0.00     0.163 C 
HETATM    9  N4  UNL     1       2.633  -0.218  -0.471  1.00  0.00    -0.346 N 
HETATM   10  C11 UNL     1       3.668   0.486   0.151  1.00  0.00     0.244 C 
HETATM   11  O2  UNL     1       3.612   0.789   1.343  1.00  0.00    -0.271 OA
HETATM   12  C19 UNL     1       2.315  -0.081  -1.888  1.00  0.00     0.156 C 
HETATM   13  C20 UNL     1       1.244   1.014  -2.073  1.00  0.00     0.293 C 
HETATM   14  N5  UNL     1       0.008   0.776  -1.273  1.00  0.00     0.106 N 
HETATM   15  C21 UNL     1      -0.911   1.942  -1.494  1.00  0.00     0.369 C 
HETATM   16  C22 UNL     1      -2.386   1.544  -1.345  1.00  0.00     0.230 C 
HETATM   17  O4  UNL     1      -3.284   2.372  -1.225  1.00  0.00    -0.278 OA
HETATM   18  N6  UNL     1      -2.557   0.167  -1.333  1.00  0.00    -0.225 NA
HETATM   19  C23 UNL     1      -3.369  -0.371  -0.313  1.00  0.00     0.049 A 
HETATM   20  C24 UNL     1      -4.755  -0.225  -0.322  1.00  0.00     0.042 A 
HETATM   21  H25 UNL     1      -1.630  -0.270  -1.352  1.00  0.00     0.136 HD
ENDROOT
BRANCH  10  22
HETATM   22  C12 UNL     1       4.885   0.835  -0.724  1.00  0.00     0.278 C 
BRANCH  22  23
HETATM   23  O3  UNL     1       6.015   1.349  -0.035  1.00  0.00    -0.342 OA
BRANCH  23  24
HETATM   24  C13 UNL     1       6.874   0.453   0.540  1.00  0.00     0.069 A 
HETATM   25  C14 UNL     1       6.642  -0.910   0.729  1.00  0.00     0.037 A 
HETATM   26  C15 UNL     1       7.614  -1.712   1.337  1.00  0.00     0.003 A 
HETATM   27  C16 UNL     1       8.819  -1.155   1.763  1.00  0.00     0.000 A 
HETATM   28  C17 UNL     1       9.053   0.206   1.586  1.00  0.00     0.003 A 
HETATM   29  C18 UNL     1       8.081   1.005   0.980  1.00  0.00     0.037 A 
ENDBRANCH  23  24
ENDBRANCH  22  23
ENDBRANCH  10  22
BRANCH   1  30
HETATM   30  C3  UNL     1      -6.984  -0.723   0.725  1.00  0.00     0.133 A 
HETATM   31  N1  UNL     1      -7.853  -0.791  -0.341  1.00  0.00    -0.280 N 
HETATM   32  C1  UNL     1      -7.575  -1.050  -1.730  1.00  0.00     0.179 C 
HETATM   33  N2  UNL     1      -9.134  -0.653   0.058  1.00  0.00    -0.293 N 
HETATM   34  C2  UNL     1      -8.989  -0.534   1.377  1.00  0.00     0.199 A 
ATOM     35  H2  UNL     1      -9.987  -0.643  -0.501  1.00  0.00     0.188 HD
HETATM   36  N3  UNL     1      -7.704  -0.594   1.826  1.00  0.00    -0.336 N 
ATOM     37  H3  UNL     1      -7.374  -0.550   2.790  1.00  0.00     0.168 HD
ENDBRANCH   1  30
TORSDOF 4
