REMARK  7 active torsions:
REMARK  status: ('A' for Active; 'I' for Inactive)
REMARK    1  A    between atoms: O1_2  and  C2_3 
REMARK    2  A    between atoms: C2_3  and  C3_5 
REMARK    3  A    between atoms: C14_16  and  C15_17 
REMARK    4  A    between atoms: C15_17  and  O4_19 
REMARK    5  A    between atoms: O4_19  and  C16_20 
REMARK    6  A    between atoms: C16_20  and  C17_21 
REMARK    7  A    between atoms: C17_21  and  N1_22 
ROOT
HETATM    1  C3  UNL     1      -4.682   0.431   0.402  1.00  0.00     0.049 C 
HETATM    2  C4  UNL     1      -4.894   0.123   1.903  1.00  0.00     0.026 C 
HETATM    3  C5  UNL     1      -5.561  -0.542  -0.417  1.00  0.00     0.020 C 
HETATM    4  C6  UNL     1      -5.109  -1.994  -0.366  1.00  0.00     0.002 C 
HETATM    5  C7  UNL     1      -3.616  -2.185  -0.122  1.00  0.00     0.010 C 
HETATM    6  C8  UNL     1      -2.707  -1.048  -0.653  1.00  0.00    -0.034 C 
HETATM    7  C9  UNL     1      -2.818  -1.006  -2.201  1.00  0.00     0.016 C 
HETATM    8  C10 UNL     1      -1.211  -1.377  -0.229  1.00  0.00     0.006 C 
HETATM    9  C11 UNL     1      -0.587  -2.574  -0.981  1.00  0.00     0.010 C 
HETATM   10  C12 UNL     1       0.818  -2.899  -0.477  1.00  0.00     0.035 C 
HETATM   11  C13 UNL     1       1.734  -1.694  -0.557  1.00  0.00    -0.070 C 
HETATM   12  C14 UNL     1       2.917  -1.814  -1.196  1.00  0.00     0.085 C 
HETATM   13  C20 UNL     1       1.183  -0.446   0.123  1.00  0.00     0.022 C 
HETATM   14  C21 UNL     1       1.319  -0.592   1.647  1.00  0.00     0.015 C 
HETATM   15  C22 UNL     1      -0.267  -0.157  -0.355  1.00  0.00     0.068 C 
HETATM   16  C23 UNL     1      -0.837   1.044   0.378  1.00  0.00     0.132 C 
HETATM   17  O5  UNL     1      -0.213   2.099   0.484  1.00  0.00    -0.298 OA
HETATM   18  C24 UNL     1      -2.205   0.883   0.991  1.00  0.00     0.085 C 
HETATM   19  C25 UNL     1      -3.179   0.354  -0.074  1.00  0.00     0.019 C 
ENDROOT
BRANCH  12  20
HETATM   20  C15 UNL     1       4.035  -0.864  -1.402  1.00  0.00     0.283 C 
HETATM   21  O3  UNL     1       4.933  -1.104  -2.198  1.00  0.00    -0.260 OA
BRANCH  20  22
HETATM   22  O4  UNL     1       3.967   0.207  -0.585  1.00  0.00    -0.316 OA
BRANCH  22  23
HETATM   23  C16 UNL     1       5.038   1.160  -0.713  1.00  0.00     0.209 C 
BRANCH  23  24
HETATM   24  C17 UNL     1       6.239   0.728   0.144  1.00  0.00     0.298 C 
BRANCH  24  25
HETATM   25  N1  UNL     1       7.301   1.746   0.245  1.00  0.00     0.082 N 
HETATM   26  C18 UNL     1       8.264   1.360   1.281  1.00  0.00     0.309 C 
HETATM   27  C19 UNL     1       8.000   1.924  -1.031  1.00  0.00     0.309 C 
ENDBRANCH  24  25
ENDBRANCH  23  24
ENDBRANCH  22  23
ENDBRANCH  20  22
ENDBRANCH  12  20
BRANCH   1  28
HETATM   28  C2  UNL     1      -5.204   1.857   0.104  1.00  0.00     0.267 C 
HETATM   29  O2  UNL     1      -5.842   2.168  -0.894  1.00  0.00    -0.264 OA
BRANCH  28  30
HETATM   30  O1  UNL     1      -4.824   2.739   1.068  1.00  0.00    -0.326 OA
HETATM   31  C1  UNL     1      -5.224   4.089   0.825  1.00  0.00     0.213 C 
ENDBRANCH  28  30
ENDBRANCH   1  28
TORSDOF 7
