REMARK  12 active torsions:
REMARK  status: ('A' for Active; 'I' for Inactive)
REMARK    1  A    between atoms: C2_2  and  C17_19 
REMARK    2  A    between atoms: C3_3  and  C4_4 
REMARK    3  A    between atoms: C4_4  and  C5_5 
REMARK    4  A    between atoms: C5_5  and  C6_6 
REMARK    5  A    between atoms: C12_12  and  O1_13 
REMARK    6  A    between atoms: C17_19  and  C18_20 
REMARK    7  A    between atoms: C19_21  and  C20_22 
REMARK    8  A    between atoms: C20_22  and  C22_24 
REMARK    9  A    between atoms: C22_24  and  C23_26 
REMARK   10  A    between atoms: C23_26  and  O4_27 
REMARK   11  A    between atoms: C23_26  and  C24_28 
REMARK   12  A    between atoms: C24_28  and  C25_29 
ROOT
HETATM    1  C1  UNL     1      -0.078  -1.417  -0.795  1.00  0.00     0.043 C 
HETATM    2  C2  UNL     1       0.023   0.086  -0.796  1.00  0.00    -0.084 C 
HETATM    3  C3  UNL     1       1.145   0.768  -1.108  1.00  0.00    -0.024 C 
ENDROOT
BRANCH   3   4
HETATM    4  C4  UNL     1       2.445   0.195  -1.598  1.00  0.00     0.030 C 
BRANCH   4   5
HETATM    5  C5  UNL     1       3.415  -0.314  -0.525  1.00  0.00     0.042 C 
BRANCH   5   6
HETATM    6  C6  UNL     1       4.094   0.721   0.412  1.00  0.00     0.065 C 
HETATM    7  C7  UNL     1       3.094   1.266   1.446  1.00  0.00     0.046 C 
HETATM    8  C8  UNL     1       4.750   1.912  -0.300  1.00  0.00     0.043 C 
HETATM    9  C9  UNL     1       5.889   1.456  -1.196  1.00  0.00     0.044 C 
HETATM   10  C10 UNL     1       6.780   0.500  -0.459  1.00  0.00    -0.021 A 
HETATM   11  C11 UNL     1       8.079   0.260  -0.932  1.00  0.00     0.046 A 
HETATM   12  C16 UNL     1       6.323  -0.176   0.680  1.00  0.00     0.082 A 
HETATM   13  C12 UNL     1       8.908  -0.627  -0.253  1.00  0.00     0.066 A 
HETATM   14  C13 UNL     1       8.464  -1.287   0.886  1.00  0.00     0.046 A 
HETATM   15  C14 UNL     1       7.166  -1.069   1.364  1.00  0.00    -0.025 A 
HETATM   16  C15 UNL     1       6.693  -1.785   2.597  1.00  0.00     0.051 C 
HETATM   17  O2  UNL     1       5.069   0.002   1.205  1.00  0.00    -0.340 OA
BRANCH  13  18
HETATM   18  O1  UNL     1      10.179  -0.876  -0.676  1.00  0.00    -0.361 OA
HETATM   19  H17 UNL     1      10.360  -0.330  -1.457  1.00  0.00     0.217 HD
ENDBRANCH  13  18
ENDBRANCH   5   6
ENDBRANCH   4   5
ENDBRANCH   3   4
BRANCH   2  20
HETATM   20  C17 UNL     1      -1.246   0.817  -0.385  1.00  0.00     0.060 C 
BRANCH  20  21
HETATM   21  C18 UNL     1      -2.285   0.762  -1.471  1.00  0.00    -0.026 C 
HETATM   22  C19 UNL     1      -3.543   0.290  -1.470  1.00  0.00    -0.019 C 
BRANCH  22  23
HETATM   23  C20 UNL     1      -4.390  -0.389  -0.416  1.00  0.00     0.076 C 
HETATM   24  C21 UNL     1      -3.668  -1.251   0.619  1.00  0.00     0.022 C 
BRANCH  23  25
HETATM   25  C22 UNL     1      -5.274   0.666   0.265  1.00  0.00     0.162 C 
HETATM   26  O3  UNL     1      -5.007   1.141   1.377  1.00  0.00    -0.294 OA
BRANCH  25  27
HETATM   27  C23 UNL     1      -6.484   1.216  -0.515  1.00  0.00     0.188 C 
BRANCH  27  28
HETATM   28  O4  UNL     1      -7.092   2.300   0.184  1.00  0.00    -0.388 OA
HETATM   29  H31 UNL     1      -6.504   2.502   0.943  1.00  0.00     0.210 HD
ENDBRANCH  27  28
BRANCH  27  30
HETATM   30  C24 UNL     1      -7.554   0.184  -0.900  1.00  0.00     0.043 C 
BRANCH  30  31
HETATM   31  C25 UNL     1      -8.362  -0.529   0.209  1.00  0.00    -0.020 C 
HETATM   32  C26 UNL     1      -9.130   0.420   1.127  1.00  0.00     0.009 C 
HETATM   33  C27 UNL     1      -7.528  -1.506   1.035  1.00  0.00     0.009 C 
ENDBRANCH  30  31
ENDBRANCH  27  30
ENDBRANCH  25  27
ENDBRANCH  23  25
ENDBRANCH  22  23
ENDBRANCH  20  21
ENDBRANCH   2  20
TORSDOF 12
