REMARK  7 active torsions:
REMARK  status: ('A' for Active; 'I' for Inactive)
REMARK    1  A    between atoms: C2_2  and  C3_3 
REMARK    2  A    between atoms: C3_3  and  N1_4 
REMARK       I    between atoms: N1_4  and  C4_5 
REMARK       I    between atoms: C4_5  and  N2_7 
REMARK    3  A    between atoms: N2_7  and  C5_8 
REMARK    4  A    between atoms: C8_11  and  O2_12 
REMARK    5  A    between atoms: O2_12  and  C9_13 
REMARK    6  A    between atoms: C13_21  and  O3_22 
REMARK    7  A    between atoms: C15_24  and  O4_25 
ROOT
HETATM    1  O2  UNL     1      -1.584  -0.376   0.252  1.00  0.00    -0.293 OA
ENDROOT
BRANCH   1   2
HETATM    2  C8  UNL     1      -0.235  -0.476   0.018  1.00  0.00     0.079 A 
HETATM    3  C7  UNL     1       0.614  -0.566   1.119  1.00  0.00     0.039 A 
HETATM    4  C6  UNL     1       1.991  -0.720   0.932  1.00  0.00     0.034 A 
HETATM    5  C5  UNL     1       2.529  -0.797  -0.356  1.00  0.00     0.058 A 
HETATM    6  C20 UNL     1       1.650  -0.733  -1.456  1.00  0.00     0.063 A 
HETATM    7  C19 UNL     1       0.274  -0.582  -1.275  1.00  0.00     0.063 A 
HETATM    8 CL1  UNL     1       2.247  -0.848  -3.080  1.00  0.00    -0.082 Cl
BRANCH   5   9
HETATM    9  N2  UNL     1       3.911  -0.959  -0.608  1.00  0.00    -0.307 N 
HETATM   10  C4  UNL     1       4.950  -0.919   0.293  1.00  0.00     0.320 C 
HETATM   11  N1  UNL     1       6.149  -1.189  -0.340  1.00  0.00    -0.343 N 
HETATM   12  O1  UNL     1       4.873  -0.673   1.489  1.00  0.00    -0.247 OA
HETATM   13  H8  UNL     1       6.082  -1.817  -1.126  1.00  0.00     0.164 HD
HETATM   14  H9  UNL     1       4.175  -0.960  -1.584  1.00  0.00     0.170 HD
BRANCH  11  15
HETATM   15  C3  UNL     1       7.385  -1.246   0.419  1.00  0.00     0.124 C 
BRANCH  15  16
HETATM   16  C2  UNL     1       7.926   0.145   0.737  1.00  0.00     0.015 C 
HETATM   17  C1  UNL     1       9.243   0.069   1.492  1.00  0.00     0.006 C 
ENDBRANCH  15  16
ENDBRANCH  11  15
ENDBRANCH   5   9
ENDBRANCH   1   2
BRANCH   1  18
HETATM   18  C9  UNL     1      -2.230   0.771  -0.214  1.00  0.00     0.161 A 
HETATM   19  N3  UNL     1      -1.488   1.838  -0.568  1.00  0.00    -0.332 N 
HETATM   20  C10 UNL     1      -2.179   2.902  -0.976  1.00  0.00     0.182 A 
ATOM     21  H3  UNL     1      -0.469   1.832  -0.527  1.00  0.00     0.168 HD
HETATM   22  N4  UNL     1      -3.514   2.992  -1.059  1.00  0.00    -0.351 N 
HETATM   23  C11 UNL     1      -4.225   1.918  -0.691  1.00  0.00     0.050 A 
ATOM     24  H4  UNL     1      -3.969   3.843  -1.389  1.00  0.00     0.166 HD
HETATM   25  C12 UNL     1      -5.612   1.976  -0.757  1.00  0.00     0.070 A 
HETATM   26  C18 UNL     1      -3.627   0.739  -0.242  1.00  0.00     0.045 A 
HETATM   27  C13 UNL     1      -6.418   0.892  -0.387  1.00  0.00     0.103 A 
HETATM   28  C15 UNL     1      -5.818  -0.295   0.067  1.00  0.00     0.102 A 
HETATM   29  C17 UNL     1      -4.427  -0.367   0.138  1.00  0.00     0.057 A 
BRANCH  27  30
HETATM   30  O3  UNL     1      -7.790   0.894  -0.433  1.00  0.00    -0.353 OA
HETATM   31  C14 UNL     1      -8.435   2.080  -0.876  1.00  0.00     0.210 C 
ENDBRANCH  27  30
BRANCH  28  32
HETATM   32  O4  UNL     1      -6.669  -1.313   0.412  1.00  0.00    -0.353 OA
HETATM   33  C16 UNL     1      -6.099  -2.520   0.898  1.00  0.00     0.210 C 
ENDBRANCH  28  32
ENDBRANCH   1  18
TORSDOF 7
