REMARK  7 active torsions:
REMARK  status: ('A' for Active; 'I' for Inactive)
REMARK    1  A    between atoms: O1_2  and  C2_3 
REMARK    2  A    between atoms: C2_3  and  C3_4 
REMARK       I    between atoms: C3_4  and  N1_6 
REMARK    3  A    between atoms: N1_6  and  C4_7 
REMARK    4  A    between atoms: C7_10  and  C8_11 
REMARK    5  A    between atoms: C9_15  and  C10_16 
REMARK    6  A    between atoms: N3_20  and  C14_21 
REMARK    7  A    between atoms: C14_21  and  C15_22 
ROOT
HETATM    1  C15 UNL     1      -5.503   0.146  -0.104  1.00  0.00    -0.029 A 
HETATM    2  C16 UNL     1      -5.188   0.095  -1.472  1.00  0.00     0.009 A 
HETATM    3  C17 UNL     1      -5.790   0.967  -2.376  1.00  0.00     0.002 A 
HETATM    4  C18 UNL     1      -6.728   1.895  -1.927  1.00  0.00     0.022 A 
HETATM    5  C19 UNL     1      -7.066   1.950  -0.572  1.00  0.00     0.045 A 
HETATM    6  C20 UNL     1      -8.042   2.900  -0.114  1.00  0.00     0.099 C 
HETATM    7  N4  UNL     1      -8.832   3.666   0.258  1.00  0.00    -0.191 NA
HETATM    8  C21 UNL     1      -6.455   1.077   0.337  1.00  0.00     0.031 A 
ENDROOT
BRANCH   1   9
HETATM    9  C14 UNL     1      -4.864  -0.820   0.876  1.00  0.00     0.312 C 
BRANCH   9  10
HETATM   10  N3  UNL     1      -3.411  -0.943   0.694  1.00  0.00     0.105 N 
HETATM   11  C10 UNL     1      -2.677   0.270   1.134  1.00  0.00     0.299 C 
HETATM   12  C11 UNL     1      -2.463   0.071   2.635  1.00  0.00     0.046 C 
HETATM   13  C12 UNL     1      -2.505  -1.435   2.856  1.00  0.00     0.033 C 
HETATM   14  C13 UNL     1      -2.851  -2.035   1.504  1.00  0.00     0.274 C 
BRANCH  11  15
HETATM   15  C9  UNL     1      -1.383   0.409   0.385  1.00  0.00     0.182 A 
HETATM   16  O3  UNL     1      -1.473   0.889  -0.887  1.00  0.00    -0.220 OA
HETATM   17  N2  UNL     1      -0.183   0.872  -1.410  1.00  0.00    -0.242 N 
HETATM   18  C8  UNL     1       0.563   0.380  -0.410  1.00  0.00     0.139 A 
ATOM     19  H2  UNL     1       0.123   1.165  -2.338  1.00  0.00     0.196 HD
HETATM   20  N5  UNL     1      -0.153   0.097   0.732  1.00  0.00    -0.321 N 
ATOM     21  H5  UNL     1       0.186  -0.264   1.624  1.00  0.00     0.169 HD
BRANCH  18  22
HETATM   22  C7  UNL     1       1.991   0.136  -0.503  1.00  0.00     0.025 A 
HETATM   23  C6  UNL     1       2.684   0.192  -1.711  1.00  0.00     0.020 A 
HETATM   24  C5  UNL     1       4.055  -0.085  -1.745  1.00  0.00     0.050 A 
HETATM   25  C4  UNL     1       4.708  -0.403  -0.563  1.00  0.00     0.107 A 
HETATM   26  N6  UNL     1       4.066  -0.454   0.622  1.00  0.00    -0.351 N 
HETATM   27  C22 UNL     1       2.733  -0.189   0.625  1.00  0.00     0.105 A 
ATOM     28  H6  UNL     1       4.562  -0.683   1.483  1.00  0.00     0.166 HD
BRANCH  25  29
HETATM   29  N1  UNL     1       6.058  -0.717  -0.473  1.00  0.00    -0.311 N 
HETATM   30  C3  UNL     1       7.008  -0.741  -1.468  1.00  0.00     0.246 C 
HETATM   31  O2  UNL     1       6.844  -0.453  -2.650  1.00  0.00    -0.271 OA
HETATM   32  H6  UNL     1       6.368  -0.910   0.474  1.00  0.00     0.170 HD
BRANCH  30  33
HETATM   33  C2  UNL     1       8.359  -1.245  -0.952  1.00  0.00     0.270 C 
BRANCH  33  34
HETATM   34  O1  UNL     1       8.705  -0.716   0.323  1.00  0.00    -0.387 OA
HETATM   35  C1  UNL     1       9.300   0.575   0.213  1.00  0.00     0.202 C 
ENDBRANCH  33  34
ENDBRANCH  30  33
ENDBRANCH  25  29
ENDBRANCH  18  22
ENDBRANCH  11  15
ENDBRANCH   9  10
ENDBRANCH   1   9
TORSDOF 7
