REMARK  11 active torsions:
REMARK  status: ('A' for Active; 'I' for Inactive)
REMARK    1  A    between atoms: C3_3  and  O1_4 
REMARK    2  A    between atoms: N1_14  and  O2_16 
REMARK    3  A    between atoms: O2_16  and  C13_17 
REMARK    4  A    between atoms: C13_17  and  C14_18 
REMARK       I    between atoms: C14_18  and  N2_20 
REMARK    5  A    between atoms: N2_20  and  C15_21 
REMARK    6  A    between atoms: C15_21  and  C16_22 
REMARK    7  A    between atoms: C15_21  and  C17_25 
REMARK    8  A    between atoms: C16_22  and  O5_24 
REMARK    9  A    between atoms: C17_25  and  O6_26 
REMARK   10  A    between atoms: C17_25  and  C18_27 
REMARK   11  A    between atoms: C22_31  and  N3_32 
ROOT
HETATM    1  C1  UNL     1       7.618  -3.680   2.589  1.00  0.00     0.015 C 
HETATM    2  C2  UNL     1       7.506  -2.592   2.093  1.00  0.00    -0.078 C 
HETATM    3  C3  UNL     1       7.373  -1.258   1.484  1.00  0.00     0.128 C 
HETATM    4  C4  UNL     1       6.786  -0.237   2.471  1.00  0.00     0.052 C 
HETATM    5  C5  UNL     1       6.034   0.798   1.621  1.00  0.00     0.010 C 
HETATM    6  C6  UNL     1       6.114   0.317   0.161  1.00  0.00     0.002 C 
HETATM    7  C7  UNL     1       4.901   0.671  -0.724  1.00  0.00    -0.004 C 
HETATM    8  C8  UNL     1       4.667   2.190  -0.847  1.00  0.00     0.010 C 
HETATM    9  C9  UNL     1       3.333   2.654  -0.274  1.00  0.00     0.035 C 
HETATM   10  C10 UNL     1       2.152   1.862  -0.788  1.00  0.00    -0.069 C 
HETATM   11  C11 UNL     1       0.945   2.449  -0.864  1.00  0.00     0.030 C 
HETATM   12  C12 UNL     1      -0.269   1.683  -1.247  1.00  0.00     0.032 C 
HETATM   13  N1  UNL     1      -1.340   2.360  -1.552  1.00  0.00    -0.271 N 
ATOM     14  H1  UNL     1      -1.397   3.378  -1.544  1.00  0.00     0.194 HD
HETATM   15  C24 UNL     1      -0.192   0.167  -1.282  1.00  0.00     0.060 C 
HETATM   16  C25 UNL     1       1.094  -0.383  -0.666  1.00  0.00     0.020 C 
HETATM   17  C26 UNL     1       2.368   0.380  -1.116  1.00  0.00    -0.016 C 
HETATM   18  C27 UNL     1       2.552   0.202  -2.643  1.00  0.00     0.020 C 
HETATM   19  C28 UNL     1       3.625  -0.113  -0.319  1.00  0.00     0.002 C 
HETATM   20  C29 UNL     1       3.926  -1.617  -0.415  1.00  0.00     0.007 C 
HETATM   21  C30 UNL     1       5.084  -2.000   0.515  1.00  0.00     0.014 C 
HETATM   22  C31 UNL     1       6.398  -1.208   0.263  1.00  0.00     0.003 C 
HETATM   23  C32 UNL     1       7.067  -1.732  -1.024  1.00  0.00     0.020 C 
ENDROOT
BRANCH   3  24
HETATM   24  O1  UNL     1       8.686  -0.825   1.120  1.00  0.00    -0.377 OA
HETATM   25  H2  UNL     1       8.647   0.116   0.884  1.00  0.00     0.211 HD
ENDBRANCH   3  24
BRANCH  13  26
HETATM   26  O2  UNL     1      -2.404   1.512  -1.893  1.00  0.00    -0.271 OA
BRANCH  26  27
HETATM   27  C13 UNL     1      -3.385   2.261  -2.605  1.00  0.00     0.303 C 
BRANCH  27  28
HETATM   28  C14 UNL     1      -4.761   1.633  -2.427  1.00  0.00     0.244 C 
HETATM   29  O3  UNL     1      -5.605   1.615  -3.320  1.00  0.00    -0.271 OA
HETATM   30  N2  UNL     1      -5.016   1.168  -1.158  1.00  0.00    -0.342 N 
HETATM   31  H16 UNL     1      -4.303   1.284  -0.443  1.00  0.00     0.163 HD
BRANCH  30  32
HETATM   32  C15 UNL     1      -6.363   0.748  -0.750  1.00  0.00     0.216 C 
BRANCH  32  33
HETATM   33  C16 UNL     1      -7.258   1.966  -0.487  1.00  0.00     0.166 C 
HETATM   34  O4  UNL     1      -8.465   1.945  -0.288  1.00  0.00    -0.648 OA
BRANCH  33  35
HETATM   35  O5  UNL     1      -6.596   3.143  -0.399  1.00  0.00    -0.775 OA
HETATM   36  H18 UNL     1      -7.307   3.807  -0.277  1.00  0.00     0.167 HD
ENDBRANCH  33  35
ENDBRANCH  32  33
BRANCH  32  37
HETATM   37  C17 UNL     1      -6.335  -0.102   0.545  1.00  0.00     0.184 C 
BRANCH  37  38
HETATM   38  O6  UNL     1      -5.167  -0.943   0.582  1.00  0.00    -0.388 OA
HETATM   39  H20 UNL     1      -5.383  -1.738   1.099  1.00  0.00     0.210 HD
ENDBRANCH  37  38
BRANCH  37  40
HETATM   40  C18 UNL     1      -7.574  -0.965   0.729  1.00  0.00    -0.025 A 
HETATM   41  C19 UNL     1      -7.783  -2.106  -0.063  1.00  0.00     0.010 A 
HETATM   42  C20 UNL     1      -8.932  -2.886   0.093  1.00  0.00     0.003 A 
HETATM   43  C21 UNL     1      -9.898  -2.534   1.036  1.00  0.00     0.036 A 
HETATM   44  C22 UNL     1      -9.702  -1.395   1.826  1.00  0.00     0.103 A 
HETATM   45  C23 UNL     1      -8.546  -0.615   1.682  1.00  0.00     0.045 A 
BRANCH  44  46
HETATM   46  N3  UNL     1     -10.721  -1.008   2.810  1.00  0.00    -0.116 N 
HETATM   47  O7  UNL     1     -10.446  -0.082   3.588  1.00  0.00    -0.532 OA
HETATM   48  O8  UNL     1     -11.791  -1.634   2.813  1.00  0.00    -0.532 OA
ENDBRANCH  44  46
ENDBRANCH  37  40
ENDBRANCH  32  37
ENDBRANCH  30  32
ENDBRANCH  27  28
ENDBRANCH  26  27
ENDBRANCH  13  26
TORSDOF 11
