REMARK  6 active torsions:
REMARK  status: ('A' for Active; 'I' for Inactive)
REMARK    1  A    between atoms: C2_2  and  C30_32 
REMARK    2  A    between atoms: C3_3  and  C4_4 
REMARK    3  A    between atoms: C4_4  and  C5_5 
REMARK    4  A    between atoms: C5_5  and  C6_6 
REMARK    5  A    between atoms: C6_6  and  C8_8 
REMARK    6  A    between atoms: C30_32  and  O4_34 
ROOT
HETATM    1  C8  UNL     1       1.927  -1.611   0.265  1.00  0.00    -0.002 C 
HETATM    2  C9  UNL     1       1.370  -2.878   0.915  1.00  0.00     0.007 C 
HETATM    3  C10 UNL     1       0.004  -2.437   1.409  1.00  0.00     0.015 C 
HETATM    4  C11 UNL     1      -0.620  -1.680   0.213  1.00  0.00    -0.005 C 
HETATM    5  C12 UNL     1      -1.254  -2.728  -0.747  1.00  0.00     0.021 C 
HETATM    6  C13 UNL     1      -1.749  -0.723   0.656  1.00  0.00    -0.000 C 
HETATM    7  C14 UNL     1      -1.815   0.587   0.314  1.00  0.00    -0.060 C 
HETATM    8  C15 UNL     1      -0.659   1.219  -0.434  1.00  0.00     0.036 C 
HETATM    9  C16 UNL     1       0.663   0.548  -0.103  1.00  0.00     0.015 C 
HETATM   10  C17 UNL     1       0.664  -0.960  -0.444  1.00  0.00    -0.028 C 
HETATM   11  C18 UNL     1       0.686  -1.105  -1.984  1.00  0.00     0.016 C 
HETATM   12  C19 UNL     1      -2.997   1.528   0.640  1.00  0.00    -0.014 C 
HETATM   13  C20 UNL     1      -2.544   2.469   1.791  1.00  0.00     0.020 C 
HETATM   14  C21 UNL     1      -3.347   2.406  -0.600  1.00  0.00     0.021 C 
HETATM   15  C22 UNL     1      -4.801   2.841  -0.630  1.00  0.00     0.080 C 
HETATM   16  C23 UNL     1      -5.679   1.622  -0.789  1.00  0.00     0.135 C 
HETATM   17  O1  UNL     1      -6.678   1.670  -1.508  1.00  0.00    -0.297 OA
HETATM   18  C24 UNL     1      -5.283   0.351  -0.013  1.00  0.00     0.018 C 
HETATM   19  C25 UNL     1      -6.583  -0.223   0.594  1.00  0.00     0.023 C 
HETATM   20  C26 UNL     1      -4.743  -0.665  -1.030  1.00  0.00     0.023 C 
HETATM   21  C27 UNL     1      -4.276   0.756   1.125  1.00  0.00     0.020 C 
HETATM   22  C28 UNL     1      -3.882  -0.364   2.086  1.00  0.00     0.090 C 
HETATM   23  C29 UNL     1      -2.847  -1.294   1.516  1.00  0.00     0.157 C 
HETATM   24  O2  UNL     1      -2.883  -2.486   1.813  1.00  0.00    -0.293 OA
ENDROOT
BRANCH   1  25
HETATM   25  C6  UNL     1       3.226  -1.845  -0.558  1.00  0.00    -0.014 C 
HETATM   26  C7  UNL     1       4.214  -2.769   0.177  1.00  0.00     0.010 C 
BRANCH  25  27
HETATM   27  C5  UNL     1       3.955  -0.542  -0.975  1.00  0.00     0.008 C 
BRANCH  27  28
HETATM   28  C4  UNL     1       4.481   0.319   0.180  1.00  0.00     0.028 C 
BRANCH  28  29
HETATM   29  C3  UNL     1       5.178   1.548  -0.340  1.00  0.00    -0.013 C 
HETATM   30  C2  UNL     1       6.508   1.769  -0.398  1.00  0.00     0.008 C 
HETATM   31  C1  UNL     1       7.574   0.794   0.006  1.00  0.00     0.055 C 
BRANCH  30  32
HETATM   32  C30 UNL     1       7.043   3.060  -0.910  1.00  0.00     0.171 C 
HETATM   33  O3  UNL     1       8.224   3.358  -0.966  1.00  0.00    -0.646 OA
BRANCH  32  34
HETATM   34  O4  UNL     1       6.099   3.921  -1.324  1.00  0.00    -0.773 OA
HETATM   35  H44 UNL     1       6.616   4.698  -1.620  1.00  0.00     0.167 HD
ENDBRANCH  32  34
ENDBRANCH  30  32
ENDBRANCH  28  29
ENDBRANCH  27  28
ENDBRANCH  25  27
ENDBRANCH   1  25
TORSDOF 6
