REMARK  15 active torsions:
REMARK  status: ('A' for Active; 'I' for Inactive)
REMARK    1  A    between atoms: C14_15  and  O2_16 
REMARK    2  A    between atoms: C14_15  and  C15_17 
REMARK    3  A    between atoms: C15_17  and  C16_19 
REMARK    4  A    between atoms: C16_19  and  O4_20 
REMARK    5  A    between atoms: O4_20  and  C17_21 
REMARK    6  A    between atoms: C17_21  and  C18_23 
REMARK    7  A    between atoms: C18_23  and  C19_24 
REMARK    8  A    between atoms: C19_24  and  C20_25 
REMARK       I    between atoms: C20_25  and  N1_27 
REMARK    9  A    between atoms: N1_27  and  C21_28 
REMARK   10  A    between atoms: C21_28  and  C22_29 
REMARK   11  A    between atoms: C22_29  and  C23_30 
REMARK   12  A    between atoms: C23_30  and  C24_31 
REMARK   13  A    between atoms: C24_31  and  C25_32 
REMARK   14  A    between atoms: C25_32  and  C26_33 
REMARK   15  A    between atoms: C26_33  and  O8_35 
ROOT
HETATM    1  C1  UNL     1      -7.283  -0.830  -1.871  1.00  0.00     0.020 C 
HETATM    2  C2  UNL     1      -6.685  -1.073  -0.466  1.00  0.00    -0.016 C 
HETATM    3  C3  UNL     1      -6.584  -2.611  -0.225  1.00  0.00     0.022 C 
HETATM    4  C4  UNL     1      -7.921  -3.283   0.049  1.00  0.00     0.084 C 
HETATM    5  C5  UNL     1      -8.621  -2.610   1.199  1.00  0.00     0.149 C 
HETATM    6  O1  UNL     1      -9.369  -3.218   1.960  1.00  0.00    -0.293 OA
HETATM    7  C6  UNL     1      -8.461  -1.146   1.348  1.00  0.00     0.053 C 
HETATM    8  C7  UNL     1      -7.622  -0.443   0.567  1.00  0.00    -0.068 C 
HETATM    9  C8  UNL     1      -7.589   1.061   0.671  1.00  0.00     0.035 C 
HETATM   10  C9  UNL     1      -6.172   1.591   0.852  1.00  0.00     0.010 C 
HETATM   11  C10 UNL     1      -5.215   1.089  -0.242  1.00  0.00    -0.004 C 
HETATM   12  C11 UNL     1      -3.780   1.720  -0.217  1.00  0.00     0.002 C 
HETATM   13  C12 UNL     1      -3.415   2.554   1.020  1.00  0.00     0.009 C 
HETATM   14  C13 UNL     1      -2.840   1.559   2.014  1.00  0.00     0.047 C 
HETATM   15  C14 UNL     1      -2.172   0.455   1.178  1.00  0.00     0.128 C 
HETATM   16  C27 UNL     1      -2.559   0.747  -0.330  1.00  0.00    -0.002 C 
HETATM   17  C28 UNL     1      -1.411   1.514  -1.047  1.00  0.00     0.019 C 
HETATM   18  C29 UNL     1      -2.822  -0.519  -1.177  1.00  0.00     0.013 C 
HETATM   19  C30 UNL     1      -4.278  -0.895  -1.425  1.00  0.00     0.007 C 
HETATM   20  C31 UNL     1      -5.236  -0.455  -0.315  1.00  0.00     0.002 C 
ENDROOT
BRANCH  15  21
HETATM   21  O2  UNL     1      -2.759  -0.778   1.638  1.00  0.00    -0.381 OA
HETATM   22  H19 UNL     1      -2.166  -1.501   1.345  1.00  0.00     0.211 HD
ENDBRANCH  15  21
BRANCH  15  23
HETATM   23  C15 UNL     1      -0.658   0.235   1.419  1.00  0.00     0.185 C 
HETATM   24  O3  UNL     1      -0.152  -0.854   1.110  1.00  0.00    -0.292 OA
BRANCH  23  25
HETATM   25  C16 UNL     1       0.169   1.345   2.066  1.00  0.00     0.260 C 
BRANCH  25  26
HETATM   26  O4  UNL     1       1.566   1.052   2.115  1.00  0.00    -0.314 OA
BRANCH  26  27
HETATM   27  C17 UNL     1       2.225   1.207   0.936  1.00  0.00     0.259 C 
HETATM   28  O5  UNL     1       1.723   1.644  -0.091  1.00  0.00    -0.265 OA
BRANCH  27  29
HETATM   29  C18 UNL     1       3.668   0.810   1.094  1.00  0.00     0.120 C 
BRANCH  29  30
HETATM   30  C19 UNL     1       4.286   0.453  -0.252  1.00  0.00     0.112 C 
BRANCH  30  31
HETATM   31  C20 UNL     1       5.765   0.165  -0.122  1.00  0.00     0.217 C 
HETATM   32  O6  UNL     1       6.391   0.299   0.922  1.00  0.00    -0.274 OA
HETATM   33  N1  UNL     1       6.334  -0.257  -1.305  1.00  0.00    -0.361 N 
HETATM   34  H26 UNL     1       5.777  -0.243  -2.150  1.00  0.00     0.162 HD
BRANCH  33  35
HETATM   35  C21 UNL     1       7.758  -0.505  -1.420  1.00  0.00     0.122 C 
BRANCH  35  36
HETATM   36  C22 UNL     1       8.508   0.764  -1.813  1.00  0.00     0.020 C 
BRANCH  36  37
HETATM   37  C23 UNL     1       9.995   0.549  -2.111  1.00  0.00     0.002 C 
BRANCH  37  38
HETATM   38  C24 UNL     1      10.847   0.202  -0.885  1.00  0.00     0.010 C 
BRANCH  38  39
HETATM   39  C25 UNL     1      11.083  -1.299  -0.719  1.00  0.00     0.110 C 
BRANCH  39  40
HETATM   40  C26 UNL     1      11.934  -1.594   0.488  1.00  0.00     0.139 C 
HETATM   41  O7  UNL     1      12.546  -0.798   1.178  1.00  0.00    -0.650 OA
BRANCH  40  42
HETATM   42  O8  UNL     1      11.986  -2.913   0.755  1.00  0.00    -0.776 OA
HETATM   43  H37 UNL     1      12.557  -2.970   1.550  1.00  0.00     0.167 HD
ENDBRANCH  40  42
ENDBRANCH  39  40
ENDBRANCH  38  39
ENDBRANCH  37  38
ENDBRANCH  36  37
ENDBRANCH  35  36
ENDBRANCH  33  35
ENDBRANCH  30  31
ENDBRANCH  29  30
ENDBRANCH  27  29
ENDBRANCH  26  27
ENDBRANCH  25  26
ENDBRANCH  23  25
ENDBRANCH  15  23
TORSDOF 15
