REMARK  13 active torsions:
REMARK  status: ('A' for Active; 'I' for Inactive)
REMARK    1  A    between atoms: C5_6  and  C6_7 
REMARK    2  A    between atoms: C5_6  and  C27_31 
REMARK    3  A    between atoms: C18_19  and  O2_20 
REMARK    4  A    between atoms: C23_25  and  O3_26 
REMARK    5  A    between atoms: C28_33  and  C29_34 
REMARK    6  A    between atoms: C29_34  and  O6_36 
REMARK    7  A    between atoms: C29_34  and  C31_37 
REMARK    8  A    between atoms: C31_37  and  C33_39 
REMARK    9  A    between atoms: C31_37  and  C34_41 
REMARK   10  A    between atoms: C33_39  and  O7_40 
REMARK   11  A    between atoms: C34_41  and  C35_42 
REMARK   12  A    between atoms: C35_42  and  C36_43 
REMARK   13  A    between atoms: C39_47  and  N2_48 
ROOT
HETATM    1  C1  UNL     1       0.420  -4.010   4.116  1.00  0.00     0.010 C 
HETATM    2  C2  UNL     1       0.502  -3.517   2.669  1.00  0.00    -0.014 C 
HETATM    3  C3  UNL     1       1.697  -4.144   1.938  1.00  0.00     0.030 C 
HETATM    4  C4  UNL     1       2.634  -3.090   1.360  1.00  0.00     0.169 C 
HETATM    5  O1  UNL     1       1.917  -2.162   0.552  1.00  0.00    -0.377 OA
HETATM    6  C5  UNL     1       0.890  -1.389   1.236  1.00  0.00     0.094 C 
HETATM    7  C41 UNL     1       0.581  -1.992   2.631  1.00  0.00     0.045 C 
ENDROOT
BRANCH   6   8
HETATM    8  C6  UNL     1      -0.267  -1.295   0.178  1.00  0.00     0.035 C 
HETATM    9  C7  UNL     1      -0.668  -2.655  -0.527  1.00  0.00     0.016 C 
HETATM   10  C8  UNL     1      -2.179  -2.550  -0.785  1.00  0.00     0.026 C 
HETATM   11  C9  UNL     1      -2.809  -3.223  -1.989  1.00  0.00     0.013 C 
HETATM   12  C18 UNL     1      -2.385  -1.042  -0.850  1.00  0.00     0.094 C 
HETATM   13  C10 UNL     1      -4.317  -2.868  -2.023  1.00  0.00     0.043 C 
HETATM   14  C11 UNL     1      -4.674  -1.453  -1.578  1.00  0.00    -0.006 C 
HETATM   15  C12 UNL     1      -3.794  -0.600  -1.016  1.00  0.00    -0.030 C 
HETATM   16  C26 UNL     1      -6.049  -0.976  -1.899  1.00  0.00     0.161 C 
HETATM   17  C13 UNL     1      -4.065   0.858  -0.707  1.00  0.00     0.027 C 
HETATM   18  C14 UNL     1      -3.111   1.495   0.361  1.00  0.00     0.011 C 
HETATM   19  C19 UNL     1      -5.586   1.123  -0.422  1.00  0.00    -0.026 C 
HETATM   20  C15 UNL     1      -1.658   0.966   0.382  1.00  0.00     0.014 C 
HETATM   21  C16 UNL     1      -1.644  -0.572   0.425  1.00  0.00    -0.002 C 
HETATM   22  C17 UNL     1      -2.342  -1.045   1.725  1.00  0.00     0.019 C 
HETATM   23  C20 UNL     1      -6.017   0.557   0.958  1.00  0.00     0.016 C 
HETATM   24  C21 UNL     1      -5.829   2.664  -0.420  1.00  0.00     0.013 C 
HETATM   25  C25 UNL     1      -6.486   0.429  -1.493  1.00  0.00     0.071 C 
HETATM   26  C22 UNL     1      -7.219   3.040  -0.919  1.00  0.00     0.032 C 
HETATM   27  C23 UNL     1      -7.440   2.590  -2.367  1.00  0.00     0.119 C 
HETATM   28  C24 UNL     1      -6.668   1.317  -2.729  1.00  0.00     0.045 C 
HETATM   29  O4  UNL     1      -6.808  -1.721  -2.517  1.00  0.00    -0.292 OA
BRANCH  27  30
HETATM   30  O3  UNL     1      -8.831   2.340  -2.546  1.00  0.00    -0.396 OA
HETATM   31  H34 UNL     1      -9.307   3.180  -2.422  1.00  0.00     0.210 HD
ENDBRANCH  27  30
BRANCH  12  32
HETATM   32  O2  UNL     1      -1.712  -0.516  -2.014  1.00  0.00    -0.384 OA
HETATM   33  H25 UNL     1      -2.221  -0.778  -2.798  1.00  0.00     0.211 HD
ENDBRANCH  12  32
ENDBRANCH   6   8
BRANCH   6  34
HETATM   34  C27 UNL     1       1.422   0.027   1.483  1.00  0.00     0.189 A 
HETATM   35  O5  UNL     1       2.832   0.116   1.751  1.00  0.00    -0.369 OA
HETATM   36  C28 UNL     1       2.381   0.708   0.524  1.00  0.00     0.189 A 
BRANCH  36  37
HETATM   37  C29 UNL     1       2.599   2.210   0.409  1.00  0.00     0.092 C 
HETATM   38  C30 UNL     1       1.857   2.982   1.515  1.00  0.00     0.049 C 
BRANCH  37  39
HETATM   39  O6  UNL     1       1.929   2.599  -0.801  1.00  0.00    -0.387 OA
HETATM   40  H43 UNL     1       2.602   2.676  -1.509  1.00  0.00     0.210 HD
ENDBRANCH  37  39
BRANCH  37  41
HETATM   41  C31 UNL     1       4.158   2.596   0.326  1.00  0.00     0.011 C 
HETATM   42  C32 UNL     1       4.790   2.671   1.737  1.00  0.00     0.020 C 
BRANCH  41  43
HETATM   43  C33 UNL     1       4.316   3.999  -0.326  1.00  0.00     0.176 C 
BRANCH  43  44
HETATM   44  O7  UNL     1       4.056   3.923  -1.729  1.00  0.00    -0.400 OA
HETATM   45  H49 UNL     1       3.825   4.827  -2.019  1.00  0.00     0.209 HD
ENDBRANCH  43  44
ENDBRANCH  41  43
BRANCH  41  46
HETATM   46  C34 UNL     1       4.931   1.528  -0.524  1.00  0.00     0.019 C 
BRANCH  46  47
HETATM   47  C35 UNL     1       6.408   1.823  -0.828  1.00  0.00     0.039 C 
BRANCH  47  48
HETATM   48  C36 UNL     1       7.000   0.710  -1.668  1.00  0.00    -0.054 A 
HETATM   49  C37 UNL     1       7.029   0.811  -3.061  1.00  0.00     0.024 A 
HETATM   50  C38 UNL     1       7.527  -0.245  -3.809  1.00  0.00     0.090 A 
HETATM   51  N1  UNL     1       7.972  -1.342  -3.185  1.00  0.00    -0.357 N 
HETATM   52  C39 UNL     1       7.961  -1.488  -1.859  1.00  0.00     0.077 A 
HETATM   53  H56 UNL     1       8.330  -2.132  -3.714  1.00  0.00     0.166 HD
HETATM   54  C40 UNL     1       7.471  -0.462  -1.065  1.00  0.00     0.049 A 
BRANCH  52  55
HETATM   55  N2  UNL     1       8.437  -2.689  -1.352  1.00  0.00    -0.289 NA
HETATM   56  H57 UNL     1       9.191  -2.520  -0.680  1.00  0.00     0.125 HD
HETATM   57  H58 UNL     1       7.713  -3.163  -0.808  1.00  0.00     0.125 HD
ENDBRANCH  52  55
ENDBRANCH  47  48
ENDBRANCH  46  47
ENDBRANCH  41  46
ENDBRANCH  37  41
ENDBRANCH  36  37
ENDBRANCH   6  34
TORSDOF 13
