REMARK  16 active torsions:
REMARK  status: ('A' for Active; 'I' for Inactive)
REMARK    1  A    between atoms: C2_2  and  C3_3 
REMARK    2  A    between atoms: C2_2  and  C4_5 
REMARK    3  A    between atoms: C12_13  and  O2_14 
REMARK    4  A    between atoms: O2_14  and  C13_15 
REMARK    5  A    between atoms: C13_15  and  C14_17 
REMARK    6  A    between atoms: C14_17  and  C16_19 
REMARK    7  A    between atoms: C16_19  and  O4_20 
REMARK    8  A    between atoms: C16_19  and  C17_21 
REMARK    9  A    between atoms: C19_23  and  C20_24 
REMARK   10  A    between atoms: C20_24  and  C21_25 
REMARK   11  A    between atoms: C20_24  and  C22_27 
REMARK   12  A    between atoms: C21_25  and  O5_26 
REMARK   13  A    between atoms: C22_27  and  C23_28 
REMARK   14  A    between atoms: C23_28  and  C24_29 
REMARK   15  A    between atoms: C24_29  and  C25_30 
REMARK   16  A    between atoms: C25_30  and  C26_31 
ROOT
HETATM    1  C13 UNL     1      -0.886  -0.484  -2.972  1.00  0.00     0.266 C 
HETATM    2  O3  UNL     1      -1.391  -0.160  -4.040  1.00  0.00    -0.265 OA
ENDROOT
BRANCH   1   3
HETATM    3  O2  UNL     1      -1.446  -0.256  -1.749  1.00  0.00    -0.312 OA
BRANCH   3   4
HETATM    4  C12 UNL     1      -2.712   0.428  -1.772  1.00  0.00     0.170 C 
HETATM    5  C11 UNL     1      -2.455   1.932  -1.794  1.00  0.00     0.036 C 
HETATM    6  C10 UNL     1      -3.731   2.765  -1.672  1.00  0.00     0.007 C 
HETATM    7  C8  UNL     1      -4.879   2.073  -0.904  1.00  0.00    -0.007 C 
HETATM    8  C6  UNL     1      -4.363   1.062   0.172  1.00  0.00    -0.003 C 
HETATM    9  C9  UNL     1      -5.847   3.136  -0.377  1.00  0.00     0.011 C 
HETATM   10  C5  UNL     1      -5.558   0.340   0.878  1.00  0.00     0.030 C 
HETATM   11  C7  UNL     1      -3.520   1.771   1.263  1.00  0.00     0.019 C 
HETATM   12  C28 UNL     1      -3.525  -0.001  -0.560  1.00  0.00     0.129 A 
HETATM   13  C4  UNL     1      -5.122  -0.744   1.890  1.00  0.00     0.094 C 
HETATM   14  C30 UNL     1      -3.882  -1.555   1.491  1.00  0.00     0.167 C 
HETATM   15  C29 UNL     1      -3.306  -1.333   0.144  1.00  0.00     0.230 A 
HETATM   16  O7  UNL     1      -3.334  -2.342   2.260  1.00  0.00    -0.294 OA
HETATM   17  O6  UNL     1      -4.278  -1.198  -0.891  1.00  0.00    -0.358 OA
BRANCH  13  18
HETATM   18  C2  UNL     1      -6.271  -1.665   2.236  1.00  0.00    -0.018 C 
HETATM   19  C1  UNL     1      -6.671  -2.722   1.506  1.00  0.00     0.022 C 
BRANCH  18  20
HETATM   20  C3  UNL     1      -7.003  -1.377   3.504  1.00  0.00     0.265 C 
HETATM   21  O1  UNL     1      -8.036  -1.946   3.839  1.00  0.00    -0.302 OA
ENDBRANCH  18  20
ENDBRANCH  13  18
ENDBRANCH   3   4
ENDBRANCH   1   3
BRANCH   1  22
HETATM   22  C14 UNL     1       0.425  -1.233  -2.856  1.00  0.00     0.114 C 
HETATM   23  C15 UNL     1       0.184  -2.579  -2.166  1.00  0.00     0.023 C 
BRANCH  22  24
HETATM   24  C16 UNL     1       1.469  -0.357  -2.144  1.00  0.00     0.159 C 
BRANCH  24  25
HETATM   25  O4  UNL     1       1.654   0.854  -2.878  1.00  0.00    -0.390 OA
HETATM   26  H24 UNL     1       2.445   1.287  -2.511  1.00  0.00     0.210 HD
ENDBRANCH  24  25
BRANCH  24  27
HETATM   27  C17 UNL     1       2.842  -1.005  -2.005  1.00  0.00    -0.058 C 
HETATM   28  C18 UNL     1       3.484  -1.476  -3.289  1.00  0.00     0.046 C 
HETATM   29  C19 UNL     1       3.423  -1.119  -0.790  1.00  0.00    -0.015 C 
BRANCH  29  30
HETATM   30  C20 UNL     1       4.756  -1.779  -0.479  1.00  0.00     0.032 C 
BRANCH  30  31
HETATM   31  C21 UNL     1       4.764  -2.410   0.927  1.00  0.00     0.172 C 
BRANCH  31  32
HETATM   32  O5  UNL     1       3.811  -3.468   0.998  1.00  0.00    -0.400 OA
HETATM   33  H32 UNL     1       3.909  -3.885   1.872  1.00  0.00     0.209 HD
ENDBRANCH  31  32
ENDBRANCH  30  31
BRANCH  30  34
HETATM   34  C22 UNL     1       5.951  -0.826  -0.703  1.00  0.00     0.010 C 
BRANCH  34  35
HETATM   35  C23 UNL     1       6.288   0.194   0.395  1.00  0.00     0.001 C 
BRANCH  35  36
HETATM   36  C24 UNL     1       5.202   1.243   0.638  1.00  0.00     0.000 C 
BRANCH  36  37
HETATM   37  C25 UNL     1       5.681   2.430   1.486  1.00  0.00    -0.000 C 
BRANCH  37  38
HETATM   38  C26 UNL     1       5.469   2.286   2.996  1.00  0.00    -0.005 C 
HETATM   39  C27 UNL     1       6.283   1.182   3.648  1.00  0.00     0.005 C 
ENDBRANCH  37  38
ENDBRANCH  36  37
ENDBRANCH  35  36
ENDBRANCH  34  35
ENDBRANCH  30  34
ENDBRANCH  29  30
ENDBRANCH  24  27
ENDBRANCH  22  24
ENDBRANCH   1  22
TORSDOF 16
