REMARK  10 active torsions:
REMARK  status: ('A' for Active; 'I' for Inactive)
REMARK    1  A    between atoms: C2_2  and  O1_3 
REMARK    2  A    between atoms: O1_3  and  C3_4 
REMARK    3  A    between atoms: C3_4  and  C4_6 
REMARK    4  A    between atoms: C4_6  and  C5_7 
REMARK    5  A    between atoms: C5_7  and  C6_8 
REMARK    6  A    between atoms: C6_8  and  C8_10 
REMARK    7  A    between atoms: C13_15  and  O3_16 
REMARK    8  A    between atoms: C17_21  and  O4_22 
REMARK    9  A    between atoms: C24_29  and  O5_30 
REMARK   10  A    between atoms: O5_30  and  C25_31 
ROOT
HETATM    1  C8  UNL     1       1.610   0.732   0.473  1.00  0.00     0.000 C 
HETATM    2  C9  UNL     1       1.675   2.288   0.360  1.00  0.00     0.006 C 
HETATM    3  C10 UNL     1       0.577   2.736  -0.595  1.00  0.00     0.006 C 
HETATM    4  C11 UNL     1      -0.395   1.558  -0.650  1.00  0.00     0.003 C 
HETATM    5  C12 UNL     1      -1.423   1.602   0.542  1.00  0.00     0.025 C 
HETATM    6  C13 UNL     1      -2.401   2.798   0.390  1.00  0.00     0.137 C 
HETATM    7  C14 UNL     1      -3.803   2.564   0.959  1.00  0.00     0.092 C 
HETATM    8 BR1  UNL     1      -3.778   2.474   2.917  1.00  0.00    -0.088 Br
HETATM    9  C15 UNL     1      -4.466   1.359   0.280  1.00  0.00     0.013 C 
HETATM   10  C16 UNL     1      -5.902   1.108   0.789  1.00  0.00     0.038 C 
HETATM   11  C17 UNL     1      -6.528  -0.101   0.111  1.00  0.00     0.118 C 
HETATM   12  C18 UNL     1      -5.742  -1.376   0.407  1.00  0.00     0.032 C 
HETATM   13  C19 UNL     1      -4.305  -1.124   0.873  1.00  0.00     0.012 C 
HETATM   14  C20 UNL     1      -3.572   0.060   0.166  1.00  0.00    -0.035 C 
HETATM   15  C21 UNL     1      -3.440  -0.303  -1.332  1.00  0.00     0.016 C 
HETATM   16  C22 UNL     1      -2.150   0.260   0.833  1.00  0.00     0.003 C 
HETATM   17  C23 UNL     1      -1.171  -0.925   0.760  1.00  0.00     0.039 C 
HETATM   18  C24 UNL     1      -0.276  -0.950  -0.474  1.00  0.00     0.141 C 
HETATM   19  C27 UNL     1       0.584   0.330  -0.653  1.00  0.00    -0.009 C 
HETATM   20  C28 UNL     1       1.305   0.221  -2.025  1.00  0.00     0.018 C 
ENDROOT
BRANCH   1  21
HETATM   21  C6  UNL     1       3.071   0.159   0.527  1.00  0.00    -0.013 C 
HETATM   22  C7  UNL     1       3.804   0.742   1.756  1.00  0.00     0.010 C 
BRANCH  21  23
HETATM   23  C5  UNL     1       3.142  -1.381   0.560  1.00  0.00     0.014 C 
BRANCH  23  24
HETATM   24  C4  UNL     1       4.529  -2.003   0.736  1.00  0.00     0.111 C 
BRANCH  24  25
HETATM   25  C3  UNL     1       5.407  -1.746  -0.462  1.00  0.00     0.258 C 
HETATM   26  O2  UNL     1       5.253  -2.283  -1.550  1.00  0.00    -0.265 OA
BRANCH  25  27
HETATM   27  O1  UNL     1       6.365  -0.826  -0.167  1.00  0.00    -0.322 OA
BRANCH  27  28
HETATM   28  C2  UNL     1       7.232  -0.507  -1.261  1.00  0.00     0.174 C 
HETATM   29  C1  UNL     1       8.206   0.559  -0.797  1.00  0.00     0.034 C 
ENDBRANCH  27  28
ENDBRANCH  25  27
ENDBRANCH  24  25
ENDBRANCH  23  24
ENDBRANCH  21  23
ENDBRANCH   1  21
BRANCH  18  30
HETATM   30  O5  UNL     1       0.540  -2.130  -0.411  1.00  0.00    -0.316 OA
BRANCH  30  31
HETATM   31  C25 UNL     1       0.004  -3.281  -0.902  1.00  0.00     0.255 C 
HETATM   32  C26 UNL     1       1.007  -4.389  -0.809  1.00  0.00     0.126 C 
HETATM   33  O6  UNL     1      -1.120  -3.402  -1.369  1.00  0.00    -0.266 OA
ENDBRANCH  30  31
ENDBRANCH  18  30
BRANCH   6  34
HETATM   34  O3  UNL     1      -1.813   3.973   0.956  1.00  0.00    -0.394 OA
HETATM   35  H22 UNL     1      -2.490   4.669   1.009  1.00  0.00     0.210 HD
ENDBRANCH   6  34
BRANCH  11  36
HETATM   36  O4  UNL     1      -7.869  -0.242   0.571  1.00  0.00    -0.396 OA
HETATM   37  H28 UNL     1      -8.236  -1.044   0.163  1.00  0.00     0.210 HD
ENDBRANCH  11  36
TORSDOF 10
