REMARK  8 active torsions:
REMARK  status: ('A' for Active; 'I' for Inactive)
REMARK    1  A    between atoms: C2_2  and  C3_3 
REMARK    2  A    between atoms: C2_2  and  C9_12 
REMARK    3  A    between atoms: C3_3  and  C4_4 
REMARK    4  A    between atoms: C4_4  and  O1_5 
REMARK    5  A    between atoms: C4_4  and  C5_6 
REMARK    6  A    between atoms: C5_6  and  O2_7 
REMARK    7  A    between atoms: C5_6  and  C6_8 
REMARK    8  A    between atoms: C6_8  and  O3_11 
ROOT
HETATM    1  C9  UNL     1       1.414  -1.752   0.279  1.00  0.00    -0.001 C 
HETATM    2  C10 UNL     1       0.791  -2.850   1.192  1.00  0.00     0.007 C 
HETATM    3  C11 UNL     1      -0.636  -2.383   1.549  1.00  0.00     0.015 C 
HETATM    4  C12 UNL     1      -0.691  -0.896   1.136  1.00  0.00    -0.004 C 
HETATM    5  C13 UNL     1      -0.069  -0.071   2.306  1.00  0.00     0.021 C 
HETATM    6  C14 UNL     1      -2.019  -0.202   0.843  1.00  0.00     0.007 C 
HETATM    7  C15 UNL     1      -2.130   0.815  -0.051  1.00  0.00     0.007 C 
HETATM    8  C16 UNL     1      -0.865   1.268  -0.765  1.00  0.00     0.157 C 
HETATM    9  O4  UNL     1      -0.863   2.301  -1.441  1.00  0.00    -0.293 OA
HETATM   10  C17 UNL     1       0.422   0.470  -0.645  1.00  0.00     0.094 C 
HETATM   11  C18 UNL     1       0.159  -0.964  -0.193  1.00  0.00    -0.022 C 
HETATM   12  C19 UNL     1      -0.584  -1.737  -1.332  1.00  0.00     0.017 C 
HETATM   13  C20 UNL     1      -3.442   1.568  -0.376  1.00  0.00    -0.007 C 
HETATM   14  C21 UNL     1      -3.362   2.950   0.321  1.00  0.00     0.021 C 
HETATM   15  C22 UNL     1      -3.607   1.779  -1.918  1.00  0.00     0.022 C 
HETATM   16  C23 UNL     1      -5.039   1.814  -2.444  1.00  0.00     0.080 C 
HETATM   17  C24 UNL     1      -6.017   2.257  -1.388  1.00  0.00     0.135 C 
HETATM   18  O5  UNL     1      -6.767   3.212  -1.581  1.00  0.00    -0.297 OA
HETATM   19  C25 UNL     1      -6.074   1.402  -0.115  1.00  0.00     0.018 C 
HETATM   20  C26 UNL     1      -6.554   2.261   1.071  1.00  0.00     0.023 C 
HETATM   21  C27 UNL     1      -7.148   0.321  -0.364  1.00  0.00     0.023 C 
HETATM   22  C28 UNL     1      -4.674   0.724   0.110  1.00  0.00     0.021 C 
HETATM   23  C29 UNL     1      -4.473   0.227   1.542  1.00  0.00     0.090 C 
HETATM   24  C30 UNL     1      -3.216  -0.598   1.649  1.00  0.00     0.157 C 
HETATM   25  O6  UNL     1      -3.172  -1.544   2.433  1.00  0.00    -0.293 OA
ENDROOT
BRANCH   1  26
HETATM   26  C2  UNL     1       2.487  -2.345  -0.688  1.00  0.00    -0.011 C 
HETATM   27  C1  UNL     1       2.513  -1.838  -2.130  1.00  0.00     0.010 C 
BRANCH  26  28
HETATM   28  C3  UNL     1       3.918  -2.244  -0.063  1.00  0.00     0.039 C 
BRANCH  28  29
HETATM   29  C4  UNL     1       4.633  -0.882  -0.244  1.00  0.00     0.150 C 
BRANCH  29  30
HETATM   30  O1  UNL     1       3.841   0.142   0.357  1.00  0.00    -0.393 OA
HETATM   31  H8  UNL     1       4.415   0.931   0.465  1.00  0.00     0.210 HD
ENDBRANCH  29  30
BRANCH  29  32
HETATM   32  C5  UNL     1       6.086  -0.891   0.321  1.00  0.00     0.180 C 
BRANCH  32  33
HETATM   33  O2  UNL     1       6.057  -1.188   1.726  1.00  0.00    -0.390 OA
HETATM   34  H10 UNL     1       5.952  -2.150   1.836  1.00  0.00     0.210 HD
ENDBRANCH  32  33
BRANCH  32  35
HETATM   35  C6  UNL     1       6.831   0.472   0.169  1.00  0.00     0.079 C 
HETATM   36  C7  UNL     1       8.265   0.383   0.712  1.00  0.00     0.048 C 
HETATM   37  C8  UNL     1       6.867   0.980  -1.274  1.00  0.00     0.048 C 
BRANCH  35  38
HETATM   38  O3  UNL     1       6.135   1.448   0.960  1.00  0.00    -0.388 OA
HETATM   39  H17 UNL     1       6.076   1.049   1.856  1.00  0.00     0.210 HD
ENDBRANCH  35  38
ENDBRANCH  32  35
ENDBRANCH  29  32
ENDBRANCH  28  29
ENDBRANCH  26  28
ENDBRANCH   1  26
TORSDOF 8
