REMARK  6 active torsions:
REMARK  status: ('A' for Active; 'I' for Inactive)
REMARK    1  A    between atoms: C2_2  and  O2_4 
REMARK    2  A    between atoms: O2_4  and  C3_5 
REMARK    3  A    between atoms: C13_15  and  C14_16 
REMARK    4  A    between atoms: C14_16  and  C16_18 
REMARK    5  A    between atoms: C17_19  and  C18_20 
REMARK    6  A    between atoms: C18_20  and  C20_22 
ROOT
HETATM    1  C3  UNL     1      -6.711  -0.475  -0.539  1.00  0.00     0.135 C 
HETATM    2  C4  UNL     1      -6.089  -1.874  -0.493  1.00  0.00     0.034 C 
HETATM    3  C5  UNL     1      -4.601  -1.844  -0.132  1.00  0.00     0.015 C 
HETATM    4  C6  UNL     1      -3.769  -0.940  -1.077  1.00  0.00     0.001 C 
HETATM    5  C7  UNL     1      -3.741  -1.582  -2.488  1.00  0.00     0.019 C 
HETATM    6  C8  UNL     1      -2.313  -0.767  -0.503  1.00  0.00     0.039 C 
HETATM    7  C9  UNL     1      -1.220  -1.724  -0.993  1.00  0.00     0.010 C 
HETATM    8  C10 UNL     1       0.093  -1.560  -0.188  1.00  0.00     0.010 C 
HETATM    9  C11 UNL     1       0.376  -0.115   0.311  1.00  0.00    -0.033 C 
HETATM   10  C12 UNL     1      -0.023   0.034   1.798  1.00  0.00     0.016 C 
HETATM   11  C13 UNL     1       1.847   0.371   0.085  1.00  0.00     0.001 C 
HETATM   12  C23 UNL     1       1.707   1.921   0.045  1.00  0.00     0.006 C 
HETATM   13  C24 UNL     1       0.249   2.235  -0.322  1.00  0.00     0.009 C 
HETATM   14  C25 UNL     1      -0.361   0.872  -0.623  1.00  0.00     0.036 C 
HETATM   15  C26 UNL     1      -1.891   0.730  -0.678  1.00  0.00     0.123 C 
HETATM   16  C27 UNL     1      -2.743   1.507   0.299  1.00  0.00     0.014 C 
HETATM   17  C28 UNL     1      -4.062   1.333   0.109  1.00  0.00     0.014 C 
HETATM   18  C29 UNL     1      -4.403   0.503  -1.121  1.00  0.00     0.124 C 
HETATM   19  C30 UNL     1      -5.909   0.484  -1.427  1.00  0.00     0.079 C 
HETATM   20  O3  UNL     1      -3.748   1.232  -2.187  1.00  0.00    -0.223 OA
HETATM   21  O4  UNL     1      -2.266   1.138  -2.028  1.00  0.00    -0.224 OA
ENDROOT
BRANCH  11  22
HETATM   22  C14 UNL     1       2.956  -0.106   1.061  1.00  0.00     0.008 C 
HETATM   23  C15 UNL     1       3.066  -1.634   1.139  1.00  0.00     0.014 C 
BRANCH  22  24
HETATM   24  C16 UNL     1       4.285   0.550   0.715  1.00  0.00    -0.026 C 
HETATM   25  C17 UNL     1       5.307   0.001   0.037  1.00  0.00    -0.026 C 
BRANCH  25  26
HETATM   26  C18 UNL     1       6.610   0.718  -0.253  1.00  0.00     0.007 C 
HETATM   27  C19 UNL     1       6.718   0.914  -1.769  1.00  0.00     0.014 C 
BRANCH  26  28
HETATM   28  C20 UNL     1       7.821  -0.059   0.338  1.00  0.00    -0.015 C 
HETATM   29  C21 UNL     1       7.711  -0.207   1.862  1.00  0.00     0.010 C 
HETATM   30  C22 UNL     1       9.160   0.610   0.005  1.00  0.00     0.010 C 
ENDBRANCH  26  28
ENDBRANCH  25  26
ENDBRANCH  22  24
ENDBRANCH  11  22
BRANCH   1  31
HETATM   31  O2  UNL     1      -6.779   0.010   0.817  1.00  0.00    -0.316 OA
BRANCH  31  32
HETATM   32  C2  UNL     1      -7.757   0.919   1.084  1.00  0.00     0.255 C 
HETATM   33  C1  UNL     1      -7.728   1.292   2.534  1.00  0.00     0.126 C 
HETATM   34  O1  UNL     1      -8.560   1.359   0.275  1.00  0.00    -0.266 OA
ENDBRANCH  31  32
ENDBRANCH   1  31
TORSDOF 6
