REMARK  13 active torsions:
REMARK  status: ('A' for Active; 'I' for Inactive)
REMARK    1  A    between atoms: C3_3  and  C4_4 
REMARK    2  A    between atoms: C5_6  and  O2_7 
REMARK    3  A    between atoms: C5_6  and  C6_8 
REMARK    4  A    between atoms: C6_8  and  C8_10 
REMARK    5  A    between atoms: C8_10  and  O3_11 
REMARK    6  A    between atoms: C8_10  and  C9_12 
REMARK    7  A    between atoms: C9_12  and  C11_14 
REMARK    8  A    between atoms: C12_15  and  O4_16 
REMARK    9  A    between atoms: C22_26  and  O5_27 
REMARK   10  A    between atoms: C23_28  and  C24_29 
REMARK   11  A    between atoms: C26_31  and  O6_32 
REMARK   12  A    between atoms: C33_39  and  O7_40 
REMARK   13  A    between atoms: C39_48  and  O10_49 
ROOT
HETATM    1  C11 UNL     1       1.423   0.638   0.072  1.00  0.00     0.032 C 
HETATM    2  C12 UNL     1       1.153  -0.913  -0.045  1.00  0.00     0.154 C 
HETATM    3  C14 UNL     1      -0.178  -1.317   0.591  1.00  0.00    -0.051 C 
HETATM    4  C15 UNL     1      -1.103  -2.117   0.020  1.00  0.00     0.006 C 
HETATM    5  C16 UNL     1      -2.400  -2.471   0.560  1.00  0.00     0.003 C 
HETATM    6  C17 UNL     1      -3.341  -3.238  -0.030  1.00  0.00    -0.083 C 
HETATM    7  C18 UNL     1      -3.194  -3.907  -1.370  1.00  0.00     0.043 C 
HETATM    8  C19 UNL     1      -4.626  -3.544   0.725  1.00  0.00     0.040 C 
HETATM    9  C20 UNL     1      -5.884  -2.697   0.388  1.00  0.00     0.014 C 
HETATM   10  C21 UNL     1      -6.401  -3.021  -1.014  1.00  0.00     0.012 C 
HETATM   11  C22 UNL     1      -5.693  -1.171   0.669  1.00  0.00     0.128 C 
HETATM   12  C23 UNL     1      -7.018  -0.330   0.575  1.00  0.00     0.044 C 
HETATM   13  C26 UNL     1      -7.343   0.153  -0.880  1.00  0.00     0.132 C 
HETATM   14  C27 UNL     1      -6.717   1.499  -1.358  1.00  0.00     0.034 C 
HETATM   15  C28 UNL     1      -7.247   1.882  -2.749  1.00  0.00     0.017 C 
HETATM   16  C29 UNL     1      -5.208   1.450  -1.440  1.00  0.00    -0.013 C 
HETATM   17  C30 UNL     1      -4.311   2.312  -0.916  1.00  0.00    -0.062 C 
HETATM   18  C31 UNL     1      -4.690   3.560  -0.164  1.00  0.00     0.048 C 
HETATM   19  C32 UNL     1      -2.887   2.024  -1.114  1.00  0.00     0.047 C 
HETATM   20  C33 UNL     1      -1.805   2.571  -0.523  1.00  0.00     0.123 C 
HETATM   21  C35 UNL     1      -0.481   1.996  -0.738  1.00  0.00     0.257 C 
HETATM   22  O8  UNL     1       0.156   2.479  -1.707  1.00  0.00    -0.281 OA
HETATM   23  O9  UNL     1       0.184   1.339   0.353  1.00  0.00     0.000 OA
HETATM   24  C36 UNL     1      -0.607   0.896   1.470  1.00  0.00     0.005 C 
HETATM   25  C37 UNL     1      -0.370  -0.555   1.868  1.00  0.00     0.037 C 
ENDROOT
BRANCH   1  26
HETATM   26  C9  UNL     1       2.532   1.039   1.126  1.00  0.00     0.018 C 
HETATM   27  C10 UNL     1       2.359   2.503   1.625  1.00  0.00     0.013 C 
BRANCH  26  28
HETATM   28  C8  UNL     1       4.001   0.946   0.585  1.00  0.00     0.131 C 
BRANCH  28  29
HETATM   29  C6  UNL     1       4.484  -0.394  -0.037  1.00  0.00     0.073 C 
HETATM   30  C7  UNL     1       4.612  -1.481   1.039  1.00  0.00     0.018 C 
BRANCH  29  31
HETATM   31  C5  UNL     1       5.822  -0.205  -0.838  1.00  0.00     0.170 C 
HETATM   32  O1  UNL     1       6.812   0.318   0.055  1.00  0.00    -0.345 OA
HETATM   33  C4  UNL     1       8.144   0.171  -0.442  1.00  0.00     0.153 C 
HETATM   34  C40 UNL     1       8.556  -1.316  -0.378  1.00  0.00     0.043 C 
HETATM   35  C39 UNL     1       7.364  -2.225  -0.731  1.00  0.00     0.129 C 
HETATM   36  C41 UNL     1       9.104  -1.749   0.991  1.00  0.00     0.015 C 
HETATM   37  C38 UNL     1       6.297  -1.495  -1.539  1.00  0.00     0.101 C 
BRANCH  33  38
HETATM   38  C3  UNL     1       9.097   1.104   0.264  1.00  0.00     0.001 C 
HETATM   39  C2  UNL     1       8.838   1.870   1.338  1.00  0.00    -0.033 C 
HETATM   40  C1  UNL     1       9.840   2.775   1.980  1.00  0.00     0.036 C 
ENDBRANCH  33  38
BRANCH  35  41
HETATM   41  O10 UNL     1       7.849  -3.336  -1.490  1.00  0.00    -0.395 OA
HETATM   42  H63 UNL     1       7.137  -3.994  -1.542  1.00  0.00     0.210 HD
ENDBRANCH  35  41
BRANCH  31  43
HETATM   43  O2  UNL     1       5.525   0.774  -1.832  1.00  0.00    -0.365 OA
HETATM   44  H7  UNL     1       6.197   0.736  -2.530  1.00  0.00     0.213 HD
ENDBRANCH  31  43
ENDBRANCH  29  31
ENDBRANCH  28  29
BRANCH  28  45
HETATM   45  O3  UNL     1       4.868   1.253   1.689  1.00  0.00    -0.395 OA
HETATM   46  H13 UNL     1       5.776   1.245   1.322  1.00  0.00     0.210 HD
ENDBRANCH  28  45
ENDBRANCH  26  28
ENDBRANCH   1  26
BRANCH   2  47
HETATM   47  O4  UNL     1       1.198  -1.304  -1.423  1.00  0.00    -0.386 OA
HETATM   48  C13 UNL     1       1.756  -2.594  -1.647  1.00  0.00     0.202 C 
ENDBRANCH   2  47
BRANCH  20  49
HETATM   49  O7  UNL     1      -1.893   3.515   0.489  1.00  0.00    -0.352 OA
HETATM   50  C34 UNL     1      -1.298   4.751   0.086  1.00  0.00     0.210 C 
ENDBRANCH  20  49
BRANCH  11  51
HETATM   51  O5  UNL     1      -5.140  -1.061   1.991  1.00  0.00    -0.395 OA
HETATM   52  H35 UNL     1      -5.775  -1.466   2.610  1.00  0.00     0.210 HD
ENDBRANCH  11  51
BRANCH  13  53
HETATM   53  O6  UNL     1      -8.774   0.258  -0.998  1.00  0.00    -0.394 OA
HETATM   54  H43 UNL     1      -9.147  -0.634  -0.891  1.00  0.00     0.210 HD
ENDBRANCH  13  53
BRANCH  12  55
HETATM   55  C24 UNL     1      -7.088   0.808   1.633  1.00  0.00     0.005 C 
HETATM   56  C25 UNL     1      -8.442   1.501   1.735  1.00  0.00     0.005 C 
ENDBRANCH  12  55
TORSDOF 13
