REMARK  12 active torsions:
REMARK  status: ('A' for Active; 'I' for Inactive)
REMARK    1  A    between atoms: C2_2  and  C3_3 
REMARK    2  A    between atoms: C2_2  and  C10_14 
REMARK    3  A    between atoms: C3_3  and  O1_4 
REMARK    4  A    between atoms: C3_3  and  C4_5 
REMARK    5  A    between atoms: C4_5  and  C5_6 
REMARK    6  A    between atoms: C5_6  and  O2_7 
REMARK    7  A    between atoms: C5_6  and  C6_8 
REMARK    8  A    between atoms: C5_6  and  C7_10 
REMARK    9  A    between atoms: C6_8  and  O3_9 
REMARK   10  A    between atoms: C7_10  and  O4_13 
REMARK   11  A    between atoms: C19_23  and  C20_24 
REMARK   12  A    between atoms: C20_24  and  O5_25 
ROOT
HETATM    1  C10 UNL     1      -1.404  -1.030  -0.841  1.00  0.00     0.001 C 
HETATM    2  C11 UNL     1      -1.068  -2.176  -1.847  1.00  0.00     0.007 C 
HETATM    3  C12 UNL     1       0.464  -2.317  -1.879  1.00  0.00     0.011 C 
HETATM    4  C13 UNL     1       0.952  -1.603  -0.603  1.00  0.00    -0.032 C 
HETATM    5  C14 UNL     1       0.722  -2.617   0.572  1.00  0.00     0.016 C 
HETATM    6  C15 UNL     1       2.447  -1.131  -0.653  1.00  0.00     0.004 C 
HETATM    7  C16 UNL     1       3.441  -2.246  -0.271  1.00  0.00     0.007 C 
HETATM    8  C17 UNL     1       4.921  -1.874  -0.390  1.00  0.00     0.007 C 
HETATM    9  C18 UNL     1       5.214  -0.364  -0.359  1.00  0.00     0.008 C 
HETATM   10  C19 UNL     1       6.680  -0.072   0.028  1.00  0.00     0.083 C 
HETATM   11  C21 UNL     1       6.889  -0.268   1.523  1.00  0.00     0.133 C 
HETATM   12  O6  UNL     1       8.004  -0.500   1.995  1.00  0.00    -0.297 OA
HETATM   13  C22 UNL     1       5.684  -0.195   2.427  1.00  0.00     0.079 C 
HETATM   14  C23 UNL     1       4.676   0.796   1.879  1.00  0.00     0.018 C 
HETATM   15  C24 UNL     1       4.196   0.391   0.500  1.00  0.00    -0.027 A 
HETATM   16  C25 UNL     1       3.346   1.362  -0.270  1.00  0.00     0.021 A 
HETATM   17  C26 UNL     1       2.694   0.097   0.263  1.00  0.00    -0.027 A 
HETATM   18  C27 UNL     1       1.627   0.355   1.321  1.00  0.00     0.011 C 
HETATM   19  C28 UNL     1       0.169   0.333   0.801  1.00  0.00     0.011 C 
HETATM   20  C29 UNL     1      -0.011  -0.360  -0.568  1.00  0.00    -0.032 C 
HETATM   21  C30 UNL     1       0.270   0.681  -1.682  1.00  0.00     0.016 C 
ENDROOT
BRANCH   1  22
HETATM   22  C2  UNL     1      -2.689  -0.207  -1.226  1.00  0.00     0.015 C 
HETATM   23  C1  UNL     1      -2.659   0.412  -2.636  1.00  0.00     0.013 C 
BRANCH  22  24
HETATM   24  C3  UNL     1      -3.097   0.852  -0.155  1.00  0.00     0.125 C 
BRANCH  24  25
HETATM   25  O1  UNL     1      -3.259   0.300   1.140  1.00  0.00    -0.395 OA
HETATM   26  H6  UNL     1      -2.684  -0.473   1.257  1.00  0.00     0.210 HD
ENDBRANCH  24  25
BRANCH  24  27
HETATM   27  C4  UNL     1      -4.335   1.717  -0.448  1.00  0.00     0.075 C 
BRANCH  27  28
HETATM   28  C5  UNL     1      -5.789   1.235  -0.156  1.00  0.00     0.111 C 
BRANCH  28  29
HETATM   29  O2  UNL     1      -6.609   2.341  -0.699  1.00  0.00    -0.384 OA
HETATM   30  H9  UNL     1      -6.538   2.244  -1.671  1.00  0.00     0.210 HD
ENDBRANCH  28  29
BRANCH  28  31
HETATM   31  C6  UNL     1      -6.208  -0.005  -0.977  1.00  0.00     0.205 C 
BRANCH  31  32
HETATM   32  O3  UNL     1      -6.070   0.287  -2.373  1.00  0.00    -0.398 OA
HETATM   33  H12 UNL     1      -6.453  -0.469  -2.851  1.00  0.00     0.209 HD
ENDBRANCH  31  32
ENDBRANCH  28  31
BRANCH  28  34
HETATM   34  C7  UNL     1      -6.256   1.117   1.344  1.00  0.00     0.084 C 
HETATM   35  C8  UNL     1      -5.668   2.195   2.262  1.00  0.00     0.049 C 
HETATM   36  C9  UNL     1      -6.130  -0.268   1.988  1.00  0.00     0.049 C 
BRANCH  34  37
HETATM   37  O4  UNL     1      -7.687   1.371   1.347  1.00  0.00    -0.387 OA
HETATM   38  H19 UNL     1      -7.797   2.103   0.699  1.00  0.00     0.210 HD
ENDBRANCH  34  37
ENDBRANCH  28  34
ENDBRANCH  27  28
ENDBRANCH  24  27
ENDBRANCH  22  24
ENDBRANCH   1  22
BRANCH  10  39
HETATM   39  C20 UNL     1       7.114   1.350  -0.348  1.00  0.00     0.176 C 
BRANCH  39  40
HETATM   40  O5  UNL     1       8.434   1.314  -0.883  1.00  0.00    -0.400 OA
HETATM   41  H37 UNL     1       8.823   2.198  -0.774  1.00  0.00     0.209 HD
ENDBRANCH  39  40
ENDBRANCH  10  39
TORSDOF 12
