REMARK  10 active torsions:
REMARK  status: ('A' for Active; 'I' for Inactive)
REMARK    1  A    between atoms: C2_2  and  O1_3 
REMARK    2  A    between atoms: O1_3  and  C3_4 
REMARK    3  A    between atoms: C3_4  and  C4_6 
REMARK    4  A    between atoms: C5_7  and  C6_8 
REMARK    5  A    between atoms: C12_16  and  C13_17 
REMARK    6  A    between atoms: C23_28  and  O5_29 
REMARK    7  A    between atoms: C27_34  and  C28_35 
REMARK    8  A    between atoms: C28_35  and  O7_36 
REMARK    9  A    between atoms: C38_47  and  C39_48 
REMARK   10  A    between atoms: C39_48  and  O8_49 
ROOT
HETATM    1  C4  UNL     1       2.281   3.506  -0.099  1.00  0.00     0.165 C 
HETATM    2  C5  UNL     1       3.048   2.542   0.449  1.00  0.00     0.053 C 
HETATM    3  C7  UNL     1       2.623   1.154   0.262  1.00  0.00    -0.002 C 
HETATM    4  C8  UNL     1       3.486   0.149  -0.048  1.00  0.00    -0.066 C 
HETATM    5  C9  UNL     1       4.996   0.246  -0.060  1.00  0.00     0.042 C 
HETATM    6  C10 UNL     1       5.553  -0.548   1.113  1.00  0.00     0.083 C 
HETATM    7  C11 UNL     1       4.783  -1.826   1.408  1.00  0.00     0.136 C 
HETATM    8  O4  UNL     1       5.027  -2.452   2.445  1.00  0.00    -0.297 OA
HETATM    9  C12 UNL     1       3.759  -2.353   0.393  1.00  0.00     0.092 C 
HETATM   10  C21 UNL     1       3.121  -1.259  -0.491  1.00  0.00     0.052 C 
HETATM   11  C22 UNL     1       1.138   0.999   0.223  1.00  0.00     0.044 C 
HETATM   12  C23 UNL     1       0.392  -0.019   0.828  1.00  0.00     0.091 C 
HETATM   13  C25 UNL     1      -0.976  -0.065   0.608  1.00  0.00     0.013 C 
HETATM   14  C26 UNL     1      -1.621   0.935  -0.109  1.00  0.00     0.089 C 
HETATM   15  O6  UNL     1      -2.979   0.742  -0.190  1.00  0.00    -0.341 OA
HETATM   16  C27 UNL     1      -3.143  -0.650   0.157  1.00  0.00     0.168 C 
HETATM   17  C37 UNL     1      -1.978  -1.047   1.084  1.00  0.00     0.080 C 
HETATM   18  C38 UNL     1      -0.949   2.023  -0.636  1.00  0.00     0.034 C 
HETATM   19  C40 UNL     1       0.439   2.052  -0.425  1.00  0.00     0.101 C 
HETATM   20  O9  UNL     1       1.116   3.201  -0.812  1.00  0.00    -0.302 OA
ENDROOT
BRANCH   2  21
HETATM   21  C6  UNL     1       4.135   2.928   1.376  1.00  0.00     0.273 C 
HETATM   22  O3  UNL     1       4.031   2.815   2.593  1.00  0.00    -0.301 OA
ENDBRANCH   2  21
BRANCH   1  23
HETATM   23  C3  UNL     1       2.607   4.948   0.078  1.00  0.00     0.318 C 
HETATM   24  O2  UNL     1       3.736   5.405   0.177  1.00  0.00    -0.257 OA
BRANCH  23  25
HETATM   25  O1  UNL     1       1.452   5.656   0.137  1.00  0.00    -0.316 OA
BRANCH  25  26
HETATM   26  C2  UNL     1       1.610   7.055   0.401  1.00  0.00     0.175 C 
HETATM   27  C1  UNL     1       0.268   7.603   0.844  1.00  0.00     0.034 C 
ENDBRANCH  25  26
ENDBRANCH  23  25
ENDBRANCH   1  23
BRANCH  12  28
HETATM   28  O5  UNL     1       0.960  -0.989   1.606  1.00  0.00    -0.354 OA
HETATM   29  C24 UNL     1       1.183  -0.497   2.932  1.00  0.00     0.210 C 
ENDBRANCH  12  28
BRANCH   9  30
HETATM   30  C13 UNL     1       4.314  -3.503  -0.443  1.00  0.00    -0.046 A 
HETATM   31  C14 UNL     1       5.513  -3.371  -1.160  1.00  0.00     0.010 A 
HETATM   32  C15 UNL     1       6.022  -4.409  -1.952  1.00  0.00     0.031 A 
HETATM   33  C16 UNL     1       5.290  -5.597  -2.013  1.00  0.00     0.042 A 
HETATM   34  N1  UNL     1       5.549  -6.771  -2.684  1.00  0.00    -0.365 N 
HETATM   35  C19 UNL     1       4.090  -5.773  -1.323  1.00  0.00    -0.008 A 
HETATM   36  C17 UNL     1       4.555  -7.683  -2.441  1.00  0.00     0.089 A 
HETATM   37  H14 UNL     1       6.366  -6.938  -3.258  1.00  0.00     0.165 HD
HETATM   38  C18 UNL     1       3.628  -7.089  -1.620  1.00  0.00     0.030 A 
HETATM   39  C20 UNL     1       3.598  -4.714  -0.527  1.00  0.00     0.021 A 
ENDBRANCH   9  30
BRANCH  18  40
HETATM   40  C39 UNL     1      -1.665   3.108  -1.381  1.00  0.00     0.208 C 
BRANCH  40  41
HETATM   41  O8  UNL     1      -1.206   3.131  -2.730  1.00  0.00    -0.396 OA
HETATM   42  H42 UNL     1      -1.715   3.820  -3.182  1.00  0.00     0.209 HD
ENDBRANCH  40  41
ENDBRANCH  18  40
BRANCH  16  43
HETATM   43  C28 UNL     1      -4.560  -0.988   0.704  1.00  0.00     0.092 C 
HETATM   44  C29 UNL     1      -4.905  -0.235   2.027  1.00  0.00     0.067 C 
HETATM   45  C30 UNL     1      -5.654   1.061   1.891  1.00  0.00    -0.027 C 
HETATM   46  C31 UNL     1      -6.162   1.513   0.735  1.00  0.00    -0.024 C 
HETATM   47  C32 UNL     1      -6.035   0.752  -0.554  1.00  0.00     0.043 C 
HETATM   48  C33 UNL     1      -7.310   0.865  -1.412  1.00  0.00     0.278 C 
HETATM   49  C36 UNL     1      -5.715  -0.746  -0.321  1.00  0.00     0.034 C 
HETATM   50  N2  UNL     1      -7.129   0.216  -2.717  1.00  0.00     0.084 N 
HETATM   51  C34 UNL     1      -6.780  -1.200  -2.577  1.00  0.00     0.270 C 
HETATM   52  H32 UNL     1      -7.994   0.297  -3.250  1.00  0.00     0.315 HD
HETATM   53  C35 UNL     1      -5.537  -1.409  -1.702  1.00  0.00     0.038 C 
BRANCH  43  54
HETATM   54  O7  UNL     1      -4.558  -2.397   1.034  1.00  0.00    -0.386 OA
HETATM   55  H24 UNL     1      -4.429  -2.905   0.217  1.00  0.00     0.210 HD
ENDBRANCH  43  54
ENDBRANCH  16  43
TORSDOF 10
