REMARK  6 active torsions:
REMARK  status: ('A' for Active; 'I' for Inactive)
REMARK    1  A    between atoms: C2_2  and  C30_32 
REMARK    2  A    between atoms: C3_3  and  C4_4 
REMARK    3  A    between atoms: C4_4  and  C5_6 
REMARK    4  A    between atoms: C5_6  and  C6_7 
REMARK    5  A    between atoms: C6_7  and  C8_9 
REMARK    6  A    between atoms: C30_32  and  O4_34 
ROOT
HETATM    1  C8  UNL     1       2.402  -0.890   1.330  1.00  0.00    -0.001 C 
HETATM    2  C9  UNL     1       2.462  -1.400  -0.107  1.00  0.00     0.007 C 
HETATM    3  C10 UNL     1       1.043  -1.866  -0.442  1.00  0.00     0.015 C 
HETATM    4  C11 UNL     1       0.101  -1.445   0.731  1.00  0.00    -0.013 C 
HETATM    5  C12 UNL     1      -0.172  -2.683   1.628  1.00  0.00     0.021 C 
HETATM    6  C13 UNL     1      -1.258  -0.968   0.177  1.00  0.00    -0.070 C 
HETATM    7  C14 UNL     1      -1.961  -1.738  -0.675  1.00  0.00    -0.022 C 
HETATM    8  C15 UNL     1      -3.347  -1.452  -1.147  1.00  0.00     0.034 C 
HETATM    9  C16 UNL     1      -4.099  -0.379  -0.321  1.00  0.00     0.013 C 
HETATM   10  C17 UNL     1      -5.486   0.009  -0.963  1.00  0.00     0.018 C 
HETATM   11  C18 UNL     1      -6.070  -1.067  -1.904  1.00  0.00     0.023 C 
HETATM   12  C19 UNL     1      -6.544   0.230   0.142  1.00  0.00     0.023 C 
HETATM   13  C20 UNL     1      -5.341   1.286  -1.799  1.00  0.00     0.135 C 
HETATM   14  O2  UNL     1      -6.299   2.023  -2.037  1.00  0.00    -0.297 OA
HETATM   15  C21 UNL     1      -3.991   1.560  -2.420  1.00  0.00     0.080 C 
HETATM   16  C22 UNL     1      -2.841   1.540  -1.413  1.00  0.00     0.017 C 
HETATM   17  C23 UNL     1      -3.149   0.845  -0.054  1.00  0.00    -0.031 C 
HETATM   18  C24 UNL     1      -3.805   1.892   0.885  1.00  0.00     0.016 C 
HETATM   19  C25 UNL     1      -1.831   0.341   0.687  1.00  0.00     0.024 C 
HETATM   20  C26 UNL     1      -0.765   1.456   0.820  1.00  0.00     0.010 C 
HETATM   21  C27 UNL     1       0.694   1.002   0.776  1.00  0.00     0.011 C 
HETATM   22  C28 UNL     1       0.944  -0.339   1.485  1.00  0.00    -0.029 C 
HETATM   23  C29 UNL     1       0.617  -0.189   2.986  1.00  0.00     0.016 C 
ENDROOT
BRANCH   1  24
HETATM   24  C6  UNL     1       3.636  -0.098   1.853  1.00  0.00    -0.007 C 
HETATM   25  C7  UNL     1       4.883  -1.003   1.826  1.00  0.00     0.011 C 
BRANCH  24  26
HETATM   26  C5  UNL     1       3.983   1.292   1.294  1.00  0.00     0.087 C 
BRANCH  26  27
HETATM   27  C4  UNL     1       4.229   1.422  -0.198  1.00  0.00     0.150 C 
HETATM   28  O1  UNL     1       3.365   1.862  -0.952  1.00  0.00    -0.293 OA
BRANCH  27  29
HETATM   29  C3  UNL     1       5.583   1.052  -0.702  1.00  0.00     0.063 C 
HETATM   30  C2  UNL     1       5.870   0.758  -1.985  1.00  0.00     0.015 C 
HETATM   31  C1  UNL     1       4.883   0.691  -3.116  1.00  0.00     0.055 C 
BRANCH  30  32
HETATM   32  C30 UNL     1       7.270   0.450  -2.364  1.00  0.00     0.171 C 
HETATM   33  O3  UNL     1       7.667   0.222  -3.492  1.00  0.00    -0.646 OA
BRANCH  32  34
HETATM   34  O4  UNL     1       8.125   0.432  -1.327  1.00  0.00    -0.773 OA
HETATM   35  H44 UNL     1       8.984   0.222  -1.749  1.00  0.00     0.167 HD
ENDBRANCH  32  34
ENDBRANCH  30  32
ENDBRANCH  27  29
ENDBRANCH  26  27
ENDBRANCH  24  26
ENDBRANCH   1  24
TORSDOF 6
