REMARK  14 active torsions:
REMARK  status: ('A' for Active; 'I' for Inactive)
REMARK    1  A    between atoms: O1_2  and  C2_3 
REMARK    2  A    between atoms: C2_3  and  C5_6 
REMARK    3  A    between atoms: C6_7  and  C7_8 
REMARK    4  A    between atoms: C7_8  and  C8_9 
REMARK    5  A    between atoms: C8_9  and  C10_11 
REMARK    6  A    between atoms: C16_17  and  O2_18 
REMARK    7  A    between atoms: C22_24  and  O3_25 
REMARK    8  A    between atoms: O3_25  and  C23_26 
REMARK    9  A    between atoms: C24_28  and  C25_29 
REMARK   10  A    between atoms: C25_29  and  O5_30 
REMARK   11  A    between atoms: C26_31  and  O6_32 
REMARK   12  A    between atoms: C27_33  and  O7_34 
REMARK   13  A    between atoms: C28_35  and  O8_36 
REMARK   14  A    between atoms: C32_40  and  C33_41 
ROOT
HETATM    1  C10 UNL     1       2.725  -0.883  -0.988  1.00  0.00    -0.002 C 
HETATM    2  C11 UNL     1       2.237   0.290  -1.854  1.00  0.00     0.006 C 
HETATM    3  C12 UNL     1       1.209   0.974  -0.968  1.00  0.00     0.011 C 
HETATM    4  C13 UNL     1       1.878   1.020   0.425  1.00  0.00    -0.029 C 
HETATM    5  C14 UNL     1       2.832   2.253   0.420  1.00  0.00     0.016 C 
HETATM    6  C15 UNL     1       0.876   1.153   1.638  1.00  0.00     0.043 C 
HETATM    7  C16 UNL     1       0.178   2.530   1.800  1.00  0.00     0.147 C 
HETATM    8  C17 UNL     1      -1.169   2.662   1.176  1.00  0.00     0.009 C 
HETATM    9  C18 UNL     1      -1.953   1.639   0.792  1.00  0.00    -0.066 C 
HETATM   10  C19 UNL     1      -1.505   0.197   0.997  1.00  0.00     0.031 C 
HETATM   11  C20 UNL     1      -2.660  -0.643   1.571  1.00  0.00     0.013 C 
HETATM   12  C21 UNL     1      -3.890  -0.587   0.673  1.00  0.00     0.034 C 
HETATM   13  C22 UNL     1      -4.404   0.849   0.519  1.00  0.00     0.136 C 
HETATM   14  C29 UNL     1      -3.284   1.836   0.026  1.00  0.00     0.002 C 
HETATM   15  C30 UNL     1      -3.861   3.270   0.154  1.00  0.00     0.022 C 
HETATM   16  C31 UNL     1      -2.987   1.624  -1.478  1.00  0.00     0.022 C 
HETATM   17  C32 UNL     1      -0.151  -0.022   1.776  1.00  0.00     0.027 C 
HETATM   18  C34 UNL     1       0.462  -1.374   1.309  1.00  0.00     0.018 C 
HETATM   19  C35 UNL     1       1.983  -1.395   1.422  1.00  0.00     0.011 C 
HETATM   20  C36 UNL     1       2.706  -0.354   0.507  1.00  0.00    -0.032 C 
HETATM   21  C37 UNL     1       4.093  -0.160   1.153  1.00  0.00     0.016 C 
ENDROOT
BRANCH  13  22
HETATM   22  O3  UNL     1      -5.501   0.946  -0.399  1.00  0.00    -0.352 OA
BRANCH  22  23
HETATM   23  C23 UNL     1      -6.637   0.130  -0.119  1.00  0.00     0.292 C 
HETATM   24  O4  UNL     1      -6.449  -1.149  -0.731  1.00  0.00    -0.348 OA
HETATM   25  C24 UNL     1      -7.628  -1.934  -0.930  1.00  0.00     0.179 C 
HETATM   26  C26 UNL     1      -8.873  -1.379  -0.216  1.00  0.00     0.180 C 
HETATM   27  C27 UNL     1      -9.148   0.074  -0.594  1.00  0.00     0.183 C 
HETATM   28  C28 UNL     1      -7.854   0.882  -0.710  1.00  0.00     0.204 C 
BRANCH  25  29
HETATM   29  C25 UNL     1      -7.807  -2.266  -2.429  1.00  0.00     0.198 C 
BRANCH  29  30
HETATM   30  O5  UNL     1      -7.453  -1.230  -3.335  1.00  0.00    -0.398 OA
HETATM   31  H40 UNL     1      -7.797  -0.370  -3.011  1.00  0.00     0.209 HD
ENDBRANCH  29  30
ENDBRANCH  25  29
BRANCH  26  32
HETATM   32  O6  UNL     1     -10.023  -2.185  -0.469  1.00  0.00    -0.390 OA
HETATM   33  H42 UNL     1     -10.623  -2.057   0.287  1.00  0.00     0.210 HD
ENDBRANCH  26  32
BRANCH  27  34
HETATM   34  O7  UNL     1      -9.996   0.636   0.422  1.00  0.00    -0.390 OA
HETATM   35  H44 UNL     1     -10.364   1.459   0.053  1.00  0.00     0.210 HD
ENDBRANCH  27  34
BRANCH  28  36
HETATM   36  O8  UNL     1      -7.626   1.151  -2.106  1.00  0.00    -0.388 OA
HETATM   37  H46 UNL     1      -6.705   1.480  -2.163  1.00  0.00     0.210 HD
ENDBRANCH  28  36
ENDBRANCH  22  23
ENDBRANCH  13  22
BRANCH  17  38
HETATM   38  C33 UNL     1      -0.460  -0.123   3.284  1.00  0.00     0.241 C 
HETATM   39  O9  UNL     1      -0.086  -1.033   4.020  1.00  0.00    -0.306 OA
ENDBRANCH  17  38
BRANCH   7  40
HETATM   40  O2  UNL     1      -0.015   2.790   3.192  1.00  0.00    -0.391 OA
HETATM   41  H28 UNL     1      -0.266   3.725   3.281  1.00  0.00     0.210 HD
ENDBRANCH   7  40
BRANCH   1  42
HETATM   42  C8  UNL     1       3.953  -1.614  -1.616  1.00  0.00    -0.010 C 
HETATM   43  C9  UNL     1       4.284  -2.925  -0.890  1.00  0.00     0.010 C 
BRANCH  42  44
HETATM   44  C7  UNL     1       5.162  -0.702  -1.956  1.00  0.00     0.031 C 
BRANCH  44  45
HETATM   45  C6  UNL     1       6.529  -1.206  -1.584  1.00  0.00    -0.027 C 
HETATM   46  C5  UNL     1       7.352  -0.546  -0.748  1.00  0.00     0.006 C 
BRANCH  46  47
HETATM   47  C2  UNL     1       8.754  -0.916  -0.302  1.00  0.00     0.070 C 
HETATM   48  C3  UNL     1       8.820  -0.973   1.233  1.00  0.00     0.050 C 
HETATM   49  C4  UNL     1       9.225  -2.276  -0.842  1.00  0.00     0.050 C 
BRANCH  47  50
HETATM   50  O1  UNL     1       9.691   0.032  -0.841  1.00  0.00    -0.382 OA
HETATM   51  C1  UNL     1       9.672   1.350  -0.311  1.00  0.00     0.202 C 
ENDBRANCH  47  50
ENDBRANCH  46  47
ENDBRANCH  44  45
ENDBRANCH  42  44
ENDBRANCH   1  42
TORSDOF 14
