REMARK  4 active torsions:
REMARK  status: ('A' for Active; 'I' for Inactive)
REMARK    1  A    between atoms: C3_3  and  C4_4 
REMARK    2  A    between atoms: C4_4  and  O1_5 
REMARK    3  A    between atoms: C6_9  and  C7_10 
REMARK    4  A    between atoms: C7_10  and  C9_12 
ROOT
HETATM    1  C9  UNL     1       1.350   0.933   1.609  1.00  0.00     0.000 C 
HETATM    2  C10 UNL     1       1.303   2.403   1.130  1.00  0.00     0.006 C 
HETATM    3  C11 UNL     1      -0.117   2.608   0.556  1.00  0.00     0.006 C 
HETATM    4  C12 UNL     1      -0.840   1.288   0.842  1.00  0.00    -0.001 C 
HETATM    5  C13 UNL     1      -2.109   0.949   0.047  1.00  0.00    -0.002 C 
HETATM    6  C14 UNL     1      -3.176   2.024   0.286  1.00  0.00     0.040 C 
HETATM    7  C15 UNL     1      -4.456   1.713  -0.394  1.00  0.00     0.159 A 
HETATM    8  O4  UNL     1      -4.336   1.179  -1.705  1.00  0.00    -0.368 OA
HETATM    9  C16 UNL     1      -4.871   0.284  -0.694  1.00  0.00     0.102 A 
HETATM   10  C17 UNL     1      -6.349   0.039  -0.920  1.00  0.00     0.042 C 
HETATM   11  C18 UNL     1      -6.820  -1.342  -0.501  1.00  0.00     0.010 C 
HETATM   12  C19 UNL     1      -6.128  -1.752   0.778  1.00  0.00     0.079 C 
HETATM   13  C20 UNL     1      -4.673  -1.985   0.452  1.00  0.00     0.138 C 
HETATM   14  O5  UNL     1      -4.129  -3.019   0.847  1.00  0.00    -0.297 OA
HETATM   15  C21 UNL     1      -3.926  -0.904  -0.376  1.00  0.00     0.054 C 
HETATM   16  C22 UNL     1      -3.522  -1.570  -1.712  1.00  0.00     0.027 C 
HETATM   17  C23 UNL     1      -2.662  -0.451   0.476  1.00  0.00     0.009 C 
HETATM   18  C24 UNL     1      -1.527  -1.524   0.536  1.00  0.00     0.007 C 
HETATM   19  C25 UNL     1      -0.262  -1.078   1.285  1.00  0.00     0.010 C 
HETATM   20  C26 UNL     1       0.285   0.233   0.717  1.00  0.00    -0.036 C 
HETATM   21  C27 UNL     1       0.730   0.035  -0.752  1.00  0.00     0.016 C 
ENDROOT
BRANCH   1  22
HETATM   22  C7  UNL     1       2.734   0.297   1.904  1.00  0.00     0.016 C 
HETATM   23  C8  UNL     1       3.536   1.212   2.852  1.00  0.00     0.013 C 
BRANCH  22  24
HETATM   24  C6  UNL     1       3.617  -0.219   0.743  1.00  0.00     0.140 C 
HETATM   25  O3  UNL     1       4.717  -0.954   1.333  1.00  0.00    -0.311 OA
HETATM   26  C5  UNL     1       5.657  -1.499   0.523  1.00  0.00     0.292 C 
HETATM   27  C3  UNL     1       5.742  -0.979  -0.873  1.00  0.00     0.042 C 
HETATM   28  O2  UNL     1       6.426  -2.363   0.931  1.00  0.00    -0.260 OA
HETATM   29  C2  UNL     1       5.105   0.170  -1.194  1.00  0.00    -0.067 C 
HETATM   30  C1  UNL     1       5.237   0.882  -2.513  1.00  0.00     0.044 C 
HETATM   31  C28 UNL     1       4.193   0.836  -0.195  1.00  0.00     0.067 C 
BRANCH  27  32
HETATM   32  C4  UNL     1       6.615  -1.845  -1.745  1.00  0.00     0.209 C 
BRANCH  32  33
HETATM   33  O1  UNL     1       6.372  -1.635  -3.132  1.00  0.00    -0.396 OA
HETATM   34  H6  UNL     1       6.847  -2.337  -3.608  1.00  0.00     0.209 HD
ENDBRANCH  32  33
ENDBRANCH  27  32
ENDBRANCH  22  24
ENDBRANCH   1  22
TORSDOF 4
