REMARK  4 active torsions:
REMARK  status: ('A' for Active; 'I' for Inactive)
REMARK    1  A    between atoms: C10_14  and  C11_15 
REMARK    2  A    between atoms: C11_15  and  C12_16 
REMARK    3  A    between atoms: C12_16  and  N3_17 
REMARK    4  A    between atoms: C15_20  and  C16_21 
ROOT
HETATM    1  N3  UNL     1       1.003  -1.736   1.232  1.00  0.00     0.088 N 
HETATM    2  C13 UNL     1       1.854  -0.794   1.956  1.00  0.00     0.273 C 
HETATM    3  C14 UNL     1       3.198  -1.425   2.301  1.00  0.00     0.041 C 
HETATM    4  C15 UNL     1       3.904  -2.084   1.111  1.00  0.00     0.042 C 
HETATM    5  C23 UNL     1       2.943  -2.872   0.214  1.00  0.00     0.041 C 
HETATM    6  C24 UNL     1       1.600  -2.187  -0.025  1.00  0.00     0.273 C 
ENDROOT
BRANCH   1   7
HETATM    7  C12 UNL     1      -0.382  -1.265   1.064  1.00  0.00     0.277 C 
BRANCH   7   8
HETATM    8  C11 UNL     1      -0.579   0.047   0.281  1.00  0.00     0.076 C 
BRANCH   8   9
HETATM    9  C10 UNL     1      -2.042   0.375   0.110  1.00  0.00     0.034 A 
HETATM   10  C2  UNL     1      -2.766   1.216   0.869  1.00  0.00     0.018 A 
HETATM   11  C1  UNL     1      -2.214   1.924   2.081  1.00  0.00     0.069 C 
HETATM   12  N1  UNL     1      -4.086   1.501   0.638  1.00  0.00    -0.345 N 
HETATM   13  C3  UNL     1      -4.686   0.934  -0.362  1.00  0.00     0.120 A 
ATOM     14  H1  UNL     1      -4.589   2.149   1.244  1.00  0.00     0.167 HD
HETATM   15  C4  UNL     1      -6.137   1.239  -0.623  1.00  0.00    -0.017 A 
HETATM   16  N2  UNL     1      -4.063   0.044  -1.226  1.00  0.00    -0.274 N 
HETATM   17  C5  UNL     1      -6.821   2.197   0.301  1.00  0.00     0.052 C 
HETATM   18  C6  UNL     1      -6.749   0.647  -1.660  1.00  0.00     0.012 A 
HETATM   19  C7  UNL     1      -6.044  -0.266  -2.515  1.00  0.00     0.018 A 
HETATM   20  C8  UNL     1      -4.755  -0.536  -2.282  1.00  0.00     0.102 A 
HETATM   21  C9  UNL     1      -2.727  -0.279  -1.041  1.00  0.00     0.261 A 
HETATM   22  O1  UNL     1      -2.094  -1.057  -1.757  1.00  0.00    -0.267 OA
ENDBRANCH   8   9
ENDBRANCH   7   8
ENDBRANCH   1   7
BRANCH   4  23
HETATM   23  C16 UNL     1       4.855  -1.175   0.370  1.00  0.00     0.050 A 
HETATM   24  N4  UNL     1       6.164  -1.474   0.456  1.00  0.00    -0.264 N 
HETATM   25  O2  UNL     1       6.834  -0.528  -0.284  1.00  0.00    -0.237 OA
ATOM     26  H4  UNL     1       6.579  -2.251   0.970  1.00  0.00     0.194 HD
HETATM   27  C17 UNL     1       5.947   0.344  -0.817  1.00  0.00     0.114 A 
HETATM   28  C18 UNL     1       6.274   1.431  -1.623  1.00  0.00     0.082 A 
HETATM   29  C22 UNL     1       4.659  -0.013  -0.437  1.00  0.00     0.025 A 
HETATM   30  C19 UNL     1       5.203   2.199  -2.064  1.00  0.00     0.119 A 
HETATM   31  F1  UNL     1       5.442   3.262  -2.844  1.00  0.00    -0.206 F 
HETATM   32  C20 UNL     1       3.890   1.897  -1.719  1.00  0.00     0.043 A 
HETATM   33  C21 UNL     1       3.600   0.791  -0.904  1.00  0.00     0.019 A 
ENDBRANCH   4  23
TORSDOF 4
