REMARK  13 active torsions:
REMARK  status: ('A' for Active; 'I' for Inactive)
REMARK    1  A    between atoms: C2_2  and  C3_3 
REMARK    2  A    between atoms: C4_5  and  C5_6 
REMARK    3  A    between atoms: C5_6  and  C6_7 
REMARK    4  A    between atoms: C6_7  and  C7_8 
REMARK    5  A    between atoms: C7_8  and  C9_10 
REMARK    6  A    between atoms: C17_18  and  C18_19 
REMARK    7  A    between atoms: C18_19  and  O2_21 
REMARK    8  A    between atoms: C18_19  and  C20_22 
REMARK    9  A    between atoms: C20_22  and  O3_23 
REMARK   10  A    between atoms: C21_24  and  C22_25 
REMARK   11  A    between atoms: C22_25  and  C23_26 
REMARK   12  A    between atoms: C23_26  and  C24_27 
REMARK   13  A    between atoms: C24_27  and  O5_29 
ROOT
HETATM    1  C9  UNL     1       2.494   0.314  -0.180  1.00  0.00    -0.002 C 
HETATM    2  C10 UNL     1       2.361  -0.525  -1.461  1.00  0.00     0.006 C 
HETATM    3  C11 UNL     1       1.101  -1.399  -1.273  1.00  0.00     0.011 C 
HETATM    4  C12 UNL     1       0.484  -1.010   0.101  1.00  0.00    -0.032 C 
HETATM    5  C13 UNL     1       1.068  -2.006   1.159  1.00  0.00     0.016 C 
HETATM    6  C14 UNL     1      -1.073  -1.129   0.218  1.00  0.00     0.004 C 
HETATM    7  C15 UNL     1      -1.659  -2.380  -0.432  1.00  0.00     0.007 C 
HETATM    8  C16 UNL     1      -3.073  -2.564   0.099  1.00  0.00     0.009 C 
HETATM    9  C17 UNL     1      -4.059  -1.468  -0.361  1.00  0.00     0.031 C 
HETATM   10  C21 UNL     1      -3.443  -0.019  -0.424  1.00  0.00    -0.025 A 
HETATM   11  C25 UNL     1      -2.809   0.666   0.773  1.00  0.00     0.021 A 
HETATM   12  C26 UNL     1      -1.877   0.080  -0.256  1.00  0.00    -0.027 A 
HETATM   13  C27 UNL     1      -1.106   0.960  -1.193  1.00  0.00     0.011 C 
HETATM   14  C28 UNL     1       0.201   1.463  -0.597  1.00  0.00     0.011 C 
HETATM   15  C29 UNL     1       1.007   0.467   0.289  1.00  0.00    -0.032 C 
HETATM   16  C30 UNL     1       0.953   0.952   1.748  1.00  0.00     0.016 C 
ENDROOT
BRANCH   1  17
HETATM   17  C7  UNL     1       3.473   1.524  -0.222  1.00  0.00    -0.014 C 
HETATM   18  C8  UNL     1       3.064   2.711  -1.095  1.00  0.00     0.010 C 
BRANCH  17  19
HETATM   19  C6  UNL     1       4.910   1.106  -0.640  1.00  0.00     0.008 C 
BRANCH  19  20
HETATM   20  C5  UNL     1       5.557   0.057   0.273  1.00  0.00     0.028 C 
BRANCH  20  21
HETATM   21  C4  UNL     1       7.003  -0.155  -0.088  1.00  0.00    -0.017 C 
HETATM   22  C2  UNL     1       8.079   0.216   0.630  1.00  0.00    -0.028 C 
HETATM   23  C1  UNL     1       8.097   0.947   1.937  1.00  0.00     0.051 C 
BRANCH  22  24
HETATM   24  C3  UNL     1       9.418  -0.122   0.066  1.00  0.00     0.265 C 
HETATM   25  O1  UNL     1      10.466   0.166   0.632  1.00  0.00    -0.302 OA
ENDBRANCH  22  24
ENDBRANCH  20  21
ENDBRANCH  19  20
ENDBRANCH  17  19
ENDBRANCH   1  17
BRANCH  10  26
HETATM   26  C22 UNL     1      -4.133   0.854  -1.505  1.00  0.00     0.021 C 
BRANCH  26  27
HETATM   27  C23 UNL     1      -4.298   2.356  -1.261  1.00  0.00     0.111 C 
BRANCH  27  28
HETATM   28  C24 UNL     1      -5.197   2.758  -0.128  1.00  0.00     0.139 C 
HETATM   29  O4  UNL     1      -4.937   3.607   0.710  1.00  0.00    -0.650 OA
BRANCH  28  30
HETATM   30  O5  UNL     1      -6.409   2.179  -0.149  1.00  0.00    -0.776 OA
HETATM   31  H39 UNL     1      -6.853   2.579   0.631  1.00  0.00     0.167 HD
ENDBRANCH  28  30
ENDBRANCH  27  28
ENDBRANCH  26  27
ENDBRANCH  10  26
BRANCH   9  32
HETATM   32  C18 UNL     1      -5.449  -1.617   0.373  1.00  0.00     0.080 C 
HETATM   33  C19 UNL     1      -5.939  -3.079   0.365  1.00  0.00     0.048 C 
BRANCH  32  34
HETATM   34  O2  UNL     1      -6.463  -0.874  -0.335  1.00  0.00    -0.388 OA
HETATM   35  H31 UNL     1      -6.534  -1.245  -1.232  1.00  0.00     0.210 HD
ENDBRANCH  32  34
BRANCH  32  36
HETATM   36  C20 UNL     1      -5.481  -1.106   1.829  1.00  0.00     0.201 C 
BRANCH  36  37
HETATM   37  O3  UNL     1      -5.627   0.312   1.854  1.00  0.00    -0.398 OA
HETATM   38  H34 UNL     1      -6.116   0.505   1.024  1.00  0.00     0.209 HD
ENDBRANCH  36  37
ENDBRANCH  32  36
ENDBRANCH   9  32
TORSDOF 13
