REMARK  7 active torsions:
REMARK  status: ('A' for Active; 'I' for Inactive)
REMARK    1  A    between atoms: C2_2  and  C4_4 
REMARK    2  A    between atoms: C4_4  and  O1_6 
REMARK    3  A    between atoms: C4_4  and  C6_7 
REMARK    4  A    between atoms: C7_9  and  C8_10 
REMARK    5  A    between atoms: C8_10  and  C9_11 
REMARK    6  A    between atoms: C12_14  and  O3_15 
REMARK    7  A    between atoms: C18_22  and  O5_23 
ROOT
HETATM    1  C9  UNL     1      -0.807  -1.447   0.106  1.00  0.00     0.034 C 
HETATM    2  C10 UNL     1      -0.427  -2.919  -0.251  1.00  0.00     0.012 C 
HETATM    3  C11 UNL     1       1.104  -2.960  -0.431  1.00  0.00     0.044 C 
HETATM    4  C12 UNL     1       1.583  -1.645   0.187  1.00  0.00     0.089 C 
HETATM    5  C13 UNL     1       2.949  -1.068  -0.089  1.00  0.00    -0.037 C 
HETATM    6  C14 UNL     1       3.793  -1.571  -1.002  1.00  0.00     0.057 C 
HETATM    7  C15 UNL     1       5.016  -0.840  -1.400  1.00  0.00     0.154 C 
HETATM    8  O4  UNL     1       5.790  -1.390  -2.180  1.00  0.00    -0.293 OA
HETATM    9  C16 UNL     1       5.216   0.583  -0.876  1.00  0.00     0.071 C 
HETATM   10  C17 UNL     1       6.686   1.015  -1.027  1.00  0.00     0.045 C 
HETATM   11  C18 UNL     1       7.620   0.446   0.048  1.00  0.00     0.119 C 
HETATM   12  C19 UNL     1       6.967  -0.581   0.965  1.00  0.00     0.032 C 
HETATM   13  C20 UNL     1       5.616  -0.135   1.541  1.00  0.00     0.013 C 
HETATM   14  C21 UNL     1       4.712   0.715   0.581  1.00  0.00    -0.026 C 
HETATM   15  C22 UNL     1       4.801   2.192   1.043  1.00  0.00     0.016 C 
HETATM   16  C23 UNL     1       3.221   0.218   0.697  1.00  0.00     0.026 C 
HETATM   17  C24 UNL     1       2.122   1.252   0.340  1.00  0.00     0.011 C 
HETATM   18  C25 UNL     1       0.686   0.692   0.496  1.00  0.00     0.014 C 
HETATM   19  C26 UNL     1       0.478  -0.634  -0.273  1.00  0.00    -0.002 C 
HETATM   20  C27 UNL     1       0.554  -0.329  -1.791  1.00  0.00     0.019 C 
ENDROOT
BRANCH   1  21
HETATM   21  C8  UNL     1      -2.265  -1.023  -0.332  1.00  0.00     0.094 C 
HETATM   22  C28 UNL     1      -2.498  -1.088  -1.876  1.00  0.00     0.045 C 
HETATM   23  C29 UNL     1      -3.844  -1.622  -2.406  1.00  0.00    -0.014 C 
HETATM   24  C30 UNL     1      -4.567  -0.627  -3.312  1.00  0.00     0.010 C 
HETATM   25  C31 UNL     1      -4.751  -2.161  -1.310  1.00  0.00     0.030 C 
HETATM   26  C32 UNL     1      -3.896  -2.855  -0.276  1.00  0.00     0.169 C 
HETATM   27  O6  UNL     1      -3.126  -1.899   0.429  1.00  0.00    -0.377 OA
BRANCH  21  28
HETATM   28  C7  UNL     1      -2.542   0.355   0.267  1.00  0.00     0.189 A 
HETATM   29  C6  UNL     1      -3.785   1.175  -0.036  1.00  0.00     0.188 A 
HETATM   30  O2  UNL     1      -2.506   1.475  -0.624  1.00  0.00    -0.369 OA
BRANCH  29  31
HETATM   31  C4  UNL     1      -4.342   2.251   0.880  1.00  0.00     0.086 C 
HETATM   32  C5  UNL     1      -4.749   3.452   0.007  1.00  0.00     0.049 C 
BRANCH  31  33
HETATM   33  C2  UNL     1      -5.566   1.707   1.686  1.00  0.00     0.014 C 
HETATM   34  C1  UNL     1      -6.191   2.760   2.612  1.00  0.00     0.012 C 
HETATM   35  C3  UNL     1      -5.228   0.470   2.532  1.00  0.00     0.012 C 
ENDBRANCH  31  33
BRANCH  31  36
HETATM   36  O1  UNL     1      -3.342   2.739   1.779  1.00  0.00    -0.387 OA
HETATM   37  H11 UNL     1      -3.070   2.010   2.357  1.00  0.00     0.210 HD
ENDBRANCH  31  36
ENDBRANCH  29  31
ENDBRANCH  21  28
ENDBRANCH   1  21
BRANCH   4  38
HETATM   38  O3  UNL     1       1.525  -1.845   1.610  1.00  0.00    -0.384 OA
HETATM   39  H19 UNL     1       2.201  -2.506   1.835  1.00  0.00     0.211 HD
ENDBRANCH   4  38
BRANCH  11  40
HETATM   40  O5  UNL     1       8.111   1.527   0.841  1.00  0.00    -0.396 OA
HETATM   41  H25 UNL     1       8.814   1.174   1.413  1.00  0.00     0.210 HD
ENDBRANCH  11  40
TORSDOF 7
