REMARK  7 active torsions:
REMARK  status: ('A' for Active; 'I' for Inactive)
REMARK    1  A    between atoms: C2_2  and  C4_4 
REMARK    2  A    between atoms: C7_7  and  O1_9 
REMARK    3  A    between atoms: C9_10  and  C10_11 
REMARK    4  A    between atoms: C11_12  and  C12_13 
REMARK    5  A    between atoms: C14_15  and  C15_16 
REMARK    6  A    between atoms: C24_26  and  C26_28 
REMARK    7  A    between atoms: C29_32  and  O4_34 
ROOT
HETATM    1  C15 UNL     1      -0.884  -1.290   0.424  1.00  0.00     0.149 C 
HETATM    2  C16 UNL     1      -1.973  -0.282   0.799  1.00  0.00     0.054 C 
HETATM    3  C17 UNL     1      -3.144  -0.512  -0.199  1.00  0.00     0.050 C 
HETATM    4  C18 UNL     1      -2.710  -1.834  -0.861  1.00  0.00     0.272 C 
HETATM    5  O2  UNL     1      -3.177  -2.944  -0.099  1.00  0.00    -0.360 OA
HETATM    6  C19 UNL     1      -4.412  -3.485  -0.559  1.00  0.00     0.171 C 
HETATM    7  C20 UNL     1      -5.452  -2.469  -1.021  1.00  0.00     0.027 C 
HETATM    8  C21 UNL     1      -5.701  -1.293  -0.078  1.00  0.00     0.012 C 
HETATM    9  C22 UNL     1      -4.475  -0.654   0.621  1.00  0.00     0.032 C 
HETATM   10  C23 UNL     1      -4.884   0.691   1.256  1.00  0.00    -0.066 C 
HETATM   11  C24 UNL     1      -5.093   0.841   2.591  1.00  0.00    -0.021 C 
HETATM   12  C25 UNL     1      -4.983  -0.248   3.631  1.00  0.00     0.052 C 
HETATM   13  C27 UNL     1      -4.976   1.809   0.231  1.00  0.00     0.038 C 
HETATM   14  C28 UNL     1      -3.690   1.961  -0.582  1.00  0.00     0.042 C 
HETATM   15  C29 UNL     1      -3.240   0.647  -1.250  1.00  0.00     0.067 C 
HETATM   16  C30 UNL     1      -1.951   0.904  -2.049  1.00  0.00     0.047 C 
HETATM   17  O5  UNL     1      -1.276  -1.830  -0.834  1.00  0.00    -0.351 OA
ENDROOT
BRANCH   1  18
HETATM   18  C14 UNL     1       0.490  -0.670   0.376  1.00  0.00     0.011 C 
HETATM   19  C12 UNL     1       1.587  -1.066  -0.308  1.00  0.00    -0.064 C 
HETATM   20  C13 UNL     1       1.640  -2.321  -1.143  1.00  0.00     0.048 C 
BRANCH  19  21
HETATM   21  C11 UNL     1       2.796  -0.251  -0.201  1.00  0.00     0.003 C 
HETATM   22  C10 UNL     1       3.933  -0.402  -0.904  1.00  0.00    -0.018 C 
BRANCH  22  23
HETATM   23  C9  UNL     1       5.173   0.460  -0.765  1.00  0.00     0.050 C 
HETATM   24  C4  UNL     1       5.732   0.523   0.693  1.00  0.00     0.024 C 
HETATM   25  C5  UNL     1       6.339   1.927   0.809  1.00  0.00     0.013 C 
HETATM   26  C6  UNL     1       5.356   2.785   0.022  1.00  0.00     0.039 C 
HETATM   27  C7  UNL     1       5.074   1.950  -1.233  1.00  0.00     0.062 C 
HETATM   28  C8  UNL     1       3.787   2.393  -1.928  1.00  0.00     0.046 C 
BRANCH  24  29
HETATM   29  C2  UNL     1       6.672  -0.617   1.057  1.00  0.00    -0.088 C 
HETATM   30  C1  UNL     1       6.273  -1.611   1.873  1.00  0.00     0.014 C 
HETATM   31  C3  UNL     1       8.060  -0.621   0.475  1.00  0.00     0.043 C 
ENDBRANCH  24  29
BRANCH  27  32
HETATM   32  O1  UNL     1       6.149   2.200  -2.156  1.00  0.00    -0.390 OA
HETATM   33  H14 UNL     1       5.968   1.689  -2.964  1.00  0.00     0.210 HD
ENDBRANCH  27  32
ENDBRANCH  22  23
ENDBRANCH  19  21
ENDBRANCH   1  18
BRANCH  15  34
HETATM   34  O4  UNL     1      -4.245   0.303  -2.216  1.00  0.00    -0.389 OA
HETATM   35  H44 UNL     1      -4.284   1.007  -2.889  1.00  0.00     0.210 HD
ENDBRANCH  15  34
BRANCH  11  36
HETATM   36  C26 UNL     1      -5.479   2.158   3.198  1.00  0.00     0.265 C 
HETATM   37  O3  UNL     1      -5.409   2.375   4.402  1.00  0.00    -0.302 OA
ENDBRANCH  11  36
TORSDOF 7
