REMARK  7 active torsions:
REMARK  status: ('A' for Active; 'I' for Inactive)
REMARK    1  A    between atoms: O1_2  and  C2_3 
REMARK    2  A    between atoms: C2_3  and  C3_5 
REMARK    3  A    between atoms: C17_20  and  C18_21 
REMARK    4  A    between atoms: C18_21  and  O5_23 
REMARK    5  A    between atoms: O5_23  and  C19_24 
REMARK    6  A    between atoms: C19_24  and  C20_25 
REMARK    7  A    between atoms: C20_25  and  N1_26 
ROOT
HETATM    1  C3  UNL     1      -4.874   0.241   0.889  1.00  0.00     0.049 C 
HETATM    2  C4  UNL     1      -5.605   1.513   1.372  1.00  0.00     0.026 C 
HETATM    3  C5  UNL     1      -4.820  -0.762   2.069  1.00  0.00     0.020 C 
HETATM    4  C6  UNL     1      -4.024  -2.014   1.723  1.00  0.00     0.002 C 
HETATM    5  C7  UNL     1      -2.584  -1.669   1.360  1.00  0.00     0.010 C 
HETATM    6  C8  UNL     1      -2.439  -0.624   0.210  1.00  0.00    -0.034 C 
HETATM    7  C9  UNL     1      -2.748  -1.342  -1.125  1.00  0.00     0.016 C 
HETATM    8  C10 UNL     1      -3.391   0.593   0.487  1.00  0.00     0.019 C 
HETATM    9  C11 UNL     1      -3.269   1.703  -0.573  1.00  0.00     0.085 C 
HETATM   10  C12 UNL     1      -1.941   1.695  -1.293  1.00  0.00     0.132 C 
HETATM   11  O3  UNL     1      -1.873   2.093  -2.458  1.00  0.00    -0.298 OA
HETATM   12  C13 UNL     1      -0.710   1.283  -0.488  1.00  0.00     0.068 C 
HETATM   13  C14 UNL     1       0.582   1.388  -1.367  1.00  0.00     0.022 C 
HETATM   14  C15 UNL     1       0.955   2.882  -1.517  1.00  0.00     0.015 C 
HETATM   15  C16 UNL     1       1.789   0.565  -0.894  1.00  0.00    -0.070 C 
HETATM   16  C17 UNL     1       3.015   0.742  -1.438  1.00  0.00     0.085 C 
HETATM   17  C23 UNL     1       1.506  -0.538   0.096  1.00  0.00     0.035 C 
HETATM   18  C24 UNL     1       0.116  -1.119  -0.133  1.00  0.00     0.010 C 
HETATM   19  C25 UNL     1      -0.950  -0.077   0.228  1.00  0.00     0.006 C 
ENDROOT
BRANCH  16  20
HETATM   20  C18 UNL     1       4.264   0.029  -1.091  1.00  0.00     0.283 C 
HETATM   21  O4  UNL     1       5.070  -0.333  -1.938  1.00  0.00    -0.260 OA
BRANCH  20  22
HETATM   22  O5  UNL     1       4.407  -0.059   0.254  1.00  0.00    -0.316 OA
BRANCH  22  23
HETATM   23  C19 UNL     1       5.623  -0.684   0.703  1.00  0.00     0.209 C 
BRANCH  23  24
HETATM   24  C20 UNL     1       6.804   0.301   0.634  1.00  0.00     0.298 C 
BRANCH  24  25
HETATM   25  N1  UNL     1       8.021  -0.159   1.333  1.00  0.00     0.082 N 
HETATM   26  C21 UNL     1       8.589  -1.357   0.710  1.00  0.00     0.309 C 
HETATM   27  C22 UNL     1       9.024   0.910   1.342  1.00  0.00     0.309 C 
ENDBRANCH  24  25
ENDBRANCH  23  24
ENDBRANCH  22  23
ENDBRANCH  20  22
ENDBRANCH  16  20
BRANCH   1  28
HETATM   28  C2  UNL     1      -5.742  -0.313  -0.262  1.00  0.00     0.267 C 
HETATM   29  O2  UNL     1      -5.551  -0.100  -1.452  1.00  0.00    -0.264 OA
BRANCH  28  30
HETATM   30  O1  UNL     1      -6.801  -1.030   0.212  1.00  0.00    -0.326 OA
HETATM   31  C1  UNL     1      -7.649  -1.576  -0.801  1.00  0.00     0.213 C 
ENDBRANCH  28  30
ENDBRANCH   1  28
TORSDOF 7
