REMARK  13 active torsions:
REMARK  status: ('A' for Active; 'I' for Inactive)
REMARK    1  A    between atoms: C14_15  and  O2_16 
REMARK    2  A    between atoms: C14_15  and  C15_17 
REMARK    3  A    between atoms: C15_17  and  C16_19 
REMARK    4  A    between atoms: C16_19  and  O4_20 
REMARK    5  A    between atoms: O4_20  and  C17_21 
REMARK    6  A    between atoms: C17_21  and  C18_23 
REMARK    7  A    between atoms: C18_23  and  C19_24 
REMARK    8  A    between atoms: C19_24  and  C20_25 
REMARK       I    between atoms: C20_25  and  N1_27 
REMARK    9  A    between atoms: N1_27  and  C21_28 
REMARK   10  A    between atoms: C21_28  and  C22_29 
REMARK   11  A    between atoms: C22_29  and  C23_30 
REMARK   12  A    between atoms: C26_33  and  O7_34 
REMARK   13  A    between atoms: C27_35  and  O8_36 
ROOT
HETATM    1  C15 UNL     1      -0.230   1.067  -0.331  1.00  0.00     0.185 C 
HETATM    2  O3  UNL     1       0.515   1.932   0.139  1.00  0.00    -0.292 OA
ENDROOT
BRANCH   1   3
HETATM    3  C14 UNL     1      -1.651   0.831   0.232  1.00  0.00     0.128 C 
HETATM    4  C13 UNL     1      -1.701   1.090   1.744  1.00  0.00     0.047 C 
HETATM    5  C12 UNL     1      -3.194   1.164   2.029  1.00  0.00     0.009 C 
HETATM    6  C11 UNL     1      -3.792   1.922   0.830  1.00  0.00     0.002 C 
HETATM    7  C10 UNL     1      -5.221   1.488   0.426  1.00  0.00     0.003 C 
HETATM    8  C29 UNL     1      -2.742   1.809  -0.328  1.00  0.00     0.005 C 
HETATM    9  C9  UNL     1      -6.188   1.582   1.624  1.00  0.00     0.010 C 
HETATM   10  C33 UNL     1      -5.248   0.096  -0.285  1.00  0.00     0.072 C 
HETATM   11  C8  UNL     1      -7.606   1.144   1.263  1.00  0.00     0.035 C 
HETATM   12  C7  UNL     1      -7.525  -0.242   0.680  1.00  0.00    -0.067 C 
HETATM   13  C2  UNL     1      -6.713  -0.370  -0.622  1.00  0.00    -0.009 C 
HETATM   14  C6  UNL     1      -8.028  -1.280   1.371  1.00  0.00     0.053 C 
HETATM   15  C1  UNL     1      -7.342   0.521  -1.727  1.00  0.00     0.021 C 
HETATM   16  C3  UNL     1      -6.823  -1.834  -1.146  1.00  0.00     0.022 C 
HETATM   17  C4  UNL     1      -6.680  -2.898  -0.071  1.00  0.00     0.084 C 
HETATM   18  C5  UNL     1      -7.725  -2.679   0.990  1.00  0.00     0.149 C 
HETATM   19  O1  UNL     1      -8.253  -3.603   1.603  1.00  0.00    -0.293 OA
HETATM   20  C32 UNL     1      -4.326   0.159  -1.512  1.00  0.00     0.133 C 
HETATM   21  C31 UNL     1      -3.391   1.345  -1.643  1.00  0.00     0.091 C 
HETATM   22  O9  UNL     1      -4.344  -0.683  -2.408  1.00  0.00    -0.297 OA
HETATM   23  C30 UNL     1      -2.164   3.225  -0.583  1.00  0.00     0.019 C 
BRANCH   3  24
HETATM   24  O2  UNL     1      -2.064  -0.519   0.019  1.00  0.00    -0.381 OA
HETATM   25  H19 UNL     1      -1.521  -1.099   0.588  1.00  0.00     0.211 HD
ENDBRANCH   3  24
ENDBRANCH   1   3
BRANCH   1  26
HETATM   26  C16 UNL     1       0.185   0.224  -1.540  1.00  0.00     0.260 C 
BRANCH  26  27
HETATM   27  O4  UNL     1       1.537   0.454  -1.942  1.00  0.00    -0.314 OA
BRANCH  27  28
HETATM   28  C17 UNL     1       2.466  -0.044  -1.075  1.00  0.00     0.259 C 
HETATM   29  O5  UNL     1       2.202  -0.689  -0.069  1.00  0.00    -0.265 OA
BRANCH  28  30
HETATM   30  C18 UNL     1       3.850   0.330  -1.550  1.00  0.00     0.120 C 
BRANCH  30  31
HETATM   31  C19 UNL     1       4.869   0.235  -0.423  1.00  0.00     0.112 C 
BRANCH  31  32
HETATM   32  C20 UNL     1       5.356  -1.184  -0.201  1.00  0.00     0.218 C 
HETATM   33  O6  UNL     1       5.094  -2.120  -0.949  1.00  0.00    -0.274 OA
HETATM   34  N1  UNL     1       6.165  -1.298   0.910  1.00  0.00    -0.361 N 
HETATM   35  H26 UNL     1       6.500  -0.452   1.357  1.00  0.00     0.162 HD
BRANCH  34  36
HETATM   36  C21 UNL     1       6.825  -2.543   1.259  1.00  0.00     0.127 C 
BRANCH  36  37
HETATM   37  C22 UNL     1       8.029  -2.862   0.364  1.00  0.00     0.058 C 
BRANCH  37  38
HETATM   38  C23 UNL     1       9.070  -1.762   0.338  1.00  0.00    -0.054 A 
HETATM   39  C24 UNL     1       9.296  -1.032  -0.842  1.00  0.00     0.010 A 
HETATM   40  C25 UNL     1      10.233   0.006  -0.875  1.00  0.00     0.040 A 
HETATM   41  C26 UNL     1      10.939   0.316   0.278  1.00  0.00     0.098 A 
HETATM   42  C27 UNL     1      10.723  -0.404   1.450  1.00  0.00     0.099 A 
HETATM   43  C28 UNL     1       9.802  -1.441   1.490  1.00  0.00     0.046 A 
BRANCH  41  44
HETATM   44  O7  UNL     1      11.853   1.331   0.316  1.00  0.00    -0.358 OA
HETATM   45  H33 UNL     1      11.897   1.732  -0.569  1.00  0.00     0.217 HD
ENDBRANCH  41  44
BRANCH  42  46
HETATM   46  O8  UNL     1      11.411  -0.079   2.584  1.00  0.00    -0.358 OA
HETATM   47  H34 UNL     1      12.012   0.639   2.302  1.00  0.00     0.217 HD
ENDBRANCH  42  46
ENDBRANCH  37  38
ENDBRANCH  36  37
ENDBRANCH  34  36
ENDBRANCH  31  32
ENDBRANCH  30  31
ENDBRANCH  28  30
ENDBRANCH  27  28
ENDBRANCH  26  27
ENDBRANCH   1  26
TORSDOF 13
