REMARK  9 active torsions:
REMARK  status: ('A' for Active; 'I' for Inactive)
REMARK    1  A    between atoms: C3_3  and  O1_4 
REMARK    2  A    between atoms: N1_14  and  O2_16 
REMARK    3  A    between atoms: O2_16  and  C13_17 
REMARK    4  A    between atoms: C13_17  and  C14_18 
REMARK       I    between atoms: C14_18  and  N2_20 
REMARK    5  A    between atoms: N2_20  and  C15_21 
REMARK    6  A    between atoms: C15_21  and  C16_22 
REMARK    7  A    between atoms: C15_21  and  C18_26 
REMARK    8  A    between atoms: C16_22  and  C17_23 
REMARK    9  A    between atoms: C17_23  and  O5_25 
ROOT
HETATM    1  C1  UNL     1      -7.785   2.847  -1.902  1.00  0.00     0.015 C 
HETATM    2  C2  UNL     1      -7.999   1.832  -1.296  1.00  0.00    -0.078 C 
HETATM    3  C3  UNL     1      -8.282   0.589  -0.545  1.00  0.00     0.128 C 
HETATM    4  C4  UNL     1      -8.390   0.901   0.949  1.00  0.00     0.052 C 
HETATM    5  C5  UNL     1      -6.938   0.979   1.400  1.00  0.00     0.010 C 
HETATM    6  C6  UNL     1      -6.187  -0.106   0.597  1.00  0.00     0.002 C 
HETATM    7  C7  UNL     1      -4.782   0.344   0.133  1.00  0.00    -0.004 C 
HETATM    8  C8  UNL     1      -3.866   0.828   1.282  1.00  0.00     0.010 C 
HETATM    9  C9  UNL     1      -3.016  -0.259   1.929  1.00  0.00     0.035 C 
HETATM   10  C10 UNL     1      -2.265  -0.975   0.837  1.00  0.00    -0.069 C 
HETATM   11  C11 UNL     1      -0.937  -0.807   0.715  1.00  0.00     0.030 C 
HETATM   12  C12 UNL     1      -0.212  -1.264  -0.506  1.00  0.00     0.032 C 
HETATM   13  N1  UNL     1       1.074  -1.261  -0.674  1.00  0.00    -0.271 N 
ATOM     14  H1  UNL     1       1.543  -1.566  -1.527  1.00  0.00     0.194 HD
HETATM   15  C25 UNL     1      -1.068  -1.685  -1.683  1.00  0.00     0.060 C 
HETATM   16  C26 UNL     1      -2.262  -2.490  -1.196  1.00  0.00     0.020 C 
HETATM   17  C27 UNL     1      -3.143  -1.740  -0.151  1.00  0.00    -0.016 C 
HETATM   18  C28 UNL     1      -3.916  -2.852   0.603  1.00  0.00     0.020 C 
HETATM   19  C29 UNL     1      -4.086  -0.679  -0.834  1.00  0.00     0.002 C 
HETATM   20  C30 UNL     1      -5.072  -1.300  -1.850  1.00  0.00     0.007 C 
HETATM   21  C31 UNL     1      -6.392  -0.540  -1.948  1.00  0.00     0.014 C 
HETATM   22  C32 UNL     1      -7.138  -0.484  -0.591  1.00  0.00     0.003 C 
HETATM   23  C33 UNL     1      -7.729  -1.897  -0.313  1.00  0.00     0.020 C 
ENDROOT
BRANCH   3  24
HETATM   24  O1  UNL     1      -9.520   0.072  -1.012  1.00  0.00    -0.377 OA
HETATM   25  H2  UNL     1      -9.446  -0.000  -1.978  1.00  0.00     0.211 HD
ENDBRANCH   3  24
BRANCH  13  26
HETATM   26  O2  UNL     1       1.739  -0.784   0.469  1.00  0.00    -0.271 OA
BRANCH  26  27
HETATM   27  C13 UNL     1       3.123  -0.648   0.183  1.00  0.00     0.303 C 
BRANCH  27  28
HETATM   28  C14 UNL     1       3.779   0.325   1.161  1.00  0.00     0.244 C 
HETATM   29  O3  UNL     1       3.198   0.860   2.101  1.00  0.00    -0.271 OA
HETATM   30  N2  UNL     1       5.111   0.567   0.874  1.00  0.00    -0.354 N 
HETATM   31  H16 UNL     1       5.513   0.129   0.045  1.00  0.00     0.162 HD
BRANCH  30  32
HETATM   32  C15 UNL     1       5.903   1.581   1.569  1.00  0.00     0.098 C 
BRANCH  32  33
HETATM   33  C16 UNL     1       6.294   1.096   2.977  1.00  0.00     0.135 C 
BRANCH  33  34
HETATM   34  C17 UNL     1       6.834   2.205   3.839  1.00  0.00     0.141 C 
HETATM   35  O4  UNL     1       6.864   3.398   3.585  1.00  0.00    -0.650 OA
BRANCH  34  36
HETATM   36  O5  UNL     1       7.311   1.747   5.013  1.00  0.00    -0.776 OA
HETATM   37  H20 UNL     1       7.591   2.555   5.490  1.00  0.00     0.167 HD
ENDBRANCH  34  36
ENDBRANCH  33  34
ENDBRANCH  32  33
BRANCH  32  38
HETATM   38  C18 UNL     1       7.107   2.077   0.699  1.00  0.00     0.014 C 
HETATM   39  C19 UNL     1       6.661   2.540  -0.700  1.00  0.00     0.033 C 
HETATM   40  C20 UNL     1       6.702   1.437  -1.757  1.00  0.00     0.169 C 
HETATM   41  O6  UNL     1       6.836   0.138  -1.174  1.00  0.00    -0.381 OA
HETATM   42  C21 UNL     1       8.052  -0.058  -0.428  1.00  0.00     0.054 C 
HETATM   43  C22 UNL     1       9.237  -0.245  -1.389  1.00  0.00     0.045 C 
HETATM   44  C23 UNL     1       7.877  -1.373   0.349  1.00  0.00     0.045 C 
HETATM   45  C24 UNL     1       8.300   1.115   0.544  1.00  0.00     0.044 C 
ENDBRANCH  32  38
ENDBRANCH  30  32
ENDBRANCH  27  28
ENDBRANCH  26  27
ENDBRANCH  13  26
TORSDOF 9
