REMARK  12 active torsions:
REMARK  status: ('A' for Active; 'I' for Inactive)
REMARK    1  A    between atoms: O1_2  and  C2_3 
REMARK    2  A    between atoms: C3_5  and  C4_6 
REMARK    3  A    between atoms: C4_6  and  O3_7 
REMARK    4  A    between atoms: C4_6  and  C5_8 
REMARK    5  A    between atoms: C5_8  and  O4_10 
REMARK    6  A    between atoms: C5_8  and  C7_11 
REMARK    7  A    between atoms: C7_11  and  O5_12 
REMARK    8  A    between atoms: C9_14  and  C10_15 
REMARK    9  A    between atoms: C23_28  and  O6_29 
REMARK   10  A    between atoms: O6_29  and  C24_30 
REMARK   11  A    between atoms: C24_30  and  C25_32 
REMARK   12  A    between atoms: C34_41  and  O8_42 
ROOT
HETATM    1  C10 UNL     1      -3.085   1.243   0.654  1.00  0.00     0.004 C 
HETATM    2  C11 UNL     1      -3.175   2.385  -0.383  1.00  0.00     0.007 C 
HETATM    3  C12 UNL     1      -1.716   2.764  -0.689  1.00  0.00     0.011 C 
HETATM    4  C13 UNL     1      -0.908   1.491  -0.459  1.00  0.00    -0.021 A 
HETATM    5  C14 UNL     1      -1.443   0.245  -1.142  1.00  0.00     0.022 A 
HETATM    6  C15 UNL     1      -1.775   0.528   0.312  1.00  0.00    -0.027 A 
HETATM    7  C16 UNL     1      -1.193  -0.416   1.336  1.00  0.00     0.011 C 
HETATM    8  C17 UNL     1       0.270  -0.149   1.708  1.00  0.00     0.007 C 
HETATM    9  C18 UNL     1       1.133   0.246   0.489  1.00  0.00     0.005 C 
HETATM   10  C19 UNL     1       2.710   0.118   0.687  1.00  0.00    -0.035 C 
HETATM   11  C20 UNL     1       3.213   0.941   1.896  1.00  0.00     0.016 C 
HETATM   12  C21 UNL     1       3.063  -1.378   0.963  1.00  0.00     0.012 C 
HETATM   13  C22 UNL     1       4.557  -1.693   0.887  1.00  0.00     0.034 C 
HETATM   14  C23 UNL     1       5.183  -1.270  -0.441  1.00  0.00     0.140 C 
HETATM   15  C29 UNL     1       4.930   0.230  -0.795  1.00  0.00    -0.016 C 
HETATM   16  C30 UNL     1       5.395   0.433  -2.265  1.00  0.00     0.018 C 
HETATM   17  C31 UNL     1       5.804   1.172   0.058  1.00  0.00     0.018 C 
HETATM   18  C32 UNL     1       3.387   0.514  -0.681  1.00  0.00     0.007 C 
HETATM   19  C33 UNL     1       2.945   1.924  -1.146  1.00  0.00     0.038 C 
HETATM   20  C34 UNL     1       1.427   1.992  -1.374  1.00  0.00     0.128 C 
HETATM   21  C35 UNL     1       0.611   1.619  -0.103  1.00  0.00    -0.005 C 
HETATM   22  C36 UNL     1       0.761   2.783   0.920  1.00  0.00     0.019 C 
ENDROOT
BRANCH   1  23
HETATM   23  C9  UNL     1      -4.280   0.283   0.753  1.00  0.00     0.048 C 
HETATM   24  C2  UNL     1      -5.611   0.876   1.217  1.00  0.00     0.264 C 
HETATM   25  O2  UNL     1      -6.604  -0.115   0.896  1.00  0.00    -0.353 OA
HETATM   26  C3  UNL     1      -6.055  -1.020  -0.079  1.00  0.00     0.157 C 
HETATM   27  C8  UNL     1      -4.714  -0.433  -0.513  1.00  0.00     0.044 C 
BRANCH  24  28
HETATM   28  O1  UNL     1      -5.904   2.090   0.541  1.00  0.00    -0.366 OA
HETATM   29  C1  UNL     1      -7.038   2.747   1.090  1.00  0.00     0.204 C 
ENDBRANCH  24  28
BRANCH  26  30
HETATM   30  C4  UNL     1      -7.026  -1.298  -1.242  1.00  0.00     0.183 C 
BRANCH  30  31
HETATM   31  O3  UNL     1      -7.197  -0.121  -2.052  1.00  0.00    -0.390 OA
HETATM   32  H7  UNL     1      -7.943  -0.321  -2.658  1.00  0.00     0.210 HD
ENDBRANCH  30  31
BRANCH  30  33
HETATM   33  C5  UNL     1      -8.432  -1.836  -0.847  1.00  0.00     0.103 C 
HETATM   34  C6  UNL     1      -8.351  -3.145  -0.055  1.00  0.00     0.051 C 
BRANCH  33  35
HETATM   35  O4  UNL     1      -9.108  -2.127  -2.098  1.00  0.00    -0.385 OA
HETATM   36  H11 UNL     1      -8.669  -2.891  -2.512  1.00  0.00     0.210 HD
ENDBRANCH  33  35
BRANCH  33  37
HETATM   37  C7  UNL     1      -9.325  -0.824  -0.083  1.00  0.00     0.204 C 
BRANCH  37  38
HETATM   38  O5  UNL     1      -9.403   0.455  -0.712  1.00  0.00    -0.398 OA
HETATM   39  H14 UNL     1      -8.479   0.731  -0.895  1.00  0.00     0.209 HD
ENDBRANCH  37  38
ENDBRANCH  33  37
ENDBRANCH  30  33
ENDBRANCH  26  30
ENDBRANCH   1  23
BRANCH  20  40
HETATM   40  O8  UNL     1       1.121   1.104  -2.455  1.00  0.00    -0.395 OA
HETATM   41  H55 UNL     1       1.437   1.527  -3.272  1.00  0.00     0.210 HD
ENDBRANCH  20  40
BRANCH  14  42
HETATM   42  O6  UNL     1       6.606  -1.503  -0.381  1.00  0.00    -0.312 OA
BRANCH  42  43
HETATM   43  C24 UNL     1       7.030  -2.761  -0.638  1.00  0.00     0.283 C 
HETATM   44  O7  UNL     1       6.335  -3.716  -0.948  1.00  0.00    -0.260 OA
BRANCH  43  45
HETATM   45  C25 UNL     1       8.505  -2.841  -0.581  1.00  0.00     0.084 C 
HETATM   46  C26 UNL     1       9.337  -2.205   0.267  1.00  0.00    -0.082 C 
HETATM   47  C27 UNL     1       8.914  -1.311   1.402  1.00  0.00     0.043 C 
HETATM   48  C28 UNL     1      10.827  -2.386   0.146  1.00  0.00     0.043 C 
ENDBRANCH  43  45
ENDBRANCH  42  43
ENDBRANCH  14  42
TORSDOF 12
