REMARK  9 active torsions:
REMARK  status: ('A' for Active; 'I' for Inactive)
REMARK    1  A    between atoms: C2_2  and  C30_36 
REMARK    2  A    between atoms: C3_3  and  C4_4 
REMARK    3  A    between atoms: C4_4  and  C5_5 
REMARK    4  A    between atoms: C4_4  and  N1_8 
REMARK       I    between atoms: N1_8  and  C9_10 
REMARK    5  A    between atoms: C9_10  and  C10_12 
REMARK    6  A    between atoms: C10_12  and  N2_13 
REMARK    7  A    between atoms: C10_12  and  C26_32 
REMARK       I    between atoms: N2_13  and  C11_14 
REMARK    8  A    between atoms: C11_14  and  C12_16 
REMARK    9  A    between atoms: C30_36  and  O4_38 
ROOT
HETATM    1  N2  UNL     1       0.146   1.592  -0.025  1.00  0.00    -0.345 N 
HETATM    2  C11 UNL     1       0.967   0.865   0.831  1.00  0.00     0.253 C 
HETATM    3  O2  UNL     1       0.574   0.472   1.924  1.00  0.00    -0.271 OA
HETATM    4  H17 UNL     1       0.613   2.112  -0.753  1.00  0.00     0.163 HD
ENDROOT
BRANCH   1   5
HETATM    5  C10 UNL     1      -1.138   2.113   0.463  1.00  0.00     0.184 C 
BRANCH   5   6
HETATM    6  C9  UNL     1      -2.241   1.034   0.734  1.00  0.00     0.243 C 
HETATM    7  N1  UNL     1      -2.438  -0.066  -0.098  1.00  0.00    -0.346 N 
HETATM    8  C8  UNL     1      -1.742  -0.301  -1.356  1.00  0.00     0.153 C 
HETATM    9  O1  UNL     1      -3.021   1.268   1.668  1.00  0.00    -0.271 OA
BRANCH   7  10
HETATM   10  C4  UNL     1      -3.426  -1.115   0.252  1.00  0.00     0.113 C 
BRANCH  10  11
HETATM   11  C3  UNL     1      -4.831  -0.561   0.175  1.00  0.00     0.012 C 
HETATM   12  C2  UNL     1      -5.886  -1.069  -0.498  1.00  0.00     0.010 C 
HETATM   13  C1  UNL     1      -5.904  -2.337  -1.298  1.00  0.00     0.055 C 
BRANCH  12  14
HETATM   14  C30 UNL     1      -7.155  -0.297  -0.417  1.00  0.00     0.171 C 
HETATM   15  O3  UNL     1      -7.345   0.749   0.175  1.00  0.00    -0.646 OA
BRANCH  14  16
HETATM   16  O4  UNL     1      -8.149  -0.880  -1.109  1.00  0.00    -0.773 OA
HETATM   17  H44 UNL     1      -8.904  -0.270  -0.965  1.00  0.00     0.167 HD
ENDBRANCH  14  16
ENDBRANCH  12  14
ENDBRANCH  10  11
BRANCH  10  18
HETATM   18  C5  UNL     1      -3.128  -1.970   1.521  1.00  0.00     0.004 C 
HETATM   19  C6  UNL     1      -1.731  -2.596   1.461  1.00  0.00     0.012 C 
HETATM   20  C7  UNL     1      -3.333  -1.301   2.879  1.00  0.00     0.012 C 
ENDBRANCH  10  18
ENDBRANCH   7  10
ENDBRANCH   5   6
BRANCH   5  21
HETATM   21  C26 UNL     1      -1.657   3.350  -0.361  1.00  0.00    -0.022 C 
HETATM   22  C27 UNL     1      -1.922   3.032  -1.840  1.00  0.00     0.017 C 
HETATM   23  C28 UNL     1      -2.964   3.906   0.247  1.00  0.00     0.017 C 
HETATM   24  C29 UNL     1      -0.612   4.490  -0.293  1.00  0.00     0.017 C 
ENDBRANCH   5  21
ENDBRANCH   1   5
BRANCH   2  25
HETATM   25  C12 UNL     1       2.407   0.660   0.283  1.00  0.00     0.326 C 
HETATM   26  N3  UNL     1       3.383   1.576   0.971  1.00  0.00     0.104 N 
HETATM   27  C13 UNL     1       2.904   2.947   1.137  1.00  0.00     0.311 C 
HETATM   28  C14 UNL     1       4.674   1.595   0.252  1.00  0.00     0.330 C 
HETATM   29  C15 UNL     1       5.090   0.219  -0.127  1.00  0.00     0.046 A 
HETATM   30  C16 UNL     1       4.313  -0.925  -0.120  1.00  0.00    -0.011 A 
HETATM   31  N4  UNL     1       6.343  -0.110  -0.560  1.00  0.00    -0.357 N 
HETATM   32  C17 UNL     1       5.154  -2.006  -0.537  1.00  0.00    -0.000 A 
HETATM   33  C23 UNL     1       2.861  -0.868   0.347  1.00  0.00     0.022 C 
HETATM   34  C18 UNL     1       4.992  -3.399  -0.689  1.00  0.00     0.014 A 
HETATM   35  C22 UNL     1       6.409  -1.459  -0.825  1.00  0.00     0.043 A 
HETATM   36  C19 UNL     1       6.062  -4.181  -1.141  1.00  0.00     0.001 A 
HETATM   37  C20 UNL     1       7.290  -3.600  -1.437  1.00  0.00     0.002 A 
HETATM   38  C21 UNL     1       7.488  -2.227  -1.280  1.00  0.00     0.030 A 
HETATM   39  C24 UNL     1       1.942  -1.685  -0.582  1.00  0.00     0.023 C 
HETATM   40  C25 UNL     1       2.796  -1.458   1.773  1.00  0.00     0.023 C 
HETATM   41  H28 UNL     1       7.121   0.529  -0.655  1.00  0.00     0.166 HD
ENDBRANCH   2  25
TORSDOF 9
