REMARK  9 active torsions:
REMARK  status: ('A' for Active; 'I' for Inactive)
REMARK       I    between atoms: N1_1  and  C1_2 
REMARK       I    between atoms: C1_2  and  N2_3 
REMARK    1  A    between atoms: N3_4  and  C2_6 
REMARK    2  A    between atoms: C11_16  and  S1_17 
REMARK    3  A    between atoms: S1_17  and  O4_20 
REMARK    4  A    between atoms: C18_27  and  C19_28 
REMARK    5  A    between atoms: C19_28  and  C20_29 
REMARK    6  A    between atoms: C20_29  and  C21_30 
REMARK    7  A    between atoms: C21_30  and  O5_31 
REMARK    8  A    between atoms: C22_33  and  C23_34 
REMARK    9  A    between atoms: C26_37  and  O7_38 
ROOT
HETATM    1  C2  UNL     1       5.341   1.513   0.970  1.00  0.00     0.263 C 
HETATM    2  O1  UNL     1       6.053   0.484   0.205  1.00  0.00    -0.322 OA
HETATM    3  C3  UNL     1       5.399  -0.723   0.107  1.00  0.00     0.071 C 
HETATM    4  C4  UNL     1       4.904  -1.413   1.211  1.00  0.00     0.037 C 
HETATM    5  C5  UNL     1       4.043  -2.496   1.018  1.00  0.00     0.010 C 
HETATM    6  C6  UNL     1       3.697  -2.905  -0.278  1.00  0.00    -0.058 C 
HETATM    7  C7  UNL     1       4.314  -2.290  -1.373  1.00  0.00     0.010 C 
HETATM    8  C8  UNL     1       5.173  -1.208  -1.179  1.00  0.00     0.037 C 
HETATM    9  C9  UNL     1       2.603  -3.923  -0.493  1.00  0.00     0.040 C 
HETATM   10  C10 UNL     1       1.201  -3.365  -0.166  1.00  0.00     0.027 C 
HETATM   11  C11 UNL     1       0.772  -2.112  -0.979  1.00  0.00     0.130 C 
HETATM   12  C12 UNL     1      -0.149  -1.177  -0.140  1.00  0.00     0.037 C 
HETATM   13  C13 UNL     1      -1.555  -1.692   0.131  1.00  0.00    -0.014 C 
HETATM   14  C14 UNL     1      -2.640  -0.943  -0.168  1.00  0.00    -0.050 C 
HETATM   15  C15 UNL     1      -2.490   0.284  -1.028  1.00  0.00     0.042 C 
HETATM   16  C16 UNL     1      -1.436   1.116  -0.295  1.00  0.00     0.001 C 
HETATM   17  C17 UNL     1      -1.797   1.254   1.220  1.00  0.00     0.037 C 
HETATM   18  C18 UNL     1      -3.305   1.331   1.621  1.00  0.00     0.123 C 
HETATM   19  O6  UNL     1      -4.228   0.446   0.955  1.00  0.00    -0.371 OA
HETATM   20  C22 UNL     1      -3.862  -0.927   0.722  1.00  0.00     0.183 C 
HETATM   21  C29 UNL     1      -0.098   0.351  -0.588  1.00  0.00     0.032 C 
HETATM   22  C30 UNL     1       1.192   1.025  -0.130  1.00  0.00    -0.053 C 
HETATM   23  C31 UNL     1       2.131   1.427  -1.096  1.00  0.00     0.008 C 
HETATM   24  C32 UNL     1       3.448   1.720  -0.736  1.00  0.00     0.012 C 
HETATM   25  C33 UNL     1       3.854   1.598   0.598  1.00  0.00    -0.010 C 
HETATM   26  C34 UNL     1       2.879   1.381   1.581  1.00  0.00     0.012 C 
HETATM   27  C35 UNL     1       1.562   1.091   1.218  1.00  0.00     0.008 C 
ENDROOT
BRANCH   1  28
HETATM   28  N3  UNL     1       5.944   2.856   1.001  1.00  0.00    -0.341 N 
HETATM   29  C1  UNL     1       6.648   3.264   0.018  1.00  0.00     0.124 C 
HETATM   30  N1  UNL     1       6.958   2.655  -1.148  1.00  0.00    -0.279 NA
HETATM   31  N2  UNL     1       7.213   4.490   0.059  1.00  0.00    -0.279 NA
HETATM   32  H1  UNL     1       6.746   1.658  -1.118  1.00  0.00     0.126 HD
HETATM   33  H2  UNL     1       7.930   2.797  -1.399  1.00  0.00     0.126 HD
HETATM   34  H3  UNL     1       6.857   5.015   0.853  1.00  0.00     0.126 HD
HETATM   35  H4  UNL     1       7.073   5.017  -0.795  1.00  0.00     0.126 HD
ATOM     36  H3  UNL     1       5.799   3.461   1.809  1.00  0.00     0.164 HD
ENDBRANCH   1  28
BRANCH  11  37
HETATM   37  S1  UNL     1       0.011  -2.568  -2.556  1.00  0.00     0.099 S 
HETATM   38  O2  UNL     1      -0.957  -3.630  -2.377  1.00  0.00    -0.601 OA
HETATM   39  O3  UNL     1      -0.271  -1.394  -3.355  1.00  0.00    -0.601 OA
BRANCH  37  40
HETATM   40  O4  UNL     1       1.290  -3.279  -3.246  1.00  0.00    -0.295 OA
HETATM   41  H15 UNL     1       0.962  -4.073  -3.723  1.00  0.00     0.232 HD
ENDBRANCH  37  40
ENDBRANCH  11  37
BRANCH  18  42
HETATM   42  C19 UNL     1      -3.901   2.738   1.410  1.00  0.00     0.034 C 
BRANCH  42  43
HETATM   43  C20 UNL     1      -3.210   3.850   2.202  1.00  0.00     0.028 C 
BRANCH  43  44
HETATM   44  C21 UNL     1      -3.995   5.160   2.168  1.00  0.00     0.164 C 
BRANCH  44  45
HETATM   45  O5  UNL     1      -4.195   5.622   0.841  1.00  0.00    -0.401 OA
HETATM   46  H30 UNL     1      -3.410   5.386   0.312  1.00  0.00     0.209 HD
ENDBRANCH  44  45
ENDBRANCH  43  44
ENDBRANCH  42  43
ENDBRANCH  18  42
BRANCH  20  47
HETATM   47  C23 UNL     1      -5.021  -1.688   0.097  1.00  0.00    -0.025 A 
HETATM   48  C24 UNL     1      -6.065  -1.033  -0.578  1.00  0.00     0.013 A 
HETATM   49  C25 UNL     1      -7.099  -1.761  -1.171  1.00  0.00     0.037 A 
HETATM   50  C26 UNL     1      -7.096  -3.148  -1.098  1.00  0.00     0.065 A 
HETATM   51  C27 UNL     1      -6.073  -3.824  -0.440  1.00  0.00     0.037 A 
HETATM   52  C28 UNL     1      -5.040  -3.094   0.155  1.00  0.00     0.013 A 
BRANCH  50  53
HETATM   53  O7  UNL     1      -8.120  -3.822  -1.695  1.00  0.00    -0.361 OA
HETATM   54  H34 UNL     1      -7.970  -4.774  -1.580  1.00  0.00     0.217 HD
ENDBRANCH  50  53
ENDBRANCH  20  47
TORSDOF 9
