REMARK  9 active torsions:
REMARK  status: ('A' for Active; 'I' for Inactive)
REMARK    1  A    between atoms: C3_3  and  O1_4 
REMARK    2  A    between atoms: N1_14  and  O2_16 
REMARK    3  A    between atoms: O2_16  and  C13_17 
REMARK    4  A    between atoms: C13_17  and  C14_18 
REMARK       I    between atoms: C14_18  and  N2_20 
REMARK    5  A    between atoms: N2_20  and  C15_21 
REMARK    6  A    between atoms: C15_21  and  C16_22 
REMARK    7  A    between atoms: C15_21  and  C18_26 
REMARK    8  A    between atoms: C16_22  and  C17_23 
REMARK    9  A    between atoms: C17_23  and  O5_25 
ROOT
HETATM    1  C1  UNL     1      -9.545  -1.715  -1.459  1.00  0.00     0.015 C 
HETATM    2  C2  UNL     1      -8.923  -0.684  -1.482  1.00  0.00    -0.078 C 
HETATM    3  C3  UNL     1      -8.160   0.571  -1.495  1.00  0.00     0.128 C 
HETATM    4  C4  UNL     1      -7.120   0.589  -2.614  1.00  0.00     0.052 C 
HETATM    5  C5  UNL     1      -6.142   1.688  -2.216  1.00  0.00     0.010 C 
HETATM    6  C6  UNL     1      -6.234   1.844  -0.681  1.00  0.00     0.002 C 
HETATM    7  C7  UNL     1      -4.907   1.643   0.072  1.00  0.00    -0.004 C 
HETATM    8  C8  UNL     1      -3.868   2.718  -0.266  1.00  0.00     0.010 C 
HETATM    9  C9  UNL     1      -2.662   2.588   0.660  1.00  0.00     0.035 C 
HETATM   10  C10 UNL     1      -2.055   1.203   0.650  1.00  0.00    -0.069 C 
HETATM   11  C11 UNL     1      -0.717   1.077   0.635  1.00  0.00     0.030 C 
HETATM   12  C12 UNL     1      -0.045  -0.238   0.794  1.00  0.00     0.032 C 
HETATM   13  N1  UNL     1       1.243  -0.241   0.997  1.00  0.00    -0.271 N 
ATOM     14  H1  UNL     1       1.823   0.598   1.000  1.00  0.00     0.194 HD
HETATM   15  C25 UNL     1      -0.901  -1.489   0.810  1.00  0.00     0.060 C 
HETATM   16  C26 UNL     1      -2.269  -1.254   0.184  1.00  0.00     0.020 C 
HETATM   17  C27 UNL     1      -3.007   0.001   0.731  1.00  0.00    -0.016 C 
HETATM   18  C28 UNL     1      -3.385  -0.211   2.217  1.00  0.00     0.020 C 
HETATM   19  C29 UNL     1      -4.284   0.247  -0.165  1.00  0.00     0.002 C 
HETATM   20  C30 UNL     1      -5.355  -0.866  -0.103  1.00  0.00     0.007 C 
HETATM   21  C31 UNL     1      -6.687  -0.403   0.483  1.00  0.00     0.014 C 
HETATM   22  C32 UNL     1      -7.336   0.850  -0.192  1.00  0.00     0.003 C 
HETATM   23  C33 UNL     1      -8.223   1.521   0.889  1.00  0.00     0.020 C 
ENDROOT
BRANCH   3  24
HETATM   24  O1  UNL     1      -9.090   1.629  -1.755  1.00  0.00    -0.377 OA
HETATM   25  H2  UNL     1      -8.606   2.467  -1.729  1.00  0.00     0.211 HD
ENDBRANCH   3  24
BRANCH  13  26
HETATM   26  O2  UNL     1       1.735  -1.538   1.211  1.00  0.00    -0.271 OA
BRANCH  26  27
HETATM   27  C13 UNL     1       2.705  -1.507   2.253  1.00  0.00     0.303 C 
BRANCH  27  28
HETATM   28  C14 UNL     1       4.026  -2.106   1.795  1.00  0.00     0.244 C 
HETATM   29  O3  UNL     1       4.717  -2.813   2.528  1.00  0.00    -0.271 OA
HETATM   30  N2  UNL     1       4.406  -1.720   0.521  1.00  0.00    -0.354 N 
HETATM   31  H16 UNL     1       3.818  -1.025   0.061  1.00  0.00     0.162 HD
BRANCH  30  32
HETATM   32  C15 UNL     1       5.719  -2.061  -0.044  1.00  0.00     0.098 C 
BRANCH  32  33
HETATM   33  C16 UNL     1       5.585  -2.150  -1.570  1.00  0.00     0.135 C 
BRANCH  33  34
HETATM   34  C17 UNL     1       6.788  -2.759  -2.225  1.00  0.00     0.141 C 
HETATM   35  O4  UNL     1       7.779  -2.159  -2.611  1.00  0.00    -0.650 OA
BRANCH  34  36
HETATM   36  O5  UNL     1       6.700  -4.094  -2.350  1.00  0.00    -0.776 OA
HETATM   37  H20 UNL     1       7.545  -4.360  -2.775  1.00  0.00     0.167 HD
ENDBRANCH  34  36
ENDBRANCH  33  34
ENDBRANCH  32  33
BRANCH  32  38
HETATM   38  C18 UNL     1       6.790  -1.070   0.504  1.00  0.00     0.014 C 
HETATM   39  C19 UNL     1       8.195  -1.700   0.597  1.00  0.00     0.033 C 
HETATM   40  C20 UNL     1       9.306  -0.695   0.312  1.00  0.00     0.169 C 
HETATM   41  O6  UNL     1       9.013   0.545   0.946  1.00  0.00    -0.381 OA
HETATM   42  C21 UNL     1       7.874   1.235   0.407  1.00  0.00     0.054 C 
HETATM   43  C22 UNL     1       7.247   1.998   1.583  1.00  0.00     0.045 C 
HETATM   44  C23 UNL     1       8.376   2.247  -0.629  1.00  0.00     0.045 C 
HETATM   45  C24 UNL     1       6.848   0.273  -0.236  1.00  0.00     0.044 C 
ENDBRANCH  32  38
ENDBRANCH  30  32
ENDBRANCH  27  28
ENDBRANCH  26  27
ENDBRANCH  13  26
TORSDOF 9
