REMARK  9 active torsions:
REMARK  status: ('A' for Active; 'I' for Inactive)
REMARK    1  A    between atoms: C13_13  and  S1_14 
REMARK    2  A    between atoms: C22_26  and  C23_27 
REMARK    3  A    between atoms: C23_27  and  O4_28 
REMARK    4  A    between atoms: C29_34  and  O5_35 
REMARK    5  A    between atoms: C41_48  and  C42_49 
REMARK    6  A    between atoms: C41_48  and  N1_58 
REMARK    7  A    between atoms: C42_49  and  C43_50 
REMARK    8  A    between atoms: C43_50  and  C44_51 
REMARK    9  A    between atoms: C44_51  and  O7_52 
REMARK       I    between atoms: C50_60  and  N2_61 
REMARK       I    between atoms: C50_60  and  N3_62 
ROOT
HETATM    1  C1  UNL     1       1.517  -6.696  -0.534  1.00  0.00     0.010 C 
HETATM    2  C2  UNL     1       0.660  -5.527  -0.050  1.00  0.00    -0.010 C 
HETATM    3  C3  UNL     1      -0.452  -6.067   0.859  1.00  0.00     0.009 C 
HETATM    4  C4  UNL     1      -1.417  -4.953   1.258  1.00  0.00     0.039 C 
HETATM    5  C5  UNL     1      -2.062  -4.380   0.027  1.00  0.00    -0.049 C 
HETATM    6  C6  UNL     1      -3.235  -3.640   0.122  1.00  0.00     0.044 C 
HETATM    7  C7  UNL     1      -3.760  -3.027  -1.017  1.00  0.00     0.072 C 
HETATM    8  C8  UNL     1      -3.240  -3.328  -2.278  1.00  0.00     0.037 C 
HETATM    9  C9  UNL     1      -2.050  -4.039  -2.378  1.00  0.00     0.011 C 
HETATM   10  C10 UNL     1      -1.396  -4.476  -1.214  1.00  0.00    -0.047 C 
HETATM   11  C11 UNL     1       0.135  -4.682  -1.246  1.00  0.00     0.024 C 
HETATM   12  C12 UNL     1       0.667  -3.221  -1.217  1.00  0.00     0.033 C 
HETATM   13  C13 UNL     1       2.157  -2.855  -1.136  1.00  0.00     0.139 C 
HETATM   14  C14 UNL     1       2.283  -1.387  -0.572  1.00  0.00     0.037 C 
HETATM   15  C15 UNL     1       3.694  -0.971  -0.189  1.00  0.00    -0.014 C 
HETATM   16  C16 UNL     1       4.267   0.142  -0.694  1.00  0.00    -0.050 C 
HETATM   17  C17 UNL     1       3.573   0.887  -1.795  1.00  0.00     0.042 C 
HETATM   18  C18 UNL     1       2.161   1.144  -1.274  1.00  0.00    -0.001 C 
HETATM   19  C19 UNL     1       2.139   1.832   0.129  1.00  0.00     0.037 C 
HETATM   20  C20 UNL     1       3.428   2.582   0.563  1.00  0.00     0.123 C 
HETATM   21  C21 UNL     1       3.098   3.542   1.730  1.00  0.00     0.039 C 
HETATM   22  C22 UNL     1       4.215   4.584   2.031  1.00  0.00     0.023 C 
HETATM   23  C24 UNL     1       5.150   4.173   3.196  1.00  0.00     0.101 C 
HETATM   24  C25 UNL     1       6.041   3.072   2.846  1.00  0.00    -0.101 C 
HETATM   25  C26 UNL     1       6.631   2.097   2.460  1.00  0.00    -0.066 C 
HETATM   26  C27 UNL     1       7.094   0.888   1.860  1.00  0.00     0.029 A 
HETATM   27  C28 UNL     1       8.241   0.287   2.394  1.00  0.00     0.057 A 
HETATM   28  C29 UNL     1       8.742  -0.878   1.830  1.00  0.00     0.067 A 
HETATM   29  C30 UNL     1       8.124  -1.454   0.727  1.00  0.00     0.037 A 
HETATM   30  C31 UNL     1       6.982  -0.855   0.181  1.00  0.00     0.014 A 
HETATM   31  C32 UNL     1       6.428   0.312   0.750  1.00  0.00    -0.006 A 
HETATM   32  C33 UNL     1       5.226   0.993   0.090  1.00  0.00     0.185 C 
HETATM   33  O6  UNL     1       4.385   1.642   1.068  1.00  0.00    -0.371 OA
HETATM   34  C34 UNL     1       1.457  -0.252  -1.326  1.00  0.00     0.031 C 
HETATM   35  C35 UNL     1      -0.031  -0.152  -0.983  1.00  0.00     0.051 A 
HETATM   36  C36 UNL     1      -0.969  -0.107  -2.025  1.00  0.00     0.004 A 
HETATM   37  C37 UNL     1      -2.339  -0.244  -1.766  1.00  0.00     0.008 A 
HETATM   38  C38 UNL     1      -2.812  -0.441  -0.453  1.00  0.00    -0.003 A 
HETATM   39  C39 UNL     1      -1.875  -0.356   0.588  1.00  0.00     0.114 A 
HETATM   40  C40 UNL     1      -0.510  -0.206   0.330  1.00  0.00     0.064 A 
HETATM   41  C41 UNL     1      -4.301  -0.842  -0.166  1.00  0.00     0.169 C 
HETATM   42  O8  UNL     1      -4.704  -2.033  -0.949  1.00  0.00    -0.316 OA
HETATM   43 NA1  UNL     1       0.000   0.000   0.000  1.00  0.00    -0.401 Na
ATOM     44  HA1 UNL     1       0.800   0.273   0.572  1.00  0.00     0.155 HD
ENDROOT
BRANCH  41  45
HETATM   45  C42 UNL     1      -5.195   0.292  -0.747  1.00  0.00     0.070 C 
BRANCH  45  46
HETATM   46  C43 UNL     1      -4.879   1.712  -0.233  1.00  0.00     0.043 C 
BRANCH  46  47
HETATM   47  C44 UNL     1      -6.022   2.732  -0.433  1.00  0.00     0.058 C 
HETATM   48  C45 UNL     1      -5.588   4.085   0.183  1.00  0.00     0.038 C 
HETATM   49  C46 UNL     1      -6.270   5.267  -0.501  1.00  0.00     0.003 C 
HETATM   50  C47 UNL     1      -5.899   5.342  -1.984  1.00  0.00     0.000 C 
HETATM   51  C48 UNL     1      -5.656   3.969  -2.615  1.00  0.00     0.003 C 
HETATM   52  C49 UNL     1      -6.458   2.892  -1.905  1.00  0.00     0.038 C 
BRANCH  47  53
HETATM   53  O7  UNL     1      -7.180   2.283   0.281  1.00  0.00    -0.390 OA
HETATM   54  H46 UNL     1      -6.878   1.710   1.017  1.00  0.00     0.210 HD
ENDBRANCH  47  53
ENDBRANCH  46  47
ENDBRANCH  45  46
ENDBRANCH  41  45
BRANCH  41  55
HETATM   55  N1  UNL     1      -4.494  -1.029   1.284  1.00  0.00    -0.336 N 
HETATM   56  C50 UNL     1      -5.452  -0.735   2.048  1.00  0.00     0.124 C 
HETATM   57  N2  UNL     1      -5.339  -1.025   3.359  1.00  0.00    -0.279 NA
HETATM   58  N3  UNL     1      -6.658  -0.160   1.826  1.00  0.00    -0.279 NA
HETATM   59  H57 UNL     1      -4.485  -1.540   3.552  1.00  0.00     0.126 HD
HETATM   60  H58 UNL     1      -6.153  -1.449   3.798  1.00  0.00     0.126 HD
HETATM   61  H59 UNL     1      -7.268  -0.782   1.291  1.00  0.00     0.126 HD
HETATM   62  H60 UNL     1      -7.117   0.054   2.703  1.00  0.00     0.126 HD
ATOM     63  H1  UNL     1      -3.708  -1.478   1.754  1.00  0.00     0.165 HD
ENDBRANCH  41  55
BRANCH  13  64
HETATM   64  S1  UNL     1       3.012  -3.124  -2.692  1.00  0.00     0.106 S 
HETATM   65  O1  UNL     1       2.345  -2.261  -3.661  1.00  0.00    -0.595 OA
HETATM   66  O2  UNL     1       2.823  -4.559  -2.936  1.00  0.00    -0.595 OA
HETATM   67  O3  UNL     1       4.403  -2.768  -2.422  1.00  0.00    -0.595 OA
ENDBRANCH  13  64
BRANCH  22  68
HETATM   68  C23 UNL     1       3.570   5.935   2.403  1.00  0.00     0.169 C 
BRANCH  68  69
HETATM   69  O4  UNL     1       3.009   6.578   1.262  1.00  0.00    -0.400 OA
HETATM   70  H29 UNL     1       2.349   5.979   0.866  1.00  0.00     0.209 HD
ENDBRANCH  68  69
ENDBRANCH  22  68
BRANCH  28  71
HETATM   71  O5  UNL     1       9.863  -1.422   2.387  1.00  0.00    -0.361 OA
HETATM   72  H33 UNL     1      10.089  -2.218   1.878  1.00  0.00     0.217 HD
ENDBRANCH  28  71
TORSDOF 9
