REMARK  7 active torsions:
REMARK  status: ('A' for Active; 'I' for Inactive)
REMARK    1  A    between atoms: C3_3  and  C4_4 
REMARK    2  A    between atoms: C4_4  and  O1_5 
REMARK    3  A    between atoms: C7_9  and  O3_10 
REMARK    4  A    between atoms: C25_30  and  C26_31 
REMARK    5  A    between atoms: C41_47  and  O7_49 
REMARK    6  A    between atoms: C43_50  and  O8_51 
REMARK    7  A    between atoms: C43_50  and  O9_52 
ROOT
HETATM    1  C1  UNL     1      -5.197   2.758  -3.083  1.00  0.00     0.013 C 
HETATM    2  C2  UNL     1      -5.805   1.846  -2.019  1.00  0.00     0.023 C 
HETATM    3  C3  UNL     1      -5.871   2.546  -0.628  1.00  0.00     0.050 C 
HETATM    4  C5  UNL     1      -4.607   2.035   0.160  1.00  0.00     0.194 C 
HETATM    5  O2  UNL     1      -3.910   1.309  -0.869  1.00  0.00    -0.371 OA
HETATM    6  C6  UNL     1      -4.917   0.670  -1.676  1.00  0.00     0.167 C 
HETATM    7  C7  UNL     1      -4.269  -0.232  -2.735  1.00  0.00     0.226 C 
HETATM    8  C8  UNL     1      -3.620  -1.336  -1.984  1.00  0.00    -0.072 C 
HETATM    9  C9  UNL     1      -3.093  -2.021  -1.147  1.00  0.00    -0.103 C 
HETATM   10  C10 UNL     1      -2.359  -2.639  -0.018  1.00  0.00     0.099 C 
HETATM   11  C11 UNL     1      -1.016  -1.900   0.193  1.00  0.00     0.009 C 
HETATM   12  C12 UNL     1       0.137  -2.908   0.467  1.00  0.00     0.016 C 
HETATM   13  C13 UNL     1       1.564  -2.261   0.604  1.00  0.00     0.027 C 
HETATM   14  C14 UNL     1       1.564  -0.920   1.347  1.00  0.00    -0.036 C 
HETATM   15  C15 UNL     1       2.523  -0.547   2.206  1.00  0.00     0.057 C 
HETATM   16  C16 UNL     1       3.719  -1.359   2.460  1.00  0.00     0.154 C 
HETATM   17  O4  UNL     1       4.560  -0.922   3.242  1.00  0.00    -0.293 OA
HETATM   18  C17 UNL     1       3.957  -2.645   1.692  1.00  0.00     0.071 C 
HETATM   19  C18 UNL     1       5.107  -2.428   0.694  1.00  0.00     0.045 C 
HETATM   20  C19 UNL     1       4.554  -2.140  -0.694  1.00  0.00     0.122 C 
HETATM   21  C20 UNL     1       3.858  -3.393  -1.235  1.00  0.00     0.033 C 
HETATM   22  C21 UNL     1       3.100  -4.174  -0.144  1.00  0.00     0.013 C 
HETATM   23  C22 UNL     1       2.670  -3.304   1.082  1.00  0.00    -0.026 C 
HETATM   24  C23 UNL     1       2.114  -4.259   2.173  1.00  0.00     0.016 C 
HETATM   25  O5  UNL     1       5.565  -1.720  -1.606  1.00  0.00    -0.384 OA
HETATM   26  C24 UNL     1       5.976  -0.353  -1.421  1.00  0.00     0.190 C 
HETATM   27  C25 UNL     1       5.131   0.657  -2.237  1.00  0.00     0.121 C 
HETATM   28  C32 UNL     1       3.757   0.843  -1.698  1.00  0.00    -0.093 C 
HETATM   29  C33 UNL     1       2.631   1.025  -1.311  1.00  0.00    -0.080 C 
HETATM   30  C34 UNL     1       1.247   1.347  -0.953  1.00  0.00     0.263 C 
HETATM   31  O6  UNL     1       0.506   0.247  -0.431  1.00  0.00    -0.363 OA
HETATM   32  C35 UNL     1       0.409   0.008   0.996  1.00  0.00     0.094 C 
HETATM   33  C36 UNL     1       0.135   1.318   1.746  1.00  0.00     0.044 C 
HETATM   34  C37 UNL     1      -1.237   1.715   1.184  1.00  0.00     0.012 C 
HETATM   35  C38 UNL     1      -2.071   0.406   1.153  1.00  0.00     0.037 C 
HETATM   36  C39 UNL     1      -0.970  -0.756   1.293  1.00  0.00     0.003 C 
HETATM   37  C40 UNL     1      -0.980  -1.380   2.722  1.00  0.00     0.019 C 
HETATM   38  C41 UNL     1      -3.345   0.515   2.099  1.00  0.00     0.117 C 
HETATM   39  C42 UNL     1      -3.039   1.302   3.409  1.00  0.00     0.052 C 
HETATM   40  C43 UNL     1      -4.732   1.115   1.440  1.00  0.00     0.218 C 
ENDROOT
BRANCH  27  41
HETATM   41  C26 UNL     1       5.870   1.989  -2.300  1.00  0.00    -0.040 A 
HETATM   42  C27 UNL     1       6.011   2.806  -1.162  1.00  0.00     0.008 A 
HETATM   43  C28 UNL     1       6.728   4.000  -1.230  1.00  0.00     0.001 A 
HETATM   44  C29 UNL     1       7.320   4.393  -2.430  1.00  0.00     0.000 A 
HETATM   45  C30 UNL     1       7.180   3.600  -3.567  1.00  0.00     0.001 A 
HETATM   46  C31 UNL     1       6.457   2.408  -3.507  1.00  0.00     0.008 A 
ENDBRANCH  27  41
BRANCH  38  47
HETATM   47  O7  UNL     1      -3.702  -0.828   2.538  1.00  0.00    -0.384 OA
HETATM   48  H52 UNL     1      -4.401  -0.702   3.209  1.00  0.00     0.210 HD
ENDBRANCH  38  47
BRANCH  40  49
HETATM   49  O8  UNL     1      -5.430   1.775   2.497  1.00  0.00    -0.361 OA
HETATM   50  H53 UNL     1      -6.092   2.366   2.081  1.00  0.00     0.213 HD
ENDBRANCH  40  49
BRANCH  40  51
HETATM   51  O9  UNL     1      -5.567  -0.013   1.136  1.00  0.00    -0.361 OA
HETATM   52  H54 UNL     1      -5.005  -0.797   1.303  1.00  0.00     0.213 HD
ENDBRANCH  40  51
BRANCH   7  53
HETATM   53  O3  UNL     1      -5.255  -0.757  -3.614  1.00  0.00    -0.381 OA
HETATM   54  H12 UNL     1      -4.838  -1.516  -4.062  1.00  0.00     0.211 HD
ENDBRANCH   7  53
BRANCH   3  55
HETATM   55  C4  UNL     1      -7.239   2.347   0.015  1.00  0.00     0.172 C 
BRANCH  55  56
HETATM   56  O1  UNL     1      -7.302   3.079   1.233  1.00  0.00    -0.400 OA
HETATM   57  H8  UNL     1      -8.209   2.971   1.581  1.00  0.00     0.209 HD
ENDBRANCH  55  56
ENDBRANCH   3  55
TORSDOF 7
