REMARK  18 active torsions:
REMARK  status: ('A' for Active; 'I' for Inactive)
REMARK    1  A    between atoms: C2_2  and  C3_3 
REMARK    2  A    between atoms: C3_3  and  C4_4 
REMARK    3  A    between atoms: C3_3  and  C19_25 
REMARK    4  A    between atoms: C4_4  and  C5_6 
REMARK    5  A    between atoms: C5_6  and  C7_8 
REMARK    6  A    between atoms: C7_8  and  O2_9 
REMARK    7  A    between atoms: C7_8  and  C8_10 
REMARK    8  A    between atoms: C8_10  and  C10_12 
REMARK    9  A    between atoms: C11_14  and  C12_15 
REMARK   10  A    between atoms: C12_15  and  C13_16 
REMARK   11  A    between atoms: C13_16  and  O5_18 
REMARK   12  A    between atoms: O5_18  and  O6_19 
REMARK   13  A    between atoms: C20_27  and  C22_29 
REMARK   14  A    between atoms: C22_29  and  O8_30 
REMARK   15  A    between atoms: C23_32  and  C24_33 
REMARK   16  A    between atoms: C23_32  and  C26_35 
REMARK   17  A    between atoms: C26_35  and  O10_36 
REMARK   18  A    between atoms: C26_35  and  C27_37 
ROOT
HETATM    1  C3  UNL     1       0.122  -0.971  -0.054  1.00  0.00     0.085 C 
ENDROOT
BRANCH   1   2
HETATM    2  C2  UNL     1       0.276  -1.563  -1.468  1.00  0.00     0.010 C 
HETATM    3  C1  UNL     1       0.079  -0.581  -2.611  1.00  0.00     0.006 C 
ENDBRANCH   1   2
BRANCH   1   4
HETATM    4  C4  UNL     1       1.256   0.002   0.278  1.00  0.00     0.139 C 
HETATM    5  O1  UNL     1       1.192   1.187  -0.073  1.00  0.00    -0.297 OA
BRANCH   4   6
HETATM    6  C5  UNL     1       2.486  -0.485   1.063  1.00  0.00     0.081 C 
HETATM    7  C6  UNL     1       2.062  -1.233   2.328  1.00  0.00     0.020 C 
BRANCH   6   8
HETATM    8  C7  UNL     1       3.478  -1.256   0.172  1.00  0.00     0.135 C 
BRANCH   8   9
HETATM    9  O2  UNL     1       3.479  -0.709  -1.147  1.00  0.00    -0.394 OA
HETATM   10  H12 UNL     1       3.969   0.141  -1.122  1.00  0.00     0.210 HD
ENDBRANCH   8   9
BRANCH   8  11
HETATM   11  C8  UNL     1       4.962  -1.404   0.630  1.00  0.00     0.040 C 
HETATM   12  C9  UNL     1       5.154  -2.282   1.867  1.00  0.00     0.015 C 
BRANCH  11  13
HETATM   13  C10 UNL     1       5.882  -0.140   0.609  1.00  0.00     0.132 C 
HETATM   14  O3  UNL     1       5.884   0.344  -0.752  1.00  0.00    -0.379 OA
HETATM   15  C11 UNL     1       6.976   1.237  -1.037  1.00  0.00     0.135 C 
HETATM   16  C14 UNL     1       6.776   2.525  -0.218  1.00  0.00     0.011 C 
HETATM   17  C15 UNL     1       7.901   3.541  -0.406  1.00  0.00     0.012 C 
HETATM   18  C16 UNL     1       6.658   2.166   1.271  1.00  0.00     0.013 C 
HETATM   19  C17 UNL     1       5.589   1.077   1.520  1.00  0.00     0.011 C 
HETATM   20  C18 UNL     1       5.544   0.776   3.017  1.00  0.00     0.012 C 
BRANCH  15  21
HETATM   21  C12 UNL     1       6.971   1.470  -2.548  1.00  0.00     0.146 C 
BRANCH  21  22
HETATM   22  C13 UNL     1       7.436   0.229  -3.259  1.00  0.00     0.291 C 
HETATM   23  O4  UNL     1       8.416  -0.432  -2.941  1.00  0.00    -0.263 OA
BRANCH  22  24
HETATM   24  O5  UNL     1       6.641  -0.057  -4.331  1.00  0.00    -0.161 OA
BRANCH  24  25
HETATM   25  O6  UNL     1       7.307  -1.105  -5.116  1.00  0.00    -0.242 OA
HETATM   26  H21 UNL     1       7.571  -1.684  -4.372  1.00  0.00     0.254 HD
ENDBRANCH  24  25
ENDBRANCH  22  24
ENDBRANCH  21  22
ENDBRANCH  15  21
ENDBRANCH  11  13
ENDBRANCH   8  11
ENDBRANCH   6   8
ENDBRANCH   4   6
ENDBRANCH   1   4
BRANCH   1  27
HETATM   27  C19 UNL     1      -1.250  -0.301   0.184  1.00  0.00     0.138 C 
HETATM   28  O7  UNL     1      -2.304  -1.206  -0.254  1.00  0.00    -0.368 OA
HETATM   29  C20 UNL     1      -3.313  -1.322   0.791  1.00  0.00     0.114 C 
HETATM   30  C21 UNL     1      -2.997  -2.642   1.511  1.00  0.00     0.052 C 
HETATM   31  C32 UNL     1      -3.066  -0.116   1.698  1.00  0.00     0.050 C 
HETATM   32  C33 UNL     1      -1.556   0.028   1.654  1.00  0.00     0.014 C 
HETATM   33  C34 UNL     1      -1.093   1.392   2.142  1.00  0.00     0.012 C 
BRANCH  29  34
HETATM   34  C22 UNL     1      -4.737  -1.335   0.128  1.00  0.00     0.197 C 
HETATM   35  O9  UNL     1      -5.012  -0.066  -0.497  1.00  0.00    -0.338 OA
HETATM   36  C23 UNL     1      -6.426   0.267  -0.372  1.00  0.00     0.090 C 
HETATM   37  C29 UNL     1      -7.067  -0.928   0.344  1.00  0.00     0.050 C 
HETATM   38  C30 UNL     1      -5.912  -1.582   1.087  1.00  0.00     0.050 C 
HETATM   39  C31 UNL     1      -6.256  -3.026   1.423  1.00  0.00     0.015 C 
BRANCH  34  40
HETATM   40  O8  UNL     1      -4.743  -2.287  -0.933  1.00  0.00    -0.363 OA
HETATM   41  H36 UNL     1      -3.846  -2.204  -1.318  1.00  0.00     0.213 HD
ENDBRANCH  34  40
BRANCH  36  42
HETATM   42  C24 UNL     1      -6.485   1.531   0.514  1.00  0.00     0.036 C 
HETATM   43  C25 UNL     1      -5.815   2.759  -0.093  1.00  0.00     0.008 C 
ENDBRANCH  36  42
BRANCH  36  44
HETATM   44  C26 UNL     1      -6.989   0.450  -1.818  1.00  0.00     0.152 C 
BRANCH  44  45
HETATM   45  O10 UNL     1      -6.705  -0.749  -2.572  1.00  0.00    -0.393 OA
HETATM   46  H43 UNL     1      -5.797  -1.017  -2.330  1.00  0.00     0.210 HD
ENDBRANCH  44  45
BRANCH  44  47
HETATM   47  C27 UNL     1      -8.506   0.669  -1.948  1.00  0.00     0.030 C 
HETATM   48  C28 UNL     1      -8.977   2.099  -1.730  1.00  0.00     0.007 C 
ENDBRANCH  44  47
ENDBRANCH  36  44
ENDBRANCH  29  34
ENDBRANCH   1  27
TORSDOF 18
