REMARK  7 active torsions:
REMARK  status: ('A' for Active; 'I' for Inactive)
REMARK    1  A    between atoms: C2_2  and  C30_32 
REMARK    2  A    between atoms: C3_3  and  C4_4 
REMARK    3  A    between atoms: C4_4  and  C5_5 
REMARK    4  A    between atoms: C5_5  and  C6_6 
REMARK    5  A    between atoms: C6_6  and  C8_8 
REMARK    6  A    between atoms: C29_30  and  O2_31 
REMARK    7  A    between atoms: C30_32  and  O3_33 
ROOT
HETATM    1  C8  UNL     1       2.423  -1.026   0.361  1.00  0.00    -0.002 C 
HETATM    2  C9  UNL     1       2.406  -1.252  -1.179  1.00  0.00     0.007 C 
HETATM    3  C10 UNL     1       1.007  -0.865  -1.693  1.00  0.00     0.015 C 
HETATM    4  C11 UNL     1       0.364  -0.079  -0.540  1.00  0.00    -0.010 C 
HETATM    5  C12 UNL     1       0.900   1.387  -0.623  1.00  0.00     0.021 C 
HETATM    6  C13 UNL     1      -1.162   0.032  -0.475  1.00  0.00    -0.039 C 
HETATM    7  C14 UNL     1      -1.774   0.181   0.731  1.00  0.00    -0.066 C 
HETATM    8  C15 UNL     1      -0.972   0.185   2.038  1.00  0.00     0.036 C 
HETATM    9  C16 UNL     1       0.542  -0.103   1.958  1.00  0.00     0.015 C 
HETATM   10  C17 UNL     1       0.902  -0.902   0.699  1.00  0.00    -0.029 C 
HETATM   11  C18 UNL     1       0.280  -2.328   0.813  1.00  0.00     0.016 C 
HETATM   12  C19 UNL     1      -3.321   0.272   0.862  1.00  0.00    -0.015 C 
HETATM   13  C20 UNL     1      -3.789  -1.155   1.233  1.00  0.00     0.020 C 
HETATM   14  C21 UNL     1      -3.748   1.261   1.974  1.00  0.00     0.021 C 
HETATM   15  C22 UNL     1      -5.257   1.429   2.076  1.00  0.00     0.080 C 
HETATM   16  C23 UNL     1      -5.856   1.893   0.773  1.00  0.00     0.135 C 
HETATM   17  O1  UNL     1      -6.739   2.755   0.786  1.00  0.00    -0.297 OA
HETATM   18  C24 UNL     1      -5.446   1.165  -0.517  1.00  0.00     0.018 C 
HETATM   19  C25 UNL     1      -5.713   2.141  -1.696  1.00  0.00     0.023 C 
HETATM   20  C26 UNL     1      -6.385  -0.036  -0.708  1.00  0.00     0.023 C 
HETATM   21  C27 UNL     1      -3.917   0.821  -0.486  1.00  0.00     0.016 C 
HETATM   22  C28 UNL     1      -3.448  -0.068  -1.653  1.00  0.00     0.043 C 
HETATM   23  C29 UNL     1      -1.922  -0.027  -1.787  1.00  0.00     0.148 C 
ENDROOT
BRANCH   1  24
HETATM   24  C6  UNL     1       3.301  -2.075   1.102  1.00  0.00    -0.014 C 
HETATM   25  C7  UNL     1       3.320  -1.874   2.620  1.00  0.00     0.010 C 
BRANCH  24  26
HETATM   26  C5  UNL     1       4.756  -2.178   0.558  1.00  0.00     0.008 C 
BRANCH  26  27
HETATM   27  C4  UNL     1       5.765  -1.088   0.950  1.00  0.00     0.028 C 
BRANCH  27  28
HETATM   28  C3  UNL     1       5.454   0.287   0.435  1.00  0.00    -0.022 C 
HETATM   29  C2  UNL     1       5.761   0.796  -0.775  1.00  0.00    -0.064 C 
HETATM   30  C1  UNL     1       6.500   0.047  -1.852  1.00  0.00     0.045 C 
BRANCH  29  31
HETATM   31  C30 UNL     1       5.360   2.199  -1.144  1.00  0.00     0.197 C 
BRANCH  31  32
HETATM   32  O3  UNL     1       4.442   2.139  -2.225  1.00  0.00    -0.397 OA
HETATM   33  H48 UNL     1       4.170   3.052  -2.413  1.00  0.00     0.209 HD
ENDBRANCH  31  32
ENDBRANCH  29  31
ENDBRANCH  27  28
ENDBRANCH  26  27
ENDBRANCH  24  26
ENDBRANCH   1  24
BRANCH  23  34
HETATM   34  O2  UNL     1      -1.597   1.126  -2.562  1.00  0.00    -0.391 OA
HETATM   35  H45 UNL     1      -1.517   1.871  -1.945  1.00  0.00     0.210 HD
ENDBRANCH  23  34
TORSDOF 7
