REMARK  11 active torsions:
REMARK  status: ('A' for Active; 'I' for Inactive)
REMARK    1  A    between atoms: C2_2  and  O2_4 
REMARK    2  A    between atoms: O2_4  and  C3_5 
REMARK    3  A    between atoms: C4_6  and  O3_7 
REMARK    4  A    between atoms: O3_7  and  C5_8 
REMARK    5  A    between atoms: C15_18  and  C16_19 
REMARK    6  A    between atoms: C20_23  and  C21_24 
REMARK    7  A    between atoms: C21_24  and  O4_27 
REMARK    8  A    between atoms: C24_29  and  O6_30 
REMARK    9  A    between atoms: C30_36  and  O7_37 
REMARK   10  A    between atoms: C36_44  and  O9_45 
REMARK   11  A    between atoms: C37_46  and  O10_47 
ROOT
HETATM    1  C5  UNL     1       4.162  -0.547   0.173  1.00  0.00     0.133 C 
HETATM    2  C6  UNL     1       3.415  -0.869   1.469  1.00  0.00     0.034 C 
HETATM    3  C7  UNL     1       1.923  -1.049   1.245  1.00  0.00     0.013 C 
HETATM    4  C8  UNL     1       1.292   0.106   0.499  1.00  0.00    -0.025 A 
HETATM    5  C9  UNL     1       0.533   1.175   1.232  1.00  0.00     0.021 A 
HETATM    6  C10 UNL     1      -0.252   0.148   0.424  1.00  0.00    -0.027 A 
HETATM    7  C11 UNL     1      -1.142  -0.745   1.275  1.00  0.00     0.011 C 
HETATM    8  C12 UNL     1      -2.618  -0.284   1.343  1.00  0.00     0.011 C 
HETATM    9  C13 UNL     1      -3.036   0.689   0.220  1.00  0.00    -0.028 C 
HETATM   10  C14 UNL     1      -2.659   2.139   0.637  1.00  0.00     0.016 C 
HETATM   11  C15 UNL     1      -4.548   0.666  -0.198  1.00  0.00     0.057 C 
HETATM   12  C24 UNL     1      -4.511   1.191  -1.675  1.00  0.00     0.126 C 
HETATM   13  C25 UNL     1      -3.036   1.120  -2.142  1.00  0.00     0.042 C 
HETATM   14  C26 UNL     1      -2.332   0.217  -1.112  1.00  0.00    -0.029 C 
HETATM   15  C27 UNL     1      -2.668  -1.258  -1.528  1.00  0.00     0.016 C 
HETATM   16  C28 UNL     1      -0.777   0.434  -1.009  1.00  0.00     0.006 C 
HETATM   17  C29 UNL     1       0.037  -0.425  -2.014  1.00  0.00     0.038 C 
HETATM   18  C30 UNL     1       1.559  -0.187  -1.993  1.00  0.00     0.124 C 
HETATM   19  C31 UNL     1       2.044   0.593  -0.753  1.00  0.00     0.034 C 
HETATM   20  C32 UNL     1       3.585   0.720  -0.521  1.00  0.00    -0.015 C 
HETATM   21  C33 UNL     1       3.847   1.985   0.346  1.00  0.00     0.018 C 
HETATM   22  C34 UNL     1       4.333   0.958  -1.853  1.00  0.00     0.018 C 
ENDROOT
BRANCH   1  23
HETATM   23  O3  UNL     1       5.541  -0.306   0.483  1.00  0.00    -0.352 OA
BRANCH  23  24
HETATM   24  C4  UNL     1       6.405  -1.424   0.236  1.00  0.00     0.292 C 
HETATM   25  C3  UNL     1       7.853  -0.868   0.233  1.00  0.00     0.218 C 
HETATM   26  C37 UNL     1       8.890  -1.945   0.601  1.00  0.00     0.183 C 
HETATM   27  C36 UNL     1       8.450  -2.811   1.797  1.00  0.00     0.173 C 
HETATM   28  C35 UNL     1       7.042  -2.460   2.275  1.00  0.00     0.205 C 
HETATM   29  O8  UNL     1       6.146  -2.463   1.173  1.00  0.00    -0.356 OA
BRANCH  25  30
HETATM   30  O2  UNL     1       8.072  -0.348  -1.116  1.00  0.00    -0.309 OA
BRANCH  30  31
HETATM   31  C2  UNL     1       9.070   0.547  -1.304  1.00  0.00     0.255 C 
HETATM   32  C1  UNL     1       9.054   1.082  -2.704  1.00  0.00     0.126 C 
HETATM   33  O1  UNL     1       9.872   0.884  -0.445  1.00  0.00    -0.266 OA
ENDBRANCH  30  31
ENDBRANCH  25  30
BRANCH  26  34
HETATM   34  O10 UNL     1      10.152  -1.354   0.980  1.00  0.00    -0.390 OA
HETATM   35  H60 UNL     1      10.289  -0.527   0.471  1.00  0.00     0.210 HD
ENDBRANCH  26  34
BRANCH  27  36
HETATM   36  O9  UNL     1       8.490  -4.188   1.383  1.00  0.00    -0.391 OA
HETATM   37  H58 UNL     1       8.285  -4.737   2.159  1.00  0.00     0.210 HD
ENDBRANCH  27  36
ENDBRANCH  23  24
ENDBRANCH   1  23
BRANCH  18  38
HETATM   38  O7  UNL     1       2.226  -1.437  -2.146  1.00  0.00    -0.395 OA
HETATM   39  H47 UNL     1       1.902  -2.041  -1.457  1.00  0.00     0.210 HD
ENDBRANCH  18  38
BRANCH  11  40
HETATM   40  C16 UNL     1      -5.691   1.182   0.729  1.00  0.00     0.065 C 
HETATM   41  C17 UNL     1      -5.691   2.674   1.107  1.00  0.00     0.046 C 
HETATM   42  C18 UNL     1      -5.821   0.321   1.987  1.00  0.00     0.041 C 
HETATM   43  C19 UNL     1      -7.294   0.381   2.329  1.00  0.00     0.038 C 
HETATM   44  C20 UNL     1      -7.988   0.644   0.993  1.00  0.00     0.156 C 
HETATM   45  O5  UNL     1      -6.936   0.909   0.033  1.00  0.00    -0.372 OA
BRANCH  44  46
HETATM   46  C21 UNL     1      -8.868  -0.508   0.445  1.00  0.00     0.076 C 
HETATM   47  C22 UNL     1      -9.459  -0.132  -0.922  1.00  0.00     0.048 C 
HETATM   48  C23 UNL     1     -10.001  -0.879   1.403  1.00  0.00     0.048 C 
BRANCH  46  49
HETATM   49  O4  UNL     1      -8.051  -1.672   0.249  1.00  0.00    -0.388 OA
HETATM   50  H35 UNL     1      -7.285  -1.352  -0.268  1.00  0.00     0.210 HD
ENDBRANCH  46  49
ENDBRANCH  44  46
ENDBRANCH  11  40
BRANCH  12  51
HETATM   51  O6  UNL     1      -4.968   2.520  -1.837  1.00  0.00    -0.395 OA
HETATM   52  H37 UNL     1      -4.977   2.713  -2.790  1.00  0.00     0.210 HD
ENDBRANCH  12  51
TORSDOF 11
