REMARK  11 active torsions:
REMARK  status: ('A' for Active; 'I' for Inactive)
REMARK    1  A    between atoms: C4_4  and  C5_5 
REMARK    2  A    between atoms: C5_5  and  C6_6 
REMARK    3  A    between atoms: C7_7  and  O1_8 
REMARK    4  A    between atoms: C12_13  and  C14_15 
REMARK    5  A    between atoms: C14_15  and  C15_16 
REMARK    6  A    between atoms: C15_16  and  C16_17 
REMARK    7  A    between atoms: C16_17  and  C17_18 
REMARK    8  A    between atoms: C17_18  and  O2_21 
REMARK    9  A    between atoms: C23_26  and  C24_27 
REMARK   10  A    between atoms: C26_29  and  O4_30 
REMARK   11  A    between atoms: C28_32  and  O5_33 
ROOT
HETATM    1  C6  UNL     1      -2.181  -1.500  -0.615  1.00  0.00    -0.006 A 
HETATM    2  C7  UNL     1      -0.833  -1.727  -0.965  1.00  0.00     0.107 A 
HETATM    3  C8  UNL     1       0.054  -0.690  -1.279  1.00  0.00     0.117 A 
HETATM    4  C9  UNL     1      -0.372   0.633  -1.261  1.00  0.00     0.035 A 
HETATM    5  C10 UNL     1       0.516   1.720  -1.606  1.00  0.00     0.016 C 
HETATM    6  C11 UNL     1       1.790   1.401  -1.851  1.00  0.00     0.012 C 
HETATM    7  C12 UNL     1       2.334  -0.014  -1.777  1.00  0.00     0.082 C 
HETATM    8  C13 UNL     1       3.039  -0.340  -3.103  1.00  0.00     0.051 C 
HETATM    9  O3  UNL     1       1.330  -1.055  -1.624  1.00  0.00    -0.333 OA
HETATM   10  C20 UNL     1      -1.703   0.864  -0.915  1.00  0.00     0.100 A 
HETATM   11  C21 UNL     1      -2.606  -0.147  -0.598  1.00  0.00     0.011 A 
HETATM   12  C22 UNL     1      -3.833   0.520  -0.314  1.00  0.00     0.053 A 
HETATM   13  C23 UNL     1      -3.613   1.875  -0.470  1.00  0.00     0.087 A 
HETATM   14  O6  UNL     1      -2.313   2.082  -0.835  1.00  0.00    -0.308 OA
ENDROOT
BRANCH  13  15
HETATM   15  C24 UNL     1      -4.447   3.066  -0.335  1.00  0.00     0.003 A 
HETATM   16  C25 UNL     1      -3.894   4.354  -0.386  1.00  0.00     0.051 A 
HETATM   17  C26 UNL     1      -4.705   5.480  -0.252  1.00  0.00     0.069 A 
HETATM   18  C27 UNL     1      -6.077   5.358  -0.067  1.00  0.00     0.073 A 
HETATM   19  C28 UNL     1      -6.629   4.083  -0.017  1.00  0.00     0.069 A 
HETATM   20  C29 UNL     1      -5.832   2.946  -0.148  1.00  0.00     0.051 A 
BRANCH  17  21
HETATM   21  O4  UNL     1      -4.101   6.703  -0.305  1.00  0.00    -0.361 OA
HETATM   22  H31 UNL     1      -4.776   7.395  -0.204  1.00  0.00     0.217 HD
ENDBRANCH  17  21
BRANCH  19  23
HETATM   23  O5  UNL     1      -7.969   3.893   0.161  1.00  0.00    -0.361 OA
HETATM   24  H33 UNL     1      -8.403   4.758   0.252  1.00  0.00     0.217 HD
ENDBRANCH  19  23
ENDBRANCH  13  15
BRANCH   1  25
HETATM   25  C5  UNL     1      -3.097  -2.648  -0.256  1.00  0.00     0.070 C 
BRANCH  25  26
HETATM   26  C4  UNL     1      -3.191  -2.854   1.233  1.00  0.00    -0.020 C 
HETATM   27  C2  UNL     1      -2.748  -3.898   1.962  1.00  0.00    -0.091 C 
HETATM   28  C1  UNL     1      -2.026  -5.097   1.412  1.00  0.00     0.042 C 
HETATM   29  C3  UNL     1      -2.942  -3.926   3.456  1.00  0.00     0.042 C 
ENDBRANCH  25  26
ENDBRANCH   1  25
BRANCH   2  30
HETATM   30  O1  UNL     1      -0.363  -3.018  -1.009  1.00  0.00    -0.357 OA
HETATM   31  H10 UNL     1       0.581  -2.942  -1.250  1.00  0.00     0.217 HD
ENDBRANCH   2  30
BRANCH   7  32
HETATM   32  C14 UNL     1       3.298  -0.191  -0.575  1.00  0.00     0.042 C 
BRANCH  32  33
HETATM   33  C15 UNL     1       4.544   0.702  -0.574  1.00  0.00     0.006 C 
BRANCH  33  34
HETATM   34  C16 UNL     1       5.397   0.602   0.703  1.00  0.00     0.037 C 
BRANCH  34  35
HETATM   35  C17 UNL     1       6.071  -0.754   1.004  1.00  0.00     0.051 C 
HETATM   36  C18 UNL     1       7.013  -0.605   2.206  1.00  0.00     0.045 C 
HETATM   37  C19 UNL     1       6.849  -1.305  -0.191  1.00  0.00     0.045 C 
BRANCH  35  38
HETATM   38  O2  UNL     1       5.081  -1.722   1.355  1.00  0.00    -0.391 OA
HETATM   39  H28 UNL     1       4.602  -1.395   2.138  1.00  0.00     0.210 HD
ENDBRANCH  35  38
ENDBRANCH  34  35
ENDBRANCH  33  34
ENDBRANCH  32  33
ENDBRANCH   7  32
TORSDOF 11
