REMARK  10 active torsions:
REMARK  status: ('A' for Active; 'I' for Inactive)
REMARK    1  A    between atoms: C2_2  and  C3_3 
REMARK    2  A    between atoms: C2_2  and  C9_11 
REMARK    3  A    between atoms: C3_3  and  C4_4 
REMARK    4  A    between atoms: C4_4  and  C5_5 
REMARK    5  A    between atoms: C5_5  and  O1_6 
REMARK    6  A    between atoms: C5_5  and  C6_7 
REMARK    7  A    between atoms: C6_7  and  O2_10 
REMARK    8  A    between atoms: C12_14  and  C13_15 
REMARK    9  A    between atoms: C13_15  and  O4_17 
REMARK   10  A    between atoms: C21_25  and  O5_26 
ROOT
HETATM    1  C9  UNL     1      -1.980   0.125   1.537  1.00  0.00    -0.001 C 
HETATM    2  C10 UNL     1      -1.802  -1.396   1.783  1.00  0.00     0.007 C 
HETATM    3  C11 UNL     1      -0.446  -1.791   1.141  1.00  0.00     0.022 C 
HETATM    4  C12 UNL     1       0.273  -0.444   0.906  1.00  0.00     0.057 C 
HETATM    5  C14 UNL     1       1.424  -0.400  -0.140  1.00  0.00     0.010 C 
HETATM    6  C15 UNL     1       2.589  -1.366   0.144  1.00  0.00     0.010 C 
HETATM    7  C16 UNL     1       3.830  -0.753   0.793  1.00  0.00     0.036 C 
HETATM    8  C17 UNL     1       4.783  -0.044  -0.161  1.00  0.00    -0.067 C 
HETATM    9  C18 UNL     1       4.362   0.749  -1.179  1.00  0.00    -0.076 C 
HETATM   10  C19 UNL     1       5.328   1.379  -2.168  1.00  0.00     0.037 C 
HETATM   11  C20 UNL     1       6.737   0.808  -2.151  1.00  0.00     0.037 C 
HETATM   12  C21 UNL     1       7.226   0.640  -0.722  1.00  0.00     0.130 C 
HETATM   13  C22 UNL     1       6.294  -0.310   0.099  1.00  0.00     0.002 C 
HETATM   14  C23 UNL     1       6.644  -0.143   1.597  1.00  0.00     0.022 C 
HETATM   15  C24 UNL     1       6.612  -1.767  -0.318  1.00  0.00     0.022 C 
HETATM   16  C25 UNL     1       2.932   1.178  -1.480  1.00  0.00     0.039 C 
HETATM   17  C26 UNL     1       1.869   1.072  -0.372  1.00  0.00    -0.005 C 
HETATM   18  C27 UNL     1       0.676   2.004  -0.719  1.00  0.00     0.006 C 
HETATM   19  C28 UNL     1      -0.535   1.888   0.223  1.00  0.00     0.011 C 
HETATM   20  C29 UNL     1      -0.958   0.423   0.403  1.00  0.00    -0.022 C 
HETATM   21  C30 UNL     1      -1.516  -0.056  -0.975  1.00  0.00     0.017 C 
ENDROOT
BRANCH   1  22
HETATM   22  C2  UNL     1      -3.419   0.713   1.542  1.00  0.00    -0.014 C 
HETATM   23  C1  UNL     1      -4.122   0.349   2.863  1.00  0.00     0.010 C 
BRANCH  22  24
HETATM   24  C3  UNL     1      -4.389   0.500   0.360  1.00  0.00     0.007 C 
BRANCH  24  25
HETATM   25  C4  UNL     1      -4.877  -0.921   0.100  1.00  0.00     0.035 C 
BRANCH  25  26
HETATM   26  C5  UNL     1      -5.732  -1.100  -1.165  1.00  0.00     0.151 C 
BRANCH  26  27
HETATM   27  O1  UNL     1      -5.964  -2.518  -1.298  1.00  0.00    -0.393 OA
HETATM   28  H10 UNL     1      -6.922  -2.667  -1.170  1.00  0.00     0.210 HD
ENDBRANCH  26  27
BRANCH  26  29
HETATM   29  C6  UNL     1      -7.100  -0.356  -1.253  1.00  0.00     0.076 C 
HETATM   30  C7  UNL     1      -6.965   1.067  -1.797  1.00  0.00     0.048 C 
HETATM   31  C8  UNL     1      -7.885  -0.362   0.060  1.00  0.00     0.048 C 
BRANCH  29  32
HETATM   32  O2  UNL     1      -7.919  -1.076  -2.202  1.00  0.00    -0.388 OA
HETATM   33  H17 UNL     1      -7.342  -1.333  -2.947  1.00  0.00     0.210 HD
ENDBRANCH  29  32
ENDBRANCH  26  29
ENDBRANCH  25  26
ENDBRANCH  24  25
ENDBRANCH  22  24
ENDBRANCH   1  22
BRANCH   4  34
HETATM   34  C13 UNL     1       0.861   0.015   2.273  1.00  0.00     0.149 C 
HETATM   35  O3  UNL     1       0.908   1.145   2.727  1.00  0.00    -0.649 OA
BRANCH  34  36
HETATM   36  O4  UNL     1       1.413  -0.983   2.993  1.00  0.00    -0.776 OA
HETATM   37  H23 UNL     1       1.746  -0.529   3.797  1.00  0.00     0.167 HD
ENDBRANCH  34  36
ENDBRANCH   4  34
BRANCH  12  38
HETATM   38  O5  UNL     1       7.332   1.928  -0.107  1.00  0.00    -0.394 OA
HETATM   39  H34 UNL     1       7.935   2.464  -0.648  1.00  0.00     0.210 HD
ENDBRANCH  12  38
TORSDOF 10
