REMARK  9 active torsions:
REMARK  status: ('A' for Active; 'I' for Inactive)
REMARK    1  A    between atoms: C3_3  and  O1_4 
REMARK    2  A    between atoms: C14_15  and  O2_16 
REMARK    3  A    between atoms: C18_20  and  C19_21 
REMARK    4  A    between atoms: C19_21  and  C20_22 
REMARK    5  A    between atoms: C20_22  and  C21_23 
REMARK    6  A    between atoms: C22_24  and  C23_25 
REMARK    7  A    between atoms: C22_24  and  C24_27 
REMARK    8  A    between atoms: C23_25  and  O3_26 
REMARK    9  A    between atoms: C24_27  and  O4_28 
ROOT
HETATM    1  C1  UNL     1      -6.428   2.040  -0.143  1.00  0.00     0.013 C 
HETATM    2  C2  UNL     1      -5.693   0.730   0.175  1.00  0.00     0.015 C 
HETATM    3  C3  UNL     1      -5.961   0.318   1.645  1.00  0.00     0.122 C 
HETATM    4  C4  UNL     1      -5.182  -0.928   2.079  1.00  0.00     0.033 C 
HETATM    5  C5  UNL     1      -3.689  -0.886   1.709  1.00  0.00     0.012 C 
HETATM    6  C6  UNL     1      -3.434  -0.532   0.221  1.00  0.00    -0.033 C 
HETATM    7  C7  UNL     1      -4.045  -1.688  -0.641  1.00  0.00     0.016 C 
HETATM    8  C8  UNL     1      -4.160   0.830  -0.049  1.00  0.00     0.000 C 
HETATM    9  C9  UNL     1      -3.688   1.429  -1.371  1.00  0.00     0.007 C 
HETATM   10  C10 UNL     1      -2.225   1.890  -1.265  1.00  0.00     0.011 C 
HETATM   11  C11 UNL     1      -1.281   0.995  -0.386  1.00  0.00    -0.029 C 
HETATM   12  C12 UNL     1      -1.143   1.703   0.999  1.00  0.00     0.016 C 
HETATM   13  C13 UNL     1      -1.899  -0.458  -0.217  1.00  0.00     0.032 C 
HETATM   14  C14 UNL     1      -0.950  -1.479   0.491  1.00  0.00     0.124 C 
HETATM   15  C15 UNL     1       0.463  -1.524  -0.125  1.00  0.00     0.042 C 
HETATM   16  C16 UNL     1       1.038  -0.117  -0.192  1.00  0.00     0.029 C 
HETATM   17  C17 UNL     1       2.365   0.192  -0.768  1.00  0.00    -0.033 C 
HETATM   18  C18 UNL     1       3.380  -0.443  -1.343  1.00  0.00     0.023 C 
HETATM   19  C25 UNL     1       4.120   0.629  -2.047  1.00  0.00     0.290 C 
HETATM   20  O5  UNL     1       5.135   0.477  -2.706  1.00  0.00    -0.260 OA
HETATM   21  O6  UNL     1       3.440   1.815  -1.930  1.00  0.00    -0.308 OA
HETATM   22  C26 UNL     1       2.486   1.657  -0.902  1.00  0.00     0.163 C 
HETATM   23  C27 UNL     1       1.048   2.123  -1.186  1.00  0.00     0.047 C 
HETATM   24  C28 UNL     1       0.158   0.835  -1.074  1.00  0.00    -0.026 C 
HETATM   25  C29 UNL     1       0.051   0.282  -2.547  1.00  0.00     0.016 C 
ENDROOT
BRANCH  18  26
HETATM   26  C19 UNL     1       3.686  -1.885  -1.526  1.00  0.00     0.049 C 
BRANCH  26  27
HETATM   27  C20 UNL     1       4.654  -2.416  -0.459  1.00  0.00     0.032 C 
BRANCH  27  28
HETATM   28  C21 UNL     1       6.056  -1.899  -0.636  1.00  0.00    -0.019 C 
HETATM   29  C22 UNL     1       6.706  -1.001   0.135  1.00  0.00    -0.037 C 
BRANCH  29  30
HETATM   30  C23 UNL     1       8.095  -0.552  -0.232  1.00  0.00     0.200 C 
BRANCH  30  31
HETATM   31  O3  UNL     1       8.984  -0.933   0.807  1.00  0.00    -0.397 OA
HETATM   32  H35 UNL     1       9.879  -0.715   0.499  1.00  0.00     0.209 HD
ENDBRANCH  30  31
ENDBRANCH  29  30
BRANCH  29  33
HETATM   33  C24 UNL     1       6.126  -0.357   1.365  1.00  0.00     0.200 C 
BRANCH  33  34
HETATM   34  O4  UNL     1       5.413   0.817   0.996  1.00  0.00    -0.397 OA
HETATM   35  H38 UNL     1       5.997   1.331   0.413  1.00  0.00     0.209 HD
ENDBRANCH  33  34
ENDBRANCH  29  33
ENDBRANCH  27  28
ENDBRANCH  26  27
ENDBRANCH  18  26
BRANCH  14  36
HETATM   36  O2  UNL     1      -0.823  -1.174   1.876  1.00  0.00    -0.395 OA
HETATM   37  H24 UNL     1      -0.302  -1.882   2.293  1.00  0.00     0.210 HD
ENDBRANCH  14  36
BRANCH   3  38
HETATM   38  O1  UNL     1      -5.614   1.400   2.513  1.00  0.00    -0.395 OA
HETATM   39  H6  UNL     1      -5.783   1.114   3.427  1.00  0.00     0.210 HD
ENDBRANCH   3  38
TORSDOF 9
