REMARK  15 active torsions:
REMARK  status: ('A' for Active; 'I' for Inactive)
REMARK    1  A    between atoms: C2_2  and  C3_3 
REMARK    2  A    between atoms: C2_2  and  C37_47 
REMARK    3  A    between atoms: C3_3  and  C4_4 
REMARK    4  A    between atoms: C4_4  and  C5_5 
REMARK    5  A    between atoms: C5_5  and  C6_6 
REMARK    6  A    between atoms: C5_5  and  C13_20 
REMARK    7  A    between atoms: C6_6  and  O2_8 
REMARK    8  A    between atoms: O2_8  and  C7_9 
REMARK    9  A    between atoms: C8_11  and  C9_12 
REMARK   10  A    between atoms: C9_12  and  O4_13 
REMARK   11  A    between atoms: C10_14  and  O5_15 
REMARK   12  A    between atoms: C11_16  and  O6_17 
REMARK   13  A    between atoms: C12_18  and  O7_19 
REMARK   14  A    between atoms: C14_21  and  O8_22 
REMARK   15  A    between atoms: O8_22  and  C15_23 
ROOT
HETATM    1  C13 UNL     1       0.732  -0.661  -0.426  1.00  0.00     0.038 C 
HETATM    2  C14 UNL     1       0.482  -0.567  -1.960  1.00  0.00     0.138 C 
HETATM    3  C17 UNL     1      -0.902   0.107  -2.155  1.00  0.00     0.047 C 
HETATM    4  C18 UNL     1      -1.322   0.587  -0.749  1.00  0.00    -0.010 C 
HETATM    5  C19 UNL     1      -0.685   1.995  -0.532  1.00  0.00     0.021 C 
HETATM    6  C20 UNL     1      -2.805   0.782  -0.436  1.00  0.00    -0.068 C 
HETATM    7  C21 UNL     1      -3.267   0.611   0.830  1.00  0.00    -0.068 C 
HETATM    8  C22 UNL     1      -2.338   0.145   1.958  1.00  0.00     0.036 C 
HETATM    9  C23 UNL     1      -0.868  -0.154   1.603  1.00  0.00     0.015 C 
HETATM   10  C24 UNL     1      -0.721  -0.565   0.138  1.00  0.00    -0.026 C 
HETATM   11  C25 UNL     1      -1.453  -1.934  -0.061  1.00  0.00     0.016 C 
HETATM   12  C26 UNL     1      -4.760   0.828   1.196  1.00  0.00    -0.015 C 
HETATM   13  C27 UNL     1      -5.417  -0.570   1.203  1.00  0.00     0.020 C 
HETATM   14  C28 UNL     1      -4.906   1.499   2.581  1.00  0.00     0.021 C 
HETATM   15  C29 UNL     1      -6.335   1.778   3.016  1.00  0.00     0.080 C 
HETATM   16  C30 UNL     1      -7.355   1.822   1.908  1.00  0.00     0.135 C 
HETATM   17  O10 UNL     1      -8.545   1.642   2.191  1.00  0.00    -0.297 OA
HETATM   18  C31 UNL     1      -6.919   2.187   0.482  1.00  0.00     0.018 C 
HETATM   19  C32 UNL     1      -7.083   3.719   0.371  1.00  0.00     0.023 C 
HETATM   20  C33 UNL     1      -7.927   1.533  -0.496  1.00  0.00     0.023 C 
HETATM   21  C34 UNL     1      -5.423   1.812   0.175  1.00  0.00     0.013 C 
HETATM   22  C35 UNL     1      -5.166   1.344  -1.267  1.00  0.00     0.011 C 
HETATM   23  C36 UNL     1      -3.676   1.234  -1.581  1.00  0.00     0.036 C 
ENDROOT
BRANCH   1  24
HETATM   24  C5  UNL     1       1.599  -1.851   0.080  1.00  0.00     0.093 C 
BRANCH  24  25
HETATM   25  C4  UNL     1       2.710  -2.342  -0.876  1.00  0.00     0.019 C 
BRANCH  25  26
HETATM   26  C3  UNL     1       2.304  -3.591  -1.675  1.00  0.00     0.034 C 
BRANCH  26  27
HETATM   27  C2  UNL     1       3.327  -3.939  -2.740  1.00  0.00    -0.086 C 
HETATM   28  C1  UNL     1       3.104  -3.604  -4.024  1.00  0.00     0.014 C 
BRANCH  27  29
HETATM   29  C37 UNL     1       4.568  -4.689  -2.265  1.00  0.00     0.005 C 
HETATM   30  C38 UNL     1       5.829  -4.413  -3.093  1.00  0.00     0.014 C 
HETATM   31  C39 UNL     1       4.300  -6.195  -2.209  1.00  0.00     0.014 C 
ENDBRANCH  27  29
ENDBRANCH  26  27
ENDBRANCH  25  26
ENDBRANCH  24  25
BRANCH  24  32
HETATM   32  C6  UNL     1       2.255  -1.457   1.404  1.00  0.00     0.266 C 
HETATM   33  O1  UNL     1       1.901  -1.888   2.492  1.00  0.00    -0.265 OA
BRANCH  32  34
HETATM   34  O2  UNL     1       3.267  -0.570   1.208  1.00  0.00    -0.287 OA
BRANCH  34  35
HETATM   35  C7  UNL     1       3.903  -0.103   2.405  1.00  0.00     0.301 C 
HETATM   36  O3  UNL     1       5.191   0.460   2.064  1.00  0.00    -0.348 OA
HETATM   37  C8  UNL     1       5.109   1.854   1.774  1.00  0.00     0.179 C 
HETATM   38  C10 UNL     1       4.829   2.645   3.073  1.00  0.00     0.180 C 
HETATM   39  C11 UNL     1       3.909   1.840   4.016  1.00  0.00     0.183 C 
HETATM   40  C12 UNL     1       3.009   0.893   3.205  1.00  0.00     0.205 C 
BRANCH  37  41
HETATM   41  C9  UNL     1       6.420   2.327   1.138  1.00  0.00     0.198 C 
BRANCH  41  42
HETATM   42  O4  UNL     1       6.368   3.732   0.894  1.00  0.00    -0.398 OA
HETATM   43  H12 UNL     1       7.236   3.987   0.536  1.00  0.00     0.209 HD
ENDBRANCH  41  42
ENDBRANCH  37  41
BRANCH  38  44
HETATM   44  O5  UNL     1       4.233   3.908   2.760  1.00  0.00    -0.390 OA
HETATM   45  H14 UNL     1       4.801   4.307   2.065  1.00  0.00     0.210 HD
ENDBRANCH  38  44
BRANCH  39  46
HETATM   46  O6  UNL     1       4.677   1.094   4.972  1.00  0.00    -0.390 OA
HETATM   47  H16 UNL     1       5.414   0.664   4.501  1.00  0.00     0.210 HD
ENDBRANCH  39  46
BRANCH  40  48
HETATM   48  O7  UNL     1       2.159   1.644   2.317  1.00  0.00    -0.388 OA
HETATM   49  H18 UNL     1       1.878   2.454   2.781  1.00  0.00     0.210 HD
ENDBRANCH  40  48
ENDBRANCH  34  35
ENDBRANCH  32  34
ENDBRANCH  24  32
ENDBRANCH   1  24
BRANCH   2  50
HETATM   50  O8  UNL     1       1.522   0.223  -2.557  1.00  0.00    -0.316 OA
BRANCH  50  51
HETATM   51  C15 UNL     1       1.658   0.095  -3.906  1.00  0.00     0.255 C 
HETATM   52  C16 UNL     1       2.799   0.936  -4.389  1.00  0.00     0.126 C 
HETATM   53  O9  UNL     1       0.957  -0.596  -4.632  1.00  0.00    -0.266 OA
ENDBRANCH  50  51
ENDBRANCH   2  50
TORSDOF 15
