REMARK  4 active torsions:
REMARK  status: ('A' for Active; 'I' for Inactive)
REMARK    1  A    between atoms: C4_4  and  C5_5 
REMARK    2  A    between atoms: C5_5  and  C6_6 
REMARK    3  A    between atoms: C6_6  and  C7_7 
REMARK    4  A    between atoms: C7_7  and  C9_9 
ROOT
HETATM    1  C9  UNL     1       2.124  -0.025   0.486  1.00  0.00    -0.002 C 
HETATM    2  C10 UNL     1       2.046  -1.283   1.392  1.00  0.00     0.006 C 
HETATM    3  C11 UNL     1       0.560  -1.604   1.613  1.00  0.00     0.011 C 
HETATM    4  C12 UNL     1      -0.205  -0.705   0.623  1.00  0.00    -0.032 C 
HETATM    5  C13 UNL     1      -0.250  -1.465  -0.741  1.00  0.00     0.016 C 
HETATM    6  C14 UNL     1      -1.642  -0.333   1.077  1.00  0.00     0.004 C 
HETATM    7  C15 UNL     1      -2.583  -1.549   1.189  1.00  0.00     0.007 C 
HETATM    8  C16 UNL     1      -3.788  -1.529   0.256  1.00  0.00     0.007 C 
HETATM    9  C17 UNL     1      -4.605  -0.248   0.501  1.00  0.00     0.010 C 
HETATM   10  C18 UNL     1      -6.051  -0.274  -0.092  1.00  0.00     0.018 C 
HETATM   11  C19 UNL     1      -6.918   0.821   0.568  1.00  0.00     0.023 C 
HETATM   12  C20 UNL     1      -6.761  -1.619   0.177  1.00  0.00     0.023 C 
HETATM   13  C21 UNL     1      -6.042  -0.036  -1.606  1.00  0.00     0.135 C 
HETATM   14  O1  UNL     1      -6.968  -0.412  -2.330  1.00  0.00    -0.297 OA
HETATM   15  C22 UNL     1      -4.856   0.671  -2.212  1.00  0.00     0.080 C 
HETATM   16  C23 UNL     1      -4.275   1.654  -1.219  1.00  0.00     0.018 C 
HETATM   17  C24 UNL     1      -3.751   0.942   0.020  1.00  0.00    -0.026 A 
HETATM   18  C25 UNL     1      -3.114   1.810   1.075  1.00  0.00     0.021 A 
HETATM   19  C26 UNL     1      -2.215   0.875   0.285  1.00  0.00    -0.027 A 
HETATM   20  C27 UNL     1      -1.286   1.543  -0.745  1.00  0.00     0.011 C 
HETATM   21  C28 UNL     1       0.235   1.479  -0.534  1.00  0.00     0.011 C 
HETATM   22  C29 UNL     1       0.691   0.586   0.620  1.00  0.00    -0.032 C 
HETATM   23  C30 UNL     1       0.603   1.423   1.931  1.00  0.00     0.016 C 
ENDROOT
BRANCH   1  24
HETATM   24  C7  UNL     1       3.372   0.849   0.798  1.00  0.00    -0.014 C 
HETATM   25  C8  UNL     1       3.469   2.080  -0.111  1.00  0.00     0.010 C 
BRANCH  24  26
HETATM   26  C6  UNL     1       4.702   0.050   0.742  1.00  0.00     0.008 C 
BRANCH  26  27
HETATM   27  C5  UNL     1       5.037  -0.571  -0.619  1.00  0.00     0.028 C 
BRANCH  27  28
HETATM   28  C4  UNL     1       6.350  -1.304  -0.565  1.00  0.00    -0.025 C 
HETATM   29  C2  UNL     1       7.543  -0.892  -1.037  1.00  0.00    -0.091 C 
HETATM   30  C1  UNL     1       8.759  -1.774  -0.927  1.00  0.00     0.042 C 
HETATM   31  C3  UNL     1       7.802   0.440  -1.687  1.00  0.00     0.042 C 
ENDBRANCH  27  28
ENDBRANCH  26  27
ENDBRANCH  24  26
ENDBRANCH   1  24
TORSDOF 4
