REMARK  11 active torsions:
REMARK  status: ('A' for Active; 'I' for Inactive)
REMARK    1  A    between atoms: C4_4  and  C5_5 
REMARK    2  A    between atoms: C5_5  and  O2_7 
REMARK    3  A    between atoms: O2_7  and  C6_8 
REMARK    4  A    between atoms: C6_8  and  C7_9 
REMARK    5  A    between atoms: C7_9  and  N1_10 
REMARK    6  A    between atoms: C14_17  and  O3_18 
REMARK    7  A    between atoms: C20_24  and  O4_25 
REMARK    8  A    between atoms: O4_25  and  C21_26 
REMARK    9  A    between atoms: C21_26  and  C22_28 
REMARK   10  A    between atoms: C22_28  and  C23_29 
REMARK   11  A    between atoms: C23_29  and  O6_32 
ROOT
HETATM    1  C1  UNL     1       2.981  -3.193  -1.222  1.00  0.00     0.015 C 
HETATM    2  C2  UNL     1       2.977  -1.995  -0.261  1.00  0.00     0.017 C 
HETATM    3  C3  UNL     1       3.621  -2.397   1.056  1.00  0.00    -0.070 C 
HETATM    4  C4  UNL     1       4.885  -2.118   1.447  1.00  0.00     0.085 C 
HETATM    5  C10 UNL     1       2.723  -3.153   2.010  1.00  0.00     0.035 C 
HETATM    6  C11 UNL     1       1.263  -2.684   1.991  1.00  0.00     0.010 C 
HETATM    7  C12 UNL     1       1.089  -1.278   1.369  1.00  0.00     0.001 C 
HETATM    8  C13 UNL     1       1.533  -1.410  -0.106  1.00  0.00     0.027 C 
HETATM    9  C14 UNL     1       1.418  -0.058  -0.810  1.00  0.00     0.123 C 
HETATM   10  C15 UNL     1       0.001   0.487  -0.726  1.00  0.00     0.038 C 
HETATM   11  C16 UNL     1      -0.515   0.686   0.718  1.00  0.00     0.007 C 
HETATM   12  C17 UNL     1      -1.985   1.293   0.701  1.00  0.00    -0.016 C 
HETATM   13  C18 UNL     1      -2.349   1.971   2.048  1.00  0.00     0.018 C 
HETATM   14  C19 UNL     1      -2.121   2.433  -0.350  1.00  0.00     0.018 C 
HETATM   15  C20 UNL     1      -3.006   0.179   0.332  1.00  0.00     0.140 C 
HETATM   16  C26 UNL     1      -2.873  -1.072   1.199  1.00  0.00     0.034 C 
HETATM   17  C27 UNL     1      -1.460  -1.649   1.190  1.00  0.00     0.012 C 
HETATM   18  C28 UNL     1      -0.349  -0.639   1.573  1.00  0.00    -0.035 C 
HETATM   19  C29 UNL     1      -0.457  -0.304   3.090  1.00  0.00     0.016 C 
ENDROOT
BRANCH   4  20
HETATM   20  C5  UNL     1       6.010  -1.425   0.769  1.00  0.00     0.283 C 
HETATM   21  O1  UNL     1       7.039  -1.145   1.369  1.00  0.00    -0.260 OA
BRANCH  20  22
HETATM   22  O2  UNL     1       5.769  -1.197  -0.536  1.00  0.00    -0.316 OA
BRANCH  22  23
HETATM   23  C6  UNL     1       6.747  -0.416  -1.240  1.00  0.00     0.209 C 
BRANCH  23  24
HETATM   24  C7  UNL     1       6.748   1.067  -0.813  1.00  0.00     0.298 C 
BRANCH  24  25
HETATM   25  N1  UNL     1       5.418   1.705  -0.720  1.00  0.00     0.082 N 
HETATM   26  C8  UNL     1       5.547   3.079  -0.232  1.00  0.00     0.309 C 
HETATM   27  C9  UNL     1       4.701   1.686  -1.998  1.00  0.00     0.309 C 
ENDBRANCH  24  25
ENDBRANCH  23  24
ENDBRANCH  22  23
ENDBRANCH  20  22
ENDBRANCH   4  20
BRANCH   9  28
HETATM   28  O3  UNL     1       1.760  -0.181  -2.194  1.00  0.00    -0.395 OA
HETATM   29  H23 UNL     1       1.143  -0.809  -2.604  1.00  0.00     0.210 HD
ENDBRANCH   9  28
BRANCH  15  30
HETATM   30  O4  UNL     1      -4.349   0.689   0.482  1.00  0.00    -0.315 OA
BRANCH  30  31
HETATM   31  C21 UNL     1      -5.270   0.267  -0.430  1.00  0.00     0.262 C 
HETATM   32  O5  UNL     1      -5.047  -0.512  -1.345  1.00  0.00    -0.265 OA
BRANCH  31  33
HETATM   33  C22 UNL     1      -6.615   0.875  -0.117  1.00  0.00     0.148 C 
BRANCH  33  34
HETATM   34  C23 UNL     1      -7.474   1.209  -1.346  1.00  0.00     0.059 C 
HETATM   35  C24 UNL     1      -6.751   2.142  -2.321  1.00  0.00     0.045 C 
HETATM   36  C25 UNL     1      -7.997  -0.032  -2.073  1.00  0.00     0.045 C 
BRANCH  34  37
HETATM   37  O6  UNL     1      -8.620   1.940  -0.872  1.00  0.00    -0.390 OA
HETATM   38  H42 UNL     1      -9.190   1.325  -0.376  1.00  0.00     0.210 HD
ENDBRANCH  34  37
ENDBRANCH  33  34
ENDBRANCH  31  33
ENDBRANCH  30  31
ENDBRANCH  15  30
TORSDOF 11
