REMARK  18 active torsions:
REMARK  status: ('A' for Active; 'I' for Inactive)
REMARK    1  A    between atoms: C2_2  and  C3_3 
REMARK    2  A    between atoms: C2_2  and  C27_33 
REMARK    3  A    between atoms: C4_4  and  C5_5 
REMARK    4  A    between atoms: C6_6  and  C7_7 
REMARK    5  A    between atoms: C6_6  and  C10_12 
REMARK    6  A    between atoms: C7_7  and  O1_8 
REMARK    7  A    between atoms: O1_8  and  C8_9 
REMARK    8  A    between atoms: C8_9  and  C9_10 
REMARK    9  A    between atoms: C9_10  and  O2_11 
REMARK   10  A    between atoms: C14_16  and  O3_17 
REMARK   11  A    between atoms: C15_18  and  C16_19 
REMARK   12  A    between atoms: C16_19  and  C17_20 
REMARK   13  A    between atoms: C17_20  and  C18_21 
REMARK   14  A    between atoms: C18_21  and  O4_22 
REMARK   15  A    between atoms: C20_24  and  C22_26 
REMARK   16  A    between atoms: C25_30  and  O6_32 
REMARK   17  A    between atoms: C27_33  and  C28_34 
REMARK   18  A    between atoms: C28_34  and  C29_35 
ROOT
HETATM    1  C10 UNL     1      -0.462  -1.911   0.894  1.00  0.00     0.046 C 
HETATM    2  C11 UNL     1      -1.606  -2.334   1.825  1.00  0.00     0.013 C 
HETATM    3  C12 UNL     1      -2.312  -1.012   2.099  1.00  0.00     0.017 C 
HETATM    4  C13 UNL     1      -2.420  -0.309   0.711  1.00  0.00     0.024 C 
HETATM    5  C14 UNL     1      -1.006  -0.662   0.121  1.00  0.00     0.138 C 
HETATM    6  C15 UNL     1      -2.615   1.266   0.840  1.00  0.00     0.029 C 
HETATM    7  C19 UNL     1      -2.753   1.859  -0.579  1.00  0.00    -0.066 C 
HETATM    8  C20 UNL     1      -1.873   2.586  -1.311  1.00  0.00    -0.021 C 
HETATM    9  C21 UNL     1      -2.095   3.062  -2.720  1.00  0.00     0.052 C 
HETATM   10  C23 UNL     1      -4.058   1.401  -1.197  1.00  0.00     0.038 C 
HETATM   11  C24 UNL     1      -3.954  -0.099  -1.434  1.00  0.00     0.042 C 
HETATM   12  C25 UNL     1      -3.646  -0.906  -0.145  1.00  0.00     0.065 C 
HETATM   13  C26 UNL     1      -4.959  -0.998   0.669  1.00  0.00     0.047 C 
ENDROOT
BRANCH   1  14
HETATM   14  C6  UNL     1       0.278  -2.968   0.080  1.00  0.00    -0.050 C 
HETATM   15  C5  UNL     1       1.538  -2.801  -0.383  1.00  0.00     0.005 C 
BRANCH  15  16
HETATM   16  C4  UNL     1       2.400  -1.659  -0.143  1.00  0.00     0.001 C 
HETATM   17  C3  UNL     1       3.604  -1.512  -0.722  1.00  0.00     0.006 C 
BRANCH  17  18
HETATM   18  C2  UNL     1       4.545  -0.422  -0.488  1.00  0.00    -0.067 C 
HETATM   19  C1  UNL     1       5.701  -0.392  -1.171  1.00  0.00     0.019 C 
BRANCH  18  20
HETATM   20  C27 UNL     1       4.260   0.644   0.558  1.00  0.00     0.041 C 
BRANCH  20  21
HETATM   21  C28 UNL     1       3.354   1.785   0.062  1.00  0.00     0.032 C 
BRANCH  21  22
HETATM   22  C29 UNL     1       4.093   2.761  -0.812  1.00  0.00    -0.024 C 
HETATM   23  C30 UNL     1       3.887   3.024  -2.116  1.00  0.00    -0.091 C 
HETATM   24  C31 UNL     1       2.862   2.348  -2.984  1.00  0.00     0.042 C 
HETATM   25  C32 UNL     1       4.715   4.064  -2.827  1.00  0.00     0.042 C 
ENDBRANCH  21  22
ENDBRANCH  20  21
ENDBRANCH  18  20
ENDBRANCH  17  18
ENDBRANCH  15  16
BRANCH  14  26
HETATM   26  C7  UNL     1      -0.461  -4.251  -0.238  1.00  0.00     0.202 C 
BRANCH  26  27
HETATM   27  O1  UNL     1      -0.694  -4.981   0.962  1.00  0.00    -0.385 OA
BRANCH  27  28
HETATM   28  C8  UNL     1      -0.058  -6.258   1.032  1.00  0.00     0.194 C 
BRANCH  28  29
HETATM   29  C9  UNL     1       1.425  -6.159   1.393  1.00  0.00     0.190 C 
BRANCH  29  30
HETATM   30  O2  UNL     1       1.579  -5.711   2.737  1.00  0.00    -0.399 OA
HETATM   31  H12 UNL     1       2.445  -5.273   2.802  1.00  0.00     0.209 HD
ENDBRANCH  29  30
ENDBRANCH  28  29
ENDBRANCH  27  28
ENDBRANCH  26  27
ENDBRANCH  14  26
ENDBRANCH   1  14
BRANCH   5  32
HETATM   32  O3  UNL     1      -0.983  -0.761  -1.295  1.00  0.00    -0.394 OA
HETATM   33  H19 UNL     1      -0.123  -1.136  -1.552  1.00  0.00     0.210 HD
ENDBRANCH   5  32
BRANCH   6  34
HETATM   34  C16 UNL     1      -1.663   2.008   1.818  1.00  0.00     0.012 C 
BRANCH  34  35
HETATM   35  C17 UNL     1      -2.106   3.452   2.119  1.00  0.00     0.027 C 
BRANCH  35  36
HETATM   36  C18 UNL     1      -1.046   4.237   2.885  1.00  0.00     0.164 C 
BRANCH  36  37
HETATM   37  O4  UNL     1      -0.786   3.640   4.150  1.00  0.00    -0.401 OA
HETATM   38  H27 UNL     1      -0.250   2.845   3.990  1.00  0.00     0.209 HD
ENDBRANCH  36  37
ENDBRANCH  35  36
ENDBRANCH  34  35
ENDBRANCH   6  34
BRANCH  12  39
HETATM   39  O6  UNL     1      -3.372  -2.254  -0.551  1.00  0.00    -0.389 OA
HETATM   40  H39 UNL     1      -4.057  -2.529  -1.183  1.00  0.00     0.210 HD
ENDBRANCH  12  39
BRANCH   8  41
HETATM   41  C22 UNL     1      -0.492   2.866  -0.852  1.00  0.00     0.265 C 
HETATM   42  O5  UNL     1      -0.175   3.903  -0.284  1.00  0.00    -0.302 OA
ENDBRANCH   8  41
TORSDOF 18
