REMARK  10 active torsions:
REMARK  status: ('A' for Active; 'I' for Inactive)
REMARK    1  A    between atoms: O1_2  and  C2_3 
REMARK    2  A    between atoms: C2_3  and  C3_5 
REMARK    3  A    between atoms: C3_5  and  C4_6 
REMARK    4  A    between atoms: C3_5  and  N1_13 
REMARK    5  A    between atoms: C4_6  and  C5_7 
REMARK       I    between atoms: N1_13  and  C11_14 
REMARK    6  A    between atoms: C11_14  and  C12_16 
REMARK    7  A    between atoms: C12_16  and  O4_17 
REMARK    8  A    between atoms: O4_17  and  N2_18 
REMARK    9  A    between atoms: C27_34  and  O5_35 
REMARK   10  A    between atoms: C27_34  and  C28_36 
ROOT
HETATM    1  N2  UNL     1       2.095  -2.173   0.811  1.00  0.00    -0.271 N 
ATOM      2  H2  UNL     1       2.403  -3.144   0.755  1.00  0.00     0.194 HD
HETATM    3  C13 UNL     1       0.888  -1.779   0.534  1.00  0.00     0.032 C 
HETATM    4  C14 UNL     1       0.394  -0.375   0.610  1.00  0.00     0.030 C 
HETATM    5  C15 UNL     1      -0.921  -0.089   0.549  1.00  0.00    -0.069 C 
HETATM    6  C16 UNL     1      -1.373   1.354   0.487  1.00  0.00     0.035 C 
HETATM    7  C17 UNL     1      -2.757   1.611   1.082  1.00  0.00     0.010 C 
HETATM    8  C18 UNL     1      -3.840   0.609   0.632  1.00  0.00    -0.004 C 
HETATM    9  C19 UNL     1      -3.255  -0.539  -0.250  1.00  0.00     0.002 C 
HETATM   10  C20 UNL     1      -4.351  -1.543  -0.678  1.00  0.00     0.007 C 
HETATM   11  C21 UNL     1      -5.572  -0.853  -1.318  1.00  0.00     0.013 C 
HETATM   12  C22 UNL     1      -6.162   0.246  -0.415  1.00  0.00    -0.002 C 
HETATM   13  C23 UNL     1      -6.766  -0.406   0.861  1.00  0.00     0.019 C 
HETATM   14  C24 UNL     1      -5.016   1.255  -0.112  1.00  0.00     0.002 C 
HETATM   15  C25 UNL     1      -5.743   2.423   0.544  1.00  0.00     0.009 C 
HETATM   16  C26 UNL     1      -7.099   2.490  -0.184  1.00  0.00     0.047 C 
HETATM   17  C27 UNL     1      -7.204   1.210  -1.063  1.00  0.00     0.125 C 
HETATM   18  C30 UNL     1      -1.995  -1.174   0.434  1.00  0.00    -0.016 C 
HETATM   19  C31 UNL     1      -2.333  -1.705   1.849  1.00  0.00     0.020 C 
HETATM   20  C32 UNL     1      -1.413  -2.324  -0.423  1.00  0.00     0.020 C 
HETATM   21  C33 UNL     1      -0.089  -2.864   0.112  1.00  0.00     0.060 C 
ENDROOT
BRANCH   1  22
HETATM   22  O4  UNL     1       2.926  -1.110   1.196  1.00  0.00    -0.271 OA
BRANCH  22  23
HETATM   23  C12 UNL     1       4.005  -1.627   1.970  1.00  0.00     0.303 C 
BRANCH  23  24
HETATM   24  C11 UNL     1       5.224  -0.738   1.783  1.00  0.00     0.244 C 
HETATM   25  N1  UNL     1       5.599  -0.578   0.463  1.00  0.00    -0.345 N 
HETATM   26  H12 UNL     1       4.887  -0.778  -0.235  1.00  0.00     0.163 HD
HETATM   27  O3  UNL     1       5.848  -0.264   2.730  1.00  0.00    -0.271 OA
BRANCH  25  28
HETATM   28  C3  UNL     1       6.711   0.297   0.062  1.00  0.00     0.188 C 
BRANCH  28  29
HETATM   29  C2  UNL     1       6.257   1.347  -0.967  1.00  0.00     0.281 C 
HETATM   30  O2  UNL     1       6.988   2.201  -1.457  1.00  0.00    -0.263 OA
BRANCH  29  31
HETATM   31  O1  UNL     1       4.940   1.180  -1.306  1.00  0.00    -0.325 OA
HETATM   32  C1  UNL     1       4.467   2.116  -2.277  1.00  0.00     0.213 C 
ENDBRANCH  29  31
ENDBRANCH  28  29
BRANCH  28  33
HETATM   33  C4  UNL     1       7.842  -0.551  -0.546  1.00  0.00     0.074 C 
BRANCH  33  34
HETATM   34  C5  UNL     1       9.209  -0.151  -0.041  1.00  0.00    -0.056 A 
HETATM   35  C6  UNL     1       9.988   0.780  -0.739  1.00  0.00     0.007 A 
HETATM   36  C7  UNL     1      11.248   1.146  -0.261  1.00  0.00     0.001 A 
HETATM   37  C8  UNL     1      11.736   0.590   0.919  1.00  0.00     0.000 A 
HETATM   38  C9  UNL     1      10.964  -0.330   1.626  1.00  0.00     0.001 A 
HETATM   39  C10 UNL     1       9.705  -0.699   1.150  1.00  0.00     0.007 A 
ENDBRANCH  33  34
ENDBRANCH  28  33
ENDBRANCH  25  28
ENDBRANCH  23  24
ENDBRANCH  22  23
ENDBRANCH   1  22
BRANCH  17  40
HETATM   40  O5  UNL     1      -6.792   1.557  -2.392  1.00  0.00    -0.381 OA
HETATM   41  H34 UNL     1      -7.340   2.308  -2.687  1.00  0.00     0.211 HD
ENDBRANCH  17  40
BRANCH  17  42
HETATM   42  C28 UNL     1      -8.645   0.654  -1.131  1.00  0.00     0.158 C 
HETATM   43  C29 UNL     1      -8.908  -0.505  -2.062  1.00  0.00     0.094 C 
HETATM   44  O6  UNL     1      -9.558   1.099  -0.429  1.00  0.00    -0.295 OA
ENDBRANCH  17  42
TORSDOF 10
