REMARK  5 active torsions:
REMARK  status: ('A' for Active; 'I' for Inactive)
REMARK    1  A    between atoms: C2_2  and  C3_3 
REMARK    2  A    between atoms: C2_2  and  C25_27 
REMARK    3  A    between atoms: C3_3  and  C4_4 
REMARK    4  A    between atoms: C4_4  and  C5_5 
REMARK    5  A    between atoms: C15_15  and  O1_16 
ROOT
HETATM    1  C5  UNL     1      -2.589   0.241   0.750  1.00  0.00    -0.023 C 
HETATM    2  C6  UNL     1      -1.483  -0.297   0.202  1.00  0.00    -0.075 C 
HETATM    3  C7  UNL     1      -1.333  -1.742  -0.183  1.00  0.00     0.035 C 
HETATM    4  C8  UNL     1       0.155  -1.896  -0.468  1.00  0.00     0.013 C 
HETATM    5  C9  UNL     1       0.573  -0.532  -1.035  1.00  0.00     0.033 C 
HETATM    6  C10 UNL     1       2.100  -0.301  -1.138  1.00  0.00     0.070 C 
HETATM    7  C11 UNL     1       2.828  -1.470  -1.860  1.00  0.00     0.039 C 
HETATM    8  C12 UNL     1       4.222  -1.748  -1.300  1.00  0.00     0.009 C 
HETATM    9  C13 UNL     1       5.020  -0.469  -1.009  1.00  0.00    -0.001 C 
HETATM   10  C14 UNL     1       6.245  -0.800  -0.132  1.00  0.00     0.037 C 
HETATM   11  C15 UNL     1       5.946  -0.649   1.355  1.00  0.00     0.118 C 
HETATM   12  C16 UNL     1       5.544   0.783   1.710  1.00  0.00     0.032 C 
HETATM   13  C17 UNL     1       4.953   1.556   0.528  1.00  0.00     0.015 C 
HETATM   14  C18 UNL     1       4.121   0.675  -0.416  1.00  0.00    -0.009 C 
HETATM   15  C19 UNL     1       3.544   1.503  -1.582  1.00  0.00     0.179 C 
HETATM   16  O2  UNL     1       2.328   0.854  -1.995  1.00  0.00    -0.379 OA
HETATM   17  C20 UNL     1       2.807   0.100   0.170  1.00  0.00     0.032 C 
HETATM   18  C21 UNL     1       2.010   1.128   0.995  1.00  0.00     0.009 C 
HETATM   19  C22 UNL     1       0.568   0.699   1.212  1.00  0.00     0.014 C 
HETATM   20  C23 UNL     1      -0.189   0.464  -0.112  1.00  0.00    -0.014 C 
HETATM   21  C24 UNL     1      -0.471   1.791  -0.838  1.00  0.00     0.020 C 
ENDROOT
BRANCH   1  22
HETATM   22  C4  UNL     1      -3.880  -0.479   1.044  1.00  0.00     0.031 C 
BRANCH  22  23
HETATM   23  C3  UNL     1      -5.043   0.133   0.244  1.00  0.00     0.037 C 
BRANCH  23  24
HETATM   24  C2  UNL     1      -6.427  -0.471   0.450  1.00  0.00    -0.086 C 
HETATM   25  C1  UNL     1      -6.671  -1.531   1.243  1.00  0.00     0.014 C 
BRANCH  24  26
HETATM   26  C25 UNL     1      -7.586   0.180  -0.307  1.00  0.00     0.005 C 
HETATM   27  C26 UNL     1      -7.851   1.612   0.165  1.00  0.00     0.014 C 
HETATM   28  C27 UNL     1      -7.387   0.139  -1.825  1.00  0.00     0.014 C 
ENDBRANCH  24  26
ENDBRANCH  23  24
ENDBRANCH  22  23
ENDBRANCH   1  22
BRANCH  11  29
HETATM   29  O1  UNL     1       7.083  -1.038   2.118  1.00  0.00    -0.396 OA
HETATM   30  H21 UNL     1       7.807  -0.420   1.920  1.00  0.00     0.210 HD
ENDBRANCH  11  29
TORSDOF 5
