REMARK  13 active torsions:
REMARK  status: ('A' for Active; 'I' for Inactive)
REMARK    1  A    between atoms: C3_3  and  O1_4 
REMARK    2  A    between atoms: N1_14  and  O2_16 
REMARK    3  A    between atoms: O2_16  and  C13_17 
REMARK    4  A    between atoms: C13_17  and  C14_18 
REMARK       I    between atoms: C14_18  and  N2_20 
REMARK    5  A    between atoms: N2_20  and  C15_21 
REMARK    6  A    between atoms: C15_21  and  C16_22 
REMARK    7  A    between atoms: C15_21  and  C21_32 
REMARK       I    between atoms: C16_22  and  N3_24 
REMARK    8  A    between atoms: N3_24  and  C17_25 
REMARK    9  A    between atoms: C17_25  and  C18_26 
REMARK   10  A    between atoms: C17_25  and  C19_28 
REMARK   11  A    between atoms: C18_26  and  S1_27 
REMARK   12  A    between atoms: C19_28  and  C20_29 
REMARK   13  A    between atoms: C20_29  and  O6_31 
ROOT
HETATM    1  C1  UNL     1      -8.818   3.900   2.815  1.00  0.00     0.015 C 
HETATM    2  C2  UNL     1      -8.343   2.868   2.422  1.00  0.00    -0.078 C 
HETATM    3  C3  UNL     1      -7.758   1.599   1.954  1.00  0.00     0.128 C 
HETATM    4  C4  UNL     1      -8.834   0.581   1.582  1.00  0.00     0.052 C 
HETATM    5  C5  UNL     1      -8.049  -0.486   0.825  1.00  0.00     0.010 C 
HETATM    6  C6  UNL     1      -6.915   0.261   0.088  1.00  0.00     0.002 C 
HETATM    7  C7  UNL     1      -5.573  -0.489  -0.044  1.00  0.00    -0.004 C 
HETATM    8  C8  UNL     1      -5.078  -1.267   1.184  1.00  0.00     0.010 C 
HETATM    9  C9  UNL     1      -3.809  -2.063   0.870  1.00  0.00     0.035 C 
HETATM   10  C10 UNL     1      -2.720  -1.287   0.168  1.00  0.00    -0.069 C 
HETATM   11  C11 UNL     1      -1.429  -1.549   0.454  1.00  0.00     0.030 C 
HETATM   12  C12 UNL     1      -0.304  -0.962  -0.326  1.00  0.00     0.032 C 
HETATM   13  N1  UNL     1       0.901  -1.403  -0.090  1.00  0.00    -0.271 N 
ATOM     14  H1  UNL     1       1.127  -2.111   0.608  1.00  0.00     0.194 HD
HETATM   15  C24 UNL     1      -0.627   0.043  -1.414  1.00  0.00     0.060 C 
HETATM   16  C25 UNL     1      -1.979   0.700  -1.177  1.00  0.00     0.020 C 
HETATM   17  C26 UNL     1      -3.141  -0.304  -0.924  1.00  0.00    -0.016 C 
HETATM   18  C27 UNL     1      -3.391  -1.111  -2.227  1.00  0.00     0.020 C 
HETATM   19  C28 UNL     1      -4.467   0.473  -0.546  1.00  0.00     0.002 C 
HETATM   20  C29 UNL     1      -4.256   1.581   0.497  1.00  0.00     0.007 C 
HETATM   21  C30 UNL     1      -5.510   2.338   0.935  1.00  0.00     0.014 C 
HETATM   22  C31 UNL     1      -6.895   1.715   0.657  1.00  0.00     0.003 C 
HETATM   23  C32 UNL     1      -7.594   2.621  -0.408  1.00  0.00     0.020 C 
ENDROOT
BRANCH   3  24
HETATM   24  O1  UNL     1      -6.976   1.019   3.010  1.00  0.00    -0.377 OA
HETATM   25  H2  UNL     1      -7.216   1.477   3.833  1.00  0.00     0.211 HD
ENDBRANCH   3  24
BRANCH  13  26
HETATM   26  O2  UNL     1       1.848  -0.780  -0.918  1.00  0.00    -0.271 OA
BRANCH  26  27
HETATM   27  C13 UNL     1       2.504  -1.752  -1.725  1.00  0.00     0.303 C 
BRANCH  27  28
HETATM   28  C14 UNL     1       4.008  -1.780  -1.484  1.00  0.00     0.244 C 
HETATM   29  O3  UNL     1       4.804  -2.007  -2.390  1.00  0.00    -0.271 OA
HETATM   30  N2  UNL     1       4.363  -1.637  -0.160  1.00  0.00    -0.346 N 
HETATM   31  H16 UNL     1       3.638  -1.229   0.429  1.00  0.00     0.163 HD
BRANCH  30  32
HETATM   32  C15 UNL     1       5.747  -1.540   0.319  1.00  0.00     0.180 C 
BRANCH  32  33
HETATM   33  C16 UNL     1       6.278  -0.088   0.161  1.00  0.00     0.241 C 
HETATM   34  O4  UNL     1       5.652   0.801  -0.415  1.00  0.00    -0.271 OA
HETATM   35  N3  UNL     1       7.482   0.167   0.799  1.00  0.00    -0.353 N 
HETATM   36  H18 UNL     1       8.022  -0.620   1.135  1.00  0.00     0.163 HD
BRANCH  35  37
HETATM   37  C17 UNL     1       8.149   1.479   0.723  1.00  0.00     0.103 C 
BRANCH  37  38
HETATM   38  C18 UNL     1       9.012   1.711   1.978  1.00  0.00     0.096 C 
BRANCH  38  39
HETATM   39  S1  UNL     1       8.031   1.729   3.514  1.00  0.00    -0.180 SA
HETATM   40  H22 UNL     1       6.959   1.092   3.019  1.00  0.00     0.101 HD
ENDBRANCH  38  39
ENDBRANCH  37  38
BRANCH  37  41
HETATM   41  C19 UNL     1       9.043   1.575  -0.521  1.00  0.00     0.136 C 
BRANCH  41  42
HETATM   42  C20 UNL     1       8.255   1.716  -1.789  1.00  0.00     0.141 C 
HETATM   43  O5  UNL     1       8.283   0.940  -2.730  1.00  0.00    -0.650 OA
BRANCH  42  44
HETATM   44  O6  UNL     1       7.520   2.837  -1.827  1.00  0.00    -0.776 OA
HETATM   45  H25 UNL     1       6.947   2.711  -2.617  1.00  0.00     0.167 HD
ENDBRANCH  42  44
ENDBRANCH  41  42
ENDBRANCH  37  41
ENDBRANCH  35  37
ENDBRANCH  32  33
BRANCH  32  46
HETATM   46  C21 UNL     1       6.660  -2.691  -0.194  1.00  0.00     0.009 C 
HETATM   47  C22 UNL     1       7.354  -3.417   0.965  1.00  0.00     0.012 C 
HETATM   48  C23 UNL     1       7.707  -2.276  -1.236  1.00  0.00     0.012 C 
ENDBRANCH  32  46
ENDBRANCH  30  32
ENDBRANCH  27  28
ENDBRANCH  26  27
ENDBRANCH  13  26
TORSDOF 13
