REMARK  19 active torsions:
REMARK  status: ('A' for Active; 'I' for Inactive)
REMARK    1  A    between atoms: C19_20  and  O2_21 
REMARK    2  A    between atoms: C19_20  and  C20_22 
REMARK    3  A    between atoms: C20_22  and  C21_24 
REMARK    4  A    between atoms: C21_24  and  O4_25 
REMARK    5  A    between atoms: O4_25  and  C22_26 
REMARK    6  A    between atoms: C22_26  and  C23_28 
REMARK    7  A    between atoms: C23_28  and  C24_29 
REMARK    8  A    between atoms: C24_29  and  C25_30 
REMARK       I    between atoms: C25_30  and  N1_32 
REMARK    9  A    between atoms: N1_32  and  C26_33 
REMARK   10  A    between atoms: C26_33  and  C27_34 
REMARK   11  A    between atoms: C27_34  and  C28_35 
REMARK   12  A    between atoms: C28_35  and  C29_36 
REMARK   13  A    between atoms: C29_36  and  C30_37 
REMARK   14  A    between atoms: C30_37  and  C31_38 
REMARK       I    between atoms: C31_38  and  N2_40 
REMARK   15  A    between atoms: N2_40  and  C32_41 
REMARK   16  A    between atoms: C32_41  and  C33_42 
REMARK   17  A    between atoms: C32_41  and  C40_49 
REMARK   18  A    between atoms: C33_42  and  C34_43 
REMARK   19  A    between atoms: C40_49  and  O9_51 
ROOT
HETATM    1  C22 UNL     1      -1.028  -2.929  -0.178  1.00  0.00     0.259 C 
HETATM    2  O5  UNL     1      -1.489  -3.186   0.928  1.00  0.00    -0.265 OA
ENDROOT
BRANCH   1   3
HETATM    3  O4  UNL     1      -1.469  -1.929  -0.980  1.00  0.00    -0.314 OA
BRANCH   3   4
HETATM    4  C21 UNL     1      -2.516  -1.130  -0.423  1.00  0.00     0.260 C 
BRANCH   4   5
HETATM    5  C20 UNL     1      -2.860  -0.011  -1.401  1.00  0.00     0.185 C 
HETATM    6  O3  UNL     1      -2.179   0.197  -2.409  1.00  0.00    -0.292 OA
BRANCH   5   7
HETATM    7  C19 UNL     1      -4.043   0.912  -1.025  1.00  0.00     0.128 C 
HETATM    8  C14 UNL     1      -5.434   0.216  -0.864  1.00  0.00    -0.002 C 
HETATM    9  C13 UNL     1      -5.701  -0.477   0.493  1.00  0.00     0.013 C 
HETATM   10  C15 UNL     1      -5.663  -0.776  -2.035  1.00  0.00     0.019 C 
HETATM   11  C16 UNL     1      -6.357   1.449  -0.940  1.00  0.00     0.002 C 
HETATM   12  C12 UNL     1      -7.098  -0.190   1.100  1.00  0.00     0.007 C 
HETATM   13  C11 UNL     1      -8.205  -0.059   0.027  1.00  0.00     0.002 C 
HETATM   14  C2  UNL     1      -9.717  -0.128   0.517  1.00  0.00    -0.016 C 
HETATM   15  C10 UNL     1      -7.871   1.141  -0.929  1.00  0.00    -0.004 C 
HETATM   16  C1  UNL     1     -10.526  -0.878  -0.577  1.00  0.00     0.020 C 
HETATM   17  C3  UNL     1      -9.842  -0.923   1.848  1.00  0.00     0.022 C 
HETATM   18  C7  UNL     1     -10.371   1.244   0.683  1.00  0.00    -0.068 C 
HETATM   19  C4  UNL     1     -11.232  -0.877   2.469  1.00  0.00     0.084 C 
HETATM   20  C5  UNL     1     -11.638   0.555   2.690  1.00  0.00     0.149 C 
HETATM   21  O1  UNL     1     -12.345   0.903   3.630  1.00  0.00    -0.293 OA
HETATM   22  C6  UNL     1     -11.209   1.560   1.688  1.00  0.00     0.053 C 
HETATM   23  C8  UNL     1     -10.093   2.253  -0.395  1.00  0.00     0.035 C 
HETATM   24  C9  UNL     1      -8.601   2.443  -0.552  1.00  0.00     0.010 C 
HETATM   25  C17 UNL     1      -5.825   2.253  -2.120  1.00  0.00     0.009 C 
HETATM   26  C18 UNL     1      -4.310   1.993  -2.112  1.00  0.00     0.047 C 
BRANCH   7  27
HETATM   27  O2  UNL     1      -3.687   1.591   0.186  1.00  0.00    -0.381 OA
HETATM   28  H27 UNL     1      -2.943   2.188  -0.014  1.00  0.00     0.211 HD
ENDBRANCH   7  27
ENDBRANCH   5   7
ENDBRANCH   4   5
ENDBRANCH   3   4
ENDBRANCH   1   3
BRANCH   1  29
HETATM   29  C23 UNL     1       0.026  -3.764  -0.867  1.00  0.00     0.120 C 
BRANCH  29  30
HETATM   30  C24 UNL     1       0.917  -2.970  -1.817  1.00  0.00     0.112 C 
BRANCH  30  31
HETATM   31  C25 UNL     1       1.803  -1.988  -1.079  1.00  0.00     0.217 C 
HETATM   32  O6  UNL     1       1.942  -2.000   0.139  1.00  0.00    -0.274 OA
HETATM   33  N1  UNL     1       2.453  -1.107  -1.915  1.00  0.00    -0.361 N 
HETATM   34  H34 UNL     1       2.333  -1.195  -2.916  1.00  0.00     0.162 HD
BRANCH  33  35
HETATM   35  C26 UNL     1       3.460  -0.187  -1.422  1.00  0.00     0.122 C 
BRANCH  35  36
HETATM   36  C27 UNL     1       4.858  -0.767  -1.617  1.00  0.00     0.020 C 
BRANCH  36  37
HETATM   37  C28 UNL     1       5.969   0.134  -1.072  1.00  0.00     0.002 C 
BRANCH  37  38
HETATM   38  C29 UNL     1       6.029   0.131   0.460  1.00  0.00     0.009 C 
BRANCH  38  39
HETATM   39  C30 UNL     1       7.217   0.923   1.004  1.00  0.00     0.103 C 
BRANCH  39  40
HETATM   40  C31 UNL     1       8.552   0.228   0.805  1.00  0.00     0.218 C 
HETATM   41  O7  UNL     1       8.677  -0.895   0.333  1.00  0.00    -0.274 OA
HETATM   42  N2  UNL     1       9.623   0.996   1.215  1.00  0.00    -0.346 N 
HETATM   43  H45 UNL     1       9.422   1.704   1.914  1.00  0.00     0.163 HD
BRANCH  42  44
HETATM   44  C32 UNL     1      10.972   0.415   1.262  1.00  0.00     0.186 C 
BRANCH  44  45
HETATM   45  C33 UNL     1      12.026   1.513   1.082  1.00  0.00     0.074 C 
BRANCH  45  46
HETATM   46  C34 UNL     1      13.432   0.987   0.921  1.00  0.00    -0.056 A 
HETATM   47  C35 UNL     1      13.824   0.358  -0.269  1.00  0.00     0.007 A 
HETATM   48  C36 UNL     1      15.120  -0.142  -0.411  1.00  0.00     0.001 A 
HETATM   49  C37 UNL     1      16.035  -0.016   0.632  1.00  0.00     0.000 A 
HETATM   50  C38 UNL     1      15.656   0.610   1.818  1.00  0.00     0.001 A 
HETATM   51  C39 UNL     1      14.360   1.109   1.964  1.00  0.00     0.007 A 
ENDBRANCH  45  46
ENDBRANCH  44  45
BRANCH  44  52
HETATM   52  C40 UNL     1      11.130  -0.241   2.631  1.00  0.00     0.163 C 
HETATM   53  O8  UNL     1      10.743   0.228   3.693  1.00  0.00    -0.648 OA
BRANCH  52  54
HETATM   54  O9  UNL     1      11.762  -1.428   2.592  1.00  0.00    -0.775 OA
HETATM   55  H54 UNL     1      11.774  -1.739   3.520  1.00  0.00     0.167 HD
ENDBRANCH  52  54
ENDBRANCH  44  52
ENDBRANCH  42  44
ENDBRANCH  39  40
ENDBRANCH  38  39
ENDBRANCH  37  38
ENDBRANCH  36  37
ENDBRANCH  35  36
ENDBRANCH  33  35
ENDBRANCH  30  31
ENDBRANCH  29  30
ENDBRANCH   1  29
TORSDOF 19
