REMARK  12 active torsions:
REMARK  status: ('A' for Active; 'I' for Inactive)
REMARK    1  A    between atoms: C2_2  and  C3_3 
REMARK    2  A    between atoms: C2_2  and  C9_10 
REMARK    3  A    between atoms: C3_3  and  C4_4 
REMARK    4  A    between atoms: C5_5  and  C6_6 
REMARK    5  A    between atoms: C6_6  and  O1_9 
REMARK    6  A    between atoms: C27_30  and  O4_31 
REMARK    7  A    between atoms: O4_31  and  C28_32 
REMARK    8  A    between atoms: C29_34  and  C30_35 
REMARK    9  A    between atoms: C30_35  and  O6_36 
REMARK   10  A    between atoms: C31_37  and  O7_38 
REMARK   11  A    between atoms: C32_39  and  O8_40 
REMARK   12  A    between atoms: C33_41  and  O9_42 
ROOT
HETATM    1  C9  UNL     1       4.034  -0.263   1.420  1.00  0.00    -0.002 C 
HETATM    2  C10 UNL     1       4.236  -1.800   1.608  1.00  0.00     0.006 C 
HETATM    3  C11 UNL     1       2.850  -2.471   1.509  1.00  0.00     0.011 C 
HETATM    4  C12 UNL     1       1.931  -1.374   0.945  1.00  0.00    -0.028 C 
HETATM    5  C13 UNL     1       2.173  -1.381  -0.601  1.00  0.00     0.016 C 
HETATM    6  C14 UNL     1       0.412  -1.537   1.268  1.00  0.00     0.035 C 
HETATM    7  C15 UNL     1      -0.205  -2.799   0.683  1.00  0.00    -0.021 C 
HETATM    8  C16 UNL     1      -1.364  -2.764  -0.001  1.00  0.00     0.009 C 
HETATM    9  C17 UNL     1      -2.079  -1.447  -0.295  1.00  0.00     0.102 C 
HETATM   10  O2  UNL     1      -2.670  -1.040   0.953  1.00  0.00    -0.304 OA
HETATM   11  C18 UNL     1      -1.730  -0.376   1.697  1.00  0.00     0.270 C 
HETATM   12  O3  UNL     1      -1.920  -0.000   2.842  1.00  0.00    -0.264 OA
HETATM   13  C19 UNL     1      -0.431  -0.242   0.896  1.00  0.00     0.062 C 
HETATM   14  C20 UNL     1       0.279   1.082   1.280  1.00  0.00     0.022 C 
HETATM   15  C21 UNL     1       1.804   1.134   1.071  1.00  0.00     0.011 C 
HETATM   16  C22 UNL     1       2.502  -0.098   1.677  1.00  0.00    -0.032 C 
HETATM   17  C23 UNL     1       2.263  -0.089   3.222  1.00  0.00     0.016 C 
HETATM   18  C24 UNL     1      -1.004  -0.364  -0.544  1.00  0.00     0.045 C 
HETATM   19  C25 UNL     1      -1.553   0.895  -1.237  1.00  0.00     0.012 C 
HETATM   20  C26 UNL     1      -3.047   1.081  -1.073  1.00  0.00     0.033 C 
HETATM   21  C27 UNL     1      -3.849  -0.101  -1.634  1.00  0.00     0.136 C 
HETATM   22  C34 UNL     1      -3.190  -1.516  -1.396  1.00  0.00     0.015 C 
HETATM   23  C35 UNL     1      -4.288  -2.548  -1.020  1.00  0.00     0.021 C 
HETATM   24  C36 UNL     1      -2.575  -1.995  -2.739  1.00  0.00     0.021 C 
ENDROOT
BRANCH  21  25
HETATM   25  O4  UNL     1      -5.166  -0.042  -1.064  1.00  0.00    -0.352 OA
BRANCH  25  26
HETATM   26  C28 UNL     1      -6.061   0.847  -1.731  1.00  0.00     0.292 C 
HETATM   27  O5  UNL     1      -6.402   1.962  -0.902  1.00  0.00    -0.348 OA
HETATM   28  C29 UNL     1      -7.268   1.706   0.220  1.00  0.00     0.179 C 
HETATM   29  C31 UNL     1      -8.503   0.879  -0.153  1.00  0.00     0.180 C 
HETATM   30  C32 UNL     1      -8.152  -0.345  -1.004  1.00  0.00     0.183 C 
HETATM   31  C33 UNL     1      -7.291   0.053  -2.204  1.00  0.00     0.204 C 
BRANCH  28  32
HETATM   32  C30 UNL     1      -6.497   1.119   1.409  1.00  0.00     0.198 C 
BRANCH  32  33
HETATM   33  O6  UNL     1      -5.486   2.039   1.820  1.00  0.00    -0.398 OA
HETATM   34  H44 UNL     1      -4.966   2.235   1.020  1.00  0.00     0.209 HD
ENDBRANCH  32  33
ENDBRANCH  28  32
BRANCH  29  35
HETATM   35  O7  UNL     1      -9.435   1.685  -0.906  1.00  0.00    -0.390 OA
HETATM   36  H46 UNL     1      -8.940   2.018  -1.687  1.00  0.00     0.210 HD
ENDBRANCH  29  35
BRANCH  30  37
HETATM   37  O8  UNL     1      -9.363  -0.951  -1.495  1.00  0.00    -0.390 OA
HETATM   38  H48 UNL     1     -10.066  -0.278  -1.370  1.00  0.00     0.210 HD
ENDBRANCH  30  37
BRANCH  31  39
HETATM   39  O9  UNL     1      -8.077   0.835  -3.123  1.00  0.00    -0.388 OA
HETATM   40  H50 UNL     1      -8.846   0.267  -3.334  1.00  0.00     0.210 HD
ENDBRANCH  31  39
ENDBRANCH  25  26
ENDBRANCH  21  25
BRANCH   1  41
HETATM   41  C2  UNL     1       5.052   0.563   2.262  1.00  0.00    -0.010 C 
HETATM   42  C1  UNL     1       4.874   2.075   2.090  1.00  0.00     0.010 C 
BRANCH  41  43
HETATM   43  C3  UNL     1       6.531   0.181   1.977  1.00  0.00     0.031 C 
BRANCH  43  44
HETATM   44  C4  UNL     1       7.000   0.432   0.568  1.00  0.00    -0.027 C 
HETATM   45  C5  UNL     1       7.920   1.361   0.252  1.00  0.00     0.006 C 
BRANCH  45  46
HETATM   46  C6  UNL     1       8.472   1.698  -1.112  1.00  0.00     0.068 C 
HETATM   47  C7  UNL     1       9.974   1.403  -1.141  1.00  0.00     0.050 C 
HETATM   48  C8  UNL     1       7.776   1.010  -2.290  1.00  0.00     0.050 C 
BRANCH  46  49
HETATM   49  O1  UNL     1       8.282   3.107  -1.265  1.00  0.00    -0.387 OA
HETATM   50  H15 UNL     1       8.800   3.399  -2.033  1.00  0.00     0.211 HD
ENDBRANCH  46  49
ENDBRANCH  45  46
ENDBRANCH  43  44
ENDBRANCH  41  43
ENDBRANCH   1  41
TORSDOF 12
