REMARK  10 active torsions:
REMARK  status: ('A' for Active; 'I' for Inactive)
REMARK    1  A    between atoms: C2_2  and  C3_4 
REMARK    2  A    between atoms: C10_12  and  O3_13 
REMARK    3  A    between atoms: C13_16  and  C14_17 
REMARK    4  A    between atoms: C14_17  and  C16_19 
REMARK    5  A    between atoms: C16_19  and  C17_20 
REMARK    6  A    between atoms: C17_20  and  C18_21 
REMARK    7  A    between atoms: C26_29  and  C27_30 
REMARK    8  A    between atoms: C27_30  and  C28_31 
REMARK    9  A    between atoms: C28_31  and  C29_32 
REMARK   10  A    between atoms: C29_32  and  O4_33 
ROOT
HETATM    1  C3  UNL     1      -4.821   0.843   0.088  1.00  0.00     0.151 A 
HETATM    2  O2  UNL     1      -4.501   2.161  -0.405  1.00  0.00    -0.360 OA
HETATM    3  C4  UNL     1      -4.187   1.901   0.958  1.00  0.00     0.166 A 
HETATM    4  C5  UNL     1      -2.767   1.707   1.339  1.00  0.00     0.041 C 
HETATM    5  C6  UNL     1      -1.829   1.279   0.186  1.00  0.00     0.006 C 
HETATM    6  C7  UNL     1      -2.457   0.243  -0.864  1.00  0.00    -0.030 C 
HETATM    7  C8  UNL     1      -2.615   0.923  -2.261  1.00  0.00     0.016 C 
HETATM    8  C9  UNL     1      -1.510  -0.987  -1.097  1.00  0.00     0.042 C 
HETATM    9  C10 UNL     1       0.018  -0.754  -1.183  1.00  0.00     0.128 C 
HETATM   10  C11 UNL     1       0.552   0.492  -0.437  1.00  0.00    -0.006 C 
HETATM   11  C12 UNL     1       0.703   1.661  -1.467  1.00  0.00     0.019 C 
HETATM   12  C13 UNL     1       1.929   0.377   0.320  1.00  0.00     0.001 C 
HETATM   13  C22 UNL     1       1.825   1.509   1.388  1.00  0.00     0.007 C 
HETATM   14  C23 UNL     1       0.354   1.949   1.461  1.00  0.00     0.011 C 
HETATM   15  C24 UNL     1      -0.431   0.834   0.744  1.00  0.00    -0.029 C 
HETATM   16  C25 UNL     1      -0.607  -0.315   1.794  1.00  0.00     0.016 C 
HETATM   17  C26 UNL     1      -3.886  -0.288  -0.363  1.00  0.00     0.039 C 
ENDROOT
BRANCH  12  18
HETATM   18  C14 UNL     1       3.269   0.450  -0.482  1.00  0.00    -0.013 C 
HETATM   19  C15 UNL     1       3.362  -0.635  -1.561  1.00  0.00     0.010 C 
BRANCH  18  20
HETATM   20  C16 UNL     1       4.481   0.340   0.486  1.00  0.00     0.008 C 
BRANCH  20  21
HETATM   21  C17 UNL     1       5.840   0.571  -0.187  1.00  0.00     0.028 C 
BRANCH  21  22
HETATM   22  C18 UNL     1       6.943   0.648   0.834  1.00  0.00    -0.025 C 
HETATM   23  C19 UNL     1       7.864  -0.291   1.127  1.00  0.00    -0.091 C 
HETATM   24  C20 UNL     1       7.939  -1.657   0.502  1.00  0.00     0.042 C 
HETATM   25  C21 UNL     1       8.921  -0.029   2.168  1.00  0.00     0.042 C 
ENDBRANCH  21  22
ENDBRANCH  20  21
ENDBRANCH  18  20
ENDBRANCH  12  18
BRANCH   9  26
HETATM   26  O3  UNL     1       0.642  -1.942  -0.689  1.00  0.00    -0.395 OA
HETATM   27  H14 UNL     1       0.379  -2.677  -1.270  1.00  0.00     0.210 HD
ENDBRANCH   9  26
BRANCH  17  28
HETATM   28  C27 UNL     1      -4.586  -1.230  -1.388  1.00  0.00     0.011 C 
BRANCH  28  29
HETATM   29  C28 UNL     1      -5.529  -2.303  -0.827  1.00  0.00     0.027 C 
BRANCH  29  30
HETATM   30  C29 UNL     1      -4.897  -3.224   0.208  1.00  0.00     0.164 C 
BRANCH  30  31
HETATM   31  O4  UNL     1      -5.769  -4.325   0.429  1.00  0.00    -0.401 OA
HETATM   32  H48 UNL     1      -5.410  -4.829   1.179  1.00  0.00     0.209 HD
ENDBRANCH  30  31
ENDBRANCH  29  30
ENDBRANCH  28  29
ENDBRANCH  17  28
BRANCH   1  33
HETATM   33  C2  UNL     1      -6.267   0.608   0.369  1.00  0.00     0.160 C 
HETATM   34  C1  UNL     1      -7.247   1.135  -0.638  1.00  0.00     0.094 C 
HETATM   35  O1  UNL     1      -6.602   0.044   1.405  1.00  0.00    -0.295 OA
ENDBRANCH   1  33
TORSDOF 10
