REMARK  12 active torsions:
REMARK  status: ('A' for Active; 'I' for Inactive)
REMARK    1  A    between atoms: C3_3  and  O1_4 
REMARK    2  A    between atoms: N1_14  and  O2_16 
REMARK    3  A    between atoms: O2_16  and  C13_17 
REMARK    4  A    between atoms: C13_17  and  C14_18 
REMARK       I    between atoms: C14_18  and  N2_20 
REMARK    5  A    between atoms: N2_20  and  C15_21 
REMARK    6  A    between atoms: C15_21  and  C16_22 
REMARK    7  A    between atoms: C15_21  and  C27_38 
REMARK       I    between atoms: C16_22  and  N3_24 
REMARK    8  A    between atoms: N3_24  and  C17_25 
REMARK    9  A    between atoms: C17_25  and  C18_26 
REMARK   10  A    between atoms: C17_25  and  C20_30 
REMARK   11  A    between atoms: C18_26  and  C19_27 
REMARK   12  A    between atoms: C19_27  and  O6_29 
ROOT
HETATM    1  C1  UNL     1     -10.387   3.654   2.647  1.00  0.00     0.015 C 
HETATM    2  C2  UNL     1      -9.734   2.669   2.431  1.00  0.00    -0.078 C 
HETATM    3  C3  UNL     1      -8.936   1.457   2.181  1.00  0.00     0.128 C 
HETATM    4  C4  UNL     1      -9.799   0.193   2.238  1.00  0.00     0.052 C 
HETATM    5  C5  UNL     1      -8.889  -0.857   1.614  1.00  0.00     0.010 C 
HETATM    6  C6  UNL     1      -8.312  -0.140   0.390  1.00  0.00     0.002 C 
HETATM    7  C7  UNL     1      -7.042  -0.764  -0.239  1.00  0.00    -0.004 C 
HETATM    8  C8  UNL     1      -5.996  -1.337   0.734  1.00  0.00     0.010 C 
HETATM    9  C9  UNL     1      -4.814  -1.970  -0.006  1.00  0.00     0.035 C 
HETATM   10  C10 UNL     1      -4.211  -1.087  -1.078  1.00  0.00    -0.069 C 
HETATM   11  C11 UNL     1      -2.873  -0.975  -1.179  1.00  0.00     0.030 C 
HETATM   12  C12 UNL     1      -2.231  -0.235  -2.306  1.00  0.00     0.032 C 
HETATM   13  N1  UNL     1      -0.964   0.014  -2.435  1.00  0.00    -0.271 N 
ATOM     14  H1  UNL     1      -0.560   0.521  -3.223  1.00  0.00     0.194 HD
HETATM   15  C30 UNL     1      -3.133   0.219  -3.436  1.00  0.00     0.060 C 
HETATM   16  C31 UNL     1      -4.476   0.679  -2.891  1.00  0.00     0.020 C 
HETATM   17  C32 UNL     1      -5.191  -0.405  -2.031  1.00  0.00    -0.016 C 
HETATM   18  C33 UNL     1      -5.749  -1.477  -3.004  1.00  0.00     0.020 C 
HETATM   19  C34 UNL     1      -6.381   0.240  -1.218  1.00  0.00     0.002 C 
HETATM   20  C35 UNL     1      -5.992   1.554  -0.483  1.00  0.00     0.007 C 
HETATM   21  C36 UNL     1      -6.795   1.884   0.779  1.00  0.00     0.014 C 
HETATM   22  C37 UNL     1      -8.249   1.381   0.764  1.00  0.00     0.003 C 
HETATM   23  C38 UNL     1      -9.046   2.180  -0.304  1.00  0.00     0.020 C 
ENDROOT
BRANCH   3  24
HETATM   24  O1  UNL     1      -7.964   1.345   3.224  1.00  0.00    -0.377 OA
HETATM   25  H2  UNL     1      -8.424   1.506   4.065  1.00  0.00     0.211 HD
ENDBRANCH   3  24
BRANCH  13  26
HETATM   26  O2  UNL     1      -0.214  -0.497  -1.362  1.00  0.00    -0.271 OA
BRANCH  26  27
HETATM   27  C13 UNL     1       1.161  -0.266  -1.624  1.00  0.00     0.303 C 
BRANCH  27  28
HETATM   28  C14 UNL     1       2.030  -0.969  -0.578  1.00  0.00     0.244 C 
HETATM   29  O3  UNL     1       1.844  -2.137  -0.251  1.00  0.00    -0.271 OA
HETATM   30  N2  UNL     1       3.023  -0.162  -0.041  1.00  0.00    -0.346 N 
HETATM   31  H16 UNL     1       3.196   0.702  -0.538  1.00  0.00     0.163 HD
BRANCH  30  32
HETATM   32  C15 UNL     1       4.182  -0.671   0.709  1.00  0.00     0.180 C 
BRANCH  32  33
HETATM   33  C16 UNL     1       5.245  -1.101  -0.342  1.00  0.00     0.241 C 
HETATM   34  O4  UNL     1       4.964  -1.632  -1.414  1.00  0.00    -0.271 OA
HETATM   35  N3  UNL     1       6.544  -0.773  -0.010  1.00  0.00    -0.354 N 
HETATM   36  H18 UNL     1       6.721  -0.292   0.871  1.00  0.00     0.162 HD
BRANCH  35  37
HETATM   37  C17 UNL     1       7.668  -0.973  -0.910  1.00  0.00     0.098 C 
BRANCH  37  38
HETATM   38  C18 UNL     1       8.131  -2.437  -0.997  1.00  0.00     0.135 C 
BRANCH  38  39
HETATM   39  C19 UNL     1       8.526  -3.095   0.295  1.00  0.00     0.141 C 
HETATM   40  O5  UNL     1       8.394  -2.678   1.431  1.00  0.00    -0.650 OA
BRANCH  39  41
HETATM   41  O6  UNL     1       9.085  -4.307   0.082  1.00  0.00    -0.776 OA
HETATM   42  H22 UNL     1       9.252  -4.656   0.981  1.00  0.00     0.167 HD
ENDBRANCH  39  41
ENDBRANCH  38  39
ENDBRANCH  37  38
BRANCH  37  43
HETATM   43  C20 UNL     1       8.814   0.076  -0.739  1.00  0.00     0.014 C 
HETATM   44  C21 UNL     1       9.638   0.024   0.549  1.00  0.00     0.033 C 
HETATM   45  C22 UNL     1       8.884   0.521   1.778  1.00  0.00     0.169 C 
HETATM   46  O7  UNL     1       7.690   1.234   1.445  1.00  0.00    -0.381 OA
HETATM   47  C23 UNL     1       7.836   2.202   0.393  1.00  0.00     0.054 C 
HETATM   48  C24 UNL     1       8.800   3.321   0.820  1.00  0.00     0.045 C 
HETATM   49  C25 UNL     1       6.448   2.827   0.195  1.00  0.00     0.045 C 
HETATM   50  C26 UNL     1       8.295   1.522  -0.922  1.00  0.00     0.044 C 
ENDBRANCH  37  43
ENDBRANCH  35  37
ENDBRANCH  32  33
BRANCH  32  51
HETATM   51  C27 UNL     1       3.894  -1.739   1.792  1.00  0.00     0.009 C 
HETATM   52  C28 UNL     1       5.155  -2.127   2.571  1.00  0.00     0.012 C 
HETATM   53  C29 UNL     1       2.839  -1.245   2.792  1.00  0.00     0.012 C 
ENDBRANCH  32  51
ENDBRANCH  30  32
ENDBRANCH  27  28
ENDBRANCH  26  27
ENDBRANCH  13  26
TORSDOF 12
