REMARK  16 active torsions:
REMARK  status: ('A' for Active; 'I' for Inactive)
REMARK    1  A    between atoms: S1_2  and  C2_3 
REMARK    2  A    between atoms: C2_3  and  C3_4 
REMARK    3  A    between atoms: C3_4  and  C4_5 
REMARK    4  A    between atoms: C4_5  and  N1_6 
REMARK    5  A    between atoms: C4_5  and  C33_44 
REMARK       I    between atoms: N1_6  and  C5_7 
REMARK    6  A    between atoms: C5_7  and  C6_9 
REMARK    7  A    between atoms: C6_9  and  N2_11 
REMARK       I    between atoms: N2_11  and  C8_12 
REMARK    8  A    between atoms: C8_12  and  C9_14 
REMARK    9  A    between atoms: C9_14  and  C10_15 
REMARK   10  A    between atoms: C10_15  and  C11_16 
REMARK   11  A    between atoms: C11_16  and  O4_18 
REMARK   12  A    between atoms: O4_18  and  C12_19 
REMARK   13  A    between atoms: C12_19  and  C13_20 
REMARK   14  A    between atoms: C13_20  and  C14_22 
REMARK   15  A    between atoms: C14_22  and  O6_23 
REMARK   16  A    between atoms: C33_44  and  O10_46 
ROOT
HETATM    1  C12 UNL     1       0.185   2.365  -0.698  1.00  0.00     0.260 C 
ENDROOT
BRANCH   1   2
HETATM    2  O4  UNL     1       1.048   1.783   0.274  1.00  0.00    -0.314 OA
BRANCH   2   3
HETATM    3  C11 UNL     1       1.561   0.568  -0.049  1.00  0.00     0.259 C 
HETATM    4  O3  UNL     1       1.166  -0.126  -0.976  1.00  0.00    -0.265 OA
BRANCH   3   5
HETATM    5  C10 UNL     1       2.619   0.148   0.938  1.00  0.00     0.120 C 
BRANCH   5   6
HETATM    6  C9  UNL     1       3.656  -0.741   0.262  1.00  0.00     0.112 C 
BRANCH   6   7
HETATM    7  C8  UNL     1       4.439   0.027  -0.782  1.00  0.00     0.218 C 
HETATM    8  N2  UNL     1       5.148  -0.768  -1.646  1.00  0.00    -0.348 N 
HETATM    9  H14 UNL     1       5.271  -1.749  -1.423  1.00  0.00     0.163 HD
HETATM   10  O2  UNL     1       4.478   1.253  -0.828  1.00  0.00    -0.274 OA
BRANCH   8  11
HETATM   11  C6  UNL     1       5.995  -0.204  -2.702  1.00  0.00     0.172 C 
HETATM   12  C7  UNL     1       5.985  -1.119  -3.920  1.00  0.00     0.042 C 
BRANCH  11  13
HETATM   13  C5  UNL     1       7.436   0.030  -2.194  1.00  0.00     0.240 C 
HETATM   14  N1  UNL     1       7.518   0.630  -0.953  1.00  0.00    -0.345 N 
HETATM   15  H9  UNL     1       6.679   1.092  -0.602  1.00  0.00     0.163 HD
HETATM   16  O1  UNL     1       8.435  -0.200  -2.873  1.00  0.00    -0.271 OA
BRANCH  14  17
HETATM   17  C4  UNL     1       8.800   1.017  -0.370  1.00  0.00     0.183 C 
BRANCH  17  18
HETATM   18  C3  UNL     1       9.569  -0.189   0.191  1.00  0.00     0.046 C 
BRANCH  18  19
HETATM   19  C2  UNL     1       8.845  -0.866   1.357  1.00  0.00     0.076 C 
BRANCH  19  20
HETATM   20  S1  UNL     1       9.660  -2.410   1.892  1.00  0.00    -0.173 SA
HETATM   21  C1  UNL     1      11.211  -1.741   2.537  1.00  0.00     0.089 C 
ENDBRANCH  19  20
ENDBRANCH  18  19
ENDBRANCH  17  18
BRANCH  17  22
HETATM   22  C33 UNL     1       8.568   2.073   0.708  1.00  0.00     0.163 C 
HETATM   23  O9  UNL     1       7.495   2.363   1.216  1.00  0.00    -0.648 OA
BRANCH  22  24
HETATM   24  O10 UNL     1       9.702   2.684   1.107  1.00  0.00    -0.775 OA
HETATM   25  H46 UNL     1       9.405   3.342   1.772  1.00  0.00     0.167 HD
ENDBRANCH  22  24
ENDBRANCH  17  22
ENDBRANCH  14  17
ENDBRANCH  11  13
ENDBRANCH   8  11
ENDBRANCH   6   7
ENDBRANCH   5   6
ENDBRANCH   3   5
ENDBRANCH   2   3
ENDBRANCH   1   2
BRANCH   1  26
HETATM   26  C13 UNL     1      -1.031   1.605  -1.244  1.00  0.00     0.185 C 
HETATM   27  O5  UNL     1      -1.326   1.704  -2.439  1.00  0.00    -0.292 OA
BRANCH  26  28
HETATM   28  C14 UNL     1      -1.865   0.718  -0.290  1.00  0.00     0.128 C 
HETATM   29  C15 UNL     1      -1.686   1.004   1.227  1.00  0.00     0.047 C 
HETATM   30  C16 UNL     1      -3.044   0.725   1.909  1.00  0.00     0.009 C 
HETATM   31  C17 UNL     1      -3.890   0.117   0.802  1.00  0.00     0.002 C 
HETATM   32  C18 UNL     1      -5.408  -0.039   0.998  1.00  0.00     0.003 C 
HETATM   33  C31 UNL     1      -3.414   0.862  -0.479  1.00  0.00     0.005 C 
HETATM   34  C19 UNL     1      -6.155   1.210   1.506  1.00  0.00     0.010 C 
HETATM   35  C28 UNL     1      -6.034  -0.687  -0.277  1.00  0.00     0.072 C 
HETATM   36  C20 UNL     1      -7.572   1.353   0.948  1.00  0.00     0.035 C 
HETATM   37  C21 UNL     1      -8.214  -0.003   0.886  1.00  0.00    -0.067 C 
HETATM   38  C22 UNL     1      -9.218  -0.333   1.715  1.00  0.00     0.053 C 
HETATM   39  C26 UNL     1      -7.576  -0.978  -0.103  1.00  0.00    -0.009 C 
HETATM   40  C23 UNL     1      -9.776  -1.706   1.758  1.00  0.00     0.149 C 
HETATM   41  O7  UNL     1     -10.747  -1.937   2.473  1.00  0.00    -0.293 OA
HETATM   42  C24 UNL     1      -9.139  -2.780   0.911  1.00  0.00     0.084 C 
HETATM   43  C25 UNL     1      -7.717  -2.414   0.492  1.00  0.00     0.022 C 
HETATM   44  C27 UNL     1      -8.360  -0.930  -1.431  1.00  0.00     0.021 C 
HETATM   45  C29 UNL     1      -5.538   0.102  -1.506  1.00  0.00     0.133 C 
HETATM   46  O8  UNL     1      -6.274   0.695  -2.290  1.00  0.00    -0.297 OA
HETATM   47  C30 UNL     1      -4.024   0.141  -1.691  1.00  0.00     0.091 C 
HETATM   48  C32 UNL     1      -3.809   2.361  -0.543  1.00  0.00     0.019 C 
BRANCH  28  49
HETATM   49  O6  UNL     1      -1.509  -0.654  -0.521  1.00  0.00    -0.381 OA
HETATM   50  H21 UNL     1      -0.581  -0.689  -0.843  1.00  0.00     0.211 HD
ENDBRANCH  28  49
ENDBRANCH  26  28
ENDBRANCH   1  26
TORSDOF 16
