REMARK  4 active torsions:
REMARK  status: ('A' for Active; 'I' for Inactive)
REMARK    1  A    between atoms: C4_4  and  C5_5 
REMARK    2  A    between atoms: C5_5  and  C6_7 
REMARK    3  A    between atoms: C6_7  and  C7_8 
REMARK    4  A    between atoms: C7_8  and  C9_10 
ROOT
HETATM    1  C9  UNL     1       2.356  -0.395  -0.673  1.00  0.00    -0.001 C 
HETATM    2  C10 UNL     1       2.343  -1.732   0.125  1.00  0.00     0.007 C 
HETATM    3  C11 UNL     1       0.911  -1.934   0.661  1.00  0.00     0.015 C 
HETATM    4  C12 UNL     1       0.214  -0.576   0.442  1.00  0.00    -0.013 C 
HETATM    5  C13 UNL     1       0.614   0.319   1.661  1.00  0.00     0.021 C 
HETATM    6  C14 UNL     1      -1.311  -0.552   0.384  1.00  0.00    -0.070 C 
HETATM    7  C15 UNL     1      -2.071  -1.378   1.127  1.00  0.00    -0.022 C 
HETATM    8  C16 UNL     1      -3.569  -1.320   1.200  1.00  0.00     0.034 C 
HETATM    9  C17 UNL     1      -4.216  -0.400   0.141  1.00  0.00     0.013 C 
HETATM   10  C18 UNL     1      -5.780  -0.232   0.256  1.00  0.00     0.018 C 
HETATM   11  C19 UNL     1      -6.373  -0.853   1.540  1.00  0.00     0.023 C 
HETATM   12  C20 UNL     1      -6.459  -0.932  -0.944  1.00  0.00     0.023 C 
HETATM   13  C21 UNL     1      -6.226   1.237   0.195  1.00  0.00     0.135 C 
HETATM   14  O2  UNL     1      -7.197   1.650   0.835  1.00  0.00    -0.297 OA
HETATM   15  C22 UNL     1      -5.523   2.181  -0.751  1.00  0.00     0.080 C 
HETATM   16  C23 UNL     1      -4.105   1.769  -1.108  1.00  0.00     0.017 C 
HETATM   17  C24 UNL     1      -3.397   0.931  -0.018  1.00  0.00    -0.031 C 
HETATM   18  C25 UNL     1      -3.319   1.735   1.303  1.00  0.00     0.016 C 
HETATM   19  C26 UNL     1      -1.950   0.522  -0.509  1.00  0.00     0.024 C 
HETATM   20  C27 UNL     1      -0.995   1.711  -0.778  1.00  0.00     0.010 C 
HETATM   21  C28 UNL     1       0.438   1.326  -1.222  1.00  0.00     0.011 C 
HETATM   22  C29 UNL     1       0.834  -0.139  -0.933  1.00  0.00    -0.029 C 
HETATM   23  C30 UNL     1       0.389  -1.034  -2.135  1.00  0.00     0.016 C 
ENDROOT
BRANCH   1  24
HETATM   24  C7  UNL     1       3.344  -0.428  -1.873  1.00  0.00    -0.007 C 
HETATM   25  C8  UNL     1       3.362   0.878  -2.675  1.00  0.00     0.011 C 
BRANCH  24  26
HETATM   26  C6  UNL     1       4.782  -0.830  -1.465  1.00  0.00     0.087 C 
BRANCH  26  27
HETATM   27  C5  UNL     1       5.468   0.055  -0.433  1.00  0.00     0.149 C 
HETATM   28  O1  UNL     1       5.102   1.195  -0.169  1.00  0.00    -0.293 OA
BRANCH  27  29
HETATM   29  C4  UNL     1       6.681  -0.539   0.214  1.00  0.00     0.052 C 
HETATM   30  C2  UNL     1       7.152  -0.222   1.435  1.00  0.00    -0.084 C 
HETATM   31  C1  UNL     1       8.420  -0.851   1.950  1.00  0.00     0.043 C 
HETATM   32  C3  UNL     1       6.506   0.747   2.390  1.00  0.00     0.043 C 
ENDBRANCH  27  29
ENDBRANCH  26  27
ENDBRANCH  24  26
ENDBRANCH   1  24
TORSDOF 4
