REMARK  9 active torsions:
REMARK  status: ('A' for Active; 'I' for Inactive)
REMARK    1  A    between atoms: C2_2  and  C30_35 
REMARK    2  A    between atoms: C3_3  and  C4_4 
REMARK    3  A    between atoms: C4_4  and  O1_5 
REMARK    4  A    between atoms: C4_4  and  C5_6 
REMARK    5  A    between atoms: C5_6  and  C6_7 
REMARK    6  A    between atoms: C6_7  and  C8_9 
REMARK    7  A    between atoms: C10_11  and  O2_12 
REMARK    8  A    between atoms: C29_33  and  O5_34 
REMARK    9  A    between atoms: C30_35  and  O7_37 
ROOT
HETATM    1  C8  UNL     1       1.796  -0.788  -0.661  1.00  0.00     0.001 C 
HETATM    2  C9  UNL     1       1.637  -1.998   0.310  1.00  0.00     0.038 C 
HETATM    3  C10 UNL     1       0.253  -1.868   0.968  1.00  0.00     0.132 C 
HETATM    4  C11 UNL     1      -0.535  -0.917   0.032  1.00  0.00     0.017 C 
HETATM    5  C12 UNL     1      -1.007  -1.734  -1.218  1.00  0.00     0.023 C 
HETATM    6  C13 UNL     1      -1.809  -0.213   0.526  1.00  0.00    -0.029 C 
HETATM    7  C14 UNL     1      -2.198   0.974  -0.016  1.00  0.00     0.002 C 
HETATM    8  C15 UNL     1      -1.268   1.678  -0.997  1.00  0.00     0.157 C 
HETATM    9  O3  UNL     1      -1.601   2.729  -1.543  1.00  0.00    -0.293 OA
HETATM   10  C16 UNL     1       0.090   1.081  -1.346  1.00  0.00     0.094 C 
HETATM   11  C17 UNL     1       0.598   0.137  -0.260  1.00  0.00    -0.019 C 
HETATM   12  C18 UNL     1       0.988   0.992   0.987  1.00  0.00     0.017 C 
HETATM   13  C19 UNL     1      -3.553   1.662   0.303  1.00  0.00    -0.008 C 
HETATM   14  C20 UNL     1      -3.234   2.825   1.281  1.00  0.00     0.021 C 
HETATM   15  C21 UNL     1      -4.246   2.272  -0.960  1.00  0.00     0.022 C 
HETATM   16  C22 UNL     1      -5.763   2.340  -0.864  1.00  0.00     0.080 C 
HETATM   17  C23 UNL     1      -6.356   0.960  -0.716  1.00  0.00     0.135 C 
HETATM   18  O4  UNL     1      -7.482   0.720  -1.159  1.00  0.00    -0.297 OA
HETATM   19  C24 UNL     1      -5.521  -0.097   0.029  1.00  0.00     0.018 C 
HETATM   20  C25 UNL     1      -6.513  -0.988   0.812  1.00  0.00     0.023 C 
HETATM   21  C26 UNL     1      -4.844  -0.979  -1.029  1.00  0.00     0.023 C 
HETATM   22  C27 UNL     1      -4.570   0.680   1.009  1.00  0.00     0.016 C 
HETATM   23  C28 UNL     1      -3.848  -0.167   2.059  1.00  0.00     0.043 C 
HETATM   24  C29 UNL     1      -2.673  -0.967   1.516  1.00  0.00     0.149 C 
ENDROOT
BRANCH   1  25
HETATM   25  C6  UNL     1       3.257  -0.238  -0.663  1.00  0.00    -0.011 C 
HETATM   26  C7  UNL     1       3.420   0.979  -1.578  1.00  0.00     0.010 C 
BRANCH  25  27
HETATM   27  C5  UNL     1       4.241  -1.359  -1.103  1.00  0.00     0.040 C 
BRANCH  27  28
HETATM   28  C4  UNL     1       5.740  -1.049  -0.943  1.00  0.00     0.142 C 
BRANCH  28  29
HETATM   29  C3  UNL     1       6.128  -0.784   0.482  1.00  0.00     0.018 C 
HETATM   30  C2  UNL     1       7.031   0.113   0.929  1.00  0.00     0.010 C 
HETATM   31  C1  UNL     1       7.878   1.019   0.088  1.00  0.00     0.055 C 
BRANCH  30  32
HETATM   32  C30 UNL     1       7.192   0.189   2.402  1.00  0.00     0.171 C 
HETATM   33  O6  UNL     1       6.433  -0.273   3.237  1.00  0.00    -0.646 OA
BRANCH  32  34
HETATM   34  O7  UNL     1       8.313   0.839   2.761  1.00  0.00    -0.773 OA
HETATM   35  H44 UNL     1       8.293   0.809   3.740  1.00  0.00     0.167 HD
ENDBRANCH  32  34
ENDBRANCH  30  32
ENDBRANCH  28  29
BRANCH  28  36
HETATM   36  O1  UNL     1       6.471  -2.192  -1.387  1.00  0.00    -0.392 OA
HETATM   37  H6  UNL     1       6.479  -2.848  -0.667  1.00  0.00     0.210 HD
ENDBRANCH  28  36
ENDBRANCH  27  28
ENDBRANCH  25  27
ENDBRANCH   1  25
BRANCH   3  38
HETATM   38  O2  UNL     1      -0.370  -3.136   1.137  1.00  0.00    -0.394 OA
HETATM   39  H17 UNL     1       0.268  -3.711   1.601  1.00  0.00     0.210 HD
ENDBRANCH   3  38
BRANCH  24  40
HETATM   40  O5  UNL     1      -1.912  -1.337   2.658  1.00  0.00    -0.391 OA
HETATM   41  H43 UNL     1      -1.656  -2.269   2.516  1.00  0.00     0.210 HD
ENDBRANCH  24  40
TORSDOF 9
