REMARK  5 active torsions:
REMARK  status: ('A' for Active; 'I' for Inactive)
REMARK    1  A    between atoms: C2_2  and  C3_3 
REMARK    2  A    between atoms: C2_2  and  C9_10 
REMARK    3  A    between atoms: C3_3  and  C4_4 
REMARK    4  A    between atoms: C5_5  and  C6_6 
REMARK    5  A    between atoms: C6_6  and  O1_9 
ROOT
HETATM    1  C9  UNL     1       1.882  -1.347   0.937  1.00  0.00    -0.002 C 
HETATM    2  C10 UNL     1       1.449  -2.134   2.210  1.00  0.00     0.006 C 
HETATM    3  C11 UNL     1      -0.058  -1.878   2.408  1.00  0.00     0.011 C 
HETATM    4  C12 UNL     1      -0.542  -1.311   1.056  1.00  0.00    -0.032 C 
HETATM    5  C13 UNL     1      -0.755  -2.549   0.120  1.00  0.00     0.016 C 
HETATM    6  C14 UNL     1      -1.852  -0.462   1.116  1.00  0.00     0.003 C 
HETATM    7  C15 UNL     1      -3.092  -1.314   1.492  1.00  0.00     0.007 C 
HETATM    8  C16 UNL     1      -4.363  -0.469   1.514  1.00  0.00     0.011 C 
HETATM    9  C17 UNL     1      -4.723   0.156   0.123  1.00  0.00    -0.030 C 
HETATM   10  C18 UNL     1      -5.215   1.600   0.398  1.00  0.00     0.016 C 
HETATM   11  C19 UNL     1      -3.478   0.077  -0.833  1.00  0.00     0.003 C 
HETATM   12  C20 UNL     1      -3.738   0.713  -2.217  1.00  0.00     0.013 C 
HETATM   13  C21 UNL     1      -5.178   0.631  -2.705  1.00  0.00     0.079 C 
HETATM   14  C22 UNL     1      -5.993  -0.459  -2.054  1.00  0.00     0.131 C 
HETATM   15  O2  UNL     1      -6.798  -1.109  -2.734  1.00  0.00    -0.298 OA
HETATM   16  C23 UNL     1      -5.865  -0.697  -0.551  1.00  0.00     0.060 C 
HETATM   17  C24 UNL     1      -7.257  -0.550   0.073  1.00  0.00     0.018 C 
HETATM   18  C25 UNL     1      -2.078   0.440  -0.183  1.00  0.00    -0.035 C 
HETATM   19  C26 UNL     1      -2.034   1.947   0.203  1.00  0.00     0.016 C 
HETATM   20  C27 UNL     1      -0.945   0.251  -1.253  1.00  0.00     0.011 C 
HETATM   21  C28 UNL     1       0.512   0.148  -0.754  1.00  0.00     0.011 C 
HETATM   22  C29 UNL     1       0.680  -0.380   0.686  1.00  0.00    -0.032 C 
HETATM   23  C30 UNL     1       0.831   0.848   1.637  1.00  0.00     0.016 C 
ENDROOT
BRANCH   1  24
HETATM   24  C2  UNL     1       3.373  -0.892   0.959  1.00  0.00    -0.010 C 
HETATM   25  C1  UNL     1       3.802   0.079   2.068  1.00  0.00     0.010 C 
BRANCH  24  26
HETATM   26  C3  UNL     1       3.820  -0.379  -0.432  1.00  0.00     0.031 C 
BRANCH  26  27
HETATM   27  C4  UNL     1       5.310  -0.208  -0.560  1.00  0.00    -0.027 C 
HETATM   28  C5  UNL     1       5.900   0.886  -1.066  1.00  0.00     0.006 C 
BRANCH  28  29
HETATM   29  C6  UNL     1       7.389   1.099  -1.234  1.00  0.00     0.068 C 
HETATM   30  C7  UNL     1       7.797   2.506  -0.786  1.00  0.00     0.050 C 
HETATM   31  C8  UNL     1       7.801   0.867  -2.691  1.00  0.00     0.050 C 
BRANCH  29  32
HETATM   32  O1  UNL     1       8.101   0.155  -0.431  1.00  0.00    -0.387 OA
HETATM   33  H15 UNL     1       7.939   0.402   0.501  1.00  0.00     0.211 HD
ENDBRANCH  29  32
ENDBRANCH  28  29
ENDBRANCH  26  27
ENDBRANCH  24  26
ENDBRANCH   1  24
TORSDOF 5
