REMARK  8 active torsions:
REMARK  status: ('A' for Active; 'I' for Inactive)
REMARK    1  A    between atoms: C2_2  and  C30_34 
REMARK    2  A    between atoms: C3_3  and  C4_4 
REMARK    3  A    between atoms: C4_4  and  O1_5 
REMARK    4  A    between atoms: C4_4  and  C5_6 
REMARK    5  A    between atoms: C5_6  and  C6_7 
REMARK    6  A    between atoms: C6_7  and  C8_9 
REMARK    7  A    between atoms: C10_11  and  O2_12 
REMARK    8  A    between atoms: C30_34  and  O6_36 
ROOT
HETATM    1  C8  UNL     1       1.947  -0.911  -0.476  1.00  0.00     0.001 C 
HETATM    2  C9  UNL     1       2.253  -0.753   1.044  1.00  0.00     0.038 C 
HETATM    3  C10 UNL     1       0.937  -0.363   1.745  1.00  0.00     0.131 C 
HETATM    4  C11 UNL     1      -0.165  -0.677   0.700  1.00  0.00     0.014 C 
HETATM    5  C12 UNL     1      -0.498  -2.201   0.767  1.00  0.00     0.023 C 
HETATM    6  C13 UNL     1      -1.518   0.020   0.795  1.00  0.00    -0.058 C 
HETATM    7  C14 UNL     1      -2.298   0.244  -0.294  1.00  0.00    -0.000 C 
HETATM    8  C15 UNL     1      -1.747  -0.140  -1.657  1.00  0.00     0.157 C 
HETATM    9  O3  UNL     1      -2.437  -0.069  -2.673  1.00  0.00    -0.293 OA
HETATM   10  C16 UNL     1      -0.308  -0.628  -1.797  1.00  0.00     0.094 C 
HETATM   11  C17 UNL     1       0.561  -0.206  -0.614  1.00  0.00    -0.019 C 
HETATM   12  C18 UNL     1       0.776   1.341  -0.689  1.00  0.00     0.017 C 
HETATM   13  C19 UNL     1      -3.654   0.973  -0.159  1.00  0.00    -0.008 C 
HETATM   14  C20 UNL     1      -3.297   2.492  -0.152  1.00  0.00     0.021 C 
HETATM   15  C21 UNL     1      -4.634   0.766  -1.352  1.00  0.00     0.022 C 
HETATM   16  C22 UNL     1      -6.069   1.149  -1.032  1.00  0.00     0.080 C 
HETATM   17  C23 UNL     1      -6.622   0.236   0.028  1.00  0.00     0.135 C 
HETATM   18  O4  UNL     1      -7.827  -0.025   0.048  1.00  0.00    -0.297 OA
HETATM   19  C24 UNL     1      -5.645  -0.326   1.071  1.00  0.00     0.018 C 
HETATM   20  C25 UNL     1      -5.285  -1.766   0.660  1.00  0.00     0.023 C 
HETATM   21  C26 UNL     1      -6.415  -0.385   2.413  1.00  0.00     0.023 C 
HETATM   22  C27 UNL     1      -4.397   0.628   1.205  1.00  0.00     0.014 C 
HETATM   23  C28 UNL     1      -3.466   0.155   2.346  1.00  0.00     0.011 C 
HETATM   24  C29 UNL     1      -1.989   0.442   2.160  1.00  0.00     0.036 C 
ENDROOT
BRANCH   1  25
HETATM   25  C6  UNL     1       3.151  -0.458  -1.360  1.00  0.00    -0.011 C 
HETATM   26  C7  UNL     1       2.847  -0.569  -2.858  1.00  0.00     0.010 C 
BRANCH  25  27
HETATM   27  C5  UNL     1       4.412  -1.298  -1.014  1.00  0.00     0.040 C 
BRANCH  27  28
HETATM   28  C4  UNL     1       5.733  -0.856  -1.669  1.00  0.00     0.142 C 
BRANCH  28  29
HETATM   29  C3  UNL     1       6.071   0.595  -1.459  1.00  0.00     0.018 C 
HETATM   30  C2  UNL     1       6.836   1.176  -0.513  1.00  0.00     0.010 C 
HETATM   31  C1  UNL     1       7.166   2.637  -0.519  1.00  0.00     0.055 C 
BRANCH  30  32
HETATM   32  C30 UNL     1       7.439   0.430   0.608  1.00  0.00     0.171 C 
HETATM   33  O5  UNL     1       8.603   0.495   0.962  1.00  0.00    -0.646 OA
BRANCH  32  34
HETATM   34  O6  UNL     1       6.519  -0.236   1.328  1.00  0.00    -0.773 OA
HETATM   35  H44 UNL     1       7.066  -0.682   2.006  1.00  0.00     0.167 HD
ENDBRANCH  32  34
ENDBRANCH  30  32
ENDBRANCH  28  29
BRANCH  28  36
HETATM   36  O1  UNL     1       6.796  -1.672  -1.189  1.00  0.00    -0.392 OA
HETATM   37  H6  UNL     1       6.570  -2.595  -1.395  1.00  0.00     0.210 HD
ENDBRANCH  28  36
ENDBRANCH  27  28
ENDBRANCH  25  27
ENDBRANCH   1  25
BRANCH   3  38
HETATM   38  O2  UNL     1       0.801  -1.092   2.956  1.00  0.00    -0.394 OA
HETATM   39  H17 UNL     1       1.571  -0.880   3.514  1.00  0.00     0.210 HD
ENDBRANCH   3  38
TORSDOF 8
