REMARK  9 active torsions:
REMARK  status: ('A' for Active; 'I' for Inactive)
REMARK    1  A    between atoms: C12_14  and  C13_15 
REMARK    2  A    between atoms: C13_15  and  C15_17 
REMARK    3  A    between atoms: C15_17  and  C16_18 
REMARK    4  A    between atoms: C16_18  and  C17_19 
REMARK    5  A    between atoms: C18_20  and  C20_22 
REMARK    6  A    between atoms: C26_29  and  C27_30 
REMARK    7  A    between atoms: C27_30  and  C28_31 
REMARK    8  A    between atoms: C28_31  and  C29_32 
REMARK    9  A    between atoms: C29_32  and  O5_34 
ROOT
HETATM    1  C1  UNL     1      -6.421  -0.107  -0.203  1.00  0.00     0.025 C 
HETATM    2  C2  UNL     1      -5.527  -0.829   0.485  1.00  0.00     0.015 C 
HETATM    3  C3  UNL     1      -5.852  -2.178   0.995  1.00  0.00     0.289 C 
HETATM    4  O1  UNL     1      -6.941  -2.721   0.963  1.00  0.00    -0.260 OA
HETATM    5  O2  UNL     1      -4.721  -2.706   1.529  1.00  0.00    -0.311 OA
HETATM    6  C4  UNL     1      -3.581  -1.878   1.227  1.00  0.00     0.142 C 
HETATM    7  C5  UNL     1      -2.771  -2.572   0.140  1.00  0.00     0.039 C 
HETATM    8  C6  UNL     1      -1.623  -1.749  -0.464  1.00  0.00     0.006 C 
HETATM    9  C7  UNL     1      -2.014  -0.282  -0.765  1.00  0.00    -0.027 A 
HETATM   10  C8  UNL     1      -0.860   0.596  -1.290  1.00  0.00     0.011 C 
HETATM   11  C9  UNL     1       0.502   0.388  -0.608  1.00  0.00     0.011 C 
HETATM   12  C10 UNL     1       0.870  -1.101  -0.531  1.00  0.00    -0.032 C 
HETATM   13  C11 UNL     1       1.014  -1.642  -1.981  1.00  0.00     0.016 C 
HETATM   14  C12 UNL     1       2.149  -1.484   0.287  1.00  0.00    -0.002 C 
HETATM   15  C21 UNL     1       1.836  -2.930   0.782  1.00  0.00     0.006 C 
HETATM   16  C22 UNL     1       0.343  -3.196   0.513  1.00  0.00     0.011 C 
HETATM   17  C23 UNL     1      -0.272  -1.802   0.317  1.00  0.00    -0.032 C 
HETATM   18  C24 UNL     1      -0.464  -1.189   1.742  1.00  0.00     0.016 C 
HETATM   19  C25 UNL     1      -3.289  -0.072  -1.547  1.00  0.00     0.022 A 
HETATM   20  C26 UNL     1      -3.274   0.339  -0.084  1.00  0.00    -0.021 A 
HETATM   21  C30 UNL     1      -4.125  -0.499   0.882  1.00  0.00     0.063 C 
ENDROOT
BRANCH  14  22
HETATM   22  C13 UNL     1       3.604  -1.318  -0.252  1.00  0.00    -0.014 C 
HETATM   23  C14 UNL     1       4.037  -2.248  -1.396  1.00  0.00     0.010 C 
BRANCH  22  24
HETATM   24  C15 UNL     1       3.990   0.130  -0.629  1.00  0.00     0.008 C 
BRANCH  24  25
HETATM   25  C16 UNL     1       3.907   1.124   0.533  1.00  0.00     0.028 C 
BRANCH  25  26
HETATM   26  C17 UNL     1       4.361   2.493   0.103  1.00  0.00    -0.017 C 
HETATM   27  C18 UNL     1       5.515   3.102   0.434  1.00  0.00    -0.028 C 
HETATM   28  C19 UNL     1       6.627   2.552   1.272  1.00  0.00     0.051 C 
BRANCH  27  29
HETATM   29  C20 UNL     1       5.733   4.477  -0.102  1.00  0.00     0.265 C 
HETATM   30  O3  UNL     1       6.742   5.128   0.138  1.00  0.00    -0.302 OA
ENDBRANCH  27  29
ENDBRANCH  25  26
ENDBRANCH  24  25
ENDBRANCH  22  24
ENDBRANCH  14  22
BRANCH  20  31
HETATM   31  C27 UNL     1      -3.229   1.824   0.311  1.00  0.00     0.021 C 
BRANCH  31  32
HETATM   32  C28 UNL     1      -3.675   2.807  -0.765  1.00  0.00     0.111 C 
BRANCH  32  33
HETATM   33  C29 UNL     1      -3.727   4.197  -0.204  1.00  0.00     0.139 C 
HETATM   34  O4  UNL     1      -4.716   4.762   0.229  1.00  0.00    -0.650 OA
BRANCH  33  35
HETATM   35  O5  UNL     1      -2.523   4.799  -0.186  1.00  0.00    -0.776 OA
HETATM   36  H41 UNL     1      -2.703   5.682   0.201  1.00  0.00     0.167 HD
ENDBRANCH  33  35
ENDBRANCH  32  33
ENDBRANCH  31  32
ENDBRANCH  20  31
TORSDOF 9
