REMARK  6 active torsions:
REMARK  status: ('A' for Active; 'I' for Inactive)
REMARK    1  A    between atoms: C4_4  and  C5_5 
REMARK    2  A    between atoms: C5_5  and  O1_6 
REMARK    3  A    between atoms: C5_5  and  C6_7 
REMARK    4  A    between atoms: C6_7  and  C7_8 
REMARK    5  A    between atoms: C7_8  and  C9_10 
REMARK    6  A    between atoms: C30_32  and  O3_33 
ROOT
HETATM    1  C9  UNL     1       2.021   0.291   0.440  1.00  0.00    -0.002 C 
HETATM    2  C10 UNL     1       1.958  -1.005   1.298  1.00  0.00     0.007 C 
HETATM    3  C11 UNL     1       0.480  -1.396   1.439  1.00  0.00     0.015 C 
HETATM    4  C12 UNL     1      -0.312  -0.136   1.045  1.00  0.00    -0.010 C 
HETATM    5  C13 UNL     1      -0.319   0.795   2.299  1.00  0.00     0.021 C 
HETATM    6  C14 UNL     1      -1.791  -0.230   0.633  1.00  0.00    -0.039 C 
HETATM    7  C15 UNL     1      -2.319   0.711  -0.196  1.00  0.00    -0.066 C 
HETATM    8  C16 UNL     1      -1.421   1.787  -0.834  1.00  0.00     0.036 C 
HETATM    9  C17 UNL     1       0.084   1.776  -0.515  1.00  0.00     0.015 C 
HETATM   10  C18 UNL     1       0.579   0.375  -0.156  1.00  0.00    -0.029 C 
HETATM   11  C19 UNL     1       0.480  -0.536  -1.417  1.00  0.00     0.016 C 
HETATM   12  C20 UNL     1      -3.841   0.776  -0.563  1.00  0.00    -0.015 C 
HETATM   13  C21 UNL     1      -4.284   2.257  -0.449  1.00  0.00     0.020 C 
HETATM   14  C22 UNL     1      -3.985   0.285  -2.028  1.00  0.00     0.021 C 
HETATM   15  C23 UNL     1      -5.421   0.185  -2.510  1.00  0.00     0.080 C 
HETATM   16  C24 UNL     1      -6.230  -0.709  -1.604  1.00  0.00     0.135 C 
HETATM   17  O2  UNL     1      -6.913  -1.618  -2.079  1.00  0.00    -0.297 OA
HETATM   18  C25 UNL     1      -6.235  -0.378  -0.106  1.00  0.00     0.018 C 
HETATM   19  C26 UNL     1      -7.169   0.832   0.113  1.00  0.00     0.023 C 
HETATM   20  C27 UNL     1      -6.902  -1.551   0.659  1.00  0.00     0.023 C 
HETATM   21  C28 UNL     1      -4.745  -0.117   0.388  1.00  0.00     0.016 C 
HETATM   22  C29 UNL     1      -4.023  -1.451   0.656  1.00  0.00     0.043 C 
HETATM   23  C30 UNL     1      -2.642  -1.290   1.280  1.00  0.00     0.148 C 
ENDROOT
BRANCH   1  24
HETATM   24  C7  UNL     1       3.274   0.308  -0.495  1.00  0.00    -0.011 C 
HETATM   25  C8  UNL     1       3.326   1.561  -1.372  1.00  0.00     0.010 C 
BRANCH  24  26
HETATM   26  C6  UNL     1       4.571   0.161   0.362  1.00  0.00     0.040 C 
BRANCH  26  27
HETATM   27  C5  UNL     1       5.893   0.167  -0.427  1.00  0.00     0.141 C 
BRANCH  27  28
HETATM   28  C4  UNL     1       7.015  -0.463   0.362  1.00  0.00     0.006 C 
HETATM   29  C2  UNL     1       8.217  -0.848  -0.118  1.00  0.00    -0.089 C 
HETATM   30  C1  UNL     1       8.653  -0.686  -1.550  1.00  0.00     0.042 C 
HETATM   31  C3  UNL     1       9.247  -1.476   0.783  1.00  0.00     0.042 C 
ENDBRANCH  27  28
BRANCH  27  32
HETATM   32  O1  UNL     1       6.262   1.512  -0.713  1.00  0.00    -0.392 OA
HETATM   33  H9  UNL     1       6.876   1.805  -0.019  1.00  0.00     0.210 HD
ENDBRANCH  27  32
ENDBRANCH  26  27
ENDBRANCH  24  26
ENDBRANCH   1  24
BRANCH  23  34
HETATM   34  O3  UNL     1      -2.018  -2.565   1.183  1.00  0.00    -0.391 OA
HETATM   35  H48 UNL     1      -2.598  -3.210   1.618  1.00  0.00     0.210 HD
ENDBRANCH  23  34
TORSDOF 6
