REMARK  13 active torsions:
REMARK  status: ('A' for Active; 'I' for Inactive)
REMARK    1  A    between atoms: C2_2  and  C3_3 
REMARK    2  A    between atoms: C2_2  and  C26_30 
REMARK    3  A    between atoms: C4_4  and  C5_5 
REMARK    4  A    between atoms: C5_5  and  C7_7 
REMARK    5  A    between atoms: C9_9  and  O1_10 
REMARK    6  A    between atoms: C20_21  and  O2_22 
REMARK    7  A    between atoms: C23_25  and  O3_26 
REMARK    8  A    between atoms: C25_28  and  O4_29 
REMARK    9  A    between atoms: C26_30  and  C28_32 
REMARK       I    between atoms: C28_32  and  N1_34 
REMARK   10  A    between atoms: N1_34  and  C29_35 
REMARK   11  A    between atoms: C29_35  and  C30_36 
REMARK   12  A    between atoms: C30_36  and  O6_37 
REMARK   13  A    between atoms: O6_37  and  S1_38 
ROOT
HETATM    1  C7  UNL     1       0.577  -0.790   1.777  1.00  0.00     0.005 C 
HETATM    2  C8  UNL     1       0.221  -1.016   3.275  1.00  0.00     0.038 C 
HETATM    3  C9  UNL     1      -1.315  -0.944   3.370  1.00  0.00     0.126 C 
HETATM    4  C10 UNL     1      -1.781  -0.743   1.929  1.00  0.00     0.059 C 
HETATM    5  C11 UNL     1      -0.624   0.066   1.256  1.00  0.00    -0.015 C 
HETATM    6  C12 UNL     1      -0.479   1.540   1.691  1.00  0.00     0.018 C 
HETATM    7  C13 UNL     1      -0.887   0.026  -0.263  1.00  0.00     0.123 A 
HETATM    8  C14 UNL     1      -2.291   0.557  -0.624  1.00  0.00     0.122 A 
HETATM    9  C15 UNL     1      -3.424  -0.206   0.110  1.00  0.00     0.046 C 
HETATM   10  C16 UNL     1      -4.885   0.197  -0.336  1.00  0.00    -0.030 C 
HETATM   11  C17 UNL     1      -5.155   1.703  -0.089  1.00  0.00     0.016 C 
HETATM   12  C18 UNL     1      -5.066  -0.071  -1.869  1.00  0.00     0.012 C 
HETATM   13  C19 UNL     1      -6.362  -0.795  -2.259  1.00  0.00     0.032 C 
HETATM   14  C20 UNL     1      -7.581  -0.349  -1.461  1.00  0.00     0.118 C 
HETATM   15  C21 UNL     1      -7.363  -0.418   0.055  1.00  0.00     0.039 C 
HETATM   16  C22 UNL     1      -5.897  -0.699   0.448  1.00  0.00     0.025 C 
HETATM   17  C23 UNL     1      -5.687  -0.650   1.971  1.00  0.00     0.126 C 
HETATM   18  C24 UNL     1      -4.265  -1.079   2.342  1.00  0.00     0.071 C 
HETATM   19  C25 UNL     1      -3.201  -0.208   1.659  1.00  0.00     0.073 C 
HETATM   20 NA1  UNL     1       0.000   0.000   0.000  1.00  0.00    -0.420 Na
ATOM     21  HA1 UNL     1       0.973  -0.131   0.277  1.00  0.00     0.153 HD
ENDROOT
BRANCH   1  22
HETATM   22  C5  UNL     1       2.060  -0.392   1.528  1.00  0.00     0.009 C 
HETATM   23  C6  UNL     1       2.631   0.744   2.389  1.00  0.00     0.014 C 
BRANCH  22  24
HETATM   24  C4  UNL     1       2.346  -0.260   0.047  1.00  0.00    -0.026 C 
HETATM   25  C3  UNL     1       2.827   0.808  -0.609  1.00  0.00    -0.025 C 
BRANCH  25  26
HETATM   26  C2  UNL     1       3.103   0.811  -2.104  1.00  0.00     0.016 C 
HETATM   27  C1  UNL     1       2.375   2.012  -2.719  1.00  0.00     0.015 C 
BRANCH  26  28
HETATM   28  C26 UNL     1       4.631   0.828  -2.362  1.00  0.00     0.081 C 
HETATM   29  C27 UNL     1       4.996   1.092  -3.827  1.00  0.00     0.020 C 
BRANCH  28  30
HETATM   30  C28 UNL     1       5.276  -0.505  -1.961  1.00  0.00     0.222 C 
HETATM   31  O5  UNL     1       4.676  -1.575  -1.963  1.00  0.00    -0.273 OA
HETATM   32  N1  UNL     1       6.623  -0.389  -1.677  1.00  0.00    -0.359 N 
HETATM   33  H46 UNL     1       6.986   0.535  -1.479  1.00  0.00     0.162 HD
BRANCH  32  34
HETATM   34  C29 UNL     1       7.386  -1.512  -1.156  1.00  0.00     0.150 C 
BRANCH  34  35
HETATM   35  C30 UNL     1       8.886  -1.293  -1.294  1.00  0.00     0.212 C 
BRANCH  35  36
HETATM   36  O6  UNL     1       9.572  -2.292  -0.565  1.00  0.00    -0.255 OA
BRANCH  36  37
HETATM   37  S1  UNL     1      11.197  -2.158  -0.492  1.00  0.00     0.251 S 
HETATM   38  O7  UNL     1      11.609  -2.262  -1.890  1.00  0.00    -0.572 OA
HETATM   39  O8  UNL     1      11.408  -0.840   0.103  1.00  0.00    -0.572 OA
HETATM   40  O9  UNL     1      11.594  -3.279   0.353  1.00  0.00    -0.572 OA
ENDBRANCH  36  37
ENDBRANCH  35  36
ENDBRANCH  34  35
ENDBRANCH  32  34
ENDBRANCH  28  30
ENDBRANCH  26  28
ENDBRANCH  25  26
ENDBRANCH  22  24
ENDBRANCH   1  22
BRANCH   3  41
HETATM   41  O1  UNL     1      -1.730   0.138   4.198  1.00  0.00    -0.395 OA
HETATM   42  H15 UNL     1      -1.367  -0.033   5.087  1.00  0.00     0.210 HD
ENDBRANCH   3  41
BRANCH  19  43
HETATM   43  O4  UNL     1      -3.334   1.103   2.200  1.00  0.00    -0.389 OA
HETATM   44  H41 UNL     1      -2.916   1.076   3.091  1.00  0.00     0.210 HD
ENDBRANCH  19  43
BRANCH  17  45
HETATM   45  O3  UNL     1      -6.585  -1.563   2.610  1.00  0.00    -0.395 OA
HETATM   46  H38 UNL     1      -7.387  -1.057   2.831  1.00  0.00     0.210 HD
ENDBRANCH  17  45
BRANCH  14  47
HETATM   47  O2  UNL     1      -7.943   0.983  -1.820  1.00  0.00    -0.396 OA
HETATM   48  H33 UNL     1      -8.016   1.021  -2.788  1.00  0.00     0.210 HD
ENDBRANCH  14  47
TORSDOF 13
