REMARK  10 active torsions:
REMARK  status: ('A' for Active; 'I' for Inactive)
REMARK    1  A    between atoms: C14_14  and  C15_15 
REMARK    2  A    between atoms: C15_15  and  C17_17 
REMARK    3  A    between atoms: C17_17  and  C18_18 
REMARK    4  A    between atoms: C18_18  and  C19_19 
REMARK    5  A    between atoms: C20_20  and  C22_22 
REMARK    6  A    between atoms: C22_22  and  O2_24 
REMARK    7  A    between atoms: C27_29  and  C28_30 
REMARK    8  A    between atoms: C28_30  and  C29_31 
REMARK    9  A    between atoms: C29_31  and  C30_32 
REMARK   10  A    between atoms: C30_32  and  O3_33 
ROOT
HETATM    1  C1  UNL     1      -5.513  -2.773   0.493  1.00  0.00     0.043 C 
HETATM    2  C2  UNL     1      -5.000  -1.553  -0.242  1.00  0.00    -0.085 C 
HETATM    3  C3  UNL     1      -5.570  -1.460  -1.639  1.00  0.00     0.043 C 
HETATM    4  C4  UNL     1      -4.140  -0.651   0.305  1.00  0.00    -0.073 C 
HETATM    5  C5  UNL     1      -3.611  -0.829   1.711  1.00  0.00     0.035 C 
HETATM    6  C6  UNL     1      -2.379  -0.008   2.088  1.00  0.00     0.010 C 
HETATM    7  C7  UNL     1      -1.366   0.293   0.966  1.00  0.00     0.003 C 
HETATM    8  C8  UNL     1      -2.030   0.683  -0.432  1.00  0.00    -0.032 C 
HETATM    9  C9  UNL     1      -1.654   2.132  -0.855  1.00  0.00     0.016 C 
HETATM   10  C10 UNL     1      -1.496  -0.234  -1.596  1.00  0.00     0.011 C 
HETATM   11  C11 UNL     1       0.012  -0.556  -1.654  1.00  0.00     0.011 C 
HETATM   12  C12 UNL     1       0.756  -0.440  -0.316  1.00  0.00    -0.032 C 
HETATM   13  C13 UNL     1       1.380   0.981  -0.175  1.00  0.00     0.016 C 
HETATM   14  C14 UNL     1       1.889  -1.494  -0.098  1.00  0.00    -0.002 C 
HETATM   15  C23 UNL     1       2.039  -1.539   1.446  1.00  0.00     0.006 C 
HETATM   16  C24 UNL     1       0.777  -0.855   2.033  1.00  0.00     0.011 C 
HETATM   17  C25 UNL     1      -0.231  -0.797   0.857  1.00  0.00    -0.032 C 
HETATM   18  C26 UNL     1      -0.865  -2.226   0.786  1.00  0.00     0.016 C 
HETATM   19  C27 UNL     1      -3.618   0.576  -0.436  1.00  0.00     0.023 C 
ENDROOT
BRANCH  14  20
HETATM   20  C15 UNL     1       3.178  -1.522  -0.970  1.00  0.00    -0.014 C 
HETATM   21  C16 UNL     1       3.966  -2.814  -0.679  1.00  0.00     0.010 C 
BRANCH  20  22
HETATM   22  C17 UNL     1       4.150  -0.323  -1.028  1.00  0.00     0.008 C 
BRANCH  22  23
HETATM   23  C18 UNL     1       4.960   0.004   0.231  1.00  0.00     0.028 C 
BRANCH  23  24
HETATM   24  C19 UNL     1       5.896   1.154  -0.031  1.00  0.00    -0.013 C 
HETATM   25  C20 UNL     1       7.244   1.136  -0.065  1.00  0.00     0.008 C 
HETATM   26  C21 UNL     1       8.120  -0.055   0.178  1.00  0.00     0.055 C 
BRANCH  25  27
HETATM   27  C22 UNL     1       7.911   2.430  -0.363  1.00  0.00     0.171 C 
HETATM   28  O1  UNL     1       7.385   3.528  -0.406  1.00  0.00    -0.646 OA
BRANCH  27  29
HETATM   29  O2  UNL     1       9.226   2.287  -0.602  1.00  0.00    -0.773 OA
HETATM   30  H35 UNL     1       9.524   3.204  -0.775  1.00  0.00     0.167 HD
ENDBRANCH  27  29
ENDBRANCH  25  27
ENDBRANCH  23  24
ENDBRANCH  22  23
ENDBRANCH  20  22
ENDBRANCH  14  20
BRANCH  19  31
HETATM   31  C28 UNL     1      -4.483   1.839  -0.130  1.00  0.00     0.012 C 
BRANCH  31  32
HETATM   32  C29 UNL     1      -4.410   2.468   1.261  1.00  0.00     0.027 C 
BRANCH  32  33
HETATM   33  C30 UNL     1      -5.199   3.772   1.356  1.00  0.00     0.164 C 
BRANCH  33  34
HETATM   34  O3  UNL     1      -6.587   3.550   1.149  1.00  0.00    -0.401 OA
HETATM   35  H50 UNL     1      -6.720   3.404   0.196  1.00  0.00     0.209 HD
ENDBRANCH  33  34
ENDBRANCH  32  33
ENDBRANCH  31  32
ENDBRANCH  19  31
TORSDOF 10
