REMARK  14 active torsions:
REMARK  status: ('A' for Active; 'I' for Inactive)
REMARK    1  A    between atoms: O1_2  and  C2_3 
REMARK    2  A    between atoms: C2_3  and  C3_4 
REMARK    3  A    between atoms: C3_4  and  C4_5 
REMARK    4  A    between atoms: C4_5  and  O2_6 
REMARK    5  A    between atoms: O2_6  and  C5_7 
REMARK    6  A    between atoms: C20_23  and  C21_24 
REMARK    7  A    between atoms: C21_24  and  O4_26 
REMARK    8  A    between atoms: C21_24  and  C23_27 
REMARK    9  A    between atoms: C23_27  and  O5_28 
REMARK   10  A    between atoms: C23_27  and  C24_29 
REMARK   11  A    between atoms: C25_31  and  C26_32 
REMARK   12  A    between atoms: C26_32  and  O7_33 
REMARK   13  A    between atoms: C27_34  and  C28_35 
REMARK   14  A    between atoms: C37_44  and  O8_45 
ROOT
HETATM    1  C5  UNL     1       6.744  -0.469  -0.607  1.00  0.00     0.122 C 
HETATM    2  C6  UNL     1       6.459   0.511   0.533  1.00  0.00     0.033 C 
HETATM    3  C7  UNL     1       5.006   0.460   1.008  1.00  0.00     0.013 C 
HETATM    4  C8  UNL     1       3.956   0.614  -0.138  1.00  0.00    -0.026 C 
HETATM    5  C9  UNL     1       4.065   2.053  -0.702  1.00  0.00     0.016 C 
HETATM    6  C10 UNL     1       4.271  -0.422  -1.248  1.00  0.00     0.071 C 
HETATM    7  C11 UNL     1       5.725  -0.317  -1.742  1.00  0.00     0.045 C 
HETATM    8  C12 UNL     1       3.992  -1.853  -0.786  1.00  0.00     0.154 C 
HETATM    9  O3  UNL     1       4.620  -2.827  -1.199  1.00  0.00    -0.293 OA
HETATM   10  C13 UNL     1       2.868  -2.101   0.141  1.00  0.00     0.057 C 
HETATM   11  C14 UNL     1       2.169  -1.089   0.673  1.00  0.00    -0.037 C 
HETATM   12  C15 UNL     1       2.518   0.383   0.460  1.00  0.00     0.026 C 
HETATM   13  C16 UNL     1       1.343   1.049  -0.297  1.00  0.00     0.011 C 
HETATM   14  C17 UNL     1      -0.027   0.814   0.388  1.00  0.00     0.014 C 
HETATM   15  C18 UNL     1      -0.319  -0.686   0.645  1.00  0.00    -0.002 C 
HETATM   16  C19 UNL     1      -0.532  -1.390  -0.722  1.00  0.00     0.019 C 
HETATM   17  C20 UNL     1      -1.495  -1.000   1.635  1.00  0.00     0.034 C 
HETATM   18  C35 UNL     1      -1.100  -2.408   2.199  1.00  0.00     0.012 C 
HETATM   19  C36 UNL     1       0.377  -2.659   1.848  1.00  0.00     0.044 C 
HETATM   20  C37 UNL     1       0.889  -1.278   1.449  1.00  0.00     0.089 C 
ENDROOT
BRANCH  17  21
HETATM   21  C21 UNL     1      -2.996  -0.916   1.176  1.00  0.00     0.087 C 
HETATM   22  C22 UNL     1      -3.903  -1.245   2.385  1.00  0.00     0.049 C 
BRANCH  21  23
HETATM   23  O4  UNL     1      -3.260  -1.907   0.177  1.00  0.00    -0.387 OA
HETATM   24  H34 UNL     1      -3.313  -2.778   0.605  1.00  0.00     0.210 HD
ENDBRANCH  21  23
BRANCH  21  25
HETATM   25  C23 UNL     1      -3.367   0.487   0.596  1.00  0.00     0.181 C 
BRANCH  25  26
HETATM   26  O5  UNL     1      -2.993   1.514   1.533  1.00  0.00    -0.390 OA
HETATM   27  H36 UNL     1      -3.413   2.329   1.191  1.00  0.00     0.210 HD
ENDBRANCH  25  26
BRANCH  25  28
HETATM   28  C24 UNL     1      -4.858   0.707   0.262  1.00  0.00     0.158 C 
HETATM   29  O6  UNL     1      -5.052   2.086  -0.143  1.00  0.00    -0.375 OA
HETATM   30  C25 UNL     1      -6.375   2.159  -0.722  1.00  0.00     0.150 C 
HETATM   31  C27 UNL     1      -6.781   0.719  -1.124  1.00  0.00     0.027 C 
HETATM   32  C33 UNL     1      -5.494  -0.090  -0.873  1.00  0.00     0.020 C 
HETATM   33  C34 UNL     1      -4.648  -0.130  -2.153  1.00  0.00     0.013 C 
BRANCH  30  34
HETATM   34  C26 UNL     1      -6.354   3.146  -1.891  1.00  0.00     0.196 C 
BRANCH  34  35
HETATM   35  O7  UNL     1      -7.653   3.299  -2.449  1.00  0.00    -0.398 OA
HETATM   36  H41 UNL     1      -7.580   3.967  -3.152  1.00  0.00     0.209 HD
ENDBRANCH  34  35
ENDBRANCH  30  34
BRANCH  31  37
HETATM   37  C28 UNL     1      -7.975   0.206  -0.285  1.00  0.00    -0.007 C 
HETATM   38  C29 UNL     1      -9.278   0.966  -0.545  1.00  0.00     0.005 C 
HETATM   39  C30 UNL     1     -10.346   0.063   0.056  1.00  0.00     0.000 C 
HETATM   40  C31 UNL     1      -9.830  -1.361  -0.133  1.00  0.00     0.000 C 
HETATM   41  C32 UNL     1      -8.384  -1.235  -0.609  1.00  0.00     0.005 C 
ENDBRANCH  31  37
ENDBRANCH  25  28
ENDBRANCH  21  25
ENDBRANCH  17  21
BRANCH  20  42
HETATM   42  O8  UNL     1       1.071  -0.567   2.685  1.00  0.00    -0.384 OA
HETATM   43  H60 UNL     1       1.802  -0.996   3.159  1.00  0.00     0.211 HD
ENDBRANCH  20  42
BRANCH   1  44
HETATM   44  O2  UNL     1       8.038  -0.199  -1.156  1.00  0.00    -0.386 OA
BRANCH  44  45
HETATM   45  C4  UNL     1       9.088  -0.878  -0.468  1.00  0.00     0.170 C 
BRANCH  45  46
HETATM   46  C3  UNL     1      10.425  -0.446  -1.053  1.00  0.00     0.052 C 
BRANCH  46  47
HETATM   47  C2  UNL     1      10.678   1.046  -0.844  1.00  0.00     0.169 C 
BRANCH  47  48
HETATM   48  O1  UNL     1      12.007   1.405  -1.228  1.00  0.00    -0.396 OA
HETATM   49  C1  UNL     1      12.152   1.575  -2.632  1.00  0.00     0.201 C 
ENDBRANCH  47  48
ENDBRANCH  46  47
ENDBRANCH  45  46
ENDBRANCH  44  45
ENDBRANCH   1  44
TORSDOF 14
