REMARK  10 active torsions:
REMARK  status: ('A' for Active; 'I' for Inactive)
REMARK    1  A    between atoms: C3_3  and  O1_4 
REMARK    2  A    between atoms: N1_14  and  O2_16 
REMARK    3  A    between atoms: O2_16  and  C13_17 
REMARK    4  A    between atoms: C13_17  and  C14_18 
REMARK       I    between atoms: C14_18  and  N2_20 
REMARK    5  A    between atoms: N2_20  and  C15_21 
REMARK    6  A    between atoms: C15_21  and  C16_22 
REMARK       I    between atoms: C16_22  and  N3_24 
REMARK    7  A    between atoms: N3_24  and  C17_25 
REMARK    8  A    between atoms: C17_25  and  C18_26 
REMARK    9  A    between atoms: C17_25  and  C19_29 
REMARK   10  A    between atoms: C18_26  and  O6_28 
ROOT
HETATM    1  C1  UNL     1      -8.018   1.546  -5.972  1.00  0.00     0.015 C 
HETATM    2  C2  UNL     1      -7.487   1.925  -4.962  1.00  0.00    -0.078 C 
HETATM    3  C3  UNL     1      -6.836   2.410  -3.735  1.00  0.00     0.128 C 
HETATM    4  C4  UNL     1      -7.788   3.236  -2.864  1.00  0.00     0.052 C 
HETATM    5  C5  UNL     1      -7.040   3.341  -1.538  1.00  0.00     0.010 C 
HETATM    6  C6  UNL     1      -6.396   1.957  -1.354  1.00  0.00     0.002 C 
HETATM    7  C7  UNL     1      -5.087   1.912  -0.534  1.00  0.00    -0.004 C 
HETATM    8  C8  UNL     1      -4.038   2.997  -0.838  1.00  0.00     0.010 C 
HETATM    9  C9  UNL     1      -2.576   2.529  -0.903  1.00  0.00     0.035 C 
HETATM   10  C10 UNL     1      -2.181   1.375  -0.014  1.00  0.00    -0.069 C 
HETATM   11  C11 UNL     1      -0.892   1.212   0.334  1.00  0.00     0.030 C 
HETATM   12  C12 UNL     1      -0.433   0.011   1.083  1.00  0.00     0.032 C 
HETATM   13  N1  UNL     1       0.756   0.051   1.616  1.00  0.00    -0.271 N 
ATOM     14  H1  UNL     1       1.369   0.866   1.592  1.00  0.00     0.194 HD
HETATM   15  C22 UNL     1      -1.361  -1.190   1.191  1.00  0.00     0.060 C 
HETATM   16  C23 UNL     1      -2.635  -1.050   0.360  1.00  0.00     0.020 C 
HETATM   17  C24 UNL     1      -3.247   0.373   0.398  1.00  0.00    -0.016 C 
HETATM   18  C25 UNL     1      -3.678   0.693   1.858  1.00  0.00     0.020 C 
HETATM   19  C26 UNL     1      -4.492   0.480  -0.554  1.00  0.00     0.002 C 
HETATM   20  C27 UNL     1      -4.237  -0.023  -2.000  1.00  0.00     0.007 C 
HETATM   21  C28 UNL     1      -4.907   0.797  -3.107  1.00  0.00     0.014 C 
HETATM   22  C29 UNL     1      -6.329   1.287  -2.767  1.00  0.00     0.003 C 
HETATM   23  C30 UNL     1      -7.285   0.060  -2.756  1.00  0.00     0.020 C 
ENDROOT
BRANCH   3  24
HETATM   24  O1  UNL     1      -5.761   3.278  -4.114  1.00  0.00    -0.377 OA
HETATM   25  H2  UNL     1      -6.089   3.830  -4.844  1.00  0.00     0.211 HD
ENDBRANCH   3  24
BRANCH  13  26
HETATM   26  O2  UNL     1       1.086  -1.169   2.228  1.00  0.00    -0.271 OA
BRANCH  26  27
HETATM   27  C13 UNL     1       2.297  -1.018   2.953  1.00  0.00     0.303 C 
BRANCH  27  28
HETATM   28  C14 UNL     1       3.574  -0.944   2.104  1.00  0.00     0.244 C 
HETATM   29  O3  UNL     1       3.645  -1.269   0.924  1.00  0.00    -0.271 OA
HETATM   30  N2  UNL     1       4.665  -0.468   2.819  1.00  0.00    -0.350 N 
HETATM   31  H16 UNL     1       4.646  -0.627   3.823  1.00  0.00     0.163 HD
BRANCH  30  32
HETATM   32  C15 UNL     1       5.979  -0.423   2.208  1.00  0.00     0.225 C 
BRANCH  32  33
HETATM   33  C16 UNL     1       6.782  -1.687   2.532  1.00  0.00     0.236 C 
HETATM   34  O4  UNL     1       6.416  -2.529   3.354  1.00  0.00    -0.272 OA
HETATM   35  N3  UNL     1       7.982  -1.770   1.849  1.00  0.00    -0.345 N 
HETATM   36  H19 UNL     1       8.326  -0.912   1.437  1.00  0.00     0.163 HD
BRANCH  35  37
HETATM   37  C17 UNL     1       8.998  -2.756   2.245  1.00  0.00     0.185 C 
BRANCH  37  38
HETATM   38  C18 UNL     1       9.839  -2.119   3.356  1.00  0.00     0.163 C 
HETATM   39  O5  UNL     1      10.046  -0.922   3.504  1.00  0.00    -0.648 OA
BRANCH  38  40
HETATM   40  O6  UNL     1      10.377  -3.011   4.207  1.00  0.00    -0.775 OA
HETATM   41  H21 UNL     1      10.869  -2.463   4.856  1.00  0.00     0.167 HD
ENDBRANCH  38  40
ENDBRANCH  37  38
BRANCH  37  42
HETATM   42  C19 UNL     1       9.833  -3.204   1.027  1.00  0.00     0.010 C 
HETATM   43  C20 UNL     1      10.622  -4.482   1.332  1.00  0.00     0.012 C 
HETATM   44  C21 UNL     1      10.775  -2.121   0.493  1.00  0.00     0.012 C 
ENDBRANCH  37  42
ENDBRANCH  35  37
ENDBRANCH  32  33
ENDBRANCH  30  32
ENDBRANCH  27  28
ENDBRANCH  26  27
ENDBRANCH  13  26
TORSDOF 10
