REMARK  7 active torsions:
REMARK  status: ('A' for Active; 'I' for Inactive)
REMARK    1  A    between atoms: C2_2  and  C30_32 
REMARK    2  A    between atoms: C3_3  and  C4_4 
REMARK    3  A    between atoms: C4_4  and  O1_5 
REMARK    4  A    between atoms: C4_4  and  C5_6 
REMARK    5  A    between atoms: C5_6  and  C6_7 
REMARK    6  A    between atoms: C6_7  and  C8_9 
REMARK    7  A    between atoms: C30_32  and  O4_34 
ROOT
HETATM    1  C8  UNL     1       2.038  -0.698  -1.856  1.00  0.00    -0.002 C 
HETATM    2  C9  UNL     1       2.142  -2.091  -1.190  1.00  0.00     0.006 C 
HETATM    3  C10 UNL     1       0.812  -2.328  -0.444  1.00  0.00     0.011 C 
HETATM    4  C11 UNL     1      -0.155  -1.254  -0.989  1.00  0.00    -0.032 C 
HETATM    5  C12 UNL     1      -0.732  -1.811  -2.329  1.00  0.00     0.016 C 
HETATM    6  C13 UNL     1      -1.315  -0.874  -0.031  1.00  0.00     0.004 C 
HETATM    7  C14 UNL     1      -2.423  -1.936   0.066  1.00  0.00     0.007 C 
HETATM    8  C15 UNL     1      -3.441  -1.523   1.124  1.00  0.00     0.007 C 
HETATM    9  C16 UNL     1      -4.240  -0.295   0.663  1.00  0.00     0.010 C 
HETATM   10  C17 UNL     1      -5.264   0.255   1.709  1.00  0.00     0.018 C 
HETATM   11  C18 UNL     1      -6.620  -0.451   1.527  1.00  0.00     0.023 C 
HETATM   12  C19 UNL     1      -4.812   0.057   3.168  1.00  0.00     0.023 C 
HETATM   13  C20 UNL     1      -5.510   1.758   1.488  1.00  0.00     0.135 C 
HETATM   14  O2  UNL     1      -5.884   2.496   2.403  1.00  0.00    -0.297 OA
HETATM   15  C21 UNL     1      -5.412   2.313   0.084  1.00  0.00     0.080 C 
HETATM   16  C22 UNL     1      -4.211   1.804  -0.702  1.00  0.00     0.018 C 
HETATM   17  C23 UNL     1      -3.368   0.825   0.092  1.00  0.00    -0.026 A 
HETATM   18  C24 UNL     1      -2.219   1.389   0.881  1.00  0.00     0.021 A 
HETATM   19  C25 UNL     1      -1.905   0.529  -0.340  1.00  0.00    -0.027 A 
HETATM   20  C26 UNL     1      -1.373   1.252  -1.586  1.00  0.00     0.011 C 
HETATM   21  C27 UNL     1       0.111   1.059  -1.952  1.00  0.00     0.011 C 
HETATM   22  C28 UNL     1       0.823  -0.030  -1.143  1.00  0.00    -0.032 C 
HETATM   23  C29 UNL     1       1.259   0.592   0.210  1.00  0.00     0.016 C 
ENDROOT
BRANCH   1  24
HETATM   24  C6  UNL     1       3.361   0.067  -2.150  1.00  0.00    -0.011 C 
HETATM   25  C7  UNL     1       4.210  -0.752  -3.142  1.00  0.00     0.010 C 
BRANCH  24  26
HETATM   26  C5  UNL     1       4.260   0.631  -1.019  1.00  0.00     0.040 C 
BRANCH  26  27
HETATM   27  C4  UNL     1       4.808  -0.303   0.068  1.00  0.00     0.142 C 
BRANCH  27  28
HETATM   28  C3  UNL     1       5.746   0.444   0.981  1.00  0.00     0.018 C 
HETATM   29  C2  UNL     1       5.574   0.751   2.283  1.00  0.00     0.010 C 
HETATM   30  C1  UNL     1       4.366   0.430   3.114  1.00  0.00     0.055 C 
BRANCH  29  31
HETATM   31  C30 UNL     1       6.640   1.468   3.036  1.00  0.00     0.171 C 
HETATM   32  O3  UNL     1       6.582   1.785   4.212  1.00  0.00    -0.646 OA
BRANCH  31  33
HETATM   33  O4  UNL     1       7.734   1.740   2.308  1.00  0.00    -0.773 OA
HETATM   34  H46 UNL     1       8.325   2.203   2.939  1.00  0.00     0.167 HD
ENDBRANCH  31  33
ENDBRANCH  29  31
ENDBRANCH  27  28
BRANCH  27  35
HETATM   35  O1  UNL     1       5.555  -1.363  -0.516  1.00  0.00    -0.392 OA
HETATM   36  H6  UNL     1       6.069  -1.783   0.193  1.00  0.00     0.210 HD
ENDBRANCH  27  35
ENDBRANCH  26  27
ENDBRANCH  24  26
ENDBRANCH   1  24
TORSDOF 7
