REMARK  7 active torsions:
REMARK  status: ('A' for Active; 'I' for Inactive)
REMARK    1  A    between atoms: O1_2  and  C2_3 
REMARK    2  A    between atoms: C2_3  and  C3_5 
REMARK    3  A    between atoms: C5_7  and  C6_8 
REMARK    4  A    between atoms: C6_8  and  C7_9 
REMARK    5  A    between atoms: C7_9  and  C8_10 
REMARK    6  A    between atoms: C8_10  and  C10_12 
REMARK    7  A    between atoms: C17_19  and  O3_20 
ROOT
HETATM    1  C10 UNL     1       1.707  -1.908  -0.018  1.00  0.00    -0.002 C 
HETATM    2  C11 UNL     1       0.989  -3.249  -0.229  1.00  0.00     0.007 C 
HETATM    3  C12 UNL     1      -0.468  -2.873  -0.412  1.00  0.00     0.015 C 
HETATM    4  C13 UNL     1      -0.733  -1.831   0.698  1.00  0.00    -0.005 C 
HETATM    5  C14 UNL     1      -0.871  -2.565   2.066  1.00  0.00     0.021 C 
HETATM    6  C15 UNL     1      -2.035  -1.047   0.405  1.00  0.00     0.002 C 
HETATM    7  C16 UNL     1      -2.114   0.288   0.170  1.00  0.00    -0.032 C 
HETATM    8  C17 UNL     1      -0.828   1.092   0.046  1.00  0.00     0.149 C 
HETATM    9  C18 UNL     1       0.399   0.244  -0.290  1.00  0.00     0.047 C 
HETATM   10  C19 UNL     1       0.610  -0.965   0.661  1.00  0.00    -0.026 C 
HETATM   11  C20 UNL     1       0.998  -0.439   2.062  1.00  0.00     0.016 C 
HETATM   12  C21 UNL     1      -3.455   1.079  -0.042  1.00  0.00    -0.012 C 
HETATM   13  C22 UNL     1      -3.393   2.373   0.807  1.00  0.00     0.021 C 
HETATM   14  C23 UNL     1      -3.574   1.449  -1.545  1.00  0.00     0.021 C 
HETATM   15  C24 UNL     1      -4.888   2.120  -1.915  1.00  0.00     0.080 C 
HETATM   16  C25 UNL     1      -6.070   1.276  -1.502  1.00  0.00     0.135 C 
HETATM   17  O4  UNL     1      -6.967   1.038  -2.311  1.00  0.00    -0.297 OA
HETATM   18  C26 UNL     1      -6.133   0.817  -0.038  1.00  0.00     0.018 C 
HETATM   19  C27 UNL     1      -6.580   2.012   0.833  1.00  0.00     0.023 C 
HETATM   20  C28 UNL     1      -7.258  -0.241   0.100  1.00  0.00     0.023 C 
HETATM   21  C29 UNL     1      -4.718   0.231   0.384  1.00  0.00     0.020 C 
HETATM   22  C30 UNL     1      -4.560  -1.200  -0.142  1.00  0.00     0.090 C 
HETATM   23  C31 UNL     1      -3.293  -1.859   0.317  1.00  0.00     0.157 C 
HETATM   24  O5  UNL     1      -3.298  -3.071   0.526  1.00  0.00    -0.293 OA
ENDROOT
BRANCH   1  25
HETATM   25  C8  UNL     1       3.109  -2.079   0.639  1.00  0.00    -0.014 C 
HETATM   26  C9  UNL     1       3.895  -3.251   0.015  1.00  0.00     0.010 C 
BRANCH  25  27
HETATM   27  C7  UNL     1       3.996  -0.810   0.603  1.00  0.00     0.008 C 
BRANCH  27  28
HETATM   28  C6  UNL     1       4.323  -0.270  -0.795  1.00  0.00     0.028 C 
BRANCH  28  29
HETATM   29  C5  UNL     1       5.268   0.898  -0.706  1.00  0.00    -0.014 C 
HETATM   30  C3  UNL     1       6.574   0.922  -1.047  1.00  0.00     0.009 C 
HETATM   31  C4  UNL     1       7.362  -0.248  -1.565  1.00  0.00     0.054 C 
BRANCH  30  32
HETATM   32  C2  UNL     1       7.384   2.178  -0.930  1.00  0.00     0.288 C 
HETATM   33  O2  UNL     1       8.517   2.284  -1.381  1.00  0.00    -0.260 OA
BRANCH  32  34
HETATM   34  O1  UNL     1       6.713   3.151  -0.261  1.00  0.00    -0.323 OA
HETATM   35  C1  UNL     1       7.441   4.372  -0.129  1.00  0.00     0.213 C 
ENDBRANCH  32  34
ENDBRANCH  30  32
ENDBRANCH  28  29
ENDBRANCH  27  28
ENDBRANCH  25  27
ENDBRANCH   1  25
BRANCH   8  36
HETATM   36  O3  UNL     1      -0.618   1.819   1.248  1.00  0.00    -0.391 OA
HETATM   37  H25 UNL     1       0.197   2.337   1.139  1.00  0.00     0.210 HD
ENDBRANCH   8  36
TORSDOF 7
