REMARK  11 active torsions:
REMARK  status: ('A' for Active; 'I' for Inactive)
REMARK    1  A    between atoms: C3_3  and  O1_4 
REMARK    2  A    between atoms: N1_14  and  O2_16 
REMARK    3  A    between atoms: O2_16  and  C13_17 
REMARK    4  A    between atoms: C13_17  and  C14_18 
REMARK       I    between atoms: C14_18  and  N2_20 
REMARK    5  A    between atoms: N2_20  and  C15_21 
REMARK    6  A    between atoms: C15_21  and  C16_22 
REMARK    7  A    between atoms: C15_21  and  C17_25 
REMARK    8  A    between atoms: C16_22  and  O5_24 
REMARK    9  A    between atoms: C17_25  and  O6_26 
REMARK   10  A    between atoms: C17_25  and  C18_27 
REMARK   11  A    between atoms: C22_31  and  N3_32 
ROOT
HETATM    1  C1  UNL     1       9.701   1.715   1.504  1.00  0.00     0.015 C 
HETATM    2  C2  UNL     1       8.830   1.703   0.678  1.00  0.00    -0.078 C 
HETATM    3  C3  UNL     1       7.786   1.646  -0.359  1.00  0.00     0.128 C 
HETATM    4  C4  UNL     1       6.804   2.822  -0.277  1.00  0.00     0.052 C 
HETATM    5  C5  UNL     1       5.485   2.304  -0.867  1.00  0.00     0.010 C 
HETATM    6  C6  UNL     1       5.697   0.812  -1.195  1.00  0.00     0.002 C 
HETATM    7  C7  UNL     1       4.442  -0.085  -1.095  1.00  0.00    -0.004 C 
HETATM    8  C8  UNL     1       3.284   0.478  -1.931  1.00  0.00     0.010 C 
HETATM    9  C9  UNL     1       2.097  -0.477  -1.944  1.00  0.00     0.035 C 
HETATM   10  C10 UNL     1       1.633  -0.847  -0.555  1.00  0.00    -0.069 C 
HETATM   11  C11 UNL     1       0.316  -0.850  -0.279  1.00  0.00     0.030 C 
HETATM   12  C12 UNL     1      -0.217  -1.398   1.001  1.00  0.00     0.032 C 
HETATM   13  N1  UNL     1      -1.470  -1.608   1.278  1.00  0.00    -0.271 N 
ATOM     14  H1  UNL     1      -1.795  -2.012   2.156  1.00  0.00     0.194 HD
HETATM   15  C24 UNL     1       0.779  -1.852   2.047  1.00  0.00     0.060 C 
HETATM   16  C25 UNL     1       2.132  -1.184   1.883  1.00  0.00     0.020 C 
HETATM   17  C26 UNL     1       2.710  -1.286   0.443  1.00  0.00    -0.016 C 
HETATM   18  C27 UNL     1       3.066  -2.760   0.135  1.00  0.00     0.020 C 
HETATM   19  C28 UNL     1       3.976  -0.342   0.359  1.00  0.00     0.002 C 
HETATM   20  C29 UNL     1       5.160  -0.834   1.215  1.00  0.00     0.007 C 
HETATM   21  C30 UNL     1       6.353   0.119   1.161  1.00  0.00     0.014 C 
HETATM   22  C31 UNL     1       6.870   0.386  -0.277  1.00  0.00     0.003 C 
HETATM   23  C32 UNL     1       7.572  -0.874  -0.824  1.00  0.00     0.020 C 
ENDROOT
BRANCH   3  24
HETATM   24  O1  UNL     1       8.417   1.704  -1.641  1.00  0.00    -0.377 OA
HETATM   25  H2  UNL     1       9.098   2.401  -1.595  1.00  0.00     0.211 HD
ENDBRANCH   3  24
BRANCH  13  26
HETATM   26  O2  UNL     1      -2.325  -1.219   0.237  1.00  0.00    -0.271 OA
BRANCH  26  27
HETATM   27  C13 UNL     1      -3.307  -2.236   0.053  1.00  0.00     0.303 C 
BRANCH  27  28
HETATM   28  C14 UNL     1      -4.581  -1.621  -0.503  1.00  0.00     0.244 C 
HETATM   29  O3  UNL     1      -5.154  -2.057  -1.497  1.00  0.00    -0.271 OA
HETATM   30  N2  UNL     1      -5.092  -0.590   0.264  1.00  0.00    -0.342 N 
HETATM   31  H16 UNL     1      -4.419  -0.106   0.859  1.00  0.00     0.163 HD
BRANCH  30  32
HETATM   32  C15 UNL     1      -6.229   0.230  -0.212  1.00  0.00     0.216 C 
BRANCH  32  33
HETATM   33  C16 UNL     1      -5.927   1.709   0.031  1.00  0.00     0.166 C 
HETATM   34  O4  UNL     1      -6.622   2.659  -0.287  1.00  0.00    -0.648 OA
BRANCH  33  35
HETATM   35  O5  UNL     1      -4.766   1.923   0.699  1.00  0.00    -0.775 OA
HETATM   36  H18 UNL     1      -4.708   2.901   0.772  1.00  0.00     0.167 HD
ENDBRANCH  33  35
ENDBRANCH  32  33
BRANCH  32  37
HETATM   37  C17 UNL     1      -7.536  -0.133   0.535  1.00  0.00     0.184 C 
BRANCH  37  38
HETATM   38  O6  UNL     1      -7.608  -1.536   0.835  1.00  0.00    -0.388 OA
HETATM   39  H20 UNL     1      -6.690  -1.846   0.920  1.00  0.00     0.210 HD
ENDBRANCH  37  38
BRANCH  37  40
HETATM   40  C18 UNL     1      -8.791   0.206  -0.243  1.00  0.00    -0.025 A 
HETATM   41  C19 UNL     1      -9.143  -0.526  -1.391  1.00  0.00     0.010 A 
HETATM   42  C20 UNL     1     -10.307  -0.230  -2.107  1.00  0.00     0.003 A 
HETATM   43  C21 UNL     1     -11.142   0.804  -1.686  1.00  0.00     0.036 A 
HETATM   44  C22 UNL     1     -10.798   1.544  -0.549  1.00  0.00     0.103 A 
HETATM   45  C23 UNL     1      -9.630   1.251   0.173  1.00  0.00     0.045 A 
BRANCH  44  46
HETATM   46  N3  UNL     1     -11.676   2.635  -0.102  1.00  0.00    -0.116 N 
HETATM   47  O7  UNL     1     -12.700   2.859  -0.762  1.00  0.00    -0.532 OA
HETATM   48  O8  UNL     1     -11.345   3.268   0.911  1.00  0.00    -0.532 OA
ENDBRANCH  44  46
ENDBRANCH  37  40
ENDBRANCH  32  37
ENDBRANCH  30  32
ENDBRANCH  27  28
ENDBRANCH  26  27
ENDBRANCH  13  26
TORSDOF 11
