REMARK  10 active torsions:
REMARK  status: ('A' for Active; 'I' for Inactive)
REMARK    1  A    between atoms: C2_2  and  C4_4 
REMARK    2  A    between atoms: C7_7  and  C8_8 
REMARK    3  A    between atoms: C8_8  and  O2_10 
REMARK    4  A    between atoms: C21_23  and  O3_24 
REMARK    5  A    between atoms: O3_24  and  C22_25 
REMARK    6  A    between atoms: C24_28  and  O5_29 
REMARK    7  A    between atoms: C25_30  and  O6_31 
REMARK    8  A    between atoms: C26_32  and  O7_33 
REMARK    9  A    between atoms: C27_34  and  C29_36 
REMARK   10  A    between atoms: C29_36  and  O8_37 
ROOT
HETATM    1  C4  UNL     1      -5.714  -0.199  -0.163  1.00  0.00     0.019 C 
HETATM    2  C5  UNL     1      -6.877  -1.157   0.134  1.00  0.00     0.011 C 
HETATM    3  C6  UNL     1      -6.280  -2.263   0.995  1.00  0.00     0.021 C 
HETATM    4  C7  UNL     1      -4.749  -2.264   0.732  1.00  0.00     0.050 C 
HETATM    5  C9  UNL     1      -3.995  -1.976   2.049  1.00  0.00     0.022 C 
HETATM    6  C10 UNL     1      -2.524  -1.614   1.842  1.00  0.00     0.011 C 
HETATM    7  C11 UNL     1      -2.318  -0.364   0.938  1.00  0.00    -0.032 C 
HETATM    8  C12 UNL     1      -2.951   0.858   1.669  1.00  0.00     0.016 C 
HETATM    9  C13 UNL     1      -3.052  -0.652  -0.422  1.00  0.00     0.000 C 
HETATM   10  C14 UNL     1      -2.826   0.462  -1.445  1.00  0.00     0.006 C 
HETATM   11  C15 UNL     1      -1.344   0.746  -1.688  1.00  0.00     0.006 C 
HETATM   12  C16 UNL     1      -0.603   1.111  -0.385  1.00  0.00     0.003 C 
HETATM   13  C17 UNL     1       0.822   1.794  -0.610  1.00  0.00    -0.035 C 
HETATM   14  C18 UNL     1       0.497   3.222  -1.174  1.00  0.00     0.016 C 
HETATM   15  C19 UNL     1       1.670   1.056  -1.675  1.00  0.00     0.012 C 
HETATM   16  C20 UNL     1       3.088   1.603  -1.852  1.00  0.00     0.034 C 
HETATM   17  C21 UNL     1       3.882   1.631  -0.545  1.00  0.00     0.135 C 
HETATM   18  C27 UNL     1       3.155   2.413   0.593  1.00  0.00     0.008 C 
HETATM   19  C28 UNL     1       3.938   2.193   1.922  1.00  0.00     0.020 C 
HETATM   20  C30 UNL     1       1.624   1.967   0.750  1.00  0.00     0.007 C 
HETATM   21  C31 UNL     1       1.468   0.744   1.684  1.00  0.00     0.007 C 
HETATM   22  C32 UNL     1       0.017   0.345   1.929  1.00  0.00     0.011 C 
HETATM   23  C33 UNL     1      -0.729  -0.077   0.645  1.00  0.00    -0.032 C 
HETATM   24  C34 UNL     1      -0.034  -1.381   0.146  1.00  0.00     0.016 C 
HETATM   25  C35 UNL     1      -4.525  -1.169  -0.357  1.00  0.00     0.017 C 
ENDROOT
BRANCH  17  26
HETATM   26  O3  UNL     1       4.121   0.269  -0.164  1.00  0.00    -0.352 OA
BRANCH  26  27
HETATM   27  C22 UNL     1       5.502  -0.102  -0.178  1.00  0.00     0.291 C 
HETATM   28  O4  UNL     1       5.924  -0.435   1.152  1.00  0.00    -0.356 OA
HETATM   29  C23 UNL     1       5.737  -1.817   1.473  1.00  0.00     0.205 C 
HETATM   30  C24 UNL     1       6.659  -2.703   0.617  1.00  0.00     0.173 C 
HETATM   31  C25 UNL     1       6.940  -2.055  -0.746  1.00  0.00     0.182 C 
HETATM   32  C26 UNL     1       5.723  -1.249  -1.197  1.00  0.00     0.204 C 
BRANCH  30  33
HETATM   33  O5  UNL     1       7.906  -2.906   1.299  1.00  0.00    -0.391 OA
HETATM   34  H37 UNL     1       8.423  -3.552   0.783  1.00  0.00     0.210 HD
ENDBRANCH  30  33
BRANCH  31  35
HETATM   35  O6  UNL     1       7.249  -3.061  -1.728  1.00  0.00    -0.390 OA
HETATM   36  H39 UNL     1       8.215  -3.195  -1.697  1.00  0.00     0.210 HD
ENDBRANCH  31  35
BRANCH  32  37
HETATM   37  O7  UNL     1       5.961  -0.730  -2.516  1.00  0.00    -0.388 OA
HETATM   38  H41 UNL     1       6.322  -1.489  -3.021  1.00  0.00     0.210 HD
ENDBRANCH  32  37
ENDBRANCH  26  27
ENDBRANCH  17  26
BRANCH  18  39
HETATM   39  C29 UNL     1       3.317   3.941   0.302  1.00  0.00     0.176 C 
BRANCH  39  40
HETATM   40  O8  UNL     1       2.694   4.762   1.281  1.00  0.00    -0.400 OA
HETATM   41  H47 UNL     1       1.743   4.791   1.084  1.00  0.00     0.209 HD
ENDBRANCH  39  40
ENDBRANCH  18  39
BRANCH   1  42
HETATM   42  C2  UNL     1      -6.066   0.758  -1.289  1.00  0.00    -0.088 C 
HETATM   43  C1  UNL     1      -6.233   2.072  -1.048  1.00  0.00     0.014 C 
HETATM   44  C3  UNL     1      -6.266   0.222  -2.682  1.00  0.00     0.043 C 
ENDBRANCH   1  42
BRANCH   4  45
HETATM   45  C8  UNL     1      -4.342  -3.642   0.202  1.00  0.00     0.149 C 
HETATM   46  O1  UNL     1      -3.806  -3.894  -0.865  1.00  0.00    -0.649 OA
BRANCH  45  47
HETATM   47  O2  UNL     1      -4.628  -4.644   1.058  1.00  0.00    -0.776 OA
HETATM   48  H11 UNL     1      -4.312  -5.444   0.591  1.00  0.00     0.167 HD
ENDBRANCH  45  47
ENDBRANCH   4  45
TORSDOF 10
