REMARK  18 active torsions:
REMARK  status: ('A' for Active; 'I' for Inactive)
REMARK    1  A    between atoms: C2_2  and  C4_4 
REMARK    2  A    between atoms: C4_4  and  N1_5 
REMARK    3  A    between atoms: C4_4  and  C30_38 
REMARK       I    between atoms: N1_5  and  C5_6 
REMARK    4  A    between atoms: C5_6  and  C6_8 
REMARK    5  A    between atoms: C6_8  and  C7_9 
REMARK    6  A    between atoms: C7_9  and  C8_10 
REMARK    7  A    between atoms: C8_10  and  O3_12 
REMARK    8  A    between atoms: O3_12  and  C9_13 
REMARK    9  A    between atoms: C9_13  and  C10_14 
REMARK   10  A    between atoms: C10_14  and  C11_16 
REMARK   11  A    between atoms: C11_16  and  O5_17 
REMARK   12  A    between atoms: C26_33  and  O7_34 
REMARK       I    between atoms: C30_38  and  N2_40 
REMARK   13  A    between atoms: N2_40  and  C31_41 
REMARK   14  A    between atoms: C31_41  and  C32_42 
REMARK   15  A    between atoms: C32_42  and  C33_43 
REMARK   16  A    between atoms: C32_42  and  C35_47 
REMARK   17  A    between atoms: C33_43  and  C34_44 
REMARK   18  A    between atoms: C34_44  and  O10_46 
ROOT
HETATM    1  C8  UNL     1      -0.540  -2.655   0.558  1.00  0.00     0.259 C 
HETATM    2  O2  UNL     1       0.130  -3.148  -0.342  1.00  0.00    -0.265 OA
ENDROOT
BRANCH   1   3
HETATM    3  C7  UNL     1      -1.778  -3.293   1.137  1.00  0.00     0.120 C 
BRANCH   3   4
HETATM    4  C6  UNL     1      -2.974  -2.352   1.209  1.00  0.00     0.112 C 
BRANCH   4   5
HETATM    5  C5  UNL     1      -3.484  -2.007  -0.175  1.00  0.00     0.218 C 
HETATM    6  N1  UNL     1      -4.856  -2.014  -0.285  1.00  0.00    -0.347 N 
HETATM    7  H9  UNL     1      -5.428  -2.249   0.517  1.00  0.00     0.163 HD
HETATM    8  O1  UNL     1      -2.737  -1.722  -1.102  1.00  0.00    -0.274 OA
BRANCH   6   9
HETATM    9  C4  UNL     1      -5.515  -1.800  -1.584  1.00  0.00     0.179 C 
BRANCH   9  10
HETATM   10  C2  UNL     1      -6.872  -2.547  -1.612  1.00  0.00     0.009 C 
HETATM   11  C1  UNL     1      -7.626  -2.335  -2.930  1.00  0.00     0.012 C 
HETATM   12  C3  UNL     1      -6.675  -4.054  -1.402  1.00  0.00     0.012 C 
ENDBRANCH   9  10
BRANCH   9  13
HETATM   13  C30 UNL     1      -5.715  -0.285  -1.839  1.00  0.00     0.240 C 
HETATM   14  O8  UNL     1      -5.832   0.186  -2.969  1.00  0.00    -0.271 OA
HETATM   15  N2  UNL     1      -5.945   0.465  -0.702  1.00  0.00    -0.359 N 
HETATM   16  H43 UNL     1      -5.930  -0.010   0.192  1.00  0.00     0.162 HD
BRANCH  15  17
HETATM   17  C31 UNL     1      -6.470   1.818  -0.767  1.00  0.00     0.132 C 
BRANCH  17  18
HETATM   18  C32 UNL     1      -7.991   1.817  -1.047  1.00  0.00     0.046 C 
BRANCH  18  19
HETATM   19  C33 UNL     1      -8.552   3.211  -1.360  1.00  0.00     0.120 C 
BRANCH  19  20
HETATM   20  C34 UNL     1      -8.479   4.196  -0.226  1.00  0.00     0.140 C 
HETATM   21  O9  UNL     1      -7.581   4.316   0.590  1.00  0.00    -0.650 OA
BRANCH  20  22
HETATM   22  O10 UNL     1      -9.534   5.032  -0.211  1.00  0.00    -0.776 OA
HETATM   23  H49 UNL     1      -9.366   5.627   0.549  1.00  0.00     0.167 HD
ENDBRANCH  20  22
ENDBRANCH  19  20
ENDBRANCH  18  19
BRANCH  18  24
HETATM   24  C35 UNL     1      -8.816   1.083   0.005  1.00  0.00    -0.052 A 
HETATM   25  C36 UNL     1      -8.618   1.274   1.380  1.00  0.00     0.007 A 
HETATM   26  C37 UNL     1      -9.391   0.580   2.315  1.00  0.00     0.001 A 
HETATM   27  C38 UNL     1     -10.371  -0.314   1.890  1.00  0.00     0.000 A 
HETATM   28  C39 UNL     1     -10.585  -0.509   0.528  1.00  0.00     0.001 A 
HETATM   29  C40 UNL     1      -9.819   0.189  -0.406  1.00  0.00     0.007 A 
ENDBRANCH  18  24
ENDBRANCH  17  18
ENDBRANCH  15  17
ENDBRANCH   9  13
ENDBRANCH   6   9
ENDBRANCH   4   5
ENDBRANCH   3   4
ENDBRANCH   1   3
BRANCH   1  30
HETATM   30  O3  UNL     1      -0.234  -1.496   1.206  1.00  0.00    -0.314 OA
BRANCH  30  31
HETATM   31  C9  UNL     1       0.932  -0.854   0.683  1.00  0.00     0.260 C 
BRANCH  31  32
HETATM   32  C10 UNL     1       2.225  -1.601   1.013  1.00  0.00     0.185 C 
HETATM   33  O4  UNL     1       2.295  -2.348   2.004  1.00  0.00    -0.292 OA
BRANCH  32  34
HETATM   34  C11 UNL     1       3.494  -1.391   0.156  1.00  0.00     0.128 C 
HETATM   35  C12 UNL     1       3.304  -1.119  -1.356  1.00  0.00     0.047 C 
HETATM   36  C13 UNL     1       4.442  -0.166  -1.778  1.00  0.00     0.009 C 
HETATM   37  C14 UNL     1       5.388  -0.155  -0.584  1.00  0.00     0.002 C 
HETATM   38  C15 UNL     1       6.429   0.968  -0.470  1.00  0.00    -0.002 C 
HETATM   39  C28 UNL     1       4.434  -0.238   0.633  1.00  0.00     0.001 C 
HETATM   40  C16 UNL     1       7.267   1.073  -1.763  1.00  0.00     0.010 C 
HETATM   41  C25 UNL     1       7.324   0.683   0.792  1.00  0.00     0.031 C 
HETATM   42  C17 UNL     1       8.446   2.037  -1.636  1.00  0.00     0.035 C 
HETATM   43  C18 UNL     1       9.254   1.649  -0.424  1.00  0.00    -0.068 C 
HETATM   44  C19 UNL     1      10.490   1.140  -0.572  1.00  0.00     0.053 C 
HETATM   45  C23 UNL     1       8.500   1.725   0.912  1.00  0.00    -0.014 C 
HETATM   46  C20 UNL     1      11.180   0.462   0.552  1.00  0.00     0.149 C 
HETATM   47  O6  UNL     1      12.306   0.005   0.385  1.00  0.00    -0.293 OA
HETATM   48  C21 UNL     1      10.402   0.240   1.823  1.00  0.00     0.084 C 
HETATM   49  C22 UNL     1       9.478   1.420   2.080  1.00  0.00     0.022 C 
HETATM   50  C24 UNL     1       8.007   3.175   1.150  1.00  0.00     0.020 C 
HETATM   51  C26 UNL     1       6.471   0.456   2.075  1.00  0.00     0.124 C 
HETATM   52  C27 UNL     1       5.306  -0.544   1.874  1.00  0.00     0.045 C 
HETATM   53  C29 UNL     1       3.616   1.059   0.850  1.00  0.00     0.019 C 
BRANCH  34  54
HETATM   54  O5  UNL     1       4.221  -2.641   0.243  1.00  0.00    -0.381 OA
HETATM   55  H16 UNL     1       4.012  -3.021   1.120  1.00  0.00     0.211 HD
ENDBRANCH  34  54
BRANCH  51  56
HETATM   56  O7  UNL     1       5.952   1.680   2.576  1.00  0.00    -0.395 OA
HETATM   57  H37 UNL     1       5.550   1.494   3.441  1.00  0.00     0.210 HD
ENDBRANCH  51  56
ENDBRANCH  32  34
ENDBRANCH  31  32
ENDBRANCH  30  31
ENDBRANCH   1  30
TORSDOF 18
