REMARK  7 active torsions:
REMARK  status: ('A' for Active; 'I' for Inactive)
REMARK    1  A    between atoms: C4_4  and  C5_5 
REMARK    2  A    between atoms: C5_5  and  C6_6 
REMARK    3  A    between atoms: C6_6  and  C7_7 
REMARK    4  A    between atoms: C7_7  and  C9_9 
REMARK    5  A    between atoms: C18_18  and  O1_19 
REMARK    6  A    between atoms: O1_19  and  C19_20 
REMARK    7  A    between atoms: C19_20  and  C20_22 
ROOT
HETATM    1  C9  UNL     1       3.309   0.327   0.252  1.00  0.00    -0.002 C 
HETATM    2  C10 UNL     1       3.466   0.125  -1.278  1.00  0.00     0.006 C 
HETATM    3  C11 UNL     1       2.073  -0.168  -1.851  1.00  0.00     0.010 C 
HETATM    4  C12 UNL     1       1.129   0.046  -0.674  1.00  0.00     0.023 C 
HETATM    5  C13 UNL     1      -0.263  -0.532  -0.702  1.00  0.00    -0.070 C 
HETATM    6  C14 UNL     1      -0.904  -0.920  -1.816  1.00  0.00     0.004 C 
HETATM    7  C15 UNL     1      -2.284  -1.333  -1.794  1.00  0.00     0.004 C 
HETATM    8  C16 UNL     1      -3.072  -1.120  -0.725  1.00  0.00    -0.069 C 
HETATM    9  C17 UNL     1      -4.573  -1.186  -0.846  1.00  0.00     0.067 C 
HETATM   10  C18 UNL     1      -5.164   0.224  -0.677  1.00  0.00     0.136 C 
HETATM   11  C26 UNL     1      -4.623   0.936   0.574  1.00  0.00     0.034 C 
HETATM   12  C27 UNL     1      -3.091   0.870   0.707  1.00  0.00     0.017 C 
HETATM   13  C28 UNL     1      -2.530  -0.571   0.601  1.00  0.00    -0.013 C 
HETATM   14  C29 UNL     1      -3.044  -1.419   1.795  1.00  0.00     0.021 C 
HETATM   15  C30 UNL     1      -0.951  -0.641   0.654  1.00  0.00     0.027 C 
HETATM   16  C31 UNL     1      -0.292   0.324   1.663  1.00  0.00     0.011 C 
HETATM   17  C32 UNL     1       1.226   0.086   1.840  1.00  0.00     0.011 C 
HETATM   18  C33 UNL     1       1.956  -0.402   0.561  1.00  0.00    -0.033 C 
HETATM   19  C34 UNL     1       2.165  -1.938   0.619  1.00  0.00     0.016 C 
ENDROOT
BRANCH  10  20
HETATM   20  O1  UNL     1      -6.594   0.072  -0.565  1.00  0.00    -0.312 OA
BRANCH  20  21
HETATM   21  C19 UNL     1      -7.346   1.160  -0.865  1.00  0.00     0.293 C 
HETATM   22  O2  UNL     1      -6.926   2.246  -1.231  1.00  0.00    -0.259 OA
BRANCH  21  23
HETATM   23  C20 UNL     1      -8.790   0.860  -0.671  1.00  0.00     0.039 A 
HETATM   24  C21 UNL     1      -9.712   1.905  -0.828  1.00  0.00     0.017 A 
HETATM   25  C22 UNL     1     -11.078   1.672  -0.654  1.00  0.00     0.001 A 
HETATM   26  C23 UNL     1     -11.531   0.394  -0.325  1.00  0.00     0.000 A 
HETATM   27  C24 UNL     1     -10.621  -0.652  -0.169  1.00  0.00     0.001 A 
HETATM   28  C25 UNL     1      -9.254  -0.422  -0.341  1.00  0.00     0.017 A 
ENDBRANCH  21  23
ENDBRANCH  20  21
ENDBRANCH  10  20
BRANCH   1  29
HETATM   29  C7  UNL     1       4.580  -0.078   1.057  1.00  0.00    -0.014 C 
HETATM   30  C8  UNL     1       4.358   0.049   2.572  1.00  0.00     0.010 C 
BRANCH  29  31
HETATM   31  C6  UNL     1       5.826   0.783   0.699  1.00  0.00     0.008 C 
BRANCH  31  32
HETATM   32  C5  UNL     1       6.614   0.302  -0.528  1.00  0.00     0.028 C 
BRANCH  32  33
HETATM   33  C4  UNL     1       7.949   0.995  -0.610  1.00  0.00    -0.025 C 
HETATM   34  C2  UNL     1       9.178   0.443  -0.575  1.00  0.00    -0.091 C 
HETATM   35  C1  UNL     1      10.409   1.311  -0.645  1.00  0.00     0.042 C 
HETATM   36  C3  UNL     1       9.475  -1.027  -0.462  1.00  0.00     0.042 C 
ENDBRANCH  32  33
ENDBRANCH  31  32
ENDBRANCH  29  31
ENDBRANCH   1  29
TORSDOF 7
