REMARK  4 active torsions:
REMARK  status: ('A' for Active; 'I' for Inactive)
REMARK    1  A    between atoms: C4_4  and  C5_5 
REMARK    2  A    between atoms: C5_5  and  C6_6 
REMARK    3  A    between atoms: C6_6  and  C7_7 
REMARK    4  A    between atoms: C7_7  and  C9_9 
ROOT
HETATM    1  C9  UNL     1       2.343   0.162  -1.209  1.00  0.00    -0.002 C 
HETATM    2  C10 UNL     1       2.647   1.221  -0.122  1.00  0.00     0.007 C 
HETATM    3  C11 UNL     1       1.289   1.609   0.508  1.00  0.00     0.015 C 
HETATM    4  C12 UNL     1       0.224   1.044  -0.461  1.00  0.00    -0.013 C 
HETATM    5  C13 UNL     1       0.076   2.098  -1.606  1.00  0.00     0.021 C 
HETATM    6  C14 UNL     1      -1.200   0.791   0.026  1.00  0.00    -0.070 C 
HETATM    7  C15 UNL     1      -1.684   1.351   1.147  1.00  0.00    -0.022 C 
HETATM    8  C16 UNL     1      -3.121   1.303   1.563  1.00  0.00     0.035 C 
HETATM    9  C17 UNL     1      -4.084   0.807   0.451  1.00  0.00     0.032 C 
HETATM   10  C18 UNL     1      -5.593   0.785   0.931  1.00  0.00     0.068 C 
HETATM   11  C19 UNL     1      -5.921   1.759   2.083  1.00  0.00     0.047 C 
HETATM   12  C20 UNL     1      -6.521   1.213  -0.231  1.00  0.00     0.047 C 
HETATM   13  O1  UNL     1      -6.034  -0.538   1.290  1.00  0.00    -0.310 OA
HETATM   14  C21 UNL     1      -5.261  -1.190   2.191  1.00  0.00     0.259 C 
HETATM   15  O2  UNL     1      -5.195  -0.926   3.381  1.00  0.00    -0.265 OA
HETATM   16  C22 UNL     1      -4.467  -2.247   1.494  1.00  0.00     0.112 C 
HETATM   17  C23 UNL     1      -3.238  -1.657   0.806  1.00  0.00     0.020 C 
HETATM   18  C24 UNL     1      -3.476  -0.501  -0.231  1.00  0.00    -0.029 C 
HETATM   19  C25 UNL     1      -4.381  -1.037  -1.364  1.00  0.00     0.016 C 
HETATM   20  C26 UNL     1      -2.089  -0.048  -0.906  1.00  0.00     0.024 C 
HETATM   21  C27 UNL     1      -1.335  -1.212  -1.629  1.00  0.00     0.010 C 
HETATM   22  C28 UNL     1       0.124  -0.934  -2.028  1.00  0.00     0.011 C 
HETATM   23  C29 UNL     1       0.904  -0.315  -0.860  1.00  0.00    -0.029 C 
HETATM   24  C30 UNL     1       0.908  -1.325   0.325  1.00  0.00     0.016 C 
ENDROOT
BRANCH   1  25
HETATM   25  C7  UNL     1       3.474  -0.833  -1.590  1.00  0.00    -0.014 C 
HETATM   26  C8  UNL     1       4.684  -0.052  -2.134  1.00  0.00     0.010 C 
BRANCH  25  27
HETATM   27  C6  UNL     1       3.926  -1.954  -0.626  1.00  0.00     0.008 C 
BRANCH  27  28
HETATM   28  C5  UNL     1       4.558  -1.620   0.732  1.00  0.00     0.028 C 
BRANCH  28  29
HETATM   29  C4  UNL     1       5.930  -1.011   0.648  1.00  0.00    -0.025 C 
HETATM   30  C2  UNL     1       6.423   0.030   1.347  1.00  0.00    -0.091 C 
HETATM   31  C1  UNL     1       5.684   0.794   2.411  1.00  0.00     0.042 C 
HETATM   32  C3  UNL     1       7.828   0.518   1.104  1.00  0.00     0.042 C 
ENDBRANCH  28  29
ENDBRANCH  27  28
ENDBRANCH  25  27
ENDBRANCH   1  25
TORSDOF 4
