REMARK  5 active torsions:
REMARK  status: ('A' for Active; 'I' for Inactive)
REMARK    1  A    between atoms: C2_2  and  C4_4 
REMARK    2  A    between atoms: C7_7  and  C8_8 
REMARK    3  A    between atoms: C8_8  and  O2_10 
REMARK    4  A    between atoms: C11_13  and  C12_14 
REMARK    5  A    between atoms: C12_14  and  O4_16 
ROOT
HETATM    1  C4  UNL     1       3.957  -0.372   1.124  1.00  0.00     0.019 C 
HETATM    2  C5  UNL     1       4.935   0.255   0.119  1.00  0.00     0.011 C 
HETATM    3  C6  UNL     1       5.164  -0.876  -0.869  1.00  0.00     0.021 C 
HETATM    4  C7  UNL     1       3.745  -1.428  -1.130  1.00  0.00     0.050 C 
HETATM    5  C9  UNL     1       3.100  -0.583  -2.249  1.00  0.00     0.022 C 
HETATM    6  C10 UNL     1       1.574  -0.628  -2.287  1.00  0.00     0.023 C 
HETATM    7  C11 UNL     1       0.878  -0.268  -0.934  1.00  0.00     0.057 C 
HETATM    8  C13 UNL     1       1.480  -1.220   0.153  1.00  0.00     0.011 C 
HETATM    9  C14 UNL     1       0.736  -1.191   1.491  1.00  0.00     0.007 C 
HETATM   10  C15 UNL     1      -0.772  -1.407   1.343  1.00  0.00     0.006 C 
HETATM   11  C16 UNL     1      -1.411  -0.387   0.380  1.00  0.00     0.003 C 
HETATM   12  C17 UNL     1      -2.995  -0.304   0.476  1.00  0.00    -0.035 C 
HETATM   13  C18 UNL     1      -3.679  -1.691   0.313  1.00  0.00     0.016 C 
HETATM   14  C19 UNL     1      -3.367   0.171   1.922  1.00  0.00     0.017 C 
HETATM   15  C20 UNL     1      -4.727   0.839   2.000  1.00  0.00     0.080 C 
HETATM   16  C21 UNL     1      -4.704   2.123   1.216  1.00  0.00     0.135 C 
HETATM   17  O5  UNL     1      -5.325   3.104   1.633  1.00  0.00    -0.297 OA
HETATM   18  C22 UNL     1      -3.909   2.153  -0.103  1.00  0.00     0.017 C 
HETATM   19  C23 UNL     1      -4.810   2.893  -1.124  1.00  0.00     0.023 C 
HETATM   20  C24 UNL     1      -2.668   3.021   0.137  1.00  0.00     0.023 C 
HETATM   21  C25 UNL     1      -3.621   0.680  -0.593  1.00  0.00     0.009 C 
HETATM   22  C26 UNL     1      -2.919   0.575  -1.966  1.00  0.00     0.007 C 
HETATM   23  C27 UNL     1      -1.392   0.615  -1.937  1.00  0.00     0.011 C 
HETATM   24  C28 UNL     1      -0.748  -0.479  -1.045  1.00  0.00    -0.022 C 
HETATM   25  C29 UNL     1      -1.044  -1.852  -1.721  1.00  0.00     0.017 C 
HETATM   26  C30 UNL     1       3.035  -1.315   0.266  1.00  0.00     0.018 C 
ENDROOT
BRANCH   4  27
HETATM   27  C8  UNL     1       3.769  -2.886  -1.589  1.00  0.00     0.149 C 
HETATM   28  O1  UNL     1       2.790  -3.588  -1.796  1.00  0.00    -0.649 OA
BRANCH  27  29
HETATM   29  O2  UNL     1       4.996  -3.396  -1.802  1.00  0.00    -0.776 OA
HETATM   30  H11 UNL     1       4.817  -4.288  -2.161  1.00  0.00     0.167 HD
ENDBRANCH  27  29
ENDBRANCH   4  27
BRANCH   1  31
HETATM   31  C2  UNL     1       3.454   0.556   2.209  1.00  0.00    -0.088 C 
HETATM   32  C1  UNL     1       3.351   1.890   2.081  1.00  0.00     0.014 C 
HETATM   33  C3  UNL     1       3.231  -0.073   3.564  1.00  0.00     0.043 C 
ENDBRANCH   1  31
BRANCH   7  34
HETATM   34  C12 UNL     1       1.203   1.216  -0.658  1.00  0.00     0.149 C 
HETATM   35  O3  UNL     1       1.734   2.003  -1.427  1.00  0.00    -0.649 OA
BRANCH  34  36
HETATM   36  O4  UNL     1       0.795   1.678   0.531  1.00  0.00    -0.776 OA
HETATM   37  H16 UNL     1       1.088   2.614   0.534  1.00  0.00     0.167 HD
ENDBRANCH  34  36
ENDBRANCH   7  34
TORSDOF 5
