REMARK  10 active torsions:
REMARK  status: ('A' for Active; 'I' for Inactive)
REMARK    1  A    between atoms: N1_6  and  O1_8 
REMARK    2  A    between atoms: O1_8  and  C6_9 
REMARK    3  A    between atoms: C6_9  and  C7_10 
REMARK       I    between atoms: C7_10  and  N2_12 
REMARK    4  A    between atoms: N2_12  and  C8_13 
REMARK    5  A    between atoms: C8_13  and  C9_14 
REMARK    6  A    between atoms: C20_27  and  O3_28 
REMARK    7  A    between atoms: C27_35  and  O4_36 
REMARK    8  A    between atoms: C27_35  and  C28_37 
REMARK    9  A    between atoms: C28_37  and  C29_39 
REMARK   10  A    between atoms: C29_39  and  O6_40 
ROOT
HETATM    1  C1  UNL     1      -0.962  -1.693   2.511  1.00  0.00     0.020 C 
HETATM    2  C2  UNL     1      -0.943  -1.362   0.998  1.00  0.00    -0.014 C 
HETATM    3  C3  UNL     1      -0.357  -2.563   0.218  1.00  0.00     0.020 C 
HETATM    4  C4  UNL     1       1.098  -2.885   0.576  1.00  0.00     0.060 C 
HETATM    5  C5  UNL     1       2.000  -1.670   0.653  1.00  0.00     0.032 C 
HETATM    6  N1  UNL     1       3.280  -1.888   0.705  1.00  0.00    -0.271 N 
ATOM      7  H1  UNL     1       3.706  -2.814   0.672  1.00  0.00     0.194 HD
HETATM    8  C14 UNL     1       1.355  -0.331   0.646  1.00  0.00     0.030 C 
HETATM    9  C15 UNL     1       0.022  -0.191   0.770  1.00  0.00    -0.069 C 
HETATM   10  C16 UNL     1      -0.598   1.147   0.474  1.00  0.00     0.035 C 
HETATM   11  C17 UNL     1      -1.385   0.974  -0.820  1.00  0.00     0.010 C 
HETATM   12  C18 UNL     1      -2.518  -0.073  -0.692  1.00  0.00    -0.002 C 
HETATM   13  C19 UNL     1      -2.416  -0.934   0.591  1.00  0.00     0.031 C 
HETATM   14  C20 UNL     1      -3.524  -2.026   0.586  1.00  0.00     0.124 C 
HETATM   15  C21 UNL     1      -4.793  -1.624  -0.190  1.00  0.00     0.045 C 
HETATM   16  C22 UNL     1      -5.116  -0.113  -0.190  1.00  0.00     0.001 C 
HETATM   17  C23 UNL     1      -5.477   0.304   1.253  1.00  0.00     0.019 C 
HETATM   18  C24 UNL     1      -3.892   0.663  -0.759  1.00  0.00     0.002 C 
HETATM   19  C25 UNL     1      -4.234   1.014  -2.225  1.00  0.00     0.009 C 
HETATM   20  C26 UNL     1      -5.579   0.374  -2.530  1.00  0.00     0.047 C 
HETATM   21  C27 UNL     1      -6.274   0.235  -1.182  1.00  0.00     0.128 C 
ENDROOT
BRANCH   6  22
HETATM   22  O1  UNL     1       4.002  -0.689   0.813  1.00  0.00    -0.271 OA
BRANCH  22  23
HETATM   23  C6  UNL     1       5.387  -0.966   0.698  1.00  0.00     0.303 C 
BRANCH  23  24
HETATM   24  C7  UNL     1       6.212   0.286   0.994  1.00  0.00     0.244 C 
HETATM   25  O2  UNL     1       5.740   1.417   1.079  1.00  0.00    -0.271 OA
HETATM   26  N2  UNL     1       7.562   0.026   1.153  1.00  0.00    -0.355 N 
HETATM   27  H10 UNL     1       7.912  -0.902   0.947  1.00  0.00     0.162 HD
BRANCH  26  28
HETATM   28  C8  UNL     1       8.526   1.089   1.305  1.00  0.00     0.161 C 
BRANCH  28  29
HETATM   29  C9  UNL     1       9.238   1.341   0.004  1.00  0.00    -0.038 A 
HETATM   30  C10 UNL     1       8.627   2.093  -1.006  1.00  0.00     0.025 A 
HETATM   31  C11 UNL     1       9.297   2.266  -2.204  1.00  0.00     0.088 A 
HETATM   32  N3  UNL     1      10.517   1.748  -2.462  1.00  0.00    -0.375 N 
HETATM   33  C12 UNL     1      11.090   1.025  -1.477  1.00  0.00     0.088 A 
ATOM     34  H3  UNL     1      10.983   1.896  -3.357  1.00  0.00     0.164 HD
HETATM   35  C13 UNL     1      10.500   0.795  -0.244  1.00  0.00     0.025 A 
ENDBRANCH  28  29
ENDBRANCH  26  28
ENDBRANCH  23  24
ENDBRANCH  22  23
ENDBRANCH   6  22
BRANCH  14  36
HETATM   36  O3  UNL     1      -3.080  -3.246   0.009  1.00  0.00    -0.395 OA
HETATM   37  H25 UNL     1      -3.831  -3.864  -0.006  1.00  0.00     0.210 HD
ENDBRANCH  14  36
BRANCH  21  38
HETATM   38  O4  UNL     1      -7.190  -0.871  -1.278  1.00  0.00    -0.381 OA
HETATM   39  H36 UNL     1      -7.852  -0.741  -0.568  1.00  0.00     0.211 HD
ENDBRANCH  21  38
BRANCH  21  40
HETATM   40  C28 UNL     1      -7.172   1.442  -0.801  1.00  0.00     0.184 C 
HETATM   41  O5  UNL     1      -8.215   1.241  -0.159  1.00  0.00    -0.292 OA
BRANCH  40  42
HETATM   42  C29 UNL     1      -6.769   2.863  -1.169  1.00  0.00     0.245 C 
BRANCH  42  43
HETATM   43  O6  UNL     1      -5.750   3.389  -0.350  1.00  0.00    -0.393 OA
HETATM   44  H39 UNL     1      -6.170   3.654   0.490  1.00  0.00     0.209 HD
ENDBRANCH  42  43
ENDBRANCH  40  42
ENDBRANCH  21  40
TORSDOF 10
