REMARK  12 active torsions:
REMARK  status: ('A' for Active; 'I' for Inactive)
REMARK    1  A    between atoms: O1_2  and  C2_3 
REMARK    2  A    between atoms: C2_3  and  C3_4 
REMARK    3  A    between atoms: C3_4  and  C4_5 
REMARK    4  A    between atoms: C4_5  and  N1_6 
REMARK    5  A    between atoms: N1_6  and  C5_7 
REMARK    6  A    between atoms: C5_7  and  C6_8 
REMARK    7  A    between atoms: C10_12  and  O2_13 
REMARK    8  A    between atoms: C24_29  and  O5_30 
REMARK    9  A    between atoms: C28_34  and  C29_35 
REMARK   10  A    between atoms: C35_41  and  O6_42 
REMARK   11  A    between atoms: C38_45  and  C39_46 
REMARK   12  A    between atoms: C40_48  and  O8_49 
ROOT
HETATM    1  C6  UNL     1       3.891   1.050  -0.931  1.00  0.00    -0.016 C 
HETATM    2  C7  UNL     1       2.610   1.401  -0.681  1.00  0.00    -0.013 C 
HETATM    3  C8  UNL     1       1.503   0.397  -0.479  1.00  0.00     0.021 C 
HETATM    4  C9  UNL     1       0.640   0.199  -1.719  1.00  0.00     0.051 C 
HETATM    5  C10 UNL     1      -0.108  -1.130  -1.493  1.00  0.00     0.098 C 
HETATM    6  C11 UNL     1       0.985  -2.049  -0.792  1.00  0.00     0.002 C 
HETATM    7  C12 UNL     1       1.728  -3.030  -1.785  1.00  0.00     0.013 C 
HETATM    8  C13 UNL     1       2.432  -2.558  -3.062  1.00  0.00     0.001 C 
HETATM    9  C14 UNL     1       3.920  -2.232  -2.942  1.00  0.00     0.004 C 
HETATM   10  C15 UNL     1       4.199  -0.769  -2.600  1.00  0.00     0.048 C 
HETATM   11  C16 UNL     1       4.247  -0.418  -1.100  1.00  0.00     0.120 A 
HETATM   12  O3  UNL     1       5.579  -0.686  -0.637  1.00  0.00    -0.297 OA
HETATM   13  C17 UNL     1       5.553  -1.646   0.321  1.00  0.00     0.284 A 
HETATM   14  O4  UNL     1       6.530  -2.122   0.868  1.00  0.00    -0.260 OA
HETATM   15  C18 UNL     1       4.170  -1.978   0.640  1.00  0.00     0.089 A 
HETATM   16  C19 UNL     1       3.415  -1.249  -0.182  1.00  0.00    -0.029 A 
HETATM   17  C20 UNL     1       1.940  -1.033  -0.071  1.00  0.00     0.037 C 
HETATM   18  C21 UNL     1       0.394  -3.015   0.291  1.00  0.00     0.014 C 
HETATM   19  C22 UNL     1      -1.098  -3.272   0.146  1.00  0.00     0.010 C 
HETATM   20  C23 UNL     1      -1.831  -1.948   0.373  1.00  0.00     0.041 C 
HETATM   21  C24 UNL     1      -1.566  -0.987  -0.812  1.00  0.00     0.095 C 
HETATM   22  C25 UNL     1      -1.994   0.437  -0.386  1.00  0.00     0.049 C 
HETATM   23  C26 UNL     1      -3.107   0.468   0.695  1.00  0.00     0.025 C 
HETATM   24  C27 UNL     1      -3.688   1.898   0.823  1.00  0.00     0.012 C 
HETATM   25  C28 UNL     1      -4.786   2.270  -0.189  1.00  0.00    -0.011 C 
HETATM   26  C32 UNL     1      -6.138   1.562   0.095  1.00  0.00     0.005 C 
HETATM   27  C33 UNL     1      -6.286   0.643   1.312  1.00  0.00     0.010 C 
HETATM   28  C34 UNL     1      -5.246  -0.461   1.628  1.00  0.00     0.050 C 
HETATM   29  C35 UNL     1      -5.954  -1.780   1.964  1.00  0.00     0.125 C 
HETATM   30  C36 UNL     1      -4.982  -2.761   2.632  1.00  0.00     0.033 C 
HETATM   31  C37 UNL     1      -3.516  -2.569   2.201  1.00  0.00     0.023 C 
HETATM   32  C38 UNL     1      -3.365  -2.098   0.731  1.00  0.00     0.051 C 
HETATM   33  C40 UNL     1      -4.127  -0.701   0.569  1.00  0.00     0.082 C 
ENDROOT
BRANCH   1  34
HETATM   34  C5  UNL     1       4.969   2.080  -1.162  1.00  0.00     0.306 C 
BRANCH  34  35
HETATM   35  N1  UNL     1       5.199   2.953  -0.015  1.00  0.00     0.087 N 
HETATM   36  H10 UNL     1       5.775   3.742  -0.303  1.00  0.00     0.316 HD
BRANCH  35  37
HETATM   37  C4  UNL     1       5.841   2.293   1.130  1.00  0.00     0.272 C 
BRANCH  37  38
HETATM   38  C3  UNL     1       7.308   1.915   0.887  1.00  0.00     0.056 C 
BRANCH  38  39
HETATM   39  C2  UNL     1       7.928   1.255   2.118  1.00  0.00     0.168 C 
BRANCH  39  40
HETATM   40  O1  UNL     1       8.019   2.154   3.224  1.00  0.00    -0.396 OA
HETATM   41  C1  UNL     1       9.154   3.011   3.151  1.00  0.00     0.201 C 
ENDBRANCH  39  40
ENDBRANCH  38  39
ENDBRANCH  37  38
ENDBRANCH  35  37
ENDBRANCH  34  35
ENDBRANCH   1  34
BRANCH   5  42
HETATM   42  O2  UNL     1      -0.342  -1.656  -2.823  1.00  0.00    -0.386 OA
HETATM   43  H17 UNL     1      -1.316  -1.751  -2.905  1.00  0.00     0.210 HD
ENDBRANCH   5  42
BRANCH  21  44
HETATM   44  O5  UNL     1      -2.483  -1.363  -1.885  1.00  0.00    -0.386 OA
HETATM   45  H33 UNL     1      -3.347  -0.918  -1.731  1.00  0.00     0.210 HD
ENDBRANCH  21  44
BRANCH  32  46
HETATM   46  C39 UNL     1      -3.945  -3.213  -0.172  1.00  0.00     0.244 C 
HETATM   47  O7  UNL     1      -4.099  -4.380   0.190  1.00  0.00    -0.306 OA
ENDBRANCH  32  46
BRANCH  33  48
HETATM   48  O8  UNL     1      -4.686  -0.670  -0.749  1.00  0.00    -0.388 OA
HETATM   49  H59 UNL     1      -5.563  -1.119  -0.683  1.00  0.00     0.210 HD
ENDBRANCH  33  48
BRANCH  25  50
HETATM   50  C29 UNL     1      -5.007   3.820  -0.322  1.00  0.00    -0.019 C 
HETATM   51  C30 UNL     1      -3.701   4.614  -0.476  1.00  0.00     0.010 C 
HETATM   52  C31 UNL     1      -5.896   4.147  -1.536  1.00  0.00     0.010 C 
ENDBRANCH  25  50
BRANCH  29  53
HETATM   53  O6  UNL     1      -6.472  -2.319   0.744  1.00  0.00    -0.395 OA
HETATM   54  H53 UNL     1      -6.881  -3.182   0.956  1.00  0.00     0.210 HD
ENDBRANCH  29  53
TORSDOF 12
