REMARK  11 active torsions:
REMARK  status: ('A' for Active; 'I' for Inactive)
REMARK    1  A    between atoms: C2_2  and  C3_3 
REMARK    2  A    between atoms: C2_2  and  C30_36 
REMARK    3  A    between atoms: C3_3  and  C4_5 
REMARK    4  A    between atoms: C4_5  and  O2_6 
REMARK    5  A    between atoms: C4_5  and  C5_7 
REMARK    6  A    between atoms: C5_7  and  C7_9 
REMARK    7  A    between atoms: C8_10  and  O3_11 
REMARK    8  A    between atoms: O3_11  and  C9_12 
REMARK    9  A    between atoms: C22_27  and  O6_28 
REMARK   10  A    between atoms: C30_36  and  C32_38 
REMARK   11  A    between atoms: C32_38  and  O7_39 
ROOT
HETATM    1  C7  UNL     1      -1.330  -1.305   0.563  1.00  0.00     0.031 C 
HETATM    2  C8  UNL     1      -1.295  -1.793  -0.925  1.00  0.00     0.138 C 
HETATM    3  C11 UNL     1       0.122  -1.488  -1.462  1.00  0.00     0.043 C 
HETATM    4  C12 UNL     1       0.959  -1.093  -0.232  1.00  0.00    -0.030 C 
HETATM    5  C13 UNL     1       1.484  -2.423   0.393  1.00  0.00     0.016 C 
HETATM    6  C14 UNL     1       2.142  -0.139  -0.555  1.00  0.00     0.004 C 
HETATM    7  C15 UNL     1       3.282  -0.801  -1.339  1.00  0.00     0.007 C 
HETATM    8  C16 UNL     1       4.363   0.220  -1.678  1.00  0.00     0.007 C 
HETATM    9  C17 UNL     1       5.090   0.665  -0.406  1.00  0.00     0.008 C 
HETATM   10  C18 UNL     1       6.115   1.794  -0.651  1.00  0.00     0.056 C 
HETATM   11  C19 UNL     1       7.117   1.470  -1.761  1.00  0.00     0.018 C 
HETATM   12  C20 UNL     1       6.844   2.068   0.665  1.00  0.00     0.133 C 
HETATM   13  O5  UNL     1       8.069   2.188   0.731  1.00  0.00    -0.297 OA
HETATM   14  C21 UNL     1       5.986   2.331   1.884  1.00  0.00     0.111 C 
HETATM   15  C22 UNL     1       4.892   1.282   2.035  1.00  0.00     0.134 C 
HETATM   16  C23 UNL     1       4.139   1.084   0.726  1.00  0.00    -0.001 A 
HETATM   17  C24 UNL     1       3.028   2.069   0.455  1.00  0.00     0.024 A 
HETATM   18  C25 UNL     1       2.658   0.612   0.695  1.00  0.00    -0.025 A 
HETATM   19  C26 UNL     1       2.005   0.264   2.034  1.00  0.00     0.011 C 
HETATM   20  C27 UNL     1       0.508  -0.099   2.028  1.00  0.00     0.011 C 
HETATM   21  C28 UNL     1      -0.102  -0.331   0.639  1.00  0.00    -0.030 C 
HETATM   22  C29 UNL     1      -0.518   1.056   0.068  1.00  0.00     0.016 C 
ENDROOT
BRANCH   1  23
HETATM   23  C5  UNL     1      -2.735  -0.836   1.067  1.00  0.00     0.025 C 
HETATM   24  C6  UNL     1      -2.683  -0.442   2.552  1.00  0.00     0.013 C 
BRANCH  23  25
HETATM   25  C4  UNL     1      -3.800  -1.944   0.851  1.00  0.00     0.196 C 
BRANCH  25  26
HETATM   26  C3  UNL     1      -5.237  -1.566   1.272  1.00  0.00     0.184 C 
HETATM   27  O1  UNL     1      -5.908  -2.357   1.944  1.00  0.00    -0.290 OA
BRANCH  26  28
HETATM   28  C2  UNL     1      -5.831  -0.256   0.849  1.00  0.00    -0.013 C 
HETATM   29  C1  UNL     1      -6.480   0.421   1.811  1.00  0.00     0.023 C 
BRANCH  28  30
HETATM   30  C30 UNL     1      -5.724   0.169  -0.595  1.00  0.00     0.041 C 
HETATM   31  C31 UNL     1      -7.009  -0.188  -1.354  1.00  0.00     0.017 C 
BRANCH  30  32
HETATM   32  C32 UNL     1      -5.376   1.659  -0.765  1.00  0.00     0.173 C 
BRANCH  32  33
HETATM   33  O7  UNL     1      -5.089   1.930  -2.135  1.00  0.00    -0.400 OA
HETATM   34  H48 UNL     1      -4.873   2.878  -2.201  1.00  0.00     0.209 HD
ENDBRANCH  32  33
ENDBRANCH  30  32
ENDBRANCH  28  30
ENDBRANCH  26  28
ENDBRANCH  25  26
BRANCH  25  35
HETATM   35  O2  UNL     1      -3.399  -3.115   1.574  1.00  0.00    -0.387 OA
HETATM   36  H4  UNL     1      -4.226  -3.568   1.835  1.00  0.00     0.210 HD
ENDBRANCH  25  35
ENDBRANCH  23  25
ENDBRANCH   1  23
BRANCH   2  37
HETATM   37  O3  UNL     1      -2.267  -1.093  -1.724  1.00  0.00    -0.316 OA
BRANCH  37  38
HETATM   38  C9  UNL     1      -2.477  -1.601  -2.972  1.00  0.00     0.255 C 
HETATM   39  C10 UNL     1      -3.478  -0.770  -3.716  1.00  0.00     0.126 C 
HETATM   40  O4  UNL     1      -1.956  -2.609  -3.425  1.00  0.00    -0.266 OA
ENDBRANCH  37  38
ENDBRANCH   2  37
BRANCH  15  41
HETATM   41  O6  UNL     1       5.438   0.033   2.445  1.00  0.00    -0.394 OA
HETATM   42  H32 UNL     1       5.874   0.167   3.304  1.00  0.00     0.210 HD
ENDBRANCH  15  41
TORSDOF 11
