REMARK  10 active torsions:
REMARK  status: ('A' for Active; 'I' for Inactive)
REMARK    1  A    between atoms: C12_14  and  C13_15 
REMARK    2  A    between atoms: C13_15  and  C15_17 
REMARK    3  A    between atoms: C15_17  and  C16_18 
REMARK    4  A    between atoms: C16_18  and  C17_19 
REMARK    5  A    between atoms: C18_20  and  C20_22 
REMARK    6  A    between atoms: C20_22  and  O3_23 
REMARK    7  A    between atoms: C26_29  and  C27_30 
REMARK    8  A    between atoms: C27_30  and  C28_31 
REMARK    9  A    between atoms: C28_31  and  C29_32 
REMARK   10  A    between atoms: C29_32  and  O5_34 
ROOT
HETATM    1  C1  UNL     1      -6.503  -0.179   0.164  1.00  0.00     0.025 C 
HETATM    2  C2  UNL     1      -5.513  -1.027   0.467  1.00  0.00     0.015 C 
HETATM    3  C3  UNL     1      -5.672  -2.017   1.559  1.00  0.00     0.289 C 
HETATM    4  O1  UNL     1      -6.706  -2.313   2.128  1.00  0.00    -0.260 OA
HETATM    5  O2  UNL     1      -4.448  -2.553   1.811  1.00  0.00    -0.311 OA
HETATM    6  C4  UNL     1      -3.433  -1.826   1.094  1.00  0.00     0.142 C 
HETATM    7  C5  UNL     1      -2.782  -0.839   2.056  1.00  0.00     0.039 C 
HETATM    8  C6  UNL     1      -1.773   0.135   1.430  1.00  0.00     0.006 C 
HETATM    9  C7  UNL     1      -2.231   0.720   0.067  1.00  0.00    -0.027 A 
HETATM   10  C8  UNL     1      -1.186   1.647  -0.594  1.00  0.00     0.011 C 
HETATM   11  C9  UNL     1       0.265   1.148  -0.551  1.00  0.00     0.011 C 
HETATM   12  C10 UNL     1       0.674   0.752   0.877  1.00  0.00    -0.032 C 
HETATM   13  C11 UNL     1       0.606   2.021   1.774  1.00  0.00     0.016 C 
HETATM   14  C12 UNL     1       2.069   0.071   1.063  1.00  0.00    -0.002 C 
HETATM   15  C21 UNL     1       1.868  -0.800   2.342  1.00  0.00     0.006 C 
HETATM   16  C22 UNL     1       0.355  -0.848   2.634  1.00  0.00     0.011 C 
HETATM   17  C23 UNL     1      -0.309  -0.410   1.319  1.00  0.00    -0.032 C 
HETATM   18  C24 UNL     1      -0.286  -1.651   0.369  1.00  0.00     0.016 C 
HETATM   19  C25 UNL     1      -3.603   1.342  -0.029  1.00  0.00     0.022 A 
HETATM   20  C26 UNL     1      -3.396   0.006  -0.709  1.00  0.00    -0.021 A 
HETATM   21  C30 UNL     1      -4.135  -1.191  -0.094  1.00  0.00     0.063 C 
ENDROOT
BRANCH  14  22
HETATM   22  C13 UNL     1       3.425   0.844   1.054  1.00  0.00    -0.014 C 
HETATM   23  C14 UNL     1       3.693   1.802   2.225  1.00  0.00     0.010 C 
BRANCH  22  24
HETATM   24  C15 UNL     1       3.729   1.592  -0.265  1.00  0.00     0.008 C 
BRANCH  24  25
HETATM   25  C16 UNL     1       3.758   0.741  -1.542  1.00  0.00     0.028 C 
BRANCH  25  26
HETATM   26  C17 UNL     1       4.770  -0.370  -1.497  1.00  0.00    -0.022 C 
HETATM   27  C18 UNL     1       6.031  -0.360  -1.979  1.00  0.00    -0.064 C 
HETATM   28  C19 UNL     1       6.667   0.835  -2.640  1.00  0.00     0.045 C 
BRANCH  27  29
HETATM   29  C20 UNL     1       6.955  -1.559  -1.912  1.00  0.00     0.197 C 
BRANCH  29  30
HETATM   30  O3  UNL     1       6.443  -2.586  -1.076  1.00  0.00    -0.397 OA
HETATM   31  H29 UNL     1       6.367  -2.200  -0.188  1.00  0.00     0.209 HD
ENDBRANCH  29  30
ENDBRANCH  27  29
ENDBRANCH  25  26
ENDBRANCH  24  25
ENDBRANCH  22  24
ENDBRANCH  14  22
BRANCH  20  32
HETATM   32  C27 UNL     1      -3.273  -0.092  -2.237  1.00  0.00     0.021 C 
BRANCH  32  33
HETATM   33  C28 UNL     1      -4.513   0.351  -3.012  1.00  0.00     0.111 C 
BRANCH  33  34
HETATM   34  C29 UNL     1      -5.583  -0.694  -3.171  1.00  0.00     0.139 C 
HETATM   35  O4  UNL     1      -6.784  -0.479  -3.170  1.00  0.00    -0.650 OA
BRANCH  34  36
HETATM   36  O5  UNL     1      -5.117  -1.931  -3.414  1.00  0.00    -0.776 OA
HETATM   37  H43 UNL     1      -5.928  -2.467  -3.546  1.00  0.00     0.167 HD
ENDBRANCH  34  36
ENDBRANCH  33  34
ENDBRANCH  32  33
ENDBRANCH  20  32
TORSDOF 10
