REMARK  6 active torsions:
REMARK  status: ('A' for Active; 'I' for Inactive)
REMARK    1  A    between atoms: C5_6  and  O2_7 
REMARK    2  A    between atoms: C6_8  and  O3_10 
REMARK    3  A    between atoms: C15_19  and  C16_20 
REMARK    4  A    between atoms: C43_49  and  O7_50 
REMARK    5  A    between atoms: C44_51  and  C45_52 
REMARK    6  A    between atoms: C45_52  and  O8_53 
ROOT
HETATM    1  C1  UNL     1       8.273  -0.519   0.397  1.00  0.00     0.013 C 
HETATM    2  C2  UNL     1       6.853  -0.192   0.883  1.00  0.00     0.023 C 
HETATM    3  C3  UNL     1       5.863  -1.252   0.367  1.00  0.00     0.167 C 
HETATM    4  O1  UNL     1       5.120  -0.670  -0.732  1.00  0.00    -0.373 OA
HETATM    5  C4  UNL     1       5.623   0.658  -0.983  1.00  0.00     0.160 C 
HETATM    6  C5  UNL     1       4.585   1.564  -1.708  1.00  0.00     0.181 C 
HETATM    7  C6  UNL     1       3.123   1.812  -1.141  1.00  0.00     0.087 C 
HETATM    8  C7  UNL     1       3.248   2.671   0.119  1.00  0.00     0.049 C 
HETATM    9  C8  UNL     1       2.217   0.528  -0.980  1.00  0.00     0.034 C 
HETATM   10  C9  UNL     1       1.940  -0.177  -2.320  1.00  0.00     0.012 C 
HETATM   11  C10 UNL     1       0.989  -1.311  -1.985  1.00  0.00     0.044 C 
HETATM   12  C11 UNL     1      -0.097  -0.670  -1.117  1.00  0.00     0.094 C 
HETATM   13  O4  UNL     1      -1.071   0.025  -1.922  1.00  0.00    -0.363 OA
HETATM   14  C12 UNL     1      -1.813  -0.654  -2.922  1.00  0.00     0.263 C 
HETATM   15  C13 UNL     1      -3.252  -0.541  -2.647  1.00  0.00    -0.080 C 
HETATM   16  C14 UNL     1      -4.426  -0.450  -2.408  1.00  0.00    -0.093 C 
HETATM   17  C15 UNL     1      -5.874  -0.322  -2.086  1.00  0.00     0.121 C 
HETATM   18  C22 UNL     1      -6.303  -1.295  -0.957  1.00  0.00     0.190 C 
HETATM   19  O5  UNL     1      -5.634  -0.982   0.261  1.00  0.00    -0.384 OA
HETATM   20  C23 UNL     1      -5.637  -1.988   1.274  1.00  0.00     0.122 C 
HETATM   21  C24 UNL     1      -5.061  -1.289   2.510  1.00  0.00     0.033 C 
HETATM   22  C25 UNL     1      -3.612  -0.792   2.274  1.00  0.00     0.013 C 
HETATM   23  C26 UNL     1      -2.649  -1.900   1.785  1.00  0.00    -0.025 C 
HETATM   24  C27 UNL     1      -2.415  -2.874   2.973  1.00  0.00     0.016 C 
HETATM   25  C28 UNL     1      -3.330  -2.640   0.613  1.00  0.00     0.071 C 
HETATM   26  C29 UNL     1      -4.724  -3.170   0.917  1.00  0.00     0.045 C 
HETATM   27  C30 UNL     1      -2.363  -3.626  -0.012  1.00  0.00     0.154 C 
HETATM   28  O6  UNL     1      -2.517  -4.839  -0.042  1.00  0.00    -0.293 OA
HETATM   29  C31 UNL     1      -1.217  -2.972  -0.694  1.00  0.00     0.057 C 
HETATM   30  C32 UNL     1      -0.867  -1.761  -0.215  1.00  0.00    -0.036 C 
HETATM   31  C33 UNL     1      -1.243  -1.405   1.304  1.00  0.00     0.031 C 
HETATM   32  C34 UNL     1      -0.796   0.035   1.394  1.00  0.00     0.000 C 
HETATM   33  C35 UNL     1      -1.117   1.323   2.100  1.00  0.00     0.006 C 
HETATM   34  C36 UNL     1      -0.542   2.441   1.158  1.00  0.00     0.001 C 
HETATM   35  C37 UNL     1       0.016   1.962  -0.250  1.00  0.00     0.014 C 
HETATM   36  C38 UNL     1       0.774   0.554  -0.297  1.00  0.00     0.006 C 
HETATM   37  C39 UNL     1       0.752  -0.020   1.121  1.00  0.00     0.014 C 
HETATM   38  C40 UNL     1       1.675   0.503   2.247  1.00  0.00     0.100 C 
HETATM   39  C41 UNL     1       2.971  -0.208   2.191  1.00  0.00    -0.103 C 
HETATM   40  C42 UNL     1       3.927  -0.898   1.956  1.00  0.00    -0.072 C 
HETATM   41  C43 UNL     1       4.928  -1.849   1.450  1.00  0.00     0.226 C 
HETATM   42  C44 UNL     1       6.270   1.112   0.328  1.00  0.00     0.047 C 
ENDROOT
BRANCH  17  43
HETATM   43  C16 UNL     1      -6.262   1.128  -1.812  1.00  0.00    -0.040 A 
HETATM   44  C17 UNL     1      -5.612   1.882  -0.818  1.00  0.00     0.008 A 
HETATM   45  C18 UNL     1      -5.987   3.199  -0.551  1.00  0.00     0.001 A 
HETATM   46  C19 UNL     1      -7.015   3.787  -1.281  1.00  0.00     0.000 A 
HETATM   47  C20 UNL     1      -7.670   3.054  -2.270  1.00  0.00     0.001 A 
HETATM   48  C21 UNL     1      -7.297   1.734  -2.537  1.00  0.00     0.008 A 
ENDBRANCH  17  43
BRANCH   7  49
HETATM   49  O3  UNL     1       2.482   2.662  -2.129  1.00  0.00    -0.387 OA
HETATM   50  H12 UNL     1       2.891   2.413  -2.982  1.00  0.00     0.210 HD
ENDBRANCH   7  49
BRANCH   6  51
HETATM   51  O2  UNL     1       4.458   1.111  -3.076  1.00  0.00    -0.390 OA
HETATM   52  H8  UNL     1       4.661   0.157  -3.085  1.00  0.00     0.210 HD
ENDBRANCH   6  51
BRANCH  42  53
HETATM   53  C45 UNL     1       7.267   2.255   0.169  1.00  0.00     0.172 C 
BRANCH  53  54
HETATM   54  O8  UNL     1       6.602   3.471  -0.111  1.00  0.00    -0.400 OA
HETATM   55  H56 UNL     1       6.218   3.802   0.719  1.00  0.00     0.209 HD
ENDBRANCH  53  54
ENDBRANCH  42  53
BRANCH  41  56
HETATM   56  O7  UNL     1       5.677  -2.347   2.552  1.00  0.00    -0.381 OA
HETATM   57  H52 UNL     1       5.997  -3.224   2.297  1.00  0.00     0.211 HD
ENDBRANCH  41  56
TORSDOF 6
