REMARK  6 active torsions:
REMARK  status: ('A' for Active; 'I' for Inactive)
REMARK    1  A    between atoms: C3_3  and  C4_4 
REMARK    2  A    between atoms: C4_4  and  O1_5 
REMARK    3  A    between atoms: C6_9  and  C7_10 
REMARK    4  A    between atoms: C7_10  and  O4_12 
REMARK    5  A    between atoms: C7_10  and  C9_13 
REMARK    6  A    between atoms: C12_16  and  O5_17 
ROOT
HETATM    1  C9  UNL     1       1.271   1.504  -0.843  1.00  0.00     0.033 C 
HETATM    2  C10 UNL     1       1.373   0.883  -2.263  1.00  0.00     0.011 C 
HETATM    3  C11 UNL     1       0.042   0.132  -2.515  1.00  0.00     0.039 C 
HETATM    4  C12 UNL     1      -0.871   0.607  -1.383  1.00  0.00     0.070 C 
HETATM    5  C13 UNL     1      -2.132  -0.220  -1.074  1.00  0.00     0.030 C 
HETATM    6  C14 UNL     1      -3.079  -0.274  -2.283  1.00  0.00     0.035 C 
HETATM    7  C15 UNL     1      -4.410  -0.868  -1.950  1.00  0.00    -0.022 C 
HETATM    8  C16 UNL     1      -4.887  -1.023  -0.702  1.00  0.00    -0.068 C 
HETATM    9  C17 UNL     1      -6.261  -1.635  -0.507  1.00  0.00     0.035 C 
HETATM   10  C18 UNL     1      -7.069  -0.958   0.599  1.00  0.00     0.012 C 
HETATM   11  C19 UNL     1      -6.545   0.430   0.919  1.00  0.00     0.080 C 
HETATM   12  C20 UNL     1      -5.113   0.311   1.396  1.00  0.00     0.139 C 
HETATM   13  O6  UNL     1      -4.766   0.881   2.432  1.00  0.00    -0.297 OA
HETATM   14  C21 UNL     1      -4.131  -0.547   0.551  1.00  0.00     0.044 C 
HETATM   15  C22 UNL     1      -3.744  -1.782   1.387  1.00  0.00     0.029 C 
HETATM   16  C23 UNL     1      -2.881   0.350   0.174  1.00  0.00     0.013 C 
HETATM   17  C24 UNL     1      -1.908   0.624   1.362  1.00  0.00     0.007 C 
HETATM   18  C25 UNL     1      -0.609   1.370   0.995  1.00  0.00     0.013 C 
HETATM   19  C26 UNL     1       0.117   0.688  -0.175  1.00  0.00    -0.006 C 
HETATM   20  C27 UNL     1       0.593  -0.712   0.293  1.00  0.00     0.019 C 
ENDROOT
BRANCH   1  21
HETATM   21  C7  UNL     1       2.598   1.861  -0.110  1.00  0.00     0.085 C 
HETATM   22  C8  UNL     1       3.420   2.815  -1.006  1.00  0.00     0.049 C 
BRANCH  21  23
HETATM   23  C6  UNL     1       3.506   0.734   0.469  1.00  0.00     0.170 C 
HETATM   24  O3  UNL     1       4.574   1.402   1.205  1.00  0.00    -0.309 OA
HETATM   25  C5  UNL     1       5.579   0.679   1.751  1.00  0.00     0.292 C 
HETATM   26  C3  UNL     1       5.738  -0.727   1.296  1.00  0.00     0.042 C 
HETATM   27  O2  UNL     1       6.354   1.173   2.562  1.00  0.00    -0.260 OA
HETATM   28  C2  UNL     1       5.097  -1.150   0.186  1.00  0.00    -0.067 C 
HETATM   29  C1  UNL     1       5.273  -2.500  -0.453  1.00  0.00     0.044 C 
HETATM   30  C28 UNL     1       4.133  -0.234  -0.528  1.00  0.00     0.070 C 
BRANCH  26  31
HETATM   31  C4  UNL     1       6.678  -1.528   2.152  1.00  0.00     0.209 C 
BRANCH  31  32
HETATM   32  O1  UNL     1       8.022  -1.151   1.887  1.00  0.00    -0.396 OA
HETATM   33  H6  UNL     1       8.101  -0.216   2.164  1.00  0.00     0.209 HD
ENDBRANCH  31  32
ENDBRANCH  26  31
ENDBRANCH  21  23
BRANCH  21  34
HETATM   34  O4  UNL     1       2.195   2.659   1.031  1.00  0.00    -0.387 OA
HETATM   35  H11 UNL     1       3.012   2.886   1.516  1.00  0.00     0.210 HD
ENDBRANCH  21  34
ENDBRANCH   1  21
BRANCH   4  36
HETATM   36  O5  UNL     1      -1.301   1.918  -1.807  1.00  0.00    -0.389 OA
HETATM   37  H17 UNL     1      -1.715   2.385  -1.064  1.00  0.00     0.210 HD
ENDBRANCH   4  36
TORSDOF 6
