REMARK  5 active torsions:
REMARK  status: ('A' for Active; 'I' for Inactive)
REMARK    1  A    between atoms: C2_5  and  C3_6 
REMARK    2  A    between atoms: C5_11  and  C6_12 
REMARK       I    between atoms: C6_12  and  N3_14 
REMARK    3  A    between atoms: N3_14  and  C7_15 
REMARK    4  A    between atoms: C10_18  and  S1_19 
REMARK    5  A    between atoms: S1_19  and  N4_22 
ROOT
HETATM    1  C7  UNL     1       1.080   0.199  -0.745  1.00  0.00     0.035 A 
HETATM    2  C8  UNL     1       0.403   1.276  -0.166  1.00  0.00     0.031 A 
HETATM    3  C9  UNL     1      -0.947   1.504  -0.452  1.00  0.00     0.027 A 
HETATM    4  C10 UNL     1      -1.626   0.647  -1.319  1.00  0.00     0.074 A 
HETATM    5  C16 UNL     1      -0.965  -0.428  -1.914  1.00  0.00     0.027 A 
HETATM    6  C17 UNL     1       0.384  -0.647  -1.624  1.00  0.00     0.031 A 
ENDROOT
BRANCH   1   7
HETATM    7  N3  UNL     1       2.441  -0.101  -0.516  1.00  0.00    -0.322 N 
HETATM    8  C6  UNL     1       3.322   0.543   0.336  1.00  0.00     0.274 C 
HETATM    9  O1  UNL     1       3.019   1.478   1.067  1.00  0.00    -0.266 OA
HETATM   10  H5  UNL     1       2.797  -0.898  -1.021  1.00  0.00     0.169 HD
BRANCH   8  11
HETATM   11  C5  UNL     1       4.675   0.003   0.314  1.00  0.00     0.120 A 
HETATM   12  N1  UNL     1       5.678   0.398   1.171  1.00  0.00    -0.291 N 
HETATM   13  C1  UNL     1       5.597   1.380   2.232  1.00  0.00     0.178 C 
HETATM   14  N2  UNL     1       6.850  -0.237   0.972  1.00  0.00    -0.294 N 
HETATM   15  C2  UNL     1       6.621  -1.068  -0.058  1.00  0.00     0.134 A 
ATOM     16  H2  UNL     1       7.720  -0.114   1.490  1.00  0.00     0.187 HD
HETATM   17  C4  UNL     1       5.275  -0.948  -0.498  1.00  0.00     0.072 A 
BRANCH  15  18
HETATM   18  C3  UNL     1       7.679  -1.975  -0.631  1.00  0.00     0.434 C 
HETATM   19  F1  UNL     1       8.203  -2.820   0.295  1.00  0.00    -0.165 F 
HETATM   20  F2  UNL     1       7.172  -2.763  -1.622  1.00  0.00    -0.165 F 
HETATM   21  F3  UNL     1       8.713  -1.289  -1.182  1.00  0.00    -0.165 F 
ENDBRANCH  15  18
ENDBRANCH   8  11
ENDBRANCH   1   7
BRANCH   4  22
HETATM   22  S1  UNL     1      -3.338   0.954  -1.673  1.00  0.00     0.243 S 
HETATM   23  O2  UNL     1      -3.456   2.357  -2.010  1.00  0.00    -0.206 OA
HETATM   24  O3  UNL     1      -3.810  -0.077  -2.575  1.00  0.00    -0.206 OA
BRANCH  22  25
HETATM   25  N4  UNL     1      -4.093   0.694  -0.161  1.00  0.00    -0.206 NA
HETATM   26  C11 UNL     1      -3.923  -0.671   0.414  1.00  0.00     0.107 C 
HETATM   27  C12 UNL     1      -4.819  -0.850   1.633  1.00  0.00     0.015 C 
HETATM   28  C13 UNL     1      -6.296  -0.743   1.260  1.00  0.00     0.002 C 
HETATM   29  C14 UNL     1      -6.519   0.131   0.028  1.00  0.00     0.015 C 
HETATM   30  C15 UNL     1      -5.480   1.240  -0.069  1.00  0.00     0.107 C 
ENDBRANCH  22  25
ENDBRANCH   4  22
TORSDOF 5
