REMARK  6 active torsions:
REMARK  status: ('A' for Active; 'I' for Inactive)
REMARK    1  A    between atoms: C2_2  and  C30_31 
REMARK    2  A    between atoms: C3_3  and  C4_4 
REMARK    3  A    between atoms: C4_4  and  C5_5 
REMARK    4  A    between atoms: C5_5  and  C6_6 
REMARK    5  A    between atoms: C6_6  and  C8_8 
REMARK    6  A    between atoms: C30_31  and  O3_33 
ROOT
HETATM    1  C8  UNL     1       2.124   0.144   0.406  1.00  0.00    -0.002 C 
HETATM    2  C9  UNL     1       2.103   1.643   0.827  1.00  0.00     0.007 C 
HETATM    3  C10 UNL     1       0.649   2.139   0.692  1.00  0.00     0.015 C 
HETATM    4  C11 UNL     1      -0.075   1.025  -0.090  1.00  0.00    -0.013 C 
HETATM    5  C12 UNL     1       0.223   1.295  -1.601  1.00  0.00     0.021 C 
HETATM    6  C13 UNL     1      -1.594   0.933   0.032  1.00  0.00    -0.070 C 
HETATM    7  C14 UNL     1      -2.367   2.033   0.153  1.00  0.00    -0.022 C 
HETATM    8  C15 UNL     1      -3.871   2.023   0.187  1.00  0.00     0.034 C 
HETATM    9  C16 UNL     1      -4.433   0.601   0.339  1.00  0.00     0.013 C 
HETATM   10  C17 UNL     1      -5.989   0.481   0.404  1.00  0.00     0.018 C 
HETATM   11  C18 UNL     1      -6.719   0.820  -0.900  1.00  0.00     0.023 C 
HETATM   12  C19 UNL     1      -6.546   1.391   1.521  1.00  0.00     0.023 C 
HETATM   13  C20 UNL     1      -6.338  -0.972   0.778  1.00  0.00     0.135 C 
HETATM   14  O1  UNL     1      -7.466  -1.294   1.156  1.00  0.00    -0.297 OA
HETATM   15  C21 UNL     1      -5.235  -2.007   0.685  1.00  0.00     0.080 C 
HETATM   16  C22 UNL     1      -4.425  -1.786  -0.584  1.00  0.00     0.017 C 
HETATM   17  C23 UNL     1      -3.701  -0.408  -0.630  1.00  0.00    -0.031 C 
HETATM   18  C24 UNL     1      -3.678   0.049  -2.113  1.00  0.00     0.016 C 
HETATM   19  C25 UNL     1      -2.213  -0.478  -0.088  1.00  0.00     0.024 C 
HETATM   20  C26 UNL     1      -1.275  -1.459  -0.832  1.00  0.00     0.010 C 
HETATM   21  C27 UNL     1       0.189  -1.487  -0.327  1.00  0.00     0.011 C 
HETATM   22  C28 UNL     1       0.614  -0.255   0.501  1.00  0.00    -0.029 C 
HETATM   23  C29 UNL     1       0.271  -0.510   2.004  1.00  0.00     0.016 C 
ENDROOT
BRANCH   1  24
HETATM   24  C6  UNL     1       3.186  -0.677   1.188  1.00  0.00    -0.014 C 
HETATM   25  C7  UNL     1       3.214  -2.151   0.770  1.00  0.00     0.010 C 
BRANCH  24  26
HETATM   26  C5  UNL     1       4.614  -0.077   1.086  1.00  0.00     0.008 C 
BRANCH  26  27
HETATM   27  C4  UNL     1       5.172   0.046  -0.336  1.00  0.00     0.028 C 
BRANCH  27  28
HETATM   28  C3  UNL     1       6.599   0.522  -0.312  1.00  0.00    -0.013 C 
HETATM   29  C2  UNL     1       7.704  -0.181  -0.636  1.00  0.00     0.008 C 
HETATM   30  C1  UNL     1       7.742  -1.620  -1.054  1.00  0.00     0.055 C 
BRANCH  29  31
HETATM   31  C30 UNL     1       8.998   0.544  -0.542  1.00  0.00     0.171 C 
HETATM   32  O2  UNL     1       9.178   1.665  -0.099  1.00  0.00    -0.646 OA
BRANCH  31  33
HETATM   33  O3  UNL     1      10.023  -0.179  -1.022  1.00  0.00    -0.773 OA
HETATM   34  H46 UNL     1      10.794   0.414  -0.901  1.00  0.00     0.167 HD
ENDBRANCH  31  33
ENDBRANCH  29  31
ENDBRANCH  27  28
ENDBRANCH  26  27
ENDBRANCH  24  26
ENDBRANCH   1  24
TORSDOF 6
