REMARK  13 active torsions:
REMARK  status: ('A' for Active; 'I' for Inactive)
REMARK    1  A    between atoms: O1_2  and  C2_3 
REMARK    2  A    between atoms: C12_14  and  C13_15 
REMARK    3  A    between atoms: C13_15  and  C15_17 
REMARK    4  A    between atoms: C15_17  and  C16_18 
REMARK    5  A    between atoms: C17_19  and  C18_20 
REMARK    6  A    between atoms: C18_20  and  O3_23 
REMARK    7  A    between atoms: C28_31  and  O4_32 
REMARK    8  A    between atoms: O4_32  and  C29_33 
REMARK    9  A    between atoms: C30_35  and  C31_36 
REMARK   10  A    between atoms: C31_36  and  O6_37 
REMARK   11  A    between atoms: C32_38  and  O7_39 
REMARK   12  A    between atoms: C33_40  and  O8_41 
REMARK   13  A    between atoms: C34_42  and  O9_43 
ROOT
HETATM    1  C2  UNL     1      -0.650   2.594  -2.782  1.00  0.00     0.270 C 
HETATM    2  O2  UNL     1      -2.053   2.226  -2.753  1.00  0.00    -0.344 OA
HETATM    3  C3  UNL     1      -2.301   1.505  -1.523  1.00  0.00     0.095 C 
HETATM    4  C4  UNL     1      -2.241   0.018  -1.881  1.00  0.00     0.008 C 
HETATM    5  C5  UNL     1      -1.087  -0.594  -2.196  1.00  0.00    -0.021 C 
HETATM    6  C6  UNL     1       0.157   0.233  -2.397  1.00  0.00     0.030 C 
HETATM    7  C7  UNL     1       0.071   1.670  -1.713  1.00  0.00     0.024 C 
HETATM    8  C8  UNL     1       1.405   2.282  -1.189  1.00  0.00     0.016 C 
HETATM    9  C9  UNL     1       2.689   1.434  -1.187  1.00  0.00     0.011 C 
HETATM   10  C10 UNL     1       2.443  -0.068  -1.161  1.00  0.00    -0.032 C 
HETATM   11  C11 UNL     1       1.755  -0.474   0.164  1.00  0.00     0.016 C 
HETATM   12  C12 UNL     1       3.709  -0.940  -1.406  1.00  0.00    -0.002 C 
HETATM   13  C21 UNL     1       3.095  -2.303  -1.814  1.00  0.00     0.006 C 
HETATM   14  C22 UNL     1       1.657  -2.002  -2.315  1.00  0.00     0.011 C 
HETATM   15  C23 UNL     1       1.566  -0.460  -2.397  1.00  0.00    -0.029 C 
HETATM   16  C24 UNL     1       2.194  -0.069  -3.791  1.00  0.00     0.016 C 
HETATM   17  C25 UNL     1      -1.076   1.822  -0.658  1.00  0.00     0.039 C 
HETATM   18  C26 UNL     1      -1.145   1.107   0.689  1.00  0.00     0.011 C 
HETATM   19  C27 UNL     1      -2.419   1.541   1.438  1.00  0.00     0.033 C 
HETATM   20  C28 UNL     1      -3.713   1.337   0.617  1.00  0.00     0.136 C 
HETATM   21  C35 UNL     1      -3.625   1.966  -0.817  1.00  0.00     0.014 C 
HETATM   22  C36 UNL     1      -3.681   3.514  -0.681  1.00  0.00     0.021 C 
HETATM   23  C37 UNL     1      -4.866   1.600  -1.669  1.00  0.00     0.021 C 
ENDROOT
BRANCH  20  24
HETATM   24  O4  UNL     1      -3.922  -0.078   0.542  1.00  0.00    -0.352 OA
BRANCH  24  25
HETATM   25  C29 UNL     1      -5.216  -0.504   0.994  1.00  0.00     0.292 C 
HETATM   26  O5  UNL     1      -5.285  -0.384   2.412  1.00  0.00    -0.348 OA
HETATM   27  C30 UNL     1      -6.561  -0.742   2.967  1.00  0.00     0.179 C 
HETATM   28  C32 UNL     1      -7.424  -1.653   2.062  1.00  0.00     0.180 C 
HETATM   29  C33 UNL     1      -6.568  -2.658   1.277  1.00  0.00     0.183 C 
HETATM   30  C34 UNL     1      -5.370  -1.986   0.584  1.00  0.00     0.204 C 
BRANCH  27  31
HETATM   31  C31 UNL     1      -6.290  -1.382   4.336  1.00  0.00     0.198 C 
BRANCH  31  32
HETATM   32  O6  UNL     1      -7.502  -1.692   5.017  1.00  0.00    -0.398 OA
HETATM   33  H48 UNL     1      -7.793  -0.880   5.468  1.00  0.00     0.209 HD
ENDBRANCH  31  32
ENDBRANCH  27  31
BRANCH  28  34
HETATM   34  O7  UNL     1      -8.147  -0.817   1.138  1.00  0.00    -0.390 OA
HETATM   35  H50 UNL     1      -8.607  -1.390   0.497  1.00  0.00     0.210 HD
ENDBRANCH  28  34
BRANCH  29  36
HETATM   36  O8  UNL     1      -6.095  -3.711   2.124  1.00  0.00    -0.390 OA
HETATM   37  H52 UNL     1      -6.866  -4.143   2.538  1.00  0.00     0.210 HD
ENDBRANCH  29  36
BRANCH  30  38
HETATM   38  O9  UNL     1      -5.536  -2.093  -0.844  1.00  0.00    -0.388 OA
HETATM   39  H54 UNL     1      -5.044  -2.889  -1.121  1.00  0.00     0.210 HD
ENDBRANCH  30  38
ENDBRANCH  24  25
ENDBRANCH  20  24
BRANCH   1  40
HETATM   40  O1  UNL     1      -0.506   3.982  -2.461  1.00  0.00    -0.365 OA
HETATM   41  C1  UNL     1      -1.055   4.817  -3.472  1.00  0.00     0.204 C 
ENDBRANCH   1  40
BRANCH  12  42
HETATM   42  C13 UNL     1       4.932  -0.965  -0.441  1.00  0.00    -0.010 C 
HETATM   43  C14 UNL     1       5.990  -1.932  -1.020  1.00  0.00     0.010 C 
BRANCH  42  44
HETATM   44  C15 UNL     1       4.666  -1.288   1.045  1.00  0.00     0.031 C 
BRANCH  44  45
HETATM   45  C16 UNL     1       5.818  -1.175   2.023  1.00  0.00    -0.027 C 
HETATM   46  C17 UNL     1       6.960  -0.479   1.857  1.00  0.00     0.006 C 
BRANCH  46  47
HETATM   47  C18 UNL     1       8.117  -0.352   2.826  1.00  0.00     0.068 C 
HETATM   48  C19 UNL     1       9.387  -0.921   2.184  1.00  0.00     0.050 C 
HETATM   49  C20 UNL     1       7.902  -0.989   4.202  1.00  0.00     0.050 C 
BRANCH  47  50
HETATM   50  O3  UNL     1       8.325   1.046   3.056  1.00  0.00    -0.387 OA
HETATM   51  H30 UNL     1       8.425   1.481   2.192  1.00  0.00     0.211 HD
ENDBRANCH  47  50
ENDBRANCH  46  47
ENDBRANCH  44  45
ENDBRANCH  42  44
ENDBRANCH  12  42
TORSDOF 13
