REMARK  5 active torsions:
REMARK  status: ('A' for Active; 'I' for Inactive)
REMARK    1  A    between atoms: C2_2  and  C3_3 
REMARK    2  A    between atoms: C6_6  and  C7_7 
REMARK    3  A    between atoms: C7_7  and  O1_9 
REMARK    4  A    between atoms: C23_29  and  O6_30 
REMARK    5  A    between atoms: C28_36  and  O8_37 
ROOT
HETATM    1  C3  UNL     1      -2.323  -1.719   1.120  1.00  0.00     0.008 C 
HETATM    2  C4  UNL     1      -2.637  -0.320   0.581  1.00  0.00    -0.023 C 
HETATM    3  C5  UNL     1      -2.119   0.243  -0.528  1.00  0.00     0.004 C 
HETATM    4  C6  UNL     1      -2.291   1.687  -0.962  1.00  0.00     0.183 C 
HETATM    5  O2  UNL     1      -0.947   2.207  -0.975  1.00  0.00    -0.306 OA
HETATM    6  C9  UNL     1      -0.765   3.526  -0.717  1.00  0.00     0.289 C 
HETATM    7  O3  UNL     1      -1.623   4.391  -0.760  1.00  0.00    -0.260 OA
HETATM    8  C10 UNL     1       0.614   3.701  -0.136  1.00  0.00     0.010 C 
HETATM    9  C11 UNL     1       0.668   4.602   1.058  1.00  0.00     0.054 C 
HETATM   10  C12 UNL     1       1.574   2.857  -0.576  1.00  0.00     0.004 C 
HETATM   11  C13 UNL     1       2.805   2.321   0.128  1.00  0.00     0.147 C 
HETATM   12  C14 UNL     1       3.509   3.128   1.228  1.00  0.00     0.233 C 
HETATM   13  O4  UNL     1       3.838   4.301   1.173  1.00  0.00    -0.272 OA
HETATM   14  N1  UNL     1       3.767   2.283   2.298  1.00  0.00    -0.327 N 
HETATM   15  C15 UNL     1       3.243   1.039   2.135  1.00  0.00     0.056 C 
HETATM   16  C16 UNL     1       3.311  -0.008   2.961  1.00  0.00     0.084 C 
HETATM   17  C17 UNL     1       2.575  -1.246   2.540  1.00  0.00     0.185 C 
HETATM   18  O5  UNL     1       2.217  -2.046   3.391  1.00  0.00    -0.287 OA
HETATM   19  C18 UNL     1       2.368  -1.454   1.065  1.00  0.00     0.040 C 
HETATM   20  C19 UNL     1       2.535  -0.341   0.211  1.00  0.00    -0.001 C 
HETATM   21  C20 UNL     1       2.563  -0.529  -1.178  1.00  0.00     0.021 C 
HETATM   22  C21 UNL     1       2.336  -1.795  -1.740  1.00  0.00    -0.027 C 
HETATM   23  C22 UNL     1       2.354  -1.944  -3.236  1.00  0.00     0.051 C 
HETATM   24  C23 UNL     1       1.970  -2.845  -0.886  1.00  0.00     0.086 C 
HETATM   25  C24 UNL     1       1.956  -2.665   0.508  1.00  0.00     0.058 C 
HETATM   26  C25 UNL     1       1.187  -3.634   1.318  1.00  0.00     0.163 C 
HETATM   27  O7  UNL     1       1.740  -4.653   1.722  1.00  0.00    -0.292 OA
HETATM   28  C26 UNL     1      -0.294  -3.314   1.598  1.00  0.00     0.084 C 
HETATM   29  C27 UNL     1      -0.884  -2.161   0.764  1.00  0.00     0.016 C 
HETATM   30  C28 UNL     1       2.431   1.007   0.880  1.00  0.00     0.143 C 
HETATM   31  H20 UNL     1       4.284   2.602   3.110  1.00  0.00     0.168 HD
ENDROOT
BRANCH   4  32
HETATM   32  C7  UNL     1      -2.961   1.870  -2.347  1.00  0.00     0.147 C 
HETATM   33  C8  UNL     1      -2.236   1.162  -3.488  1.00  0.00     0.042 C 
BRANCH  32  34
HETATM   34  O1  UNL     1      -4.319   1.421  -2.338  1.00  0.00    -0.393 OA
HETATM   35  H14 UNL     1      -4.786   1.914  -1.641  1.00  0.00     0.210 HD
ENDBRANCH  32  34
ENDBRANCH   4  32
BRANCH   1  36
HETATM   36  C2  UNL     1      -3.363  -2.755   0.659  1.00  0.00     0.004 C 
HETATM   37  C1  UNL     1      -4.782  -2.438   1.116  1.00  0.00     0.006 C 
ENDBRANCH   1  36
BRANCH  30  38
HETATM   38  O8  UNL     1       1.053   1.058   1.320  1.00  0.00    -0.377 OA
HETATM   39  H31 UNL     1       0.971   1.744   2.004  1.00  0.00     0.211 HD
ENDBRANCH  30  38
BRANCH  24  40
HETATM   40  O6  UNL     1       1.538  -4.044  -1.386  1.00  0.00    -0.359 OA
HETATM   41  H26 UNL     1       1.755  -4.127  -2.327  1.00  0.00     0.217 HD
ENDBRANCH  24  40
TORSDOF 5
