REMARK  8 active torsions:
REMARK  status: ('A' for Active; 'I' for Inactive)
REMARK    1  A    between atoms: C2_2  and  C3_3 
REMARK    2  A    between atoms: C2_2  and  C9_11 
REMARK    3  A    between atoms: C3_3  and  C4_4 
REMARK    4  A    between atoms: C4_4  and  C5_5 
REMARK    5  A    between atoms: C6_6  and  C7_7 
REMARK    6  A    between atoms: C6_6  and  C8_9 
REMARK    7  A    between atoms: C7_7  and  O1_8 
REMARK    8  A    between atoms: C8_9  and  O2_10 
ROOT
HETATM    1  C9  UNL     1       2.135   1.765   0.709  1.00  0.00     0.018 C 
HETATM    2  C10 UNL     1       2.370   0.934   1.995  1.00  0.00     0.010 C 
HETATM    3  C11 UNL     1       0.965   0.516   2.476  1.00  0.00     0.011 C 
HETATM    4  C12 UNL     1       0.164   0.292   1.171  1.00  0.00    -0.032 C 
HETATM    5  C13 UNL     1       0.671  -1.055   0.568  1.00  0.00     0.016 C 
HETATM    6  C14 UNL     1       0.643   1.529   0.362  1.00  0.00     0.002 C 
HETATM    7  C15 UNL     1       0.146   1.523  -1.073  1.00  0.00     0.006 C 
HETATM    8  C16 UNL     1      -1.395   1.487  -1.088  1.00  0.00     0.006 C 
HETATM    9  C17 UNL     1      -1.997   0.332  -0.236  1.00  0.00     0.003 C 
HETATM   10  C18 UNL     1      -3.562   0.123  -0.418  1.00  0.00    -0.035 C 
HETATM   11  C19 UNL     1      -4.373   1.392  -0.071  1.00  0.00     0.016 C 
HETATM   12  C20 UNL     1      -3.840  -0.183  -1.932  1.00  0.00     0.017 C 
HETATM   13  C21 UNL     1      -4.995  -1.137  -2.218  1.00  0.00     0.080 C 
HETATM   14  C22 UNL     1      -6.024  -1.141  -1.118  1.00  0.00     0.135 C 
HETATM   15  O3  UNL     1      -7.212  -0.937  -1.369  1.00  0.00    -0.297 OA
HETATM   16  C23 UNL     1      -5.529  -1.504   0.288  1.00  0.00     0.017 C 
HETATM   17  C24 UNL     1      -6.441  -0.834   1.333  1.00  0.00     0.023 C 
HETATM   18  C25 UNL     1      -5.704  -3.031   0.432  1.00  0.00     0.023 C 
HETATM   19  C26 UNL     1      -4.007  -1.130   0.421  1.00  0.00     0.009 C 
HETATM   20  C27 UNL     1      -3.523  -1.073   1.883  1.00  0.00     0.007 C 
HETATM   21  C28 UNL     1      -2.001  -0.926   1.979  1.00  0.00     0.011 C 
HETATM   22  C29 UNL     1      -1.442   0.325   1.252  1.00  0.00    -0.032 C 
HETATM   23  C30 UNL     1      -1.920   1.568   2.057  1.00  0.00     0.016 C 
ENDROOT
BRANCH   1  24
HETATM   24  C2  UNL     1       3.178   1.680  -0.404  1.00  0.00    -0.084 C 
HETATM   25  C1  UNL     1       3.709   2.827  -0.870  1.00  0.00     0.014 C 
BRANCH  24  26
HETATM   26  C3  UNL     1       3.554   0.309  -0.950  1.00  0.00     0.037 C 
BRANCH  26  27
HETATM   27  C4  UNL     1       4.697   0.187  -1.980  1.00  0.00     0.032 C 
BRANCH  27  28
HETATM   28  C5  UNL     1       6.062   0.339  -1.355  1.00  0.00    -0.019 C 
HETATM   29  C6  UNL     1       7.083  -0.544  -1.370  1.00  0.00    -0.037 C 
BRANCH  29  30
HETATM   30  C7  UNL     1       8.369  -0.236  -0.647  1.00  0.00     0.200 C 
BRANCH  30  31
HETATM   31  O1  UNL     1       8.607  -1.269   0.303  1.00  0.00    -0.397 OA
HETATM   32  H10 UNL     1       9.356  -0.972   0.849  1.00  0.00     0.209 HD
ENDBRANCH  30  31
ENDBRANCH  29  30
BRANCH  29  33
HETATM   33  C8  UNL     1       7.072  -1.872  -2.082  1.00  0.00     0.200 C 
BRANCH  33  34
HETATM   34  O2  UNL     1       6.935  -2.921  -1.136  1.00  0.00    -0.397 OA
HETATM   35  H13 UNL     1       7.480  -2.654  -0.366  1.00  0.00     0.209 HD
ENDBRANCH  33  34
ENDBRANCH  29  33
ENDBRANCH  27  28
ENDBRANCH  26  27
ENDBRANCH  24  26
ENDBRANCH   1  24
TORSDOF 8
