REMARK  12 active torsions:
REMARK  status: ('A' for Active; 'I' for Inactive)
REMARK    1  A    between atoms: O1_2  and  C2_3 
REMARK    2  A    between atoms: C3_5  and  C4_6 
REMARK    3  A    between atoms: C4_6  and  O3_7 
REMARK    4  A    between atoms: C4_6  and  C5_8 
REMARK    5  A    between atoms: C5_8  and  O4_10 
REMARK    6  A    between atoms: C5_8  and  C7_11 
REMARK    7  A    between atoms: C7_11  and  O5_12 
REMARK    8  A    between atoms: C9_14  and  C10_15 
REMARK    9  A    between atoms: C23_28  and  O6_29 
REMARK   10  A    between atoms: O6_29  and  C24_30 
REMARK   11  A    between atoms: C24_30  and  C25_32 
REMARK   12  A    between atoms: C34_41  and  O8_42 
ROOT
HETATM    1  C10 UNL     1      -3.034   1.367   0.494  1.00  0.00     0.004 C 
HETATM    2  C11 UNL     1      -3.146   2.286  -0.745  1.00  0.00     0.007 C 
HETATM    3  C12 UNL     1      -1.695   2.642  -1.116  1.00  0.00     0.011 C 
HETATM    4  C13 UNL     1      -0.850   1.472  -0.624  1.00  0.00    -0.021 A 
HETATM    5  C14 UNL     1      -1.328   0.100  -1.064  1.00  0.00     0.022 A 
HETATM    6  C15 UNL     1      -1.700   0.640   0.306  1.00  0.00    -0.027 A 
HETATM    7  C16 UNL     1      -1.109  -0.076   1.498  1.00  0.00     0.011 C 
HETATM    8  C17 UNL     1       0.330   0.322   1.843  1.00  0.00     0.007 C 
HETATM    9  C18 UNL     1       1.206   0.522   0.587  1.00  0.00     0.005 C 
HETATM   10  C19 UNL     1       2.776   0.486   0.849  1.00  0.00    -0.035 C 
HETATM   11  C20 UNL     1       3.214   1.502   1.930  1.00  0.00     0.016 C 
HETATM   12  C21 UNL     1       3.146  -0.947   1.378  1.00  0.00     0.012 C 
HETATM   13  C22 UNL     1       4.497  -1.494   0.906  1.00  0.00     0.034 C 
HETATM   14  C23 UNL     1       5.533  -0.404   0.657  1.00  0.00     0.140 C 
HETATM   15  C29 UNL     1       5.087   0.573  -0.479  1.00  0.00    -0.016 C 
HETATM   16  C30 UNL     1       5.815   1.919  -0.270  1.00  0.00     0.018 C 
HETATM   17  C31 UNL     1       5.556   0.040  -1.863  1.00  0.00     0.018 C 
HETATM   18  C32 UNL     1       3.512   0.705  -0.520  1.00  0.00     0.007 C 
HETATM   19  C33 UNL     1       3.001   1.963  -1.264  1.00  0.00     0.038 C 
HETATM   20  C34 UNL     1       1.495   1.890  -1.556  1.00  0.00     0.128 C 
HETATM   21  C35 UNL     1       0.649   1.733  -0.260  1.00  0.00    -0.005 C 
HETATM   22  C36 UNL     1       0.714   3.069   0.534  1.00  0.00     0.019 C 
ENDROOT
BRANCH   1  23
HETATM   23  C9  UNL     1      -4.200   0.407   0.773  1.00  0.00     0.048 C 
HETATM   24  C2  UNL     1      -5.545   1.039   1.130  1.00  0.00     0.264 C 
HETATM   25  O2  UNL     1      -6.502  -0.025   1.023  1.00  0.00    -0.353 OA
HETATM   26  C3  UNL     1      -5.951  -1.066   0.188  1.00  0.00     0.157 C 
HETATM   27  C8  UNL     1      -4.621  -0.530  -0.344  1.00  0.00     0.044 C 
BRANCH  24  28
HETATM   28  O1  UNL     1      -5.869   2.099   0.240  1.00  0.00    -0.366 OA
HETATM   29  C1  UNL     1      -7.125   2.686   0.541  1.00  0.00     0.204 C 
ENDBRANCH  24  28
BRANCH  26  30
HETATM   30  C4  UNL     1      -6.917  -1.500  -0.937  1.00  0.00     0.183 C 
BRANCH  30  31
HETATM   31  O3  UNL     1      -7.296  -0.362  -1.726  1.00  0.00    -0.390 OA
HETATM   32  H7  UNL     1      -7.388  -0.661  -2.646  1.00  0.00     0.210 HD
ENDBRANCH  30  31
BRANCH  30  33
HETATM   33  C5  UNL     1      -8.176  -2.268  -0.450  1.00  0.00     0.103 C 
HETATM   34  C6  UNL     1      -9.013  -2.720  -1.660  1.00  0.00     0.051 C 
BRANCH  33  35
HETATM   35  O4  UNL     1      -7.762  -3.472   0.224  1.00  0.00    -0.385 OA
HETATM   36  H11 UNL     1      -8.567  -3.787   0.685  1.00  0.00     0.210 HD
ENDBRANCH  33  35
BRANCH  33  37
HETATM   37  C7  UNL     1      -9.054  -1.454   0.522  1.00  0.00     0.204 C 
BRANCH  37  38
HETATM   38  O5  UNL     1     -10.181  -2.251   0.921  1.00  0.00    -0.398 OA
HETATM   39  H14 UNL     1     -10.725  -1.679   1.493  1.00  0.00     0.209 HD
ENDBRANCH  37  38
ENDBRANCH  33  37
ENDBRANCH  30  33
ENDBRANCH  26  30
ENDBRANCH   1  23
BRANCH  20  40
HETATM   40  O8  UNL     1       1.281   0.786  -2.442  1.00  0.00    -0.395 OA
HETATM   41  H55 UNL     1       1.713   1.001  -3.287  1.00  0.00     0.210 HD
ENDBRANCH  20  40
BRANCH  14  42
HETATM   42  O6  UNL     1       6.776  -1.050   0.306  1.00  0.00    -0.312 OA
BRANCH  42  43
HETATM   43  C24 UNL     1       7.816  -0.913   1.158  1.00  0.00     0.283 C 
HETATM   44  O7  UNL     1       7.830  -0.273   2.198  1.00  0.00    -0.260 OA
BRANCH  43  45
HETATM   45  C25 UNL     1       9.032  -1.568   0.627  1.00  0.00     0.084 C 
HETATM   46  C26 UNL     1       9.123  -2.680  -0.130  1.00  0.00    -0.082 C 
HETATM   47  C27 UNL     1       7.967  -3.548  -0.545  1.00  0.00     0.043 C 
HETATM   48  C28 UNL     1      10.467  -3.162  -0.607  1.00  0.00     0.043 C 
ENDBRANCH  43  45
ENDBRANCH  42  43
ENDBRANCH  14  42
TORSDOF 12
