REMARK  9 active torsions:
REMARK  status: ('A' for Active; 'I' for Inactive)
REMARK    1  A    between atoms: C3_3  and  O1_4 
REMARK    2  A    between atoms: N1_14  and  O2_16 
REMARK    3  A    between atoms: O2_16  and  C13_17 
REMARK    4  A    between atoms: C13_17  and  C14_18 
REMARK       I    between atoms: C14_18  and  N2_20 
REMARK    5  A    between atoms: N2_20  and  C15_21 
REMARK    6  A    between atoms: C15_21  and  C16_22 
REMARK    7  A    between atoms: C15_21  and  C17_25 
REMARK    8  A    between atoms: C16_22  and  O5_24 
REMARK    9  A    between atoms: C17_25  and  C19_27 
ROOT
HETATM    1  C1  UNL     1      -7.885  -2.473   2.612  1.00  0.00     0.015 C 
HETATM    2  C2  UNL     1      -7.246  -2.173   1.640  1.00  0.00    -0.078 C 
HETATM    3  C3  UNL     1      -6.468  -1.818   0.444  1.00  0.00     0.128 C 
HETATM    4  C4  UNL     1      -7.297  -1.001  -0.579  1.00  0.00     0.052 C 
HETATM    5  C5  UNL     1      -6.312  -0.026  -1.257  1.00  0.00     0.010 C 
HETATM    6  C6  UNL     1      -4.939  -0.438  -0.732  1.00  0.00     0.002 C 
HETATM    7  C7  UNL     1      -3.785   0.567  -0.819  1.00  0.00    -0.004 C 
HETATM    8  C8  UNL     1      -3.549   1.023  -2.265  1.00  0.00     0.010 C 
HETATM    9  C9  UNL     1      -2.383   2.000  -2.350  1.00  0.00     0.035 C 
HETATM   10  C10 UNL     1      -1.119   1.432  -1.748  1.00  0.00    -0.069 C 
HETATM   11  C11 UNL     1       0.028   1.485  -2.448  1.00  0.00     0.030 C 
HETATM   12  C12 UNL     1       1.327   1.067  -1.865  1.00  0.00     0.032 C 
HETATM   13  N1  UNL     1       2.383   1.131  -2.626  1.00  0.00    -0.271 N 
ATOM     14  H1  UNL     1       2.366   1.408  -3.607  1.00  0.00     0.194 HD
HETATM   15  C21 UNL     1       1.345   0.663  -0.406  1.00  0.00     0.060 C 
HETATM   16  C22 UNL     1       0.034  -0.004  -0.016  1.00  0.00     0.020 C 
HETATM   17  C23 UNL     1      -1.230   0.846  -0.335  1.00  0.00    -0.016 C 
HETATM   18  C24 UNL     1      -1.314   2.018   0.668  1.00  0.00     0.020 C 
HETATM   19  C25 UNL     1      -2.492  -0.097  -0.251  1.00  0.00     0.002 C 
HETATM   20  C26 UNL     1      -2.729  -0.710   1.156  1.00  0.00     0.007 C 
HETATM   21  C27 UNL     1      -3.968  -1.621   1.226  1.00  0.00     0.014 C 
HETATM   22  C28 UNL     1      -5.232  -0.912   0.712  1.00  0.00     0.003 C 
HETATM   23  C29 UNL     1      -5.599   0.254   1.674  1.00  0.00     0.020 C 
ENDROOT
BRANCH   3  24
HETATM   24  O1  UNL     1      -6.059  -3.030  -0.194  1.00  0.00    -0.377 OA
HETATM   25  H2  UNL     1      -6.854  -3.582  -0.291  1.00  0.00     0.211 HD
ENDBRANCH   3  24
BRANCH  13  26
HETATM   26  O2  UNL     1       3.545   0.772  -1.931  1.00  0.00    -0.271 OA
BRANCH  26  27
HETATM   27  C13 UNL     1       4.639   0.752  -2.843  1.00  0.00     0.303 C 
BRANCH  27  28
HETATM   28  C14 UNL     1       5.943   0.471  -2.105  1.00  0.00     0.244 C 
HETATM   29  O3  UNL     1       6.934   0.013  -2.668  1.00  0.00    -0.271 OA
HETATM   30  N2  UNL     1       5.936   0.813  -0.773  1.00  0.00    -0.344 N 
HETATM   31  H16 UNL     1       5.073   1.179  -0.375  1.00  0.00     0.163 HD
BRANCH  30  32
HETATM   32  C15 UNL     1       7.077   0.597   0.115  1.00  0.00     0.186 C 
BRANCH  32  33
HETATM   33  C16 UNL     1       6.945   1.569   1.288  1.00  0.00     0.163 C 
HETATM   34  O4  UNL     1       5.907   2.076   1.691  1.00  0.00    -0.648 OA
BRANCH  33  35
HETATM   35  O5  UNL     1       8.116   1.849   1.892  1.00  0.00    -0.775 OA
HETATM   36  H18 UNL     1       7.877   2.481   2.602  1.00  0.00     0.167 HD
ENDBRANCH  33  35
ENDBRANCH  32  33
BRANCH  32  37
HETATM   37  C17 UNL     1       7.208  -0.883   0.550  1.00  0.00     0.014 C 
HETATM   38  C18 UNL     1       8.643  -1.183   1.007  1.00  0.00     0.012 C 
BRANCH  37  39
HETATM   39  C19 UNL     1       6.224  -1.352   1.645  1.00  0.00     0.002 C 
HETATM   40  C20 UNL     1       4.756  -1.287   1.254  1.00  0.00     0.005 C 
ENDBRANCH  37  39
ENDBRANCH  32  37
ENDBRANCH  30  32
ENDBRANCH  27  28
ENDBRANCH  26  27
ENDBRANCH  13  26
TORSDOF 9
