REMARK  14 active torsions:
REMARK  status: ('A' for Active; 'I' for Inactive)
REMARK    1  A    between atoms: C2_2  and  C3_3 
REMARK    2  A    between atoms: C6_6  and  C7_7 
REMARK    3  A    between atoms: C7_7  and  C8_8 
REMARK    4  A    between atoms: C14_17  and  C15_18 
REMARK    5  A    between atoms: C15_18  and  O3_20 
REMARK    6  A    between atoms: C19_24  and  C20_25 
REMARK    7  A    between atoms: C20_25  and  C21_26 
REMARK    8  A    between atoms: C22_27  and  C23_28 
REMARK    9  A    between atoms: C25_30  and  C26_31 
REMARK   10  A    between atoms: C27_33  and  C28_34 
REMARK   11  A    between atoms: C29_38  and  C30_39 
REMARK   12  A    between atoms: C30_39  and  C31_40 
REMARK   13  A    between atoms: C31_40  and  C32_41 
REMARK   14  A    between atoms: C32_41  and  O7_43 
ROOT
HETATM    1  C8  UNL     1      -3.004  -0.769  -0.409  1.00  0.00     0.016 C 
HETATM    2  N1  UNL     1      -2.187  -0.353   0.507  1.00  0.00    -0.362 N 
ATOM      3  H1  UNL     1      -2.368  -0.340   1.511  1.00  0.00     0.165 HD
HETATM    4  C9  UNL     1      -1.032   0.068  -0.113  1.00  0.00     0.024 C 
HETATM    5  C10 UNL     1       0.046   0.402   0.612  1.00  0.00     0.014 C 
HETATM    6  C11 UNL     1       1.247   0.962   0.134  1.00  0.00     0.056 A 
HETATM    7  C12 UNL     1       2.011   1.511   1.122  1.00  0.00     0.046 A 
HETATM    8  C13 UNL     1       1.332   1.337   2.394  1.00  0.00     0.180 C 
HETATM    9  O1  UNL     1       1.682   1.831   3.460  1.00  0.00    -0.291 OA
HETATM   10  C14 UNL     1       0.077   0.444   2.171  1.00  0.00     0.197 C 
HETATM   11  C17 UNL     1       3.177   2.035   0.539  1.00  0.00    -0.023 A 
HETATM   12  C18 UNL     1       4.298   2.710   1.246  1.00  0.00     0.051 C 
HETATM   13  C19 UNL     1       3.077   1.737  -0.828  1.00  0.00     0.022 A 
HETATM   14  N3  UNL     1       1.875   1.076  -1.053  1.00  0.00    -0.357 N 
HETATM   15  C29 UNL     1      -1.215   0.134  -1.615  1.00  0.00     0.046 C 
HETATM   16  C34 UNL     1      -2.458  -0.751  -1.818  1.00  0.00     0.041 C 
HETATM   17  C35 UNL     1      -2.096  -2.172  -2.244  1.00  0.00     0.017 C 
HETATM   18  H25 UNL     1       1.569   0.722  -1.947  1.00  0.00     0.166 HD
ENDROOT
BRANCH  10  19
HETATM   19  C15 UNL     1       0.308  -0.927   2.758  1.00  0.00     0.274 C 
HETATM   20  O2  UNL     1       1.409  -1.415   2.997  1.00  0.00    -0.264 OA
BRANCH  19  21
HETATM   21  O3  UNL     1      -0.879  -1.565   2.981  1.00  0.00    -0.326 OA
HETATM   22  C16 UNL     1      -0.754  -2.850   3.603  1.00  0.00     0.213 C 
ENDBRANCH  19  21
ENDBRANCH  10  19
BRANCH  15  23
HETATM   23  C30 UNL     1      -1.425   1.565  -2.158  1.00  0.00     0.021 C 
BRANCH  23  24
HETATM   24  C31 UNL     1      -2.492   2.406  -1.445  1.00  0.00     0.112 C 
BRANCH  24  25
HETATM   25  C32 UNL     1      -2.632   3.769  -2.085  1.00  0.00     0.258 C 
HETATM   26  O6  UNL     1      -2.310   4.038  -3.233  1.00  0.00    -0.265 OA
BRANCH  25  27
HETATM   27  O7  UNL     1      -3.208   4.637  -1.205  1.00  0.00    -0.326 OA
HETATM   28  C33 UNL     1      -3.378   5.959  -1.714  1.00  0.00     0.213 C 
ENDBRANCH  25  27
ENDBRANCH  24  25
ENDBRANCH  23  24
ENDBRANCH  15  23
BRANCH   1  29
HETATM   29  C7  UNL     1      -4.385  -1.248  -0.169  1.00  0.00     0.055 C 
BRANCH  29  30
HETATM   30  C6  UNL     1      -4.767  -1.764   1.002  1.00  0.00     0.043 A 
HETATM   31  C4  UNL     1      -6.060  -2.302   1.382  1.00  0.00    -0.019 A 
HETATM   32  C3  UNL     1      -6.033  -2.762   2.654  1.00  0.00     0.039 A 
HETATM   33  C5  UNL     1      -7.206  -2.308   0.425  1.00  0.00     0.052 C 
HETATM   34  C36 UNL     1      -4.642  -2.491   3.149  1.00  0.00     0.256 A 
HETATM   35  N4  UNL     1      -3.978  -1.900   2.100  1.00  0.00    -0.322 N 
HETATM   36  O8  UNL     1      -4.179  -2.741   4.246  1.00  0.00    -0.267 OA
HETATM   37  H38 UNL     1      -3.015  -1.575   2.160  1.00  0.00     0.169 HD
BRANCH  32  38
HETATM   38  C2  UNL     1      -7.108  -3.360   3.411  1.00  0.00     0.007 C 
HETATM   39  C1  UNL     1      -7.021  -3.888   4.637  1.00  0.00     0.012 C 
ENDBRANCH  32  38
ENDBRANCH  29  30
ENDBRANCH   1  29
BRANCH  13  40
HETATM   40  C20 UNL     1       4.026   2.001  -1.960  1.00  0.00     0.115 C 
BRANCH  40  41
HETATM   41  C21 UNL     1       5.310   1.242  -1.811  1.00  0.00     0.022 A 
HETATM   42  C22 UNL     1       5.599  -0.117  -1.846  1.00  0.00    -0.020 A 
HETATM   43  C25 UNL     1       7.015  -0.251  -1.610  1.00  0.00     0.040 A 
HETATM   44  C27 UNL     1       7.529   1.030  -1.459  1.00  0.00     0.084 A 
HETATM   45  N2  UNL     1       6.485   1.911  -1.593  1.00  0.00    -0.356 N 
HETATM   46  H24 UNL     1       6.594   2.916  -1.511  1.00  0.00     0.166 HD
BRANCH  42  47
HETATM   47  C23 UNL     1       4.624  -1.238  -2.069  1.00  0.00     0.037 C 
HETATM   48  C24 UNL     1       4.206  -1.916  -0.772  1.00  0.00     0.010 C 
ENDBRANCH  42  47
BRANCH  43  49
HETATM   49  C26 UNL     1       7.782  -1.488  -1.534  1.00  0.00     0.273 C 
HETATM   50  O4  UNL     1       8.989  -1.535  -1.320  1.00  0.00    -0.301 OA
ENDBRANCH  43  49
BRANCH  44  51
HETATM   51  C28 UNL     1       8.874   1.491  -1.206  1.00  0.00     0.288 C 
HETATM   52  O5  UNL     1       9.164   2.683  -1.119  1.00  0.00    -0.300 OA
ENDBRANCH  44  51
ENDBRANCH  40  41
ENDBRANCH  13  40
TORSDOF 14
