REMARK  8 active torsions:
REMARK  status: ('A' for Active; 'I' for Inactive)
REMARK    1  A    between atoms: C4_4  and  C5_5 
REMARK    2  A    between atoms: C5_5  and  C6_6 
REMARK    3  A    between atoms: C6_6  and  C7_7 
REMARK    4  A    between atoms: C9_9  and  C10_10 
REMARK    5  A    between atoms: C11_11  and  C12_12 
REMARK    6  A    between atoms: C14_14  and  C15_15 
REMARK    7  A    between atoms: C24_25  and  C26_27 
REMARK    8  A    between atoms: C29_31  and  O3_33 
ROOT
HETATM    1  C15 UNL     1      -1.388  -0.848  -1.977  1.00  0.00     0.149 C 
HETATM    2  C16 UNL     1      -2.453   0.205  -1.700  1.00  0.00     0.054 C 
HETATM    3  C17 UNL     1      -3.793  -0.593  -1.564  1.00  0.00     0.050 C 
HETATM    4  C18 UNL     1      -3.283  -2.061  -1.709  1.00  0.00     0.272 C 
HETATM    5  O1  UNL     1      -3.986  -3.101  -1.050  1.00  0.00    -0.360 OA
HETATM    6  C19 UNL     1      -3.891  -3.116   0.360  1.00  0.00     0.171 C 
HETATM    7  C20 UNL     1      -5.108  -2.454   0.985  1.00  0.00     0.027 C 
HETATM    8  C21 UNL     1      -5.557  -1.162   0.302  1.00  0.00     0.012 C 
HETATM    9  C22 UNL     1      -4.383  -0.264  -0.140  1.00  0.00     0.032 C 
HETATM   10  C23 UNL     1      -4.770   1.226  -0.018  1.00  0.00    -0.066 C 
HETATM   11  C24 UNL     1      -4.682   1.947   1.130  1.00  0.00    -0.021 C 
HETATM   12  C25 UNL     1      -4.944   3.426   1.256  1.00  0.00     0.052 C 
HETATM   13  C27 UNL     1      -5.219   1.875  -1.315  1.00  0.00     0.038 C 
HETATM   14  C28 UNL     1      -5.823   0.875  -2.289  1.00  0.00     0.042 C 
HETATM   15  C29 UNL     1      -4.851  -0.255  -2.692  1.00  0.00     0.067 C 
HETATM   16  C30 UNL     1      -4.230   0.066  -4.066  1.00  0.00     0.047 C 
HETATM   17  O4  UNL     1      -1.884  -2.042  -1.377  1.00  0.00    -0.351 OA
ENDROOT
BRANCH   1  18
HETATM   18  C14 UNL     1      -0.009  -0.483  -1.504  1.00  0.00     0.011 C 
HETATM   19  C12 UNL     1       0.542  -0.563  -0.274  1.00  0.00    -0.063 C 
HETATM   20  C13 UNL     1      -0.212  -1.001   0.954  1.00  0.00     0.048 C 
BRANCH  19  21
HETATM   21  C11 UNL     1       1.948  -0.184  -0.113  1.00  0.00     0.006 C 
HETATM   22  C10 UNL     1       2.667  -0.238   1.022  1.00  0.00     0.001 C 
BRANCH  22  23
HETATM   23  C9  UNL     1       4.063   0.149   1.082  1.00  0.00     0.002 C 
HETATM   24  C7  UNL     1       4.860   0.169   2.171  1.00  0.00    -0.084 C 
HETATM   25  C8  UNL     1       4.419  -0.202   3.568  1.00  0.00     0.043 C 
BRANCH  24  26
HETATM   26  C6  UNL     1       6.330   0.579   2.128  1.00  0.00     0.037 C 
BRANCH  26  27
HETATM   27  C5  UNL     1       6.940   0.937   0.765  1.00  0.00     0.031 C 
BRANCH  27  28
HETATM   28  C4  UNL     1       8.385   1.342   0.899  1.00  0.00    -0.024 C 
HETATM   29  C2  UNL     1       9.476   0.606   0.611  1.00  0.00    -0.091 C 
HETATM   30  C1  UNL     1      10.857   1.185   0.771  1.00  0.00     0.042 C 
HETATM   31  C3  UNL     1       9.455  -0.820   0.132  1.00  0.00     0.042 C 
ENDBRANCH  27  28
ENDBRANCH  26  27
ENDBRANCH  24  26
ENDBRANCH  22  23
ENDBRANCH  19  21
ENDBRANCH   1  18
BRANCH  15  32
HETATM   32  O3  UNL     1      -5.670  -1.413  -2.924  1.00  0.00    -0.389 OA
HETATM   33  H44 UNL     1      -6.366  -1.190  -3.567  1.00  0.00     0.210 HD
ENDBRANCH  15  32
BRANCH  11  34
HETATM   34  C26 UNL     1      -4.294   1.322   2.436  1.00  0.00     0.265 C 
HETATM   35  O2  UNL     1      -4.171   1.971   3.470  1.00  0.00    -0.302 OA
ENDBRANCH  11  34
TORSDOF 8
