REMARK  4 active torsions:
REMARK  status: ('A' for Active; 'I' for Inactive)
REMARK    1  A    between atoms: C7_11  and  O3_12 
REMARK    2  A    between atoms: C10_16  and  C11_17 
REMARK    3  A    between atoms: C21_28  and  C22_29 
REMARK    4  A    between atoms: C28_37  and  O8_38 
ROOT
HETATM    1  C1  UNL     1      -6.950   1.907   1.383  1.00  0.00     0.040 C 
HETATM    2  C2  UNL     1      -7.086   1.336  -0.023  1.00  0.00     0.124 C 
HETATM    3  C3  UNL     1      -7.090  -0.195  -0.098  1.00  0.00     0.081 C 
HETATM    4  C4  UNL     1      -5.695  -0.823  -0.127  1.00  0.00     0.162 C 
HETATM    5  N1  UNL     1      -5.089  -0.854   1.211  1.00  0.00    -0.336 N 
HETATM    6  C5  UNL     1      -4.312  -1.957   1.501  1.00  0.00     0.229 C 
HETATM    7  O1  UNL     1      -3.484  -1.953   2.399  1.00  0.00    -0.273 OA
HETATM    8  C6  UNL     1      -4.582  -3.138   0.602  1.00  0.00     0.198 C 
HETATM    9  S1  UNL     1      -5.853  -2.594  -0.485  1.00  0.00    -0.021 S 
HETATM   10  O2  UNL     1      -5.593  -2.991  -1.846  1.00  0.00    -0.270 OA
HETATM   11  C7  UNL     1      -4.788  -0.117  -1.193  1.00  0.00     0.251 C 
HETATM   12  O4  UNL     1      -3.459  -0.672  -1.111  1.00  0.00    -0.340 OA
HETATM   13  C8  UNL     1      -2.455   0.346  -0.981  1.00  0.00     0.156 C 
HETATM   14  C9  UNL     1      -1.079  -0.305  -0.803  1.00  0.00     0.056 C 
HETATM   15  C10 UNL     1       0.067   0.736  -0.661  1.00  0.00     0.043 C 
HETATM   16  C12 UNL     1      -0.322   1.857   0.317  1.00  0.00    -0.065 C 
HETATM   17  C13 UNL     1       0.557   2.390   1.182  1.00  0.00    -0.022 C 
HETATM   18  C14 UNL     1       1.991   1.990   1.304  1.00  0.00     0.035 C 
HETATM   19  C15 UNL     1       2.490   1.031   0.197  1.00  0.00     0.030 C 
HETATM   20  C16 UNL     1       1.382   0.007  -0.164  1.00  0.00     0.012 C 
HETATM   21  C17 UNL     1       1.893  -1.090  -1.121  1.00  0.00     0.007 C 
HETATM   22  C18 UNL     1       3.183  -1.739  -0.629  1.00  0.00     0.013 C 
HETATM   23  C19 UNL     1       4.332  -0.717  -0.395  1.00  0.00    -0.005 C 
HETATM   24  C20 UNL     1       4.799  -0.161  -1.755  1.00  0.00     0.019 C 
HETATM   25  C21 UNL     1       5.477  -1.433   0.405  1.00  0.00     0.028 C 
HETATM   26  C26 UNL     1       4.986  -1.375   1.870  1.00  0.00     0.013 C 
HETATM   27  C27 UNL     1       3.905  -0.290   1.953  1.00  0.00     0.040 C 
HETATM   28  C28 UNL     1       3.859   0.399   0.577  1.00  0.00     0.070 C 
HETATM   29  C29 UNL     1      -1.744   2.384   0.287  1.00  0.00     0.069 C 
HETATM   30  C30 UNL     1      -2.763   1.252   0.228  1.00  0.00     0.158 C 
HETATM   31  O9  UNL     1      -4.101   1.785   0.236  1.00  0.00    -0.347 OA
HETATM   32  C31 UNL     1      -4.833   1.430  -0.932  1.00  0.00     0.326 C 
HETATM   33  O10 UNL     1      -6.165   1.934  -0.927  1.00  0.00    -0.351 OA
HETATM   34  H7  UNL     1      -4.818   0.001   1.691  1.00  0.00     0.164 HD
HETATM   35  H10 UNL     1      -7.055  -3.061  -0.079  1.00  0.00     0.128 HD
ENDROOT
BRANCH  11  36
HETATM   36  O3  UNL     1      -5.299  -0.392  -2.502  1.00  0.00    -0.359 OA
HETATM   37  H11 UNL     1      -5.026   0.333  -3.094  1.00  0.00     0.213 HD
ENDBRANCH  11  36
BRANCH  15  38
HETATM   38  C11 UNL     1       0.268   1.368  -2.058  1.00  0.00     0.245 C 
HETATM   39  O5  UNL     1      -0.246   2.428  -2.428  1.00  0.00    -0.306 OA
ENDBRANCH  15  38
BRANCH  28  40
HETATM   40  O8  UNL     1       4.833   1.450   0.588  1.00  0.00    -0.389 OA
HETATM   41  H36 UNL     1       4.631   2.074   1.306  1.00  0.00     0.210 HD
ENDBRANCH  28  40
BRANCH  25  42
HETATM   42  C22 UNL     1       6.887  -0.917   0.236  1.00  0.00    -0.045 A 
HETATM   43  C23 UNL     1       7.547   0.001   0.947  1.00  0.00     0.087 A 
HETATM   44  C24 UNL     1       8.885   0.123   0.372  1.00  0.00     0.283 A 
HETATM   45  O6  UNL     1       9.743   0.893   0.760  1.00  0.00    -0.260 OA
HETATM   46  O7  UNL     1       9.007  -0.755  -0.662  1.00  0.00    -0.314 OA
HETATM   47  C25 UNL     1       7.786  -1.475  -0.807  1.00  0.00     0.213 A 
ENDBRANCH  25  42
TORSDOF 4
