REMARK  10 active torsions:
REMARK  status: ('A' for Active; 'I' for Inactive)
REMARK    1  A    between atoms: O1_2  and  C2_3 
REMARK    2  A    between atoms: C2_3  and  C3_5 
REMARK    3  A    between atoms: C3_5  and  C4_6 
REMARK    4  A    between atoms: C3_5  and  N1_13 
REMARK    5  A    between atoms: C4_6  and  C5_7 
REMARK       I    between atoms: N1_13  and  C11_14 
REMARK    6  A    between atoms: C11_14  and  C12_16 
REMARK    7  A    between atoms: C12_16  and  O4_17 
REMARK    8  A    between atoms: O4_17  and  N2_18 
REMARK    9  A    between atoms: C27_34  and  O5_35 
REMARK   10  A    between atoms: C27_34  and  C28_36 
ROOT
HETATM    1  N2  UNL     1       2.073   1.769   0.764  1.00  0.00    -0.271 N 
ATOM      2  H2  UNL     1       2.564   2.480   0.222  1.00  0.00     0.194 HD
HETATM    3  C13 UNL     1       0.980   1.185   0.373  1.00  0.00     0.032 C 
HETATM    4  C14 UNL     1       0.264   0.093   1.094  1.00  0.00     0.030 C 
HETATM    5  C15 UNL     1      -0.922  -0.380   0.672  1.00  0.00    -0.069 C 
HETATM    6  C16 UNL     1      -1.659  -1.354   1.570  1.00  0.00     0.035 C 
HETATM    7  C17 UNL     1      -2.792  -2.124   0.897  1.00  0.00     0.010 C 
HETATM    8  C18 UNL     1      -3.744  -1.251   0.056  1.00  0.00    -0.004 C 
HETATM    9  C19 UNL     1      -3.181   0.184  -0.190  1.00  0.00     0.002 C 
HETATM   10  C20 UNL     1      -4.108   0.967  -1.146  1.00  0.00     0.007 C 
HETATM   11  C21 UNL     1      -5.559   1.025  -0.617  1.00  0.00     0.013 C 
HETATM   12  C22 UNL     1      -6.135  -0.376  -0.323  1.00  0.00    -0.002 C 
HETATM   13  C23 UNL     1      -6.347  -1.124  -1.669  1.00  0.00     0.019 C 
HETATM   14  C24 UNL     1      -5.153  -1.101   0.643  1.00  0.00     0.002 C 
HETATM   15  C25 UNL     1      -5.923  -2.348   1.058  1.00  0.00     0.009 C 
HETATM   16  C26 UNL     1      -7.389  -1.880   1.141  1.00  0.00     0.047 C 
HETATM   17  C27 UNL     1      -7.439  -0.446   0.533  1.00  0.00     0.125 C 
HETATM   18  C30 UNL     1      -1.661   0.155  -0.562  1.00  0.00    -0.016 C 
HETATM   19  C31 UNL     1      -1.381  -0.748  -1.787  1.00  0.00     0.020 C 
HETATM   20  C32 UNL     1      -1.145   1.583  -0.883  1.00  0.00     0.020 C 
HETATM   21  C33 UNL     1       0.379   1.663  -0.932  1.00  0.00     0.060 C 
ENDROOT
BRANCH   1  22
HETATM   22  O4  UNL     1       2.500   1.307   2.020  1.00  0.00    -0.271 OA
BRANCH  22  23
HETATM   23  C12 UNL     1       3.512   2.172   2.521  1.00  0.00     0.303 C 
BRANCH  23  24
HETATM   24  C11 UNL     1       4.916   1.676   2.188  1.00  0.00     0.244 C 
HETATM   25  N1  UNL     1       5.008   0.952   1.022  1.00  0.00    -0.345 N 
HETATM   26  H12 UNL     1       4.158   0.844   0.463  1.00  0.00     0.163 HD
HETATM   27  O3  UNL     1       5.894   1.943   2.883  1.00  0.00    -0.271 OA
BRANCH  25  28
HETATM   28  C3  UNL     1       6.272   0.398   0.537  1.00  0.00     0.188 C 
BRANCH  28  29
HETATM   29  C2  UNL     1       5.938  -0.730  -0.441  1.00  0.00     0.281 C 
HETATM   30  O2  UNL     1       4.970  -0.718  -1.196  1.00  0.00    -0.263 OA
BRANCH  29  31
HETATM   31  O1  UNL     1       6.854  -1.735  -0.361  1.00  0.00    -0.325 OA
HETATM   32  C1  UNL     1       6.588  -2.836  -1.231  1.00  0.00     0.213 C 
ENDBRANCH  29  31
ENDBRANCH  28  29
BRANCH  28  33
HETATM   33  C4  UNL     1       7.119   1.470  -0.162  1.00  0.00     0.074 C 
BRANCH  33  34
HETATM   34  C5  UNL     1       8.586   1.111  -0.228  1.00  0.00    -0.056 A 
HETATM   35  C6  UNL     1       9.176   0.719  -1.436  1.00  0.00     0.007 A 
HETATM   36  C7  UNL     1      10.532   0.390  -1.482  1.00  0.00     0.001 A 
HETATM   37  C8  UNL     1      11.307   0.448  -0.324  1.00  0.00     0.000 A 
HETATM   38  C9  UNL     1      10.729   0.838   0.882  1.00  0.00     0.001 A 
HETATM   39  C10 UNL     1       9.374   1.167   0.931  1.00  0.00     0.007 A 
ENDBRANCH  33  34
ENDBRANCH  28  33
ENDBRANCH  25  28
ENDBRANCH  23  24
ENDBRANCH  22  23
ENDBRANCH   1  22
BRANCH  17  40
HETATM   40  O5  UNL     1      -7.359   0.486   1.618  1.00  0.00    -0.381 OA
HETATM   41  H34 UNL     1      -8.071   0.271   2.248  1.00  0.00     0.211 HD
ENDBRANCH  17  40
BRANCH  17  42
HETATM   42  C28 UNL     1      -8.746  -0.184  -0.253  1.00  0.00     0.158 C 
HETATM   43  C29 UNL     1      -9.063   1.241  -0.638  1.00  0.00     0.094 C 
HETATM   44  O6  UNL     1      -9.504  -1.095  -0.595  1.00  0.00    -0.295 OA
ENDBRANCH  17  42
TORSDOF 10
