REMARK  9 active torsions:
REMARK  status: ('A' for Active; 'I' for Inactive)
REMARK    1  A    between atoms: O1_2  and  C2_3 
REMARK    2  A    between atoms: C2_3  and  C3_4 
REMARK    3  A    between atoms: C3_4  and  N1_5 
REMARK       I    between atoms: N1_5  and  C4_6 
REMARK    4  A    between atoms: C4_6  and  C5_8 
REMARK    5  A    between atoms: C5_8  and  C7_10 
REMARK    6  A    between atoms: C15_20  and  C16_21 
REMARK    7  A    between atoms: C16_21  and  O3_22 
REMARK    8  A    between atoms: O3_22  and  C17_23 
REMARK    9  A    between atoms: C26_34  and  O4_35 
ROOT
HETATM    1  C7  UNL     1      -2.716   0.511   0.148  1.00  0.00     0.027 C 
HETATM    2  C8  UNL     1      -2.416   1.668  -0.812  1.00  0.00     0.009 C 
HETATM    3  C9  UNL     1      -1.333   1.297  -1.828  1.00  0.00     0.010 C 
HETATM    4  C10 UNL     1      -0.195   0.385  -1.283  1.00  0.00    -0.033 C 
HETATM    5  C11 UNL     1      -0.446  -1.076  -1.743  1.00  0.00     0.016 C 
HETATM    6  C12 UNL     1       1.149   0.874  -1.922  1.00  0.00     0.058 C 
HETATM    7  C13 UNL     1       2.318   0.270  -1.222  1.00  0.00     0.008 A 
HETATM    8  C14 UNL     1       2.299  -0.282   0.040  1.00  0.00     0.027 A 
HETATM    9  N2  UNL     1       3.500  -0.819   0.457  1.00  0.00    -0.354 N 
ATOM     10  H2  UNL     1       3.649  -1.306   1.341  1.00  0.00     0.166 HD
HETATM   11  C15 UNL     1       4.427  -0.608  -0.459  1.00  0.00     0.076 A 
HETATM   12  S1  UNL     1       3.879   0.186  -1.890  1.00  0.00    -0.077 SA
HETATM   13  C23 UNL     1       1.058  -0.379   0.890  1.00  0.00     0.040 C 
HETATM   14  C24 UNL     1       1.367  -0.015   2.348  1.00  0.00     0.017 C 
HETATM   15  C25 UNL     1      -0.103   0.497   0.282  1.00  0.00     0.033 C 
HETATM   16  C26 UNL     1      -1.454   0.230   1.003  1.00  0.00     0.128 C 
ENDROOT
BRANCH   1  17
HETATM   17  C5  UNL     1      -4.001   0.775   0.984  1.00  0.00     0.080 C 
HETATM   18  C6  UNL     1      -4.308  -0.350   1.979  1.00  0.00     0.020 C 
BRANCH  17  19
HETATM   19  C4  UNL     1      -5.224   0.991   0.091  1.00  0.00     0.222 C 
HETATM   20  N1  UNL     1      -5.587  -0.078  -0.697  1.00  0.00    -0.359 N 
HETATM   21  H8  UNL     1      -5.145  -0.978  -0.572  1.00  0.00     0.162 HD
HETATM   22  O2  UNL     1      -5.835   2.056   0.077  1.00  0.00    -0.273 OA
BRANCH  20  23
HETATM   23  C3  UNL     1      -6.727  -0.004  -1.596  1.00  0.00     0.148 C 
BRANCH  23  24
HETATM   24  C2  UNL     1      -8.086  -0.044  -0.885  1.00  0.00     0.186 C 
BRANCH  24  25
HETATM   25  O1  UNL     1      -8.409  -1.369  -0.444  1.00  0.00    -0.394 OA
HETATM   26  C1  UNL     1      -8.033  -1.615   0.903  1.00  0.00     0.201 C 
ENDBRANCH  24  25
ENDBRANCH  23  24
ENDBRANCH  20  23
ENDBRANCH  17  19
ENDBRANCH   1  17
BRANCH  16  27
HETATM   27  O4  UNL     1      -1.483   1.089   2.147  1.00  0.00    -0.395 OA
HETATM   28  H35 UNL     1      -1.526   0.536   2.947  1.00  0.00     0.210 HD
ENDBRANCH  16  27
BRANCH  11  29
HETATM   29  C16 UNL     1       5.859  -1.037  -0.339  1.00  0.00     0.240 C 
BRANCH  29  30
HETATM   30  O3  UNL     1       6.635   0.136  -0.079  1.00  0.00    -0.345 OA
BRANCH  30  31
HETATM   31  C17 UNL     1       7.986  -0.030   0.060  1.00  0.00     0.070 A 
HETATM   32  C18 UNL     1       8.680  -1.239  -0.036  1.00  0.00     0.037 A 
HETATM   33  C19 UNL     1      10.069  -1.267   0.127  1.00  0.00     0.004 A 
HETATM   34  C20 UNL     1      10.768  -0.088   0.384  1.00  0.00     0.024 A 
HETATM   35  C21 UNL     1      10.075   1.116   0.480  1.00  0.00     0.036 A 
HETATM   36 CL1  UNL     1      10.935   2.572   0.802  1.00  0.00    -0.084 Cl
HETATM   37  C22 UNL     1       8.691   1.148   0.320  1.00  0.00     0.060 A 
ENDBRANCH  30  31
ENDBRANCH  29  30
ENDBRANCH  11  29
TORSDOF 9
