REMARK  10 active torsions:
REMARK  status: ('A' for Active; 'I' for Inactive)
REMARK    1  A    between atoms: C2_2  and  C3_3 
REMARK    2  A    between atoms: C4_4  and  C18_19 
REMARK    3  A    between atoms: C19_20  and  O1_21 
REMARK    4  A    between atoms: N2_22  and  C20_23 
REMARK    5  A    between atoms: C20_23  and  C21_24 
REMARK    6  A    between atoms: C21_24  and  O3_26 
REMARK    7  A    between atoms: O3_26  and  C22_27 
REMARK    8  A    between atoms: C32_37  and  C33_38 
REMARK    9  A    between atoms: C39_46  and  O6_47 
REMARK   10  A    between atoms: C45_53  and  O7_54 
ROOT
HETATM    1  C21 UNL     1      -2.031  -0.683   0.695  1.00  0.00     0.222 C 
HETATM    2  O2  UNL     1      -1.927   0.183   1.552  1.00  0.00    -0.287 OA
ENDROOT
BRANCH   1   3
HETATM    3  C20 UNL     1      -3.362  -1.097   0.063  1.00  0.00     0.328 C 
BRANCH   3   4
HETATM    4  N2  UNL     1      -4.657  -0.788   0.927  1.00  0.00    -0.023 N 
HETATM    5  C6  UNL     1      -5.916  -1.234   0.093  1.00  0.00     0.214 C 
HETATM    6  C5  UNL     1      -7.070  -1.435   1.099  1.00  0.00     0.041 C 
HETATM    7  C7  UNL     1      -6.345  -0.169  -0.967  1.00  0.00     0.109 C 
HETATM    8  C4  UNL     1      -6.825  -0.543   2.328  1.00  0.00     0.004 C 
HETATM    9  C3  UNL     1      -5.760  -1.294   3.156  1.00  0.00     0.047 C 
HETATM   10  C45 UNL     1      -4.550  -1.609   2.223  1.00  0.00     0.329 C 
HETATM   11  N1  UNL     1      -5.607  -0.207  -2.261  1.00  0.00    -0.279 NA
HETATM   12  C15 UNL     1      -6.186   1.294  -0.465  1.00  0.00     0.035 C 
HETATM   13  C8  UNL     1      -5.903  -1.309  -3.180  1.00  0.00     0.117 C 
HETATM   14  C9  UNL     1      -5.941   1.087  -2.784  1.00  0.00     0.018 A 
HETATM   15  C10 UNL     1      -5.886   1.513  -4.106  1.00  0.00     0.024 A 
HETATM   16  C14 UNL     1      -6.310   1.997  -1.772  1.00  0.00    -0.024 A 
HETATM   17  C11 UNL     1      -6.221   2.841  -4.399  1.00  0.00     0.002 A 
HETATM   18  C12 UNL     1      -6.600   3.730  -3.382  1.00  0.00     0.001 A 
HETATM   19  C13 UNL     1      -6.642   3.313  -2.052  1.00  0.00     0.010 A 
HETATM   20  C16 UNL     1      -4.798   1.570   0.116  1.00  0.00     0.053 C 
HETATM   21  C19 UNL     1      -7.058   1.585   0.760  1.00  0.00     0.139 C 
HETATM   22  C17 UNL     1      -4.831   0.691   1.336  1.00  0.00     0.202 C 
HETATM   23  C18 UNL     1      -6.283   0.844   1.896  1.00  0.00     0.051 C 
BRANCH   9  24
HETATM   24  C2  UNL     1      -5.306  -0.568   4.436  1.00  0.00     0.005 C 
HETATM   25  C1  UNL     1      -6.449  -0.246   5.390  1.00  0.00     0.005 C 
ENDBRANCH   9  24
BRANCH  10  26
HETATM   26  O7  UNL     1      -4.455  -2.985   1.925  1.00  0.00    -0.369 OA
HETATM   27  H61 UNL     1      -4.931  -3.507   2.609  1.00  0.00     0.212 HD
ENDBRANCH  10  26
BRANCH  21  28
HETATM   28  O1  UNL     1      -8.386   1.126   0.644  1.00  0.00    -0.394 OA
HETATM   29  H24 UNL     1      -8.969   1.897   0.469  1.00  0.00     0.210 HD
ENDBRANCH  21  28
ENDBRANCH   3   4
ENDBRANCH   1   3
BRANCH   1  30
HETATM   30  O3  UNL     1      -1.008  -1.415   0.174  1.00  0.00     0.000 OA
HETATM   31 BR1  UNL     1       0.000   0.000   0.000  1.00  0.00    -0.148 Br
BRANCH  30  32
HETATM   32  C22 UNL     1       0.305  -1.175   0.742  1.00  0.00    -0.009 C 
HETATM   33  C23 UNL     1       0.993  -2.523   0.877  1.00  0.00     0.006 C 
HETATM   34  C24 UNL     1       2.504  -2.345   0.961  1.00  0.00     0.010 C 
HETATM   35  C25 UNL     1       3.106  -1.807  -0.369  1.00  0.00    -0.036 C 
HETATM   36  C26 UNL     1       3.217  -3.031  -1.330  1.00  0.00     0.016 C 
HETATM   37  C27 UNL     1       4.552  -1.220  -0.123  1.00  0.00     0.001 C 
HETATM   38  C43 UNL     1       2.160  -0.757  -1.048  1.00  0.00    -0.005 C 
HETATM   39  C28 UNL     1       4.596  -0.078   0.925  1.00  0.00     0.007 C 
HETATM   40  C40 UNL     1       5.223  -0.805  -1.450  1.00  0.00     0.025 C 
HETATM   41  C29 UNL     1       5.566   1.061   0.585  1.00  0.00     0.013 C 
HETATM   42  C30 UNL     1       6.934   0.575   0.050  1.00  0.00    -0.005 C 
HETATM   43  C31 UNL     1       7.653  -0.122   1.234  1.00  0.00     0.019 C 
HETATM   44  C32 UNL     1       7.731   1.829  -0.472  1.00  0.00     0.028 C 
HETATM   45  C39 UNL     1       6.708  -0.335  -1.218  1.00  0.00     0.070 C 
HETATM   46  C37 UNL     1       7.412   1.877  -1.974  1.00  0.00     0.013 C 
HETATM   47  C38 UNL     1       7.329   0.421  -2.407  1.00  0.00     0.040 C 
HETATM   48  C41 UNL     1       4.290   0.087  -2.312  1.00  0.00     0.008 C 
HETATM   49  C42 UNL     1       2.916   0.414  -1.715  1.00  0.00     0.006 C 
HETATM   50  C44 UNL     1       1.074  -0.160  -0.114  1.00  0.00     0.156 C 
BRANCH  44  51
HETATM   51  C33 UNL     1       9.212   1.900  -0.198  1.00  0.00    -0.045 A 
HETATM   52  C34 UNL     1       9.802   2.776   0.611  1.00  0.00     0.087 A 
HETATM   53  C35 UNL     1      11.241   2.524   0.572  1.00  0.00     0.283 A 
HETATM   54  O4  UNL     1      12.080   3.168   1.169  1.00  0.00    -0.260 OA
HETATM   55  O5  UNL     1      11.476   1.481  -0.265  1.00  0.00    -0.314 OA
HETATM   56  C36 UNL     1      10.240   1.017  -0.812  1.00  0.00     0.213 A 
ENDBRANCH  44  51
BRANCH  45  57
HETATM   57  O6  UNL     1       7.494  -1.531  -1.046  1.00  0.00    -0.389 OA
HETATM   58  H51 UNL     1       7.385  -2.085  -1.837  1.00  0.00     0.210 HD
ENDBRANCH  45  57
ENDBRANCH  30  32
ENDBRANCH   1  30
TORSDOF 10
