REMARK  7 active torsions:
REMARK  status: ('A' for Active; 'I' for Inactive)
REMARK    1  A    between atoms: C2_2  and  C30_33 
REMARK    2  A    between atoms: C3_3  and  C4_4 
REMARK    3  A    between atoms: C4_4  and  C5_5 
REMARK    4  A    between atoms: C5_5  and  C6_6 
REMARK    5  A    between atoms: C6_6  and  C8_8 
REMARK    6  A    between atoms: C19_20  and  O2_21 
REMARK    7  A    between atoms: C30_33  and  O5_35 
ROOT
HETATM    1  C8  UNL     1       2.229   1.424   0.078  1.00  0.00    -0.002 C 
HETATM    2  C9  UNL     1       2.288   1.294   1.625  1.00  0.00     0.007 C 
HETATM    3  C10 UNL     1       0.830   1.072   2.101  1.00  0.00     0.018 C 
HETATM    4  C11 UNL     1      -0.032   1.353   0.857  1.00  0.00     0.025 C 
HETATM    5  C12 UNL     1      -0.260   2.890   0.835  1.00  0.00     0.024 C 
HETATM    6  C13 UNL     1      -1.410   0.679   0.795  1.00  0.00     0.147 C 
HETATM    7  O1  UNL     1      -1.929   0.256   1.829  1.00  0.00    -0.296 OA
HETATM    8  C14 UNL     1      -2.165   0.663  -0.592  1.00  0.00     0.055 C 
HETATM    9  C15 UNL     1      -1.146   0.492  -1.769  1.00  0.00     0.021 C 
HETATM   10  C16 UNL     1       0.251   1.122  -1.620  1.00  0.00     0.012 C 
HETATM   11  C17 UNL     1       0.868   0.757  -0.266  1.00  0.00    -0.026 C 
HETATM   12  C18 UNL     1       0.995  -0.794  -0.181  1.00  0.00     0.016 C 
HETATM   13  C19 UNL     1      -2.998   1.999  -0.633  1.00  0.00     0.135 C 
HETATM   14  C20 UNL     1      -4.491   1.652  -0.486  1.00  0.00     0.039 C 
HETATM   15  C21 UNL     1      -4.485   0.248   0.105  1.00  0.00     0.012 C 
HETATM   16  C22 UNL     1      -5.830  -0.524   0.178  1.00  0.00     0.018 C 
HETATM   17  C23 UNL     1      -6.544  -0.184   1.504  1.00  0.00     0.023 C 
HETATM   18  C24 UNL     1      -6.813  -0.203  -0.959  1.00  0.00     0.023 C 
HETATM   19  C25 UNL     1      -5.510  -2.027   0.212  1.00  0.00     0.135 C 
HETATM   20  O3  UNL     1      -6.323  -2.881  -0.144  1.00  0.00    -0.297 OA
HETATM   21  C26 UNL     1      -4.156  -2.424   0.769  1.00  0.00     0.080 C 
HETATM   22  C27 UNL     1      -2.999  -1.828  -0.036  1.00  0.00     0.018 C 
HETATM   23  C28 UNL     1      -3.325  -0.447  -0.668  1.00  0.00    -0.022 C 
HETATM   24  C29 UNL     1      -3.723  -0.736  -2.150  1.00  0.00     0.017 C 
ENDROOT
BRANCH  13  25
HETATM   25  O2  UNL     1      -2.774   2.782  -1.795  1.00  0.00    -0.394 OA
HETATM   26  H29 UNL     1      -3.235   2.371  -2.545  1.00  0.00     0.210 HD
ENDBRANCH  13  25
BRANCH   1  27
HETATM   27  C6  UNL     1       3.511   1.023  -0.710  1.00  0.00    -0.014 C 
HETATM   28  C7  UNL     1       4.484   2.219  -0.701  1.00  0.00     0.010 C 
BRANCH  27  29
HETATM   29  C5  UNL     1       4.245  -0.246  -0.219  1.00  0.00     0.008 C 
BRANCH  29  30
HETATM   30  C4  UNL     1       5.393  -0.685  -1.140  1.00  0.00     0.028 C 
BRANCH  30  31
HETATM   31  C3  UNL     1       5.888  -2.062  -0.782  1.00  0.00    -0.013 C 
HETATM   32  C2  UNL     1       6.956  -2.399  -0.030  1.00  0.00     0.008 C 
HETATM   33  C1  UNL     1       7.321  -3.837   0.207  1.00  0.00     0.055 C 
BRANCH  32  34
HETATM   34  C30 UNL     1       7.790  -1.377   0.649  1.00  0.00     0.171 C 
HETATM   35  O4  UNL     1       7.469  -0.243   0.959  1.00  0.00    -0.646 OA
BRANCH  34  36
HETATM   36  O5  UNL     1       9.017  -1.846   0.936  1.00  0.00    -0.773 OA
HETATM   37  H46 UNL     1       9.444  -1.089   1.386  1.00  0.00     0.167 HD
ENDBRANCH  34  36
ENDBRANCH  32  34
ENDBRANCH  30  31
ENDBRANCH  29  30
ENDBRANCH  27  29
ENDBRANCH   1  27
TORSDOF 7
