REMARK  10 active torsions:
REMARK  status: ('A' for Active; 'I' for Inactive)
REMARK    1  A    between atoms: C2_2  and  O2_4 
REMARK    2  A    between atoms: O2_4  and  C3_5 
REMARK    3  A    between atoms: C3_5  and  C4_6 
REMARK    4  A    between atoms: C4_6  and  N1_7 
REMARK       I    between atoms: N1_7  and  C6_9 
REMARK    5  A    between atoms: C6_9  and  C7_11 
REMARK    6  A    between atoms: C19_24  and  O5_25 
REMARK    7  A    between atoms: O5_25  and  C20_26 
REMARK    8  A    between atoms: C20_26  and  C21_28 
REMARK    9  A    between atoms: C21_28  and  C22_29 
REMARK   10  A    between atoms: C22_29  and  O7_32 
ROOT
HETATM    1  C7  UNL     1       4.442  -0.159  -0.335  1.00  0.00     0.077 C 
HETATM    2  C8  UNL     1       3.132   0.139  -0.188  1.00  0.00    -0.070 C 
HETATM    3  C9  UNL     1       2.393   0.084   1.124  1.00  0.00     0.035 C 
HETATM    4  C10 UNL     1       0.866   0.167   1.001  1.00  0.00     0.010 C 
HETATM    5  C11 UNL     1       0.311  -0.668  -0.173  1.00  0.00     0.006 C 
HETATM    6  C12 UNL     1       1.026  -0.318  -1.511  1.00  0.00     0.068 C 
HETATM    7  C13 UNL     1       0.175   0.229  -2.644  1.00  0.00     0.132 C 
HETATM    8  O4  UNL     1       0.642   0.288  -3.788  1.00  0.00    -0.298 OA
HETATM    9  C14 UNL     1      -1.237   0.702  -2.410  1.00  0.00     0.085 C 
HETATM   10  C15 UNL     1      -1.751   0.605  -0.967  1.00  0.00     0.011 C 
HETATM   11  C16 UNL     1      -3.292   0.958  -0.839  1.00  0.00    -0.016 C 
HETATM   12  C17 UNL     1      -4.201   0.219  -1.849  1.00  0.00     0.018 C 
HETATM   13  C18 UNL     1      -3.484   2.471  -1.137  1.00  0.00     0.018 C 
HETATM   14  C19 UNL     1      -3.783   0.708   0.622  1.00  0.00     0.140 C 
HETATM   15  C25 UNL     1      -3.429  -0.698   1.107  1.00  0.00     0.034 C 
HETATM   16  C26 UNL     1      -1.919  -0.876   1.109  1.00  0.00     0.012 C 
HETATM   17  C27 UNL     1      -1.268  -0.719  -0.290  1.00  0.00    -0.035 C 
HETATM   18  C28 UNL     1      -1.621  -1.991  -1.110  1.00  0.00     0.016 C 
HETATM   19  C29 UNL     1       2.310   0.546  -1.394  1.00  0.00     0.022 C 
HETATM   20  C30 UNL     1       2.075   2.068  -1.395  1.00  0.00     0.015 C 
ENDROOT
BRANCH   1  21
HETATM   21  C6  UNL     1       5.386  -0.511   0.774  1.00  0.00     0.243 C 
HETATM   22  N1  UNL     1       6.611  -1.071   0.421  1.00  0.00    -0.351 N 
HETATM   23  C5  UNL     1       7.566  -1.337   1.490  1.00  0.00     0.153 C 
HETATM   24  O3  UNL     1       5.072  -0.299   1.947  1.00  0.00    -0.268 OA
BRANCH  22  25
HETATM   25  C4  UNL     1       7.068  -1.372  -0.945  1.00  0.00     0.152 C 
BRANCH  25  26
HETATM   26  C3  UNL     1       7.670  -0.168  -1.680  1.00  0.00     0.198 C 
BRANCH  26  27
HETATM   27  O2  UNL     1       8.918   0.204  -1.070  1.00  0.00    -0.320 OA
BRANCH  27  28
HETATM   28  C2  UNL     1       9.044   1.515  -0.721  1.00  0.00     0.254 C 
HETATM   29  C1  UNL     1      10.379   1.743  -0.078  1.00  0.00     0.126 C 
HETATM   30  O1  UNL     1       8.215   2.392  -0.915  1.00  0.00    -0.266 OA
ENDBRANCH  27  28
ENDBRANCH  26  27
ENDBRANCH  25  26
ENDBRANCH  22  25
ENDBRANCH   1  21
BRANCH  14  31
HETATM   31  O5  UNL     1      -5.212   0.899   0.697  1.00  0.00    -0.315 OA
BRANCH  31  32
HETATM   32  C20 UNL     1      -5.724   1.164   1.928  1.00  0.00     0.262 C 
HETATM   33  O6  UNL     1      -5.074   1.269   2.958  1.00  0.00    -0.265 OA
BRANCH  32  34
HETATM   34  C21 UNL     1      -7.221   1.297   1.859  1.00  0.00     0.148 C 
BRANCH  34  35
HETATM   35  C22 UNL     1      -7.965  -0.029   2.034  1.00  0.00     0.059 C 
HETATM   36  C23 UNL     1      -7.664  -0.691   3.380  1.00  0.00     0.045 C 
HETATM   37  C24 UNL     1      -7.691  -1.012   0.893  1.00  0.00     0.045 C 
BRANCH  35  38
HETATM   38  O7  UNL     1      -9.373   0.260   2.030  1.00  0.00    -0.390 OA
HETATM   39  H36 UNL     1      -9.617   0.616   1.156  1.00  0.00     0.210 HD
ENDBRANCH  35  38
ENDBRANCH  34  35
ENDBRANCH  32  34
ENDBRANCH  31  32
ENDBRANCH  14  31
TORSDOF 10
