REMARK  12 active torsions:
REMARK  status: ('A' for Active; 'I' for Inactive)
REMARK    1  A    between atoms: C16_17  and  O2_18 
REMARK    2  A    between atoms: O2_18  and  C17_19 
REMARK    3  A    between atoms: C17_19  and  C18_21 
REMARK    4  A    between atoms: C18_21  and  C19_22 
REMARK    5  A    between atoms: C19_22  and  C20_23 
REMARK       I    between atoms: C20_23  and  N1_25 
REMARK    6  A    between atoms: N1_25  and  C21_26 
REMARK    7  A    between atoms: C21_26  and  C22_27 
REMARK       I    between atoms: C22_27  and  N2_29 
REMARK    8  A    between atoms: N2_29  and  C23_30 
REMARK    9  A    between atoms: C23_30  and  C24_31 
REMARK   10  A    between atoms: C23_30  and  C33_41 
REMARK   11  A    between atoms: C24_31  and  C25_32 
REMARK   12  A    between atoms: C33_41  and  O7_43 
ROOT
HETATM    1  C19 UNL     1       1.016   0.150  -4.328  1.00  0.00     0.112 C 
ENDROOT
BRANCH   1   2
HETATM    2  C18 UNL     1      -0.177  -0.063  -3.402  1.00  0.00     0.120 C 
BRANCH   2   3
HETATM    3  C17 UNL     1       0.221   0.150  -1.959  1.00  0.00     0.259 C 
HETATM    4  O3  UNL     1       1.164   0.844  -1.598  1.00  0.00    -0.265 OA
BRANCH   3   5
HETATM    5  O2  UNL     1      -0.664  -0.488  -1.146  1.00  0.00    -0.315 OA
BRANCH   5   6
HETATM    6  C16 UNL     1      -0.444  -0.382   0.275  1.00  0.00     0.140 C 
HETATM    7  C14 UNL     1      -1.672   0.281   0.945  1.00  0.00    -0.013 C 
HETATM    8  C13 UNL     1      -2.284   1.524   0.264  1.00  0.00     0.012 C 
HETATM    9  C15 UNL     1      -1.249   0.705   2.380  1.00  0.00     0.018 C 
HETATM   10  C36 UNL     1      -2.656  -0.909   0.891  1.00  0.00     0.001 C 
HETATM   11  C12 UNL     1      -3.703   1.364  -0.310  1.00  0.00     0.007 C 
HETATM   12  C11 UNL     1      -4.687   0.397   0.415  1.00  0.00     0.002 C 
HETATM   13  C2  UNL     1      -6.036   1.015   0.932  1.00  0.00    -0.016 C 
HETATM   14  C10 UNL     1      -3.998  -0.505   1.477  1.00  0.00    -0.004 C 
HETATM   15  C1  UNL     1      -5.787   2.069   2.029  1.00  0.00     0.020 C 
HETATM   16  C3  UNL     1      -6.770   1.687  -0.267  1.00  0.00     0.022 C 
HETATM   17  C7  UNL     1      -6.906  -0.120   1.506  1.00  0.00    -0.068 C 
HETATM   18  C4  UNL     1      -8.241   1.977  -0.003  1.00  0.00     0.084 C 
HETATM   19  C5  UNL     1      -8.959   0.721   0.415  1.00  0.00     0.149 C 
HETATM   20  O1  UNL     1     -10.144   0.524   0.162  1.00  0.00    -0.293 OA
HETATM   21  C6  UNL     1      -8.213  -0.267   1.227  1.00  0.00     0.053 C 
HETATM   22  C8  UNL     1      -6.229  -1.125   2.418  1.00  0.00     0.035 C 
HETATM   23  C9  UNL     1      -4.922  -1.667   1.837  1.00  0.00     0.010 C 
HETATM   24  C35 UNL     1      -1.848  -2.071   1.441  1.00  0.00     0.008 C 
HETATM   25  C34 UNL     1      -0.438  -1.819   0.864  1.00  0.00     0.034 C 
ENDBRANCH   5   6
ENDBRANCH   3   5
ENDBRANCH   2   3
ENDBRANCH   1   2
BRANCH   1  26
HETATM   26  C20 UNL     1       2.063  -0.922  -4.120  1.00  0.00     0.218 C 
HETATM   27  O4  UNL     1       1.858  -1.958  -3.494  1.00  0.00    -0.274 OA
HETATM   28  N1  UNL     1       3.278  -0.635  -4.692  1.00  0.00    -0.352 N 
HETATM   29  H27 UNL     1       3.467   0.316  -4.988  1.00  0.00     0.162 HD
BRANCH  28  30
HETATM   30  C21 UNL     1       4.415  -1.528  -4.536  1.00  0.00     0.225 C 
BRANCH  30  31
HETATM   31  C22 UNL     1       5.155  -1.281  -3.218  1.00  0.00     0.236 C 
HETATM   32  O5  UNL     1       6.345  -0.975  -3.184  1.00  0.00    -0.272 OA
HETATM   33  N2  UNL     1       4.397  -1.470  -2.087  1.00  0.00    -0.345 N 
HETATM   34  H30 UNL     1       3.409  -1.714  -2.184  1.00  0.00     0.163 HD
BRANCH  33  35
HETATM   35  C23 UNL     1       4.920  -1.214  -0.743  1.00  0.00     0.186 C 
BRANCH  35  36
HETATM   36  C24 UNL     1       4.925   0.287  -0.423  1.00  0.00     0.077 C 
BRANCH  36  37
HETATM   37  C25 UNL     1       5.756   0.636   0.774  1.00  0.00    -0.028 A 
HETATM   38  C26 UNL     1       5.290   1.001   2.022  1.00  0.00     0.096 A 
HETATM   39  N3  UNL     1       6.370   1.241   2.830  1.00  0.00    -0.365 N 
HETATM   40  C27 UNL     1       7.540   1.043   2.135  1.00  0.00     0.042 A 
HETATM   41  H35 UNL     1       6.322   1.527   3.798  1.00  0.00     0.165 HD
HETATM   42  C28 UNL     1       8.871   1.173   2.549  1.00  0.00     0.030 A 
HETATM   43  C32 UNL     1       7.187   0.665   0.839  1.00  0.00    -0.002 A 
HETATM   44  C29 UNL     1       9.872   0.905   1.611  1.00  0.00     0.002 A 
HETATM   45  C30 UNL     1       9.552   0.525   0.310  1.00  0.00     0.001 A 
HETATM   46  C31 UNL     1       8.216   0.403  -0.089  1.00  0.00     0.014 A 
ENDBRANCH  36  37
ENDBRANCH  35  36
BRANCH  35  47
HETATM   47  C33 UNL     1       4.035  -1.951   0.256  1.00  0.00     0.163 C 
HETATM   48  O6  UNL     1       2.819  -2.063   0.204  1.00  0.00    -0.648 OA
BRANCH  47  49
HETATM   49  O7  UNL     1       4.719  -2.524   1.267  1.00  0.00    -0.775 OA
HETATM   50  H40 UNL     1       4.031  -2.956   1.812  1.00  0.00     0.167 HD
ENDBRANCH  47  49
ENDBRANCH  35  47
ENDBRANCH  33  35
ENDBRANCH  30  31
ENDBRANCH  28  30
ENDBRANCH   1  26
TORSDOF 12
