REMARK  4 active torsions:
REMARK  status: ('A' for Active; 'I' for Inactive)
REMARK    1  A    between atoms: C3_3  and  C4_4 
REMARK    2  A    between atoms: C4_4  and  O1_5 
REMARK    3  A    between atoms: C6_9  and  C7_10 
REMARK    4  A    between atoms: C7_10  and  C9_12 
ROOT
HETATM    1  C9  UNL     1       1.345  -0.229  -0.098  1.00  0.00     0.000 C 
HETATM    2  C10 UNL     1       1.500   1.319  -0.143  1.00  0.00     0.006 C 
HETATM    3  C11 UNL     1       0.088   1.919  -0.217  1.00  0.00     0.006 C 
HETATM    4  C12 UNL     1      -0.826   0.722  -0.003  1.00  0.00    -0.001 C 
HETATM    5  C13 UNL     1      -2.300   0.841  -0.417  1.00  0.00     0.000 C 
HETATM    6  C14 UNL     1      -2.989   2.085   0.166  1.00  0.00     0.010 C 
HETATM    7  C15 UNL     1      -4.437   2.198  -0.311  1.00  0.00     0.036 C 
HETATM    8  C16 UNL     1      -5.216   0.920  -0.098  1.00  0.00    -0.063 A 
HETATM    9  C17 UNL     1      -6.383   0.945   0.570  1.00  0.00     0.058 A 
HETATM   10  C18 UNL     1      -7.162  -0.284   0.834  1.00  0.00     0.172 A 
HETATM   11  O4  UNL     1      -8.243  -0.245   1.410  1.00  0.00    -0.289 OA
HETATM   12  C19 UNL     1      -6.582  -1.562   0.385  1.00  0.00     0.052 A 
HETATM   13  C20 UNL     1      -5.419  -1.595  -0.279  1.00  0.00    -0.008 A 
HETATM   14  C21 UNL     1      -4.583  -0.370  -0.648  1.00  0.00     0.005 A 
HETATM   15  C22 UNL     1      -4.645  -0.306  -2.195  1.00  0.00     0.025 C 
HETATM   16  C23 UNL     1      -3.092  -0.484  -0.074  1.00  0.00    -0.025 C 
HETATM   17  C24 UNL     1      -3.164  -0.708   1.474  1.00  0.00     0.017 C 
HETATM   18  C25 UNL     1      -2.311  -1.702  -0.668  1.00  0.00     0.012 C 
HETATM   19  C26 UNL     1      -0.806  -1.742  -0.323  1.00  0.00     0.011 C 
HETATM   20  C27 UNL     1      -0.078  -0.442  -0.713  1.00  0.00    -0.036 C 
HETATM   21  C28 UNL     1      -0.029  -0.311  -2.256  1.00  0.00     0.016 C 
ENDROOT
BRANCH   1  22
HETATM   22  C7  UNL     1       2.579  -0.977  -0.697  1.00  0.00     0.016 C 
HETATM   23  C8  UNL     1       2.340  -2.496  -0.732  1.00  0.00     0.013 C 
BRANCH  22  24
HETATM   24  C6  UNL     1       3.915  -0.736   0.078  1.00  0.00     0.140 C 
HETATM   25  O3  UNL     1       3.654  -0.689   1.491  1.00  0.00    -0.311 OA
HETATM   26  C5  UNL     1       4.647  -0.365   2.356  1.00  0.00     0.292 C 
HETATM   27  C3  UNL     1       5.905   0.186   1.776  1.00  0.00     0.042 C 
HETATM   28  O2  UNL     1       4.500  -0.508   3.563  1.00  0.00    -0.260 OA
HETATM   29  C2  UNL     1       5.924   0.629   0.498  1.00  0.00    -0.067 C 
HETATM   30  C1  UNL     1       7.110   1.260  -0.175  1.00  0.00     0.044 C 
HETATM   31  C29 UNL     1       4.690   0.505  -0.360  1.00  0.00     0.067 C 
BRANCH  27  32
HETATM   32  C4  UNL     1       7.079   0.196   2.712  1.00  0.00     0.209 C 
BRANCH  32  33
HETATM   33  O1  UNL     1       7.368   1.507   3.184  1.00  0.00    -0.396 OA
HETATM   34  H6  UNL     1       6.752   2.133   2.762  1.00  0.00     0.209 HD
ENDBRANCH  32  33
ENDBRANCH  27  32
ENDBRANCH  22  24
ENDBRANCH   1  22
TORSDOF 4
