REMARK  12 active torsions:
REMARK  status: ('A' for Active; 'I' for Inactive)
REMARK    1  A    between atoms: O1_2  and  C2_3 
REMARK    2  A    between atoms: C2_3  and  C5_6 
REMARK    3  A    between atoms: C6_7  and  C7_8 
REMARK    4  A    between atoms: C7_8  and  C8_9 
REMARK    5  A    between atoms: C8_9  and  C10_11 
REMARK    6  A    between atoms: C28_30  and  O3_31 
REMARK    7  A    between atoms: O3_31  and  C29_32 
REMARK    8  A    between atoms: C30_34  and  C31_35 
REMARK    9  A    between atoms: C31_35  and  O5_36 
REMARK   10  A    between atoms: C32_37  and  O6_38 
REMARK   11  A    between atoms: C33_39  and  O7_40 
REMARK   12  A    between atoms: C34_41  and  O8_42 
ROOT
HETATM    1  C10 UNL     1      -3.771   0.227  -1.074  1.00  0.00    -0.002 C 
HETATM    2  C11 UNL     1      -3.628   1.729  -1.493  1.00  0.00     0.006 C 
HETATM    3  C12 UNL     1      -2.137   2.114  -1.343  1.00  0.00     0.011 C 
HETATM    4  C13 UNL     1      -1.416   0.762  -1.208  1.00  0.00    -0.029 C 
HETATM    5  C14 UNL     1      -1.329   0.206  -2.689  1.00  0.00     0.016 C 
HETATM    6  C15 UNL     1       0.055   0.724  -0.652  1.00  0.00     0.028 C 
HETATM    7  C16 UNL     1       0.756   1.947  -0.129  1.00  0.00    -0.021 C 
HETATM    8  C17 UNL     1       1.866   1.802   0.622  1.00  0.00     0.008 C 
HETATM    9  C18 UNL     1       2.401   0.429   1.067  1.00  0.00     0.092 C 
HETATM   10  O2  UNL     1       1.626   0.157   2.245  1.00  0.00    -0.374 OA
HETATM   11  C19 UNL     1       0.360  -0.380   1.779  1.00  0.00     0.179 C 
HETATM   12  C20 UNL     1       0.419  -0.542   0.218  1.00  0.00    -0.004 C 
HETATM   13  C21 UNL     1      -0.426  -1.743  -0.225  1.00  0.00     0.014 C 
HETATM   14  C22 UNL     1      -1.962  -1.507  -0.212  1.00  0.00     0.011 C 
HETATM   15  C23 UNL     1      -2.427  -0.030  -0.309  1.00  0.00    -0.032 C 
HETATM   16  C24 UNL     1      -2.577   0.603   1.108  1.00  0.00     0.016 C 
HETATM   17  C25 UNL     1       1.954  -0.730   0.141  1.00  0.00     0.036 C 
HETATM   18  C26 UNL     1       2.703  -0.735  -1.191  1.00  0.00     0.011 C 
HETATM   19  C27 UNL     1       4.213  -0.777  -0.952  1.00  0.00     0.033 C 
HETATM   20  C28 UNL     1       4.690   0.360  -0.027  1.00  0.00     0.136 C 
HETATM   21  C35 UNL     1       3.940   0.365   1.346  1.00  0.00     0.014 C 
HETATM   22  C36 UNL     1       4.306  -0.895   2.179  1.00  0.00     0.021 C 
HETATM   23  C37 UNL     1       4.430   1.563   2.198  1.00  0.00     0.021 C 
ENDROOT
BRANCH  20  24
HETATM   24  O3  UNL     1       6.103   0.282   0.220  1.00  0.00    -0.352 OA
BRANCH  24  25
HETATM   25  C29 UNL     1       6.917   0.614  -0.907  1.00  0.00     0.292 C 
HETATM   26  O4  UNL     1       7.321  -0.557  -1.608  1.00  0.00    -0.348 OA
HETATM   27  C30 UNL     1       8.195  -1.457  -0.899  1.00  0.00     0.179 C 
HETATM   28  C32 UNL     1       9.114  -0.750   0.109  1.00  0.00     0.180 C 
HETATM   29  C33 UNL     1       9.410   0.652  -0.402  1.00  0.00     0.183 C 
HETATM   30  C34 UNL     1       8.117   1.466  -0.415  1.00  0.00     0.204 C 
BRANCH  27  31
HETATM   31  C31 UNL     1       7.418  -2.598  -0.226  1.00  0.00     0.198 C 
BRANCH  31  32
HETATM   32  O5  UNL     1       6.725  -3.378  -1.202  1.00  0.00    -0.398 OA
HETATM   33  H48 UNL     1       6.290  -4.105  -0.726  1.00  0.00     0.209 HD
ENDBRANCH  31  32
ENDBRANCH  27  31
BRANCH  28  34
HETATM   34  O6  UNL     1      10.337  -1.479   0.281  1.00  0.00    -0.390 OA
HETATM   35  H50 UNL     1      10.961  -0.834   0.671  1.00  0.00     0.210 HD
ENDBRANCH  28  34
BRANCH  29  36
HETATM   36  O7  UNL     1      10.381   1.284   0.452  1.00  0.00    -0.390 OA
HETATM   37  H52 UNL     1      10.460   2.194   0.106  1.00  0.00     0.210 HD
ENDBRANCH  29  36
BRANCH  30  38
HETATM   38  O8  UNL     1       8.349   2.628  -1.239  1.00  0.00    -0.388 OA
HETATM   39  H54 UNL     1       7.553   3.187  -1.181  1.00  0.00     0.210 HD
ENDBRANCH  30  38
ENDBRANCH  24  25
ENDBRANCH  20  24
BRANCH   1  40
HETATM   40  C8  UNL     1      -5.148  -0.064  -0.398  1.00  0.00    -0.010 C 
HETATM   41  C9  UNL     1      -5.209  -1.474   0.196  1.00  0.00     0.010 C 
BRANCH  40  42
HETATM   42  C7  UNL     1      -6.297   0.128  -1.428  1.00  0.00     0.031 C 
BRANCH  42  43
HETATM   43  C6  UNL     1      -7.722   0.177  -0.929  1.00  0.00    -0.027 C 
HETATM   44  C5  UNL     1      -8.137   0.381   0.334  1.00  0.00     0.006 C 
BRANCH  44  45
HETATM   45  C2  UNL     1      -9.566   0.437   0.845  1.00  0.00     0.070 C 
HETATM   46  C3  UNL     1     -10.655   0.105  -0.184  1.00  0.00     0.050 C 
HETATM   47  C4  UNL     1      -9.819   1.863   1.364  1.00  0.00     0.050 C 
BRANCH  45  48
HETATM   48  O1  UNL     1      -9.666  -0.407   2.006  1.00  0.00    -0.382 OA
HETATM   49  C1  UNL     1      -9.605  -1.806   1.769  1.00  0.00     0.202 C 
ENDBRANCH  45  48
ENDBRANCH  44  45
ENDBRANCH  42  43
ENDBRANCH  40  42
ENDBRANCH   1  40
TORSDOF 12
