REMARK  8 active torsions:
REMARK  status: ('A' for Active; 'I' for Inactive)
REMARK    1  A    between atoms: C2_2  and  C3_3 
REMARK    2  A    between atoms: C3_3  and  C5_5 
REMARK    3  A    between atoms: C6_6  and  C7_7 
REMARK    4  A    between atoms: C7_7  and  O1_9 
REMARK    5  A    between atoms: C7_7  and  C9_10 
REMARK    6  A    between atoms: C10_11  and  O2_12 
REMARK    7  A    between atoms: C26_29  and  C27_30 
REMARK    8  A    between atoms: C27_30  and  O4_31 
ROOT
HETATM    1  C9  UNL     1      -1.401  -1.270   0.306  1.00  0.00     0.063 C 
HETATM    2  C10 UNL     1      -0.483  -2.512   0.365  1.00  0.00     0.126 C 
HETATM    3  C11 UNL     1       0.630  -2.152   1.340  1.00  0.00     0.038 C 
HETATM    4  C12 UNL     1       0.779  -0.621   1.279  1.00  0.00     0.003 C 
HETATM    5  C13 UNL     1       2.190  -0.111   0.942  1.00  0.00    -0.004 C 
HETATM    6  C14 UNL     1       3.222  -0.438   2.045  1.00  0.00     0.010 C 
HETATM    7  C15 UNL     1       4.675  -0.394   1.547  1.00  0.00     0.035 C 
HETATM    8  C16 UNL     1       4.823   0.568   0.396  1.00  0.00    -0.068 C 
HETATM    9  C17 UNL     1       5.581   1.671   0.518  1.00  0.00     0.053 C 
HETATM   10  C18 UNL     1       5.667   2.677  -0.566  1.00  0.00     0.149 C 
HETATM   11  O3  UNL     1       6.460   3.610  -0.456  1.00  0.00    -0.293 OA
HETATM   12  C19 UNL     1       4.804   2.502  -1.791  1.00  0.00     0.084 C 
HETATM   13  C20 UNL     1       3.602   1.597  -1.527  1.00  0.00     0.022 C 
HETATM   14  C21 UNL     1       3.984   0.253  -0.852  1.00  0.00    -0.016 C 
HETATM   15  C22 UNL     1       4.836  -0.598  -1.820  1.00  0.00     0.020 C 
HETATM   16  C23 UNL     1       2.714  -0.588  -0.429  1.00  0.00     0.002 C 
HETATM   17  C24 UNL     1       1.612  -0.712  -1.495  1.00  0.00     0.007 C 
HETATM   18  C25 UNL     1       0.322   0.046  -1.177  1.00  0.00     0.013 C 
HETATM   19  C26 UNL     1      -0.295  -0.117   0.263  1.00  0.00    -0.006 C 
ENDROOT
BRANCH   1  20
HETATM   20  C7  UNL     1      -2.507  -1.199   1.435  1.00  0.00     0.079 C 
HETATM   21  C8  UNL     1      -3.274  -2.511   1.693  1.00  0.00     0.051 C 
BRANCH  20  22
HETATM   22  C6  UNL     1      -3.546  -0.122   1.143  1.00  0.00     0.007 C 
HETATM   23  C5  UNL     1      -4.489  -0.185   0.184  1.00  0.00    -0.024 C 
BRANCH  23  24
HETATM   24  C3  UNL     1      -5.556   0.846  -0.134  1.00  0.00     0.003 C 
HETATM   25  C4  UNL     1      -5.725   1.933   0.935  1.00  0.00     0.014 C 
BRANCH  24  26
HETATM   26  C2  UNL     1      -5.320   1.513  -1.505  1.00  0.00     0.003 C 
HETATM   27  C1  UNL     1      -5.331   0.542  -2.679  1.00  0.00     0.006 C 
ENDBRANCH  24  26
ENDBRANCH  23  24
ENDBRANCH  20  22
BRANCH  20  28
HETATM   28  O1  UNL     1      -1.898  -0.836   2.678  1.00  0.00    -0.386 OA
HETATM   29  H15 UNL     1      -2.572  -0.940   3.373  1.00  0.00     0.211 HD
ENDBRANCH  20  28
ENDBRANCH   1  20
BRANCH   2  30
HETATM   30  O2  UNL     1      -1.090  -3.744   0.684  1.00  0.00    -0.395 OA
HETATM   31  H18 UNL     1      -0.383  -4.405   0.789  1.00  0.00     0.210 HD
ENDBRANCH   2  30
BRANCH  19  32
HETATM   32  C27 UNL     1      -0.785   1.296   0.678  1.00  0.00     0.174 C 
BRANCH  32  33
HETATM   33  O4  UNL     1      -1.628   1.884  -0.306  1.00  0.00    -0.400 OA
HETATM   34  H42 UNL     1      -2.364   1.273  -0.472  1.00  0.00     0.209 HD
ENDBRANCH  32  33
ENDBRANCH  19  32
TORSDOF 8
