REMARK  7 active torsions:
REMARK  status: ('A' for Active; 'I' for Inactive)
REMARK    1  A    between atoms: C4_4  and  C5_5 
REMARK    2  A    between atoms: C15_15  and  C16_16 
REMARK    3  A    between atoms: C16_16  and  C18_18 
REMARK    4  A    between atoms: C18_18  and  C19_19 
REMARK    5  A    between atoms: C23_25  and  C24_26 
REMARK    6  A    between atoms: C27_29  and  O3_30 
REMARK    7  A    between atoms: C30_33  and  O4_34 
ROOT
HETATM    1  C5  UNL     1      -2.490  -0.071   0.006  1.00  0.00     0.004 C 
HETATM    2  C6  UNL     1      -1.399   0.039  -0.779  1.00  0.00    -0.075 C 
HETATM    3  C7  UNL     1      -1.329   0.771  -2.110  1.00  0.00     0.034 C 
HETATM    4  C8  UNL     1      -0.177   1.783  -2.163  1.00  0.00     0.005 C 
HETATM    5  C9  UNL     1       1.169   1.174  -1.738  1.00  0.00     0.010 C 
HETATM    6  C10 UNL     1       1.081   0.457  -0.378  1.00  0.00    -0.033 C 
HETATM    7  C11 UNL     1       0.824   1.541   0.717  1.00  0.00     0.016 C 
HETATM    8  C12 UNL     1      -0.059  -0.591  -0.432  1.00  0.00     0.023 C 
HETATM    9  C13 UNL     1       0.135  -1.381   0.862  1.00  0.00     0.010 C 
HETATM   10  C14 UNL     1       1.656  -1.471   1.031  1.00  0.00     0.006 C 
HETATM   11  C15 UNL     1       2.301  -0.396   0.103  1.00  0.00    -0.002 C 
ENDROOT
BRANCH   1  12
HETATM   12  C4  UNL     1      -3.803   0.487  -0.247  1.00  0.00     0.008 C 
HETATM   13  C3  UNL     1      -4.903   0.363   0.525  1.00  0.00    -0.048 C 
HETATM   14  C2  UNL     1      -6.168   0.996   0.131  1.00  0.00    -0.032 C 
HETATM   15  C26 UNL     1      -5.024  -0.417   1.820  1.00  0.00     0.071 C 
HETATM   16  C1  UNL     1      -6.243   2.322  -0.083  1.00  0.00     0.022 C 
HETATM   17  C30 UNL     1      -7.344   0.030   0.064  1.00  0.00     0.157 C 
HETATM   18  C28 UNL     1      -7.522  -0.709   1.403  1.00  0.00     0.044 C 
HETATM   19  C27 UNL     1      -6.208  -1.402   1.805  1.00  0.00     0.129 C 
HETATM   20  C29 UNL     1      -8.685  -1.705   1.338  1.00  0.00     0.015 C 
BRANCH  17  21
HETATM   21  O4  UNL     1      -8.552   0.724  -0.254  1.00  0.00    -0.390 OA
HETATM   22  H44 UNL     1      -8.455   1.020  -1.175  1.00  0.00     0.210 HD
ENDBRANCH  17  21
BRANCH  19  23
HETATM   23  O3  UNL     1      -5.937  -2.487   0.914  1.00  0.00    -0.395 OA
HETATM   24  H38 UNL     1      -5.046  -2.824   1.111  1.00  0.00     0.210 HD
ENDBRANCH  19  23
ENDBRANCH   1  12
BRANCH  11  25
HETATM   25  C16 UNL     1       3.305  -1.056  -0.894  1.00  0.00    -0.011 C 
HETATM   26  C17 UNL     1       2.677  -2.036  -1.895  1.00  0.00     0.010 C 
BRANCH  25  27
HETATM   27  C18 UNL     1       4.222  -0.072  -1.651  1.00  0.00     0.038 C 
BRANCH  27  28
HETATM   28  C19 UNL     1       5.058   0.915  -0.818  1.00  0.00     0.141 C 
HETATM   29  O1  UNL     1       5.646   1.831  -1.768  1.00  0.00    -0.311 OA
HETATM   30  C20 UNL     1       6.875   2.227  -1.354  1.00  0.00     0.289 C 
HETATM   31  O2  UNL     1       7.553   3.095  -1.869  1.00  0.00    -0.260 OA
HETATM   32  C21 UNL     1       7.234   1.403  -0.178  1.00  0.00     0.014 C 
HETATM   33  C22 UNL     1       8.271   1.746   0.597  1.00  0.00     0.025 C 
HETATM   34  C23 UNL     1       6.240   0.289  -0.065  1.00  0.00     0.053 C 
BRANCH  34  35
HETATM   35  C24 UNL     1       5.897  -0.150   1.367  1.00  0.00     0.007 C 
HETATM   36  C25 UNL     1       6.839  -1.227   1.896  1.00  0.00     0.006 C 
ENDBRANCH  34  35
ENDBRANCH  27  28
ENDBRANCH  25  27
ENDBRANCH  11  25
TORSDOF 7
