REMARK  14 active torsions:
REMARK  status: ('A' for Active; 'I' for Inactive)
REMARK       I    between atoms: N1_1  and  C1_2 
REMARK       I    between atoms: C1_2  and  N2_3 
REMARK    1  A    between atoms: N3_4  and  C2_6 
REMARK    2  A    between atoms: C2_6  and  C3_7 
REMARK    3  A    between atoms: C3_7  and  C4_8 
REMARK    4  A    between atoms: C4_8  and  C5_9 
REMARK    5  A    between atoms: C4_8  and  C6_11 
REMARK    6  A    between atoms: C5_9  and  O1_10 
REMARK    7  A    between atoms: C6_11  and  C7_12 
REMARK    8  A    between atoms: C21_27  and  S1_28 
REMARK    9  A    between atoms: C22_32  and  C23_33 
REMARK   10  A    between atoms: C24_34  and  C25_35 
REMARK   11  A    between atoms: C25_35  and  O6_36 
REMARK   12  A    between atoms: C25_35  and  C26_37 
REMARK   13  A    between atoms: C29_40  and  O7_41 
REMARK   14  A    between atoms: C33_45  and  NA1_51 
ROOT
HETATM    1  C2  UNL     1       2.983   1.090  -0.493  1.00  0.00     0.171 C 
HETATM    2  O2  UNL     1       3.153  -0.086  -1.389  1.00  0.00    -0.316 OA
HETATM    3  C13 UNL     1       2.055  -0.851  -1.679  1.00  0.00     0.072 C 
HETATM    4  C14 UNL     1       1.589  -0.814  -2.992  1.00  0.00     0.037 C 
HETATM    5  C15 UNL     1       0.350  -1.376  -3.303  1.00  0.00     0.010 C 
HETATM    6  C16 UNL     1      -0.410  -2.007  -2.310  1.00  0.00    -0.058 C 
HETATM    7  C17 UNL     1       0.133  -2.157  -1.028  1.00  0.00     0.010 C 
HETATM    8  C18 UNL     1       1.373  -1.596  -0.716  1.00  0.00     0.037 C 
HETATM    9  C19 UNL     1      -1.795  -2.526  -2.607  1.00  0.00     0.040 C 
HETATM   10  C20 UNL     1      -2.876  -1.436  -2.800  1.00  0.00     0.028 C 
HETATM   11  C21 UNL     1      -3.828  -1.109  -1.604  1.00  0.00     0.138 C 
HETATM   12  C22 UNL     1      -3.208  -0.195  -0.505  1.00  0.00     0.031 C 
HETATM   13  C32 UNL     1      -2.760   1.207  -1.044  1.00  0.00     0.041 C 
HETATM   14  C33 UNL     1      -1.303   1.524  -0.775  1.00  0.00     0.029 C 
HETATM   15  C34 UNL     1      -0.735   1.316   0.486  1.00  0.00     0.137 C 
HETATM   16  C35 UNL     1       0.652   1.315   0.648  1.00  0.00     0.012 C 
HETATM   17  C36 UNL     1       1.491   1.537  -0.458  1.00  0.00    -0.003 C 
HETATM   18  C37 UNL     1       0.900   2.008  -1.646  1.00  0.00     0.010 C 
HETATM   19  C38 UNL     1      -0.483   1.982  -1.810  1.00  0.00     0.001 C 
ENDROOT
BRANCH   1  20
HETATM   20  N3  UNL     1       3.843   2.204  -0.950  1.00  0.00    -0.336 N 
HETATM   21  C1  UNL     1       3.862   3.368  -0.431  1.00  0.00     0.124 C 
HETATM   22  N1  UNL     1       4.771   4.268  -0.880  1.00  0.00    -0.279 NA
HETATM   23  N2  UNL     1       3.152   3.931   0.573  1.00  0.00    -0.279 NA
HETATM   24  H1  UNL     1       5.247   4.728  -0.110  1.00  0.00     0.126 HD
HETATM   25  H2  UNL     1       5.445   3.782  -1.461  1.00  0.00     0.126 HD
HETATM   26  H3  UNL     1       2.971   4.912   0.401  1.00  0.00     0.126 HD
HETATM   27  H4  UNL     1       2.275   3.453   0.781  1.00  0.00     0.126 HD
ATOM     28  H3  UNL     1       4.466   2.028  -1.738  1.00  0.00     0.165 HD
ENDBRANCH   1  20
BRANCH   1  29
HETATM   29  C3  UNL     1       3.554   0.613   0.894  1.00  0.00     0.074 C 
BRANCH  29  30
HETATM   30  C4  UNL     1       4.891  -0.188   0.859  1.00  0.00     0.018 C 
BRANCH  30  31
HETATM   31  C5  UNL     1       5.058  -0.939   2.190  1.00  0.00     0.169 C 
BRANCH  31  32
HETATM   32  O1  UNL     1       5.150  -0.030   3.281  1.00  0.00    -0.400 OA
HETATM   33  H10 UNL     1       5.049  -0.555   4.092  1.00  0.00     0.209 HD
ENDBRANCH  31  32
ENDBRANCH  30  31
BRANCH  30  34
HETATM   34  C6  UNL     1       6.114   0.697   0.556  1.00  0.00     0.045 C 
BRANCH  34  35
HETATM   35  C7  UNL     1       7.398  -0.084   0.399  1.00  0.00    -0.058 A 
HETATM   36  C8  UNL     1       7.615  -0.854  -0.753  1.00  0.00     0.007 A 
HETATM   37  C9  UNL     1       8.804  -1.565  -0.917  1.00  0.00     0.001 A 
HETATM   38  C10 UNL     1       9.781  -1.523   0.076  1.00  0.00     0.000 A 
HETATM   39  C11 UNL     1       9.561  -0.790   1.240  1.00  0.00     0.001 A 
HETATM   40  C12 UNL     1       8.375  -0.074   1.405  1.00  0.00     0.007 A 
ENDBRANCH  34  35
ENDBRANCH  30  34
ENDBRANCH  29  30
ENDBRANCH   1  29
BRANCH  14  41
HETATM   41 NA1  UNL     1       0.000   0.000   0.000  1.00  0.00    -0.379 Na
ATOM     42 2HA1 UNL     1       0.180  -0.977  -0.230  1.00  0.00     0.091 HD
ATOM     43 1HA1 UNL     1       1.007  -0.162  -0.016  1.00  0.00     0.091 HD
ENDBRANCH  14  41
BRANCH  12  44
HETATM   44  C23 UNL     1      -4.059   0.060   0.736  1.00  0.00    -0.022 C 
HETATM   45  C24 UNL     1      -5.272   0.643   0.770  1.00  0.00     0.006 C 
BRANCH  45  46
HETATM   46  C25 UNL     1      -6.046   0.916   2.030  1.00  0.00     0.173 C 
BRANCH  46  47
HETATM   47  O6  UNL     1      -6.139   2.341   2.182  1.00  0.00    -0.387 OA
HETATM   48  H31 UNL     1      -5.551   2.734   1.511  1.00  0.00     0.210 HD
ENDBRANCH  46  47
BRANCH  46  49
HETATM   49  C26 UNL     1      -7.420   0.267   2.067  1.00  0.00    -0.026 A 
HETATM   50  C27 UNL     1      -8.616   1.010   2.076  1.00  0.00     0.013 A 
HETATM   51  C28 UNL     1      -9.858   0.364   2.111  1.00  0.00     0.037 A 
HETATM   52  C29 UNL     1      -9.913  -1.027   2.142  1.00  0.00     0.065 A 
HETATM   53  C30 UNL     1      -8.748  -1.786   2.137  1.00  0.00     0.037 A 
HETATM   54  C31 UNL     1      -7.508  -1.140   2.105  1.00  0.00     0.013 A 
BRANCH  52  55
HETATM   55  O7  UNL     1     -11.141  -1.625   2.161  1.00  0.00    -0.361 OA
HETATM   56  H34 UNL     1     -10.997  -2.586   2.135  1.00  0.00     0.217 HD
ENDBRANCH  52  55
ENDBRANCH  46  49
ENDBRANCH  45  46
ENDBRANCH  12  44
BRANCH  11  57
HETATM   57  S1  UNL     1      -4.565  -2.637  -0.936  1.00  0.00     0.106 S 
HETATM   58  O3  UNL     1      -4.641  -3.537  -2.089  1.00  0.00    -0.595 OA
HETATM   59  O4  UNL     1      -3.630  -3.067   0.104  1.00  0.00    -0.595 OA
HETATM   60  O5  UNL     1      -5.878  -2.225  -0.445  1.00  0.00    -0.595 OA
ENDBRANCH  11  57
TORSDOF 14
