REMARK  9 active torsions:
REMARK  status: ('A' for Active; 'I' for Inactive)
REMARK    1  A    between atoms: O1_2  and  C2_3 
REMARK    2  A    between atoms: C2_3  and  C3_4 
REMARK    3  A    between atoms: C3_4  and  N1_5 
REMARK       I    between atoms: N1_5  and  C4_6 
REMARK    4  A    between atoms: C4_6  and  C5_8 
REMARK    5  A    between atoms: C5_8  and  C6_9 
REMARK    6  A    between atoms: C6_9  and  C7_10 
REMARK    7  A    between atoms: C10_13  and  O3_15 
REMARK    8  A    between atoms: C18_22  and  N2_23 
REMARK    9  A    between atoms: N2_23  and  C19_24 
ROOT
HETATM    1  C7  UNL     1      -0.698   0.465  -0.615  1.00  0.00    -0.005 C 
HETATM    2  C8  UNL     1      -0.779   1.221  -1.980  1.00  0.00     0.015 C 
HETATM    3  C9  UNL     1      -1.159   2.695  -1.906  1.00  0.00     0.038 C 
HETATM    4  C10 UNL     1      -0.366   3.466  -0.855  1.00  0.00     0.054 C 
HETATM    5  C11 UNL     1      -0.841   4.923  -0.798  1.00  0.00     0.045 C 
HETATM    6  C12 UNL     1      -0.402   2.817   0.539  1.00  0.00     0.043 C 
HETATM    7  C13 UNL     1      -0.970   1.387   0.625  1.00  0.00     0.007 C 
HETATM    8  C14 UNL     1      -2.509   1.267   0.960  1.00  0.00    -0.041 C 
HETATM    9  C15 UNL     1      -2.680   0.650   2.370  1.00  0.00     0.015 C 
HETATM   10  C16 UNL     1      -3.339   2.562   0.973  1.00  0.00     0.015 C 
HETATM   11  C17 UNL     1      -3.064   0.317  -0.123  1.00  0.00     0.045 C 
HETATM   12  C18 UNL     1      -1.892  -0.580  -0.553  1.00  0.00     0.230 C 
ENDROOT
BRANCH   1  13
HETATM   13  C6  UNL     1       0.677  -0.279  -0.518  1.00  0.00     0.021 C 
BRANCH  13  14
HETATM   14  C5  UNL     1       1.955   0.558  -0.608  1.00  0.00     0.103 C 
BRANCH  14  15
HETATM   15  C4  UNL     1       3.202  -0.309  -0.535  1.00  0.00     0.217 C 
HETATM   16  N1  UNL     1       4.365   0.419  -0.679  1.00  0.00    -0.359 N 
HETATM   17  H8  UNL     1       4.291   1.380  -0.988  1.00  0.00     0.162 HD
HETATM   18  O2  UNL     1       3.183  -1.520  -0.354  1.00  0.00    -0.274 OA
BRANCH  16  19
HETATM   19  C3  UNL     1       5.664  -0.224  -0.734  1.00  0.00     0.148 C 
BRANCH  19  20
HETATM   20  C2  UNL     1       6.122  -0.794   0.613  1.00  0.00     0.186 C 
BRANCH  20  21
HETATM   21  O1  UNL     1       7.491  -1.207   0.564  1.00  0.00    -0.394 OA
HETATM   22  C1  UNL     1       8.398  -0.152   0.853  1.00  0.00     0.201 C 
ENDBRANCH  20  21
ENDBRANCH  19  20
ENDBRANCH  16  19
ENDBRANCH  14  15
ENDBRANCH  13  14
ENDBRANCH   1  13
BRANCH  12  23
HETATM   23  N2  UNL     1      -1.690  -1.685   0.398  1.00  0.00     0.093 N 
HETATM   24  H33 UNL     1      -0.785  -2.124   0.228  1.00  0.00     0.316 HD
BRANCH  23  25
HETATM   25  C19 UNL     1      -2.711  -2.746   0.346  1.00  0.00     0.225 C 
HETATM   26  C20 UNL     1      -2.665  -3.554  -0.962  1.00  0.00     0.062 C 
HETATM   27  C21 UNL     1      -3.189  -4.976  -0.776  1.00  0.00     0.169 C 
HETATM   28  O4  UNL     1      -4.159  -5.017   0.263  1.00  0.00    -0.391 OA
HETATM   29  C22 UNL     1      -3.588  -4.768   1.550  1.00  0.00     0.169 C 
HETATM   30  C23 UNL     1      -2.506  -3.688   1.533  1.00  0.00     0.062 C 
ENDBRANCH  23  25
ENDBRANCH  12  23
BRANCH   4  31
HETATM   31  O3  UNL     1       1.002   3.497  -1.295  1.00  0.00    -0.390 OA
HETATM   32  H20 UNL     1       1.480   4.124  -0.724  1.00  0.00     0.210 HD
ENDBRANCH   4  31
TORSDOF 9
