REMARK  12 active torsions:
REMARK  status: ('A' for Active; 'I' for Inactive)
REMARK    1  A    between atoms: C2_2  and  C23_27 
REMARK    2  A    between atoms: C3_3  and  C4_4 
REMARK    3  A    between atoms: C4_4  and  C5_5 
REMARK    4  A    between atoms: C13_13  and  C14_14 
REMARK    5  A    between atoms: C14_14  and  C16_16 
REMARK    6  A    between atoms: C17_17  and  C18_18 
REMARK    7  A    between atoms: C18_18  and  O1_19 
REMARK    8  A    between atoms: C18_18  and  C19_20 
REMARK    9  A    between atoms: C20_21  and  C21_23 
REMARK   10  A    between atoms: C21_23  and  C22_24 
REMARK   11  A    between atoms: C22_24  and  O2_25 
REMARK   12  A    between atoms: C23_27  and  O4_29 
ROOT
HETATM    1  C5  UNL     1      -2.702  -0.893   0.801  1.00  0.00     0.225 C 
HETATM    2  C6  UNL     1      -1.957  -1.761   1.836  1.00  0.00     0.036 C 
HETATM    3  C7  UNL     1      -0.457  -1.775   1.589  1.00  0.00     0.005 C 
HETATM    4  C8  UNL     1       0.112  -0.357   1.662  1.00  0.00     0.042 C 
HETATM    5  C9  UNL     1      -0.825   0.719   1.058  1.00  0.00     0.162 C 
HETATM    6  C10 UNL     1      -1.488   1.551   2.185  1.00  0.00     0.042 C 
HETATM    7  C11 UNL     1      -2.004   2.809   1.506  1.00  0.00     0.003 C 
HETATM    8  C12 UNL     1      -1.057   3.052   0.337  1.00  0.00     0.008 C 
HETATM    9  C13 UNL     1      -0.062   1.865   0.307  1.00  0.00     0.031 C 
HETATM   10  N1  UNL     1      -1.841   0.127   0.172  1.00  0.00     0.098 N 
HETATM   11  H35 UNL     1      -1.380  -0.284  -0.638  1.00  0.00     0.317 HD
ENDROOT
BRANCH   9  12
HETATM   12  C14 UNL     1       0.469   1.612  -1.139  1.00  0.00     0.010 C 
HETATM   13  C15 UNL     1       1.117   2.883  -1.718  1.00  0.00     0.015 C 
BRANCH  12  14
HETATM   14  C16 UNL     1       1.381   0.405  -1.242  1.00  0.00    -0.023 C 
HETATM   15  C17 UNL     1       2.725   0.404  -1.269  1.00  0.00     0.005 C 
BRANCH  15  16
HETATM   16  C18 UNL     1       3.573  -0.832  -1.361  1.00  0.00     0.165 C 
BRANCH  16  17
HETATM   17  O1  UNL     1       4.372  -0.770  -2.528  1.00  0.00    -0.388 OA
HETATM   18  H28 UNL     1       3.830  -0.358  -3.222  1.00  0.00     0.210 HD
ENDBRANCH  16  17
BRANCH  16  19
HETATM   19  C19 UNL     1       4.430  -1.015  -0.141  1.00  0.00     0.028 C 
HETATM   20  C20 UNL     1       5.609  -0.450   0.180  1.00  0.00     0.013 C 
HETATM   21 CL1  UNL     1       6.362   0.757  -0.811  1.00  0.00    -0.089 Cl
BRANCH  20  22
HETATM   22  C21 UNL     1       6.343  -0.753   1.464  1.00  0.00     0.077 C 
BRANCH  22  23
HETATM   23  C22 UNL     1       7.556  -1.661   1.252  1.00  0.00     0.169 C 
BRANCH  23  24
HETATM   24  O2  UNL     1       8.651  -0.953   0.681  1.00  0.00    -0.401 OA
HETATM   25  H34 UNL     1       8.347  -0.594  -0.173  1.00  0.00     0.209 HD
ENDBRANCH  23  24
ENDBRANCH  22  23
ENDBRANCH  20  22
ENDBRANCH  16  19
ENDBRANCH  15  16
ENDBRANCH  12  14
ENDBRANCH   9  12
BRANCH   1  26
HETATM   26  C4  UNL     1      -3.358  -1.789  -0.280  1.00  0.00     0.063 C 
BRANCH  26  27
HETATM   27  C3  UNL     1      -4.208  -1.023  -1.261  1.00  0.00    -0.011 C 
HETATM   28  C2  UNL     1      -5.554  -0.942  -1.289  1.00  0.00     0.008 C 
HETATM   29  C1  UNL     1      -6.491  -1.568  -0.303  1.00  0.00     0.055 C 
BRANCH  28  30
HETATM   30  C23 UNL     1      -6.147  -0.141  -2.393  1.00  0.00     0.171 C 
HETATM   31  O3  UNL     1      -5.548   0.441  -3.280  1.00  0.00    -0.646 OA
BRANCH  30  32
HETATM   32  O4  UNL     1      -7.488  -0.118  -2.342  1.00  0.00    -0.773 OA
HETATM   33  H36 UNL     1      -7.735   0.424  -3.119  1.00  0.00     0.167 HD
ENDBRANCH  30  32
ENDBRANCH  28  30
ENDBRANCH  26  27
ENDBRANCH   1  26
TORSDOF 12
