REMARK  14 active torsions:
REMARK  status: ('A' for Active; 'I' for Inactive)
REMARK    1  A    between atoms: C2_2  and  C4_4 
REMARK    2  A    between atoms: C5_6  and  C6_7 
REMARK    3  A    between atoms: C7_8  and  C8_9 
REMARK    4  A    between atoms: C9_10  and  C10_11 
REMARK    5  A    between atoms: C10_11  and  C11_12 
REMARK    6  A    between atoms: C11_12  and  C12_13 
REMARK    7  A    between atoms: C12_13  and  C13_14 
REMARK    8  A    between atoms: C18_21  and  C19_22 
REMARK    9  A    between atoms: C19_22  and  O4_23 
REMARK   10  A    between atoms: C20_24  and  O5_25 
REMARK   11  A    between atoms: C21_26  and  O6_27 
REMARK   12  A    between atoms: C30_38  and  O9_39 
REMARK   13  A    between atoms: O9_39  and  C31_40 
REMARK   14  A    between atoms: C31_40  and  C32_41 
ROOT
HETATM    1  C4  UNL     1      -0.712   1.282  -0.105  1.00  0.00     0.142 C 
HETATM    2  O1  UNL     1      -0.333   1.153  -1.494  1.00  0.00    -0.308 OA
HETATM    3  C5  UNL     1       0.374  -0.072  -1.552  1.00  0.00     0.306 C 
HETATM    4  O2  UNL     1       1.061  -0.222  -0.325  1.00  0.00    -0.320 OA
HETATM    5  C15 UNL     1       0.014   0.096   0.598  1.00  0.00     0.179 C 
HETATM    6  C16 UNL     1      -0.828  -1.196   0.697  1.00  0.00     0.086 C 
HETATM    7  C17 UNL     1       0.037  -2.321   1.231  1.00  0.00     0.172 A 
HETATM    8  O3  UNL     1       0.376  -3.387   0.350  1.00  0.00    -0.363 OA
HETATM    9  C18 UNL     1      -0.415  -3.764   1.495  1.00  0.00     0.138 A 
HETATM   10  C20 UNL     1      -1.785  -4.333   1.146  1.00  0.00     0.200 C 
HETATM   11  C21 UNL     1      -2.731  -3.450   0.314  1.00  0.00     0.161 C 
HETATM   12  C22 UNL     1      -3.853  -4.243  -0.352  1.00  0.00     0.192 C 
HETATM   13  O7  UNL     1      -4.645  -4.965   0.238  1.00  0.00    -0.289 OA
HETATM   14  C23 UNL     1      -3.985  -3.919  -1.783  1.00  0.00    -0.016 C 
HETATM   15  C24 UNL     1      -5.047  -4.475  -2.646  1.00  0.00     0.052 C 
HETATM   16  C25 UNL     1      -2.981  -3.084  -2.063  1.00  0.00    -0.005 C 
HETATM   17  C26 UNL     1      -2.046  -2.808  -0.912  1.00  0.00     0.090 C 
HETATM   18  C27 UNL     1      -1.521  -1.355  -0.694  1.00  0.00     0.092 C 
HETATM   19  O8  UNL     1      -0.543  -1.155  -1.753  1.00  0.00    -0.316 OA
HETATM   20  C28 UNL     1      -2.659  -0.243  -0.795  1.00  0.00     0.050 C 
HETATM   21  C29 UNL     1      -3.109   0.105  -2.228  1.00  0.00     0.016 C 
HETATM   22  C30 UNL     1      -2.250   1.085  -0.062  1.00  0.00     0.170 C 
ENDROOT
BRANCH   3  23
HETATM   23  C6  UNL     1       1.292  -0.029  -2.732  1.00  0.00     0.074 C 
HETATM   24  C7  UNL     1       2.576   0.350  -2.851  1.00  0.00     0.004 C 
BRANCH  24  25
HETATM   25  C8  UNL     1       3.420   0.914  -1.823  1.00  0.00    -0.004 C 
HETATM   26  C9  UNL     1       4.701   1.248  -2.039  1.00  0.00    -0.027 C 
BRANCH  26  27
HETATM   27  C10 UNL     1       5.586   1.873  -0.999  1.00  0.00     0.027 C 
BRANCH  27  28
HETATM   28  C11 UNL     1       6.804   0.996  -0.691  1.00  0.00     0.004 C 
BRANCH  28  29
HETATM   29  C12 UNL     1       7.716   1.669   0.338  1.00  0.00    -0.000 C 
BRANCH  29  30
HETATM   30  C13 UNL     1       8.914   0.809   0.748  1.00  0.00    -0.005 C 
HETATM   31  C14 UNL     1       9.894   0.552  -0.386  1.00  0.00     0.005 C 
ENDBRANCH  29  30
ENDBRANCH  28  29
ENDBRANCH  27  28
ENDBRANCH  26  27
ENDBRANCH  24  25
ENDBRANCH   3  23
BRANCH   1  32
HETATM   32  C2  UNL     1      -0.292   2.695   0.332  1.00  0.00    -0.054 C 
HETATM   33  C1  UNL     1       0.246   3.010   1.526  1.00  0.00     0.017 C 
HETATM   34  C3  UNL     1      -0.526   3.802  -0.672  1.00  0.00     0.046 C 
ENDBRANCH   1  32
BRANCH  22  35
HETATM   35  O9  UNL     1      -2.680   1.051   1.313  1.00  0.00    -0.377 OA
BRANCH  35  36
HETATM   36  C31 UNL     1      -4.038   1.460   1.505  1.00  0.00     0.207 C 
BRANCH  36  37
HETATM   37  C32 UNL     1      -4.172   2.962   1.469  1.00  0.00    -0.035 A 
HETATM   38  C33 UNL     1      -5.087   3.576   0.603  1.00  0.00     0.009 A 
HETATM   39  C34 UNL     1      -5.205   4.967   0.569  1.00  0.00     0.001 A 
HETATM   40  C35 UNL     1      -4.415   5.756   1.402  1.00  0.00     0.000 A 
HETATM   41  C36 UNL     1      -3.506   5.156   2.271  1.00  0.00     0.001 A 
HETATM   42  C37 UNL     1      -3.386   3.765   2.307  1.00  0.00     0.009 A 
ENDBRANCH  36  37
ENDBRANCH  35  36
ENDBRANCH  22  35
BRANCH  11  43
HETATM   43  O6  UNL     1      -3.415  -2.523   1.180  1.00  0.00    -0.378 OA
HETATM   44  H29 UNL     1      -4.140  -3.037   1.595  1.00  0.00     0.211 HD
ENDBRANCH  11  43
BRANCH   9  45
HETATM   45  C19 UNL     1       0.381  -4.541   2.524  1.00  0.00     0.207 C 
BRANCH  45  46
HETATM   46  O4  UNL     1       0.201  -5.945   2.373  1.00  0.00    -0.398 OA
HETATM   47  H26 UNL     1      -0.723  -6.130   2.633  1.00  0.00     0.209 HD
ENDBRANCH  45  46
ENDBRANCH   9  45
BRANCH  10  48
HETATM   48  O5  UNL     1      -2.426  -4.664   2.395  1.00  0.00    -0.389 OA
HETATM   49  H28 UNL     1      -2.631  -3.815   2.829  1.00  0.00     0.210 HD
ENDBRANCH  10  48
TORSDOF 14
