REMARK  6 active torsions:
REMARK  status: ('A' for Active; 'I' for Inactive)
REMARK    1  A    between atoms: C9_10  and  C10_11 
REMARK    2  A    between atoms: C11_13  and  O3_14 
REMARK    3  A    between atoms: C12_15  and  C13_16 
REMARK    4  A    between atoms: C14_18  and  O5_19 
REMARK    5  A    between atoms: C16_21  and  C17_22 
REMARK    6  A    between atoms: C17_22  and  C18_23 
ROOT
HETATM    1  C1  UNL     1       5.406  -0.785   0.679  1.00  0.00     0.043 C 
HETATM    2  C2  UNL     1       4.331   0.215   0.330  1.00  0.00    -0.087 C 
HETATM    3  C3  UNL     1       4.026   0.444  -0.962  1.00  0.00    -0.024 C 
HETATM    4  C4  UNL     1       3.000   1.390  -1.501  1.00  0.00     0.030 C 
HETATM    5  C5  UNL     1       1.783   0.705  -2.124  1.00  0.00     0.042 C 
HETATM    6  C6  UNL     1       0.945  -0.315  -1.287  1.00  0.00     0.069 C 
HETATM    7  C7  UNL     1       1.702  -1.663  -1.205  1.00  0.00     0.047 C 
HETATM    8  O1  UNL     1      -0.167  -0.603  -2.204  1.00  0.00    -0.338 OA
HETATM    9  C8  UNL     1      -1.319  -1.057  -1.631  1.00  0.00     0.095 A 
HETATM   10  C9  UNL     1      -2.020  -2.107  -2.233  1.00  0.00     0.070 A 
HETATM   11  C11 UNL     1      -3.185  -2.606  -1.630  1.00  0.00     0.097 A 
HETATM   12  C12 UNL     1      -3.656  -2.027  -0.447  1.00  0.00     0.069 A 
HETATM   13  C14 UNL     1      -2.967  -0.942   0.121  1.00  0.00     0.091 A 
HETATM   14  C15 UNL     1      -1.802  -0.442  -0.477  1.00  0.00     0.015 A 
HETATM   15  C16 UNL     1      -1.013   0.714   0.083  1.00  0.00     0.032 C 
HETATM   16  C21 UNL     1       0.489   0.276   0.122  1.00  0.00     0.034 C 
HETATM   17  C22 UNL     1       0.690  -0.710   1.274  1.00  0.00     0.006 A 
HETATM   18  C23 UNL     1       1.888  -0.819   2.232  1.00  0.00    -0.001 A 
HETATM   19  C24 UNL     1       3.066   0.056   2.576  1.00  0.00     0.010 C 
HETATM   20  C25 UNL     1       3.689   0.932   1.498  1.00  0.00     0.034 C 
HETATM   21  C26 UNL     1       0.513  -0.373   2.747  1.00  0.00    -0.039 A 
HETATM   22  C27 UNL     1      -0.255  -1.361   3.596  1.00  0.00     0.015 C 
HETATM   23  C28 UNL     1       0.292   1.058   3.188  1.00  0.00     0.015 C 
ENDROOT
BRANCH  15  24
HETATM   24  C17 UNL     1      -1.199   2.054  -0.672  1.00  0.00     0.014 C 
BRANCH  24  25
HETATM   25  C18 UNL     1      -2.648   2.599  -0.708  1.00  0.00    -0.022 C 
HETATM   26  C19 UNL     1      -3.382   2.175  -1.986  1.00  0.00     0.009 C 
HETATM   27  C20 UNL     1      -2.632   4.131  -0.635  1.00  0.00     0.009 C 
ENDBRANCH  24  25
ENDBRANCH  15  24
BRANCH  13  28
HETATM   28  O5  UNL     1      -3.401  -0.337   1.274  1.00  0.00    -0.359 OA
HETATM   29  H15 UNL     1      -4.171  -0.844   1.620  1.00  0.00     0.217 HD
ENDBRANCH  13  28
BRANCH  10  30
HETATM   30  C10 UNL     1      -1.510  -2.694  -3.487  1.00  0.00     0.275 C 
HETATM   31  O2  UNL     1      -1.997  -3.731  -3.924  1.00  0.00    -0.301 OA
ENDBRANCH  10  30
BRANCH  12  32
HETATM   32  C13 UNL     1      -4.871  -2.570   0.198  1.00  0.00     0.275 C 
HETATM   33  O4  UNL     1      -5.243  -2.139   1.287  1.00  0.00    -0.301 OA
ENDBRANCH  12  32
BRANCH  11  34
HETATM   34  O3  UNL     1      -3.884  -3.659  -2.168  1.00  0.00    -0.359 OA
HETATM   35  H13 UNL     1      -3.431  -3.953  -2.998  1.00  0.00     0.217 HD
ENDBRANCH  11  34
TORSDOF 6
