REMARK  5 active torsions:
REMARK  status: ('A' for Active; 'I' for Inactive)
REMARK    1  A    between atoms: C2_2  and  C4_4 
REMARK    2  A    between atoms: C10_11  and  O2_12 
REMARK    3  A    between atoms: C13_15  and  O3_16 
REMARK    4  A    between atoms: C32_39  and  O6_40 
REMARK    5  A    between atoms: C37_46  and  O8_47 
ROOT
HETATM    1  C4  UNL     1       6.315  -1.533  -1.320  1.00  0.00     0.181 C 
HETATM    2  O1  UNL     1       5.923  -0.851  -0.115  1.00  0.00    -0.370 OA
HETATM    3  C5  UNL     1       4.721  -1.350   0.522  1.00  0.00     0.163 C 
HETATM    4  C6  UNL     1       4.322  -0.234   1.470  1.00  0.00     0.036 C 
HETATM    5  C7  UNL     1       2.924  -0.382   2.066  1.00  0.00     0.016 C 
HETATM    6  C8  UNL     1       1.803  -0.576   1.015  1.00  0.00     0.008 C 
HETATM    7  C9  UNL     1       1.828   0.640   0.037  1.00  0.00     0.020 C 
HETATM    8  C10 UNL     1       2.193  -1.844   0.161  1.00  0.00     0.103 C 
HETATM    9  C11 UNL     1       1.101  -2.122  -0.891  1.00  0.00     0.047 C 
HETATM   10  C12 UNL     1      -0.329  -2.219  -0.362  1.00  0.00     0.073 C 
HETATM   11  C13 UNL     1      -0.508  -1.975   1.146  1.00  0.00     0.179 C 
HETATM   12  O4  UNL     1      -1.909  -1.939   1.460  1.00  0.00    -0.320 OA
HETATM   13  C14 UNL     1      -2.656  -0.790   1.035  1.00  0.00     0.302 C 
HETATM   14  O5  UNL     1      -3.014  -0.912  -0.334  1.00  0.00    -0.346 OA
HETATM   15  C15 UNL     1      -4.404  -0.791  -0.689  1.00  0.00     0.064 C 
HETATM   16  C16 UNL     1      -4.428  -1.188  -2.177  1.00  0.00     0.046 C 
HETATM   17  C17 UNL     1      -5.292  -1.794   0.046  1.00  0.00     0.046 C 
HETATM   18  C18 UNL     1      -4.852   0.671  -0.588  1.00  0.00     0.060 C 
HETATM   19  C19 UNL     1      -6.341   1.018  -0.795  1.00  0.00     0.023 C 
HETATM   20  C20 UNL     1      -6.189   2.206   0.176  1.00  0.00     0.054 C 
HETATM   21  C21 UNL     1      -5.926   3.582  -0.344  1.00  0.00    -0.077 C 
HETATM   22  C22 UNL     1      -6.498   4.017  -1.481  1.00  0.00     0.015 C 
HETATM   23  C23 UNL     1      -5.057   4.468   0.525  1.00  0.00     0.074 C 
HETATM   24  C24 UNL     1      -3.726   3.843   0.910  1.00  0.00    -0.022 A 
HETATM   25  C25 UNL     1      -2.600   4.620   1.201  1.00  0.00     0.043 A 
HETATM   26 CL1  UNL     1      -2.676   6.347   1.158  1.00  0.00    -0.084 Cl
HETATM   27  C26 UNL     1      -1.377   4.038   1.554  1.00  0.00     0.054 A 
HETATM   28  C27 UNL     1      -1.307   2.638   1.564  1.00  0.00     0.045 A 
HETATM   29  N1  UNL     1      -0.244   1.811   1.866  1.00  0.00    -0.357 N 
HETATM   30  C28 UNL     1      -0.562   0.513   1.592  1.00  0.00     0.036 C 
HETATM   31  C29 UNL     1      -1.913   0.479   1.282  1.00  0.00     0.033 C 
HETATM   32  C30 UNL     1      -2.398   1.821   1.258  1.00  0.00     0.014 A 
HETATM   33  C31 UNL     1      -3.652   2.428   1.001  1.00  0.00    -0.001 A 
HETATM   34  C32 UNL     1      -4.902   1.487   0.764  1.00  0.00     0.100 C 
HETATM   35  C33 UNL     1       0.333  -0.728   1.744  1.00  0.00     0.066 C 
HETATM   36  C34 UNL     1       0.423  -0.946   3.303  1.00  0.00     0.028 C 
HETATM   37  C35 UNL     1       3.599  -1.701  -0.449  1.00  0.00     0.147 A 
HETATM   38  O7  UNL     1       3.903  -2.889  -1.238  1.00  0.00    -0.360 OA
HETATM   39  C36 UNL     1       3.888  -1.659  -1.936  1.00  0.00     0.194 A 
HETATM   40  C37 UNL     1       5.240  -1.159  -2.379  1.00  0.00     0.183 C 
HETATM   41  H37 UNL     1       0.653   2.145   2.181  1.00  0.00     0.166 HD
ENDROOT
BRANCH   1  42
HETATM   42  C2  UNL     1       7.757  -1.126  -1.596  1.00  0.00    -0.062 C 
HETATM   43  C1  UNL     1       8.173  -0.410  -2.663  1.00  0.00     0.016 C 
HETATM   44  C3  UNL     1       8.771  -1.595  -0.587  1.00  0.00     0.045 C 
ENDBRANCH   1  42
BRANCH  40  45
HETATM   45  O8  UNL     1       5.131   0.276  -2.494  1.00  0.00    -0.390 OA
HETATM   46  H44 UNL     1       5.457   0.616  -1.637  1.00  0.00     0.210 HD
ENDBRANCH  40  45
BRANCH   8  47
HETATM   47  O2  UNL     1       2.286  -2.997   0.985  1.00  0.00    -0.386 OA
HETATM   48  H15 UNL     1       2.647  -3.719   0.433  1.00  0.00     0.210 HD
ENDBRANCH   8  47
BRANCH  11  49
HETATM   49  O3  UNL     1      -0.081  -3.155   1.856  1.00  0.00    -0.364 OA
HETATM   50  H20 UNL     1       0.195  -3.824   1.221  1.00  0.00     0.213 HD
ENDBRANCH  11  49
BRANCH  34  51
HETATM   51  O6  UNL     1      -5.217   0.726   1.959  1.00  0.00    -0.384 OA
HETATM   52  H38 UNL     1      -5.292   1.411   2.644  1.00  0.00     0.211 HD
ENDBRANCH  34  51
TORSDOF 5
