REMARK  12 active torsions:
REMARK  status: ('A' for Active; 'I' for Inactive)
REMARK    1  A    between atoms: O1_2  and  C2_3 
REMARK    2  A    between atoms: C2_3  and  C3_4 
REMARK    3  A    between atoms: C2_3  and  C7_8 
REMARK    4  A    between atoms: C7_8  and  C8_9 
REMARK    5  A    between atoms: C8_9  and  C10_11 
REMARK    6  A    between atoms: C28_30  and  O3_31 
REMARK    7  A    between atoms: O3_31  and  C29_32 
REMARK    8  A    between atoms: C30_34  and  C31_35 
REMARK    9  A    between atoms: C31_35  and  O5_36 
REMARK   10  A    between atoms: C32_37  and  O6_38 
REMARK   11  A    between atoms: C33_39  and  O7_40 
REMARK   12  A    between atoms: C34_41  and  O8_42 
ROOT
HETATM    1  C10 UNL     1      -4.184   1.264  -0.580  1.00  0.00    -0.002 C 
HETATM    2  C11 UNL     1      -4.334   1.170  -2.134  1.00  0.00     0.006 C 
HETATM    3  C12 UNL     1      -2.912   1.141  -2.736  1.00  0.00     0.011 C 
HETATM    4  C13 UNL     1      -1.995   0.875  -1.530  1.00  0.00    -0.029 C 
HETATM    5  C14 UNL     1      -2.086  -0.670  -1.279  1.00  0.00     0.016 C 
HETATM    6  C15 UNL     1      -0.508   1.329  -1.692  1.00  0.00     0.028 C 
HETATM    7  C16 UNL     1       0.208   0.628  -2.825  1.00  0.00    -0.021 C 
HETATM    8  C17 UNL     1       1.386   0.009  -2.639  1.00  0.00     0.008 C 
HETATM    9  C18 UNL     1       2.046  -0.069  -1.267  1.00  0.00     0.092 C 
HETATM   10  O2  UNL     1       2.616   1.247  -1.081  1.00  0.00    -0.374 OA
HETATM   11  C19 UNL     1       1.615   2.089  -0.477  1.00  0.00     0.179 C 
HETATM   12  C20 UNL     1       0.312   1.260  -0.326  1.00  0.00    -0.004 C 
HETATM   13  C21 UNL     1      -0.511   1.838   0.854  1.00  0.00     0.014 C 
HETATM   14  C22 UNL     1      -2.004   1.467   0.915  1.00  0.00     0.011 C 
HETATM   15  C23 UNL     1      -2.709   1.748  -0.423  1.00  0.00    -0.032 C 
HETATM   16  C24 UNL     1      -2.663   3.286  -0.692  1.00  0.00     0.016 C 
HETATM   17  C25 UNL     1       0.949  -0.152  -0.171  1.00  0.00     0.036 C 
HETATM   18  C26 UNL     1       1.502  -0.538   1.212  1.00  0.00     0.011 C 
HETATM   19  C27 UNL     1       3.008  -0.408   1.345  1.00  0.00     0.033 C 
HETATM   20  C28 UNL     1       3.737  -1.272   0.315  1.00  0.00     0.136 C 
HETATM   21  C35 UNL     1       3.162  -1.166  -1.150  1.00  0.00     0.014 C 
HETATM   22  C36 UNL     1       4.313  -0.893  -2.154  1.00  0.00     0.021 C 
HETATM   23  C37 UNL     1       2.570  -2.556  -1.507  1.00  0.00     0.021 C 
ENDROOT
BRANCH  20  24
HETATM   24  O3  UNL     1       5.132  -0.944   0.348  1.00  0.00    -0.352 OA
BRANCH  24  25
HETATM   25  C29 UNL     1       5.859  -1.541   1.418  1.00  0.00     0.292 C 
HETATM   26  O4  UNL     1       6.480  -0.533   2.218  1.00  0.00    -0.348 OA
HETATM   27  C30 UNL     1       7.379   0.329   1.496  1.00  0.00     0.179 C 
HETATM   28  C32 UNL     1       8.000  -0.322   0.243  1.00  0.00     0.180 C 
HETATM   29  C33 UNL     1       8.245  -1.797   0.541  1.00  0.00     0.183 C 
HETATM   30  C34 UNL     1       6.921  -2.514   0.850  1.00  0.00     0.204 C 
BRANCH  27  31
HETATM   31  C31 UNL     1       6.712   1.668   1.150  1.00  0.00     0.198 C 
BRANCH  31  32
HETATM   32  O5  UNL     1       7.671   2.652   0.769  1.00  0.00    -0.398 OA
HETATM   33  H48 UNL     1       8.340   2.210   0.203  1.00  0.00     0.209 HD
ENDBRANCH  31  32
ENDBRANCH  27  31
BRANCH  28  34
HETATM   34  O6  UNL     1       9.228   0.331  -0.107  1.00  0.00    -0.390 OA
HETATM   35  H50 UNL     1       9.673  -0.288  -0.723  1.00  0.00     0.210 HD
ENDBRANCH  28  34
BRANCH  29  36
HETATM   36  O7  UNL     1       8.905  -2.409  -0.579  1.00  0.00    -0.390 OA
HETATM   37  H52 UNL     1       8.945  -3.366  -0.383  1.00  0.00     0.210 HD
ENDBRANCH  29  36
BRANCH  30  38
HETATM   38  O8  UNL     1       7.207  -3.581   1.774  1.00  0.00    -0.388 OA
HETATM   39  H54 UNL     1       7.414  -3.169   2.635  1.00  0.00     0.210 HD
ENDBRANCH  30  38
ENDBRANCH  24  25
ENDBRANCH  20  24
BRANCH   1  40
HETATM   40  C8  UNL     1      -5.352   2.056   0.070  1.00  0.00    -0.011 C 
HETATM   41  C9  UNL     1      -5.193   2.252   1.579  1.00  0.00     0.010 C 
BRANCH  40  42
HETATM   42  C7  UNL     1      -6.753   1.460  -0.253  1.00  0.00     0.040 C 
BRANCH  42  43
HETATM   43  C2  UNL     1      -7.229   0.217   0.535  1.00  0.00     0.144 C 
BRANCH  43  44
HETATM   44  O1  UNL     1      -8.573  -0.039   0.088  1.00  0.00    -0.387 OA
HETATM   45  C1  UNL     1      -9.319  -0.839   0.998  1.00  0.00     0.202 C 
ENDBRANCH  43  44
BRANCH  43  46
HETATM   46  C3  UNL     1      -6.409  -1.010   0.246  1.00  0.00     0.007 C 
HETATM   47  C4  UNL     1      -5.729  -1.788   1.114  1.00  0.00    -0.089 C 
HETATM   48  C5  UNL     1      -5.687  -1.597   2.605  1.00  0.00     0.042 C 
HETATM   49  C6  UNL     1      -4.911  -2.950   0.617  1.00  0.00     0.042 C 
ENDBRANCH  43  46
ENDBRANCH  42  43
ENDBRANCH  40  42
ENDBRANCH   1  40
TORSDOF 12
