REMARK  9 active torsions:
REMARK  status: ('A' for Active; 'I' for Inactive)
REMARK    1  A    between atoms: O1_2  and  C2_3 
REMARK    2  A    between atoms: C2_3  and  C3_4 
REMARK    3  A    between atoms: C3_4  and  C4_5 
REMARK    4  A    between atoms: C4_5  and  O2_6 
REMARK    5  A    between atoms: O2_6  and  C5_7 
REMARK    6  A    between atoms: C31_35  and  O5_36 
REMARK    7  A    between atoms: C32_38  and  O6_39 
REMARK    8  A    between atoms: C33_40  and  O7_42 
REMARK    9  A    between atoms: C39_47  and  O8_48 
ROOT
HETATM    1  C5  UNL     1       5.941  -0.419  -0.316  1.00  0.00     0.122 C 
HETATM    2  C6  UNL     1       4.940   0.155  -1.317  1.00  0.00     0.033 C 
HETATM    3  C7  UNL     1       3.697  -0.709  -1.545  1.00  0.00     0.013 C 
HETATM    4  C8  UNL     1       3.103  -1.403  -0.269  1.00  0.00    -0.026 C 
HETATM    5  C9  UNL     1       3.406  -2.918  -0.395  1.00  0.00     0.016 C 
HETATM    6  C10 UNL     1       3.771  -0.836   1.010  1.00  0.00     0.071 C 
HETATM    7  C11 UNL     1       5.301  -0.989   0.959  1.00  0.00     0.045 C 
HETATM    8  C12 UNL     1       3.390   0.628   1.260  1.00  0.00     0.161 C 
HETATM    9  O3  UNL     1       4.179   1.437   1.754  1.00  0.00    -0.292 OA
HETATM   10  C13 UNL     1       1.999   1.057   0.958  1.00  0.00    -0.006 C 
HETATM   11  C14 UNL     1       1.177   0.195   0.338  1.00  0.00    -0.030 C 
HETATM   12  C15 UNL     1       1.549  -1.174  -0.229  1.00  0.00     0.027 C 
HETATM   13  C16 UNL     1       0.677  -2.273   0.444  1.00  0.00     0.011 C 
HETATM   14  C17 UNL     1      -0.846  -1.943   0.420  1.00  0.00     0.015 C 
HETATM   15  C18 UNL     1      -1.132  -0.543   1.019  1.00  0.00     0.013 C 
HETATM   16  C19 UNL     1      -0.661  -0.619   2.506  1.00  0.00     0.020 C 
HETATM   17  C20 UNL     1      -2.603   0.080   0.880  1.00  0.00     0.067 C 
HETATM   18  C21 UNL     1      -3.055  -0.116  -0.548  1.00  0.00    -0.092 C 
HETATM   19  C22 UNL     1      -3.459  -0.280  -1.672  1.00  0.00    -0.103 C 
HETATM   20  C23 UNL     1      -3.999  -0.483  -3.031  1.00  0.00     0.129 C 
HETATM   21  C24 UNL     1      -5.519  -0.190  -3.196  1.00  0.00     0.235 C 
HETATM   22  C25 UNL     1      -5.890   1.291  -2.967  1.00  0.00     0.044 C 
HETATM   23  C26 UNL     1      -6.588   1.647  -1.646  1.00  0.00     0.027 C 
HETATM   24  C27 UNL     1      -5.639   1.803  -0.452  1.00  0.00     0.020 C 
HETATM   25  C28 UNL     1      -6.082   2.997   0.410  1.00  0.00     0.013 C 
HETATM   26  C29 UNL     1      -5.797   0.456   0.259  1.00  0.00     0.158 C 
HETATM   27  O4  UNL     1      -7.231   0.238   0.187  1.00  0.00    -0.373 OA
HETATM   28  C30 UNL     1      -7.606   0.598  -1.174  1.00  0.00     0.185 C 
HETATM   29  C31 UNL     1      -7.676  -0.642  -2.106  1.00  0.00     0.384 C 
HETATM   30  N1  UNL     1      -6.389  -1.177  -2.530  1.00  0.00     0.120 N 
HETATM   31  C32 UNL     1      -5.224   0.304   1.679  1.00  0.00     0.183 C 
HETATM   32  C33 UNL     1      -3.810  -0.433   1.830  1.00  0.00     0.102 C 
HETATM   33  C34 UNL     1      -3.510  -0.414   3.351  1.00  0.00     0.050 C 
HETATM   34  C35 UNL     1      -2.279   1.602   1.114  1.00  0.00     0.034 C 
HETATM   35  C36 UNL     1      -0.810   1.870   0.659  1.00  0.00     0.027 C 
HETATM   36  C37 UNL     1       0.060   2.518   1.742  1.00  0.00     0.013 C 
HETATM   37  C38 UNL     1       1.560   2.418   1.435  1.00  0.00     0.043 C 
HETATM   38  C39 UNL     1      -0.282   0.504   0.201  1.00  0.00     0.095 C 
HETATM   39  H43 UNL     1      -5.906  -1.596  -1.736  1.00  0.00     0.319 HD
ENDROOT
BRANCH  32  40
HETATM   40  O7  UNL     1      -4.046  -1.832   1.529  1.00  0.00    -0.386 OA
HETATM   41  H49 UNL     1      -4.905  -2.034   1.957  1.00  0.00     0.210 HD
ENDBRANCH  32  40
BRANCH  38  42
HETATM   42  O8  UNL     1      -0.520   0.443  -1.209  1.00  0.00    -0.384 OA
HETATM   43  H57 UNL     1       0.084   1.066  -1.647  1.00  0.00     0.211 HD
ENDBRANCH  38  42
BRANCH  31  44
HETATM   44  O6  UNL     1      -6.186  -0.508   2.415  1.00  0.00    -0.390 OA
HETATM   45  H45 UNL     1      -7.034  -0.403   1.934  1.00  0.00     0.210 HD
ENDBRANCH  31  44
BRANCH  29  46
HETATM   46  O5  UNL     1      -8.437  -0.326  -3.260  1.00  0.00    -0.366 OA
HETATM   47  H42 UNL     1      -9.159  -0.982  -3.281  1.00  0.00     0.212 HD
ENDBRANCH  29  46
BRANCH   1  48
HETATM   48  O2  UNL     1       6.666  -1.455  -0.993  1.00  0.00    -0.386 OA
BRANCH  48  49
HETATM   49  C4  UNL     1       7.998  -1.635  -0.510  1.00  0.00     0.170 C 
BRANCH  49  50
HETATM   50  C3  UNL     1       8.947  -0.638  -1.169  1.00  0.00     0.052 C 
BRANCH  50  51
HETATM   51  C2  UNL     1      10.369  -0.798  -0.645  1.00  0.00     0.169 C 
BRANCH  51  52
HETATM   52  O1  UNL     1      11.272   0.100  -1.295  1.00  0.00    -0.396 OA
HETATM   53  C1  UNL     1      11.200   1.432  -0.797  1.00  0.00     0.201 C 
ENDBRANCH  51  52
ENDBRANCH  50  51
ENDBRANCH  49  50
ENDBRANCH  48  49
ENDBRANCH   1  48
TORSDOF 9
