REMARK  12 active torsions:
REMARK  status: ('A' for Active; 'I' for Inactive)
REMARK    1  A    between atoms: C2_2  and  O2_4 
REMARK    2  A    between atoms: O2_4  and  C3_5 
REMARK    3  A    between atoms: C20_23  and  C21_24 
REMARK    4  A    between atoms: C21_24  and  C23_26 
REMARK    5  A    between atoms: C23_26  and  C24_27 
REMARK    6  A    between atoms: C24_27  and  C25_28 
REMARK    7  A    between atoms: C25_28  and  O4_29 
REMARK    8  A    between atoms: C25_28  and  C26_30 
REMARK    9  A    between atoms: C26_30  and  O5_32 
REMARK   10  A    between atoms: C26_30  and  C28_33 
REMARK   11  A    between atoms: C28_33  and  O6_34 
REMARK   12  A    between atoms: C32_38  and  O7_39 
ROOT
HETATM    1  C3  UNL     1       4.825  -2.019   0.549  1.00  0.00     0.140 C 
HETATM    2  C4  UNL     1       3.652  -1.674   1.485  1.00  0.00     0.034 C 
HETATM    3  C5  UNL     1       3.442  -0.171   1.605  1.00  0.00     0.017 C 
HETATM    4  C6  UNL     1       3.020   0.500   0.262  1.00  0.00    -0.013 C 
HETATM    5  C7  UNL     1       3.527   1.967   0.310  1.00  0.00     0.021 C 
HETATM    6  C8  UNL     1       1.492   0.599  -0.022  1.00  0.00    -0.032 C 
HETATM    7  C9  UNL     1       1.026   0.730  -1.298  1.00  0.00     0.002 C 
HETATM    8  C10 UNL     1       1.990   0.801  -2.455  1.00  0.00     0.157 C 
HETATM    9  O3  UNL     1       1.622   1.171  -3.568  1.00  0.00    -0.293 OA
HETATM   10  C11 UNL     1       3.441   0.418  -2.238  1.00  0.00     0.090 C 
HETATM   11  C12 UNL     1       3.595  -0.355  -0.929  1.00  0.00     0.015 C 
HETATM   12  C13 UNL     1       4.983  -1.034  -0.670  1.00  0.00    -0.016 C 
HETATM   13  C14 UNL     1       5.393  -1.890  -1.897  1.00  0.00     0.018 C 
HETATM   14  C15 UNL     1       6.125  -0.019  -0.465  1.00  0.00     0.018 C 
HETATM   15  C16 UNL     1      -0.469   0.722  -1.600  1.00  0.00    -0.005 C 
HETATM   16  C17 UNL     1      -0.800  -0.793  -1.793  1.00  0.00     0.021 C 
HETATM   17  C18 UNL     1      -1.047   1.461  -2.823  1.00  0.00     0.015 C 
HETATM   18  C19 UNL     1      -2.543   1.661  -2.503  1.00  0.00     0.007 C 
HETATM   19  C20 UNL     1      -2.723   1.389  -0.982  1.00  0.00    -0.002 C 
HETATM   20  C29 UNL     1      -1.260   1.450  -0.441  1.00  0.00    -0.026 C 
HETATM   21  C30 UNL     1      -0.812   2.930  -0.267  1.00  0.00     0.016 C 
HETATM   22  C31 UNL     1      -0.983   0.684   0.864  1.00  0.00     0.047 C 
HETATM   23  C32 UNL     1       0.528   0.538   1.162  1.00  0.00     0.149 C 
ENDROOT
BRANCH  19  24
HETATM   24  C21 UNL     1      -3.914   2.174  -0.356  1.00  0.00    -0.014 C 
HETATM   25  C22 UNL     1      -3.842   3.707  -0.424  1.00  0.00     0.010 C 
BRANCH  24  26
HETATM   26  C23 UNL     1      -4.262   1.775   1.097  1.00  0.00     0.007 C 
BRANCH  26  27
HETATM   27  C24 UNL     1      -4.546   0.292   1.388  1.00  0.00     0.035 C 
BRANCH  27  28
HETATM   28  C25 UNL     1      -5.819  -0.263   0.725  1.00  0.00     0.154 C 
BRANCH  28  29
HETATM   29  O4  UNL     1      -5.596  -0.395  -0.679  1.00  0.00    -0.392 OA
HETATM   30  H38 UNL     1      -6.448  -0.275  -1.133  1.00  0.00     0.210 HD
ENDBRANCH  28  29
BRANCH  28  31
HETATM   31  C26 UNL     1      -6.303  -1.621   1.325  1.00  0.00     0.101 C 
HETATM   32  C27 UNL     1      -7.575  -2.095   0.606  1.00  0.00     0.051 C 
BRANCH  31  33
HETATM   33  O5  UNL     1      -6.630  -1.449   2.719  1.00  0.00    -0.385 OA
HETATM   34  H42 UNL     1      -7.369  -0.818   2.779  1.00  0.00     0.210 HD
ENDBRANCH  31  33
BRANCH  31  35
HETATM   35  C28 UNL     1      -5.240  -2.741   1.246  1.00  0.00     0.204 C 
BRANCH  35  36
HETATM   36  O6  UNL     1      -4.226  -2.555   2.236  1.00  0.00    -0.398 OA
HETATM   37  H45 UNL     1      -4.715  -2.280   3.038  1.00  0.00     0.209 HD
ENDBRANCH  35  36
ENDBRANCH  31  35
ENDBRANCH  28  31
ENDBRANCH  27  28
ENDBRANCH  26  27
ENDBRANCH  24  26
ENDBRANCH  19  24
BRANCH  23  38
HETATM   38  O7  UNL     1       0.885   1.551   2.102  1.00  0.00    -0.391 OA
HETATM   39  H52 UNL     1       0.853   2.407   1.648  1.00  0.00     0.210 HD
ENDBRANCH  23  38
BRANCH   1  40
HETATM   40  O2  UNL     1       6.024  -2.027   1.354  1.00  0.00    -0.316 OA
BRANCH  40  41
HETATM   41  C2  UNL     1       6.840  -3.110   1.251  1.00  0.00     0.255 C 
HETATM   42  C1  UNL     1       8.022  -2.940   2.155  1.00  0.00     0.126 C 
HETATM   43  O1  UNL     1       6.656  -4.083   0.535  1.00  0.00    -0.266 OA
ENDBRANCH  40  41
ENDBRANCH   1  40
TORSDOF 12
