REMARK  13 active torsions:
REMARK  status: ('A' for Active; 'I' for Inactive)
REMARK    1  A    between atoms: O1_2  and  C2_3 
REMARK    2  A    between atoms: C12_14  and  C13_15 
REMARK    3  A    between atoms: C13_15  and  C15_17 
REMARK    4  A    between atoms: C15_17  and  C16_18 
REMARK    5  A    between atoms: C17_19  and  C18_20 
REMARK    6  A    between atoms: C18_20  and  O3_23 
REMARK    7  A    between atoms: C29_32  and  O4_33 
REMARK    8  A    between atoms: O4_33  and  C30_34 
REMARK    9  A    between atoms: C31_36  and  C32_37 
REMARK   10  A    between atoms: C32_37  and  O6_38 
REMARK   11  A    between atoms: C33_39  and  O7_40 
REMARK   12  A    between atoms: C34_41  and  O8_42 
REMARK   13  A    between atoms: C35_43  and  O9_44 
ROOT
HETATM    1  C2  UNL     1      -1.908   1.549   0.789  1.00  0.00     0.270 C 
HETATM    2  O2  UNL     1      -2.826   1.011   1.769  1.00  0.00    -0.344 OA
HETATM    3  C3  UNL     1      -2.406  -0.332   2.085  1.00  0.00     0.095 C 
HETATM    4  C4  UNL     1      -1.399  -0.156   3.216  1.00  0.00     0.008 C 
HETATM    5  C5  UNL     1      -0.130   0.210   2.984  1.00  0.00    -0.021 C 
HETATM    6  C6  UNL     1       0.357   0.526   1.585  1.00  0.00     0.030 C 
HETATM    7  C7  UNL     1      -0.816   0.454   0.513  1.00  0.00     0.024 C 
HETATM    8  C8  UNL     1      -0.281   0.606  -0.928  1.00  0.00     0.016 C 
HETATM    9  C9  UNL     1       1.037  -0.113  -1.269  1.00  0.00     0.011 C 
HETATM   10  C10 UNL     1       2.140   0.168  -0.231  1.00  0.00    -0.032 C 
HETATM   11  C11 UNL     1       2.488   1.692  -0.291  1.00  0.00     0.016 C 
HETATM   12  C12 UNL     1       3.464  -0.647  -0.332  1.00  0.00    -0.002 C 
HETATM   13  C22 UNL     1       4.035  -0.540   1.121  1.00  0.00     0.006 C 
HETATM   14  C23 UNL     1       2.872  -0.106   2.040  1.00  0.00     0.011 C 
HETATM   15  C24 UNL     1       1.612  -0.315   1.178  1.00  0.00    -0.029 C 
HETATM   16  C25 UNL     1       1.316  -1.859   1.252  1.00  0.00     0.016 C 
HETATM   17  C26 UNL     1      -1.694  -0.790   0.790  1.00  0.00     0.039 C 
HETATM   18  C27 UNL     1      -2.660  -1.150  -0.351  1.00  0.00     0.011 C 
HETATM   19  C28 UNL     1      -3.752  -2.112   0.097  1.00  0.00     0.033 C 
HETATM   20  C29 UNL     1      -4.540  -1.553   1.283  1.00  0.00     0.136 C 
HETATM   21  C36 UNL     1      -3.619  -1.236   2.507  1.00  0.00     0.014 C 
HETATM   22  C37 UNL     1      -4.474  -0.553   3.615  1.00  0.00     0.021 C 
HETATM   23  C38 UNL     1      -3.115  -2.588   3.083  1.00  0.00     0.021 C 
ENDROOT
BRANCH  20  24
HETATM   24  O4  UNL     1      -5.197  -0.360   0.831  1.00  0.00    -0.352 OA
BRANCH  24  25
HETATM   25  C30 UNL     1      -6.616  -0.394   1.015  1.00  0.00     0.292 C 
HETATM   26  O5  UNL     1      -7.181  -1.272   0.051  1.00  0.00    -0.348 OA
HETATM   27  C31 UNL     1      -7.830  -0.650  -1.058  1.00  0.00     0.179 C 
HETATM   28  C33 UNL     1      -7.041   0.565  -1.570  1.00  0.00     0.180 C 
HETATM   29  C34 UNL     1      -6.851   1.620  -0.465  1.00  0.00     0.183 C 
HETATM   30  C35 UNL     1      -7.110   1.063   0.939  1.00  0.00     0.204 C 
BRANCH  27  31
HETATM   31  C32 UNL     1      -7.998  -1.709  -2.165  1.00  0.00     0.198 C 
BRANCH  31  32
HETATM   32  O6  UNL     1      -8.732  -1.240  -3.295  1.00  0.00    -0.398 OA
HETATM   33  H50 UNL     1      -8.701  -0.255  -3.274  1.00  0.00     0.209 HD
ENDBRANCH  31  32
ENDBRANCH  27  31
BRANCH  28  34
HETATM   34  O7  UNL     1      -7.727   1.183  -2.683  1.00  0.00    -0.390 OA
HETATM   35  H52 UNL     1      -7.112   1.870  -3.010  1.00  0.00     0.210 HD
ENDBRANCH  28  34
BRANCH  29  36
HETATM   36  O8  UNL     1      -5.524   2.158  -0.585  1.00  0.00    -0.390 OA
HETATM   37  H54 UNL     1      -4.931   1.575  -0.062  1.00  0.00     0.210 HD
ENDBRANCH  29  36
BRANCH  30  38
HETATM   38  O9  UNL     1      -8.504   1.131   1.262  1.00  0.00    -0.388 OA
HETATM   39  H56 UNL     1      -8.752   2.072   1.339  1.00  0.00     0.210 HD
ENDBRANCH  30  38
ENDBRANCH  24  25
ENDBRANCH  20  24
BRANCH   1  40
HETATM   40  O1  UNL     1      -1.330   2.791   1.173  1.00  0.00    -0.365 OA
HETATM   41  C1  UNL     1      -2.301   3.733   1.604  1.00  0.00     0.204 C 
ENDBRANCH   1  40
BRANCH  12  42
HETATM   42  C13 UNL     1       4.546  -0.294  -1.395  1.00  0.00    -0.010 C 
HETATM   43  C14 UNL     1       3.999  -0.312  -2.828  1.00  0.00     0.010 C 
BRANCH  42  44
HETATM   44  C15 UNL     1       5.747  -1.275  -1.273  1.00  0.00     0.031 C 
BRANCH  44  45
HETATM   45  C16 UNL     1       6.943  -0.864  -2.089  1.00  0.00    -0.027 C 
HETATM   46  C17 UNL     1       7.972  -0.159  -1.584  1.00  0.00     0.006 C 
BRANCH  46  47
HETATM   47  C18 UNL     1       9.217   0.328  -2.300  1.00  0.00     0.070 C 
HETATM   48  C19 UNL     1      10.465  -0.029  -1.472  1.00  0.00     0.050 C 
HETATM   49  C20 UNL     1       9.400  -0.290  -3.696  1.00  0.00     0.050 C 
BRANCH  47  50
HETATM   50  O3  UNL     1       9.106   1.745  -2.541  1.00  0.00    -0.382 OA
HETATM   51  C21 UNL     1       9.083   2.598  -1.406  1.00  0.00     0.202 C 
ENDBRANCH  47  50
ENDBRANCH  46  47
ENDBRANCH  44  45
ENDBRANCH  42  44
ENDBRANCH  12  42
TORSDOF 13
