REMARK  9 active torsions:
REMARK  status: ('A' for Active; 'I' for Inactive)
REMARK    1  A    between atoms: O1_2  and  C2_3 
REMARK    2  A    between atoms: C2_3  and  C4_5 
REMARK    3  A    between atoms: C2_3  and  C5_7 
REMARK    4  A    between atoms: C4_5  and  O2_6 
REMARK    5  A    between atoms: C5_7  and  O3_8 
REMARK    6  A    between atoms: C5_7  and  C6_9 
REMARK    7  A    between atoms: C6_9  and  C7_10 
REMARK    8  A    between atoms: C7_10  and  C8_11 
REMARK    9  A    between atoms: C8_11  and  C10_13 
ROOT
HETATM    1  C10 UNL     1       1.196  -0.577  -0.259  1.00  0.00    -0.001 C 
HETATM    2  C11 UNL     1       1.246  -1.199   1.166  1.00  0.00     0.007 C 
HETATM    3  C12 UNL     1      -0.203  -1.340   1.662  1.00  0.00     0.015 C 
HETATM    4  C13 UNL     1      -1.076  -1.133   0.410  1.00  0.00    -0.004 C 
HETATM    5  C14 UNL     1      -1.143  -2.501  -0.333  1.00  0.00     0.021 C 
HETATM    6  C15 UNL     1      -2.521  -0.680   0.547  1.00  0.00     0.007 C 
HETATM    7  C16 UNL     1      -3.170  -0.001  -0.432  1.00  0.00     0.007 C 
HETATM    8  C17 UNL     1      -2.367   0.370  -1.671  1.00  0.00     0.157 C 
HETATM    9  O4  UNL     1      -2.928   0.835  -2.664  1.00  0.00    -0.293 OA
HETATM   10  C18 UNL     1      -0.856   0.169  -1.713  1.00  0.00     0.094 C 
HETATM   11  C19 UNL     1      -0.256  -0.008  -0.320  1.00  0.00    -0.022 C 
HETATM   12  C20 UNL     1      -0.305   1.369   0.418  1.00  0.00     0.017 C 
HETATM   13  C21 UNL     1      -4.658   0.436  -0.371  1.00  0.00    -0.007 C 
HETATM   14  C22 UNL     1      -4.651   1.971  -0.169  1.00  0.00     0.021 C 
HETATM   15  C23 UNL     1      -5.426   0.102  -1.691  1.00  0.00     0.022 C 
HETATM   16  C24 UNL     1      -6.922  -0.179  -1.548  1.00  0.00     0.080 C 
HETATM   17  C25 UNL     1      -7.509   0.483  -0.327  1.00  0.00     0.135 C 
HETATM   18  O5  UNL     1      -8.476   1.237  -0.418  1.00  0.00    -0.297 OA
HETATM   19  C26 UNL     1      -6.889   0.096   1.020  1.00  0.00     0.018 C 
HETATM   20  C27 UNL     1      -7.074   1.246   2.028  1.00  0.00     0.023 C 
HETATM   21  C28 UNL     1      -7.695  -1.111   1.546  1.00  0.00     0.023 C 
HETATM   22  C29 UNL     1      -5.396  -0.323   0.790  1.00  0.00     0.021 C 
HETATM   23  C30 UNL     1      -4.561  -0.320   2.069  1.00  0.00     0.090 C 
HETATM   24  C31 UNL     1      -3.257  -1.022   1.802  1.00  0.00     0.157 C 
HETATM   25  O6  UNL     1      -2.807  -1.831   2.608  1.00  0.00    -0.293 OA
ENDROOT
BRANCH   1  26
HETATM   26  C8  UNL     1       2.415   0.357  -0.530  1.00  0.00    -0.014 C 
HETATM   27  C9  UNL     1       2.335   1.021  -1.910  1.00  0.00     0.010 C 
BRANCH  26  28
HETATM   28  C7  UNL     1       3.745  -0.438  -0.414  1.00  0.00     0.007 C 
BRANCH  28  29
HETATM   29  C6  UNL     1       4.983   0.463  -0.248  1.00  0.00     0.035 C 
BRANCH  29  30
HETATM   30  C5  UNL     1       6.282  -0.358  -0.127  1.00  0.00     0.154 C 
BRANCH  30  31
HETATM   31  C2  UNL     1       7.596   0.498  -0.054  1.00  0.00     0.103 C 
HETATM   32  C3  UNL     1       7.804   1.338  -1.323  1.00  0.00     0.051 C 
BRANCH  31  33
HETATM   33  O1  UNL     1       8.771  -0.327   0.174  1.00  0.00    -0.381 OA
HETATM   34  C1  UNL     1       8.972  -1.411  -0.722  1.00  0.00     0.202 C 
ENDBRANCH  31  33
BRANCH  31  35
HETATM   35  C4  UNL     1       7.588   1.453   1.165  1.00  0.00     0.204 C 
BRANCH  35  36
HETATM   36  O2  UNL     1       7.485   0.699   2.378  1.00  0.00    -0.398 OA
HETATM   37  H9  UNL     1       8.257   0.095   2.351  1.00  0.00     0.209 HD
ENDBRANCH  35  36
ENDBRANCH  31  35
ENDBRANCH  30  31
BRANCH  30  38
HETATM   38  O3  UNL     1       6.169  -1.222   1.012  1.00  0.00    -0.392 OA
HETATM   39  H11 UNL     1       6.328  -0.666   1.804  1.00  0.00     0.210 HD
ENDBRANCH  30  38
ENDBRANCH  29  30
ENDBRANCH  28  29
ENDBRANCH  26  28
ENDBRANCH   1  26
TORSDOF 9
