REMARK  7 active torsions:
REMARK  status: ('A' for Active; 'I' for Inactive)
REMARK    1  A    between atoms: C4_4  and  C5_5 
REMARK    2  A    between atoms: C5_5  and  C6_6 
REMARK    3  A    between atoms: C6_6  and  C7_7 
REMARK    4  A    between atoms: C7_7  and  C9_9 
REMARK    5  A    between atoms: C23_23  and  O1_24 
REMARK    6  A    between atoms: C24_25  and  C26_27 
REMARK    7  A    between atoms: C26_27  and  O2_28 
ROOT
HETATM    1  C9  UNL     1       2.416  -0.133   0.178  1.00  0.00    -0.002 C 
HETATM    2  C10 UNL     1       1.673   1.212   0.251  1.00  0.00     0.006 C 
HETATM    3  C11 UNL     1       0.688   1.175  -0.899  1.00  0.00     0.010 C 
HETATM    4  C12 UNL     1       0.259  -0.296  -1.032  1.00  0.00     0.023 C 
HETATM    5  C13 UNL     1      -1.226  -0.447  -0.770  1.00  0.00    -0.072 C 
HETATM    6  C14 UNL     1      -1.713  -0.673   0.469  1.00  0.00    -0.068 C 
HETATM    7  C15 UNL     1      -0.747  -0.839   1.617  1.00  0.00     0.036 C 
HETATM    8  C16 UNL     1       0.535  -1.565   1.222  1.00  0.00     0.014 C 
HETATM    9  C17 UNL     1       1.214  -1.123  -0.112  1.00  0.00    -0.032 C 
HETATM   10  C18 UNL     1       1.591  -2.429  -0.839  1.00  0.00     0.016 C 
HETATM   11  C19 UNL     1      -3.231  -0.752   0.761  1.00  0.00    -0.016 C 
HETATM   12  C20 UNL     1      -3.559  -2.263   0.770  1.00  0.00     0.020 C 
HETATM   13  C21 UNL     1      -3.582  -0.143   2.143  1.00  0.00     0.016 C 
HETATM   14  C22 UNL     1      -5.080  -0.027   2.394  1.00  0.00     0.034 C 
HETATM   15  C23 UNL     1      -5.774   0.810   1.325  1.00  0.00     0.128 C 
HETATM   16  C24 UNL     1      -5.541   0.298  -0.127  1.00  0.00     0.008 C 
HETATM   17  C25 UNL     1      -6.396  -0.957  -0.411  1.00  0.00     0.020 C 
HETATM   18  C27 UNL     1      -3.995   0.078  -0.340  1.00  0.00     0.011 C 
HETATM   19  C28 UNL     1      -3.603  -0.420  -1.742  1.00  0.00     0.011 C 
HETATM   20  C29 UNL     1      -2.103  -0.248  -1.983  1.00  0.00     0.035 C 
ENDROOT
BRANCH   1  21
HETATM   21  C7  UNL     1       3.601  -0.145  -0.852  1.00  0.00    -0.014 C 
HETATM   22  C8  UNL     1       4.578  -1.308  -0.583  1.00  0.00     0.010 C 
BRANCH  21  23
HETATM   23  C6  UNL     1       4.414   1.174  -0.962  1.00  0.00     0.008 C 
BRANCH  23  24
HETATM   24  C5  UNL     1       5.042   1.750   0.316  1.00  0.00     0.028 C 
BRANCH  24  25
HETATM   25  C4  UNL     1       6.266   1.047   0.826  1.00  0.00    -0.025 C 
HETATM   26  C2  UNL     1       7.526   1.162   0.359  1.00  0.00    -0.091 C 
HETATM   27  C1  UNL     1       8.657   0.429   1.029  1.00  0.00     0.042 C 
HETATM   28  C3  UNL     1       7.930   2.004  -0.820  1.00  0.00     0.042 C 
ENDBRANCH  24  25
ENDBRANCH  23  24
ENDBRANCH  21  23
ENDBRANCH   1  21
BRANCH  16  29
HETATM   29  C26 UNL     1      -6.031   1.409  -1.113  1.00  0.00     0.176 C 
BRANCH  29  30
HETATM   30  O2  UNL     1      -7.350   1.853  -0.791  1.00  0.00    -0.400 OA
HETATM   31  H43 UNL     1      -7.615   2.480  -1.488  1.00  0.00     0.209 HD
ENDBRANCH  29  30
ENDBRANCH  16  29
BRANCH  15  32
HETATM   32  O1  UNL     1      -7.158   0.850   1.659  1.00  0.00    -0.395 OA
HETATM   33  H37 UNL     1      -7.603   1.339   0.933  1.00  0.00     0.210 HD
ENDBRANCH  15  32
TORSDOF 7
