REMARK  11 active torsions:
REMARK  status: ('A' for Active; 'I' for Inactive)
REMARK    1  A    between atoms: C6_6  and  C8_8 
REMARK    2  A    between atoms: C8_8  and  O1_9 
REMARK    3  A    between atoms: O1_9  and  C9_10 
REMARK    4  A    between atoms: C10_12  and  C11_13 
REMARK    5  A    between atoms: C11_13  and  O3_14 
REMARK    6  A    between atoms: C12_15  and  O4_16 
REMARK    7  A    between atoms: C13_17  and  O5_18 
REMARK    8  A    between atoms: C14_19  and  O6_20 
REMARK    9  A    between atoms: C20_26  and  C21_27 
REMARK   10  A    between atoms: C21_27  and  C22_28 
REMARK   11  A    between atoms: C26_34  and  O9_35 
ROOT
HETATM    1  C1  UNL     1       3.830   1.338   2.847  1.00  0.00     0.015 C 
HETATM    2  C2  UNL     1       3.048   0.575   2.066  1.00  0.00    -0.084 C 
HETATM    3  C3  UNL     1       1.882  -0.186   2.647  1.00  0.00     0.034 C 
HETATM    4  C4  UNL     1       0.686  -0.231   1.684  1.00  0.00     0.010 C 
HETATM    5  C5  UNL     1       0.621   1.031   0.789  1.00  0.00     0.005 C 
HETATM    6  C6  UNL     1      -0.784   1.283   0.078  1.00  0.00    -0.018 C 
HETATM    7  C7  UNL     1      -1.313   2.680   0.497  1.00  0.00     0.018 C 
HETATM    8  C15 UNL     1      -0.661   1.286  -1.465  1.00  0.00     0.012 C 
HETATM    9  C16 UNL     1       0.225   0.156  -1.940  1.00  0.00     0.002 C 
HETATM   10  C17 UNL     1       1.671   0.356  -1.514  1.00  0.00     0.010 C 
HETATM   11  C18 UNL     1       1.912   1.086  -0.156  1.00  0.00    -0.032 C 
HETATM   12  C19 UNL     1       2.229   2.581  -0.432  1.00  0.00     0.016 C 
HETATM   13  C20 UNL     1       3.176   0.406   0.556  1.00  0.00     0.025 C 
ENDROOT
BRANCH   6  14
HETATM   14  C8  UNL     1      -1.874   0.242   0.488  1.00  0.00     0.180 C 
BRANCH  14  15
HETATM   15  O1  UNL     1      -3.123   0.548  -0.140  1.00  0.00    -0.358 OA
BRANCH  15  16
HETATM   16  C9  UNL     1      -3.984  -0.590  -0.257  1.00  0.00     0.291 C 
HETATM   17  O2  UNL     1      -4.227  -1.154   1.028  1.00  0.00    -0.348 OA
HETATM   18  C10 UNL     1      -5.279  -2.143   1.084  1.00  0.00     0.179 C 
HETATM   19  C12 UNL     1      -5.935  -2.460  -0.270  1.00  0.00     0.180 C 
HETATM   20  C13 UNL     1      -6.311  -1.199  -1.060  1.00  0.00     0.183 C 
HETATM   21  C14 UNL     1      -5.292  -0.070  -0.884  1.00  0.00     0.204 C 
BRANCH  18  22
HETATM   22  C11 UNL     1      -6.269  -1.697   2.168  1.00  0.00     0.198 C 
BRANCH  22  23
HETATM   23  O3  UNL     1      -5.554  -1.474   3.390  1.00  0.00    -0.398 OA
HETATM   24  H17 UNL     1      -4.818  -0.885   3.140  1.00  0.00     0.209 HD
ENDBRANCH  22  23
ENDBRANCH  18  22
BRANCH  19  25
HETATM   25  O4  UNL     1      -7.070  -3.316  -0.140  1.00  0.00    -0.390 OA
HETATM   26  H19 UNL     1      -7.853  -2.728  -0.216  1.00  0.00     0.210 HD
ENDBRANCH  19  25
BRANCH  20  27
HETATM   27  O5  UNL     1      -7.633  -0.774  -0.680  1.00  0.00    -0.390 OA
HETATM   28  H21 UNL     1      -7.505   0.092  -0.232  1.00  0.00     0.210 HD
ENDBRANCH  20  27
BRANCH  21  29
HETATM   29  O6  UNL     1      -5.878   0.946  -0.033  1.00  0.00    -0.388 OA
HETATM   30  H23 UNL     1      -5.116   1.478   0.283  1.00  0.00     0.210 HD
ENDBRANCH  21  29
ENDBRANCH  15  16
ENDBRANCH  14  15
ENDBRANCH   6  14
BRANCH  13  31
HETATM   31  C21 UNL     1       4.591   0.773   0.015  1.00  0.00     0.037 C 
BRANCH  31  32
HETATM   32  C22 UNL     1       4.887   0.286  -1.377  1.00  0.00    -0.010 C 
HETATM   33  C23 UNL     1       5.672  -0.750  -1.719  1.00  0.00     0.044 C 
HETATM   34  C24 UNL     1       5.826  -1.142  -3.142  1.00  0.00     0.291 C 
HETATM   35  C26 UNL     1       6.487  -1.698  -0.919  1.00  0.00     0.181 C 
HETATM   36  O7  UNL     1       5.174  -0.721  -4.080  1.00  0.00    -0.260 OA
HETATM   37  O8  UNL     1       6.793  -2.098  -3.224  1.00  0.00    -0.315 OA
HETATM   38  C25 UNL     1       7.456  -2.202  -1.967  1.00  0.00     0.215 C 
BRANCH  35  39
HETATM   39  O9  UNL     1       7.172  -1.077   0.154  1.00  0.00    -0.389 OA
HETATM   40  H40 UNL     1       7.567  -1.779   0.700  1.00  0.00     0.210 HD
ENDBRANCH  35  39
ENDBRANCH  31  32
ENDBRANCH  13  31
TORSDOF 11
