REMARK  10 active torsions:
REMARK  status: ('A' for Active; 'I' for Inactive)
REMARK    1  A    between atoms: C3_3  and  O1_4 
REMARK    2  A    between atoms: N1_14  and  O2_16 
REMARK    3  A    between atoms: O2_16  and  C13_17 
REMARK    4  A    between atoms: C13_17  and  C14_18 
REMARK       I    between atoms: C14_18  and  N2_20 
REMARK    5  A    between atoms: N2_20  and  C15_21 
REMARK    6  A    between atoms: C15_21  and  C16_22 
REMARK    7  A    between atoms: C15_21  and  C19_29 
REMARK       I    between atoms: C16_22  and  N3_24 
REMARK    8  A    between atoms: N3_24  and  C17_25 
REMARK    9  A    between atoms: C17_25  and  C18_26 
REMARK   10  A    between atoms: C18_26  and  O6_28 
ROOT
HETATM    1  C1  UNL     1      -8.701   2.291  -0.207  1.00  0.00     0.015 C 
HETATM    2  C2  UNL     1      -7.947   1.374  -0.368  1.00  0.00    -0.078 C 
HETATM    3  C3  UNL     1      -7.041   0.227  -0.600  1.00  0.00     0.128 C 
HETATM    4  C4  UNL     1      -6.274   0.441  -1.918  1.00  0.00     0.052 C 
HETATM    5  C5  UNL     1      -4.963   1.137  -1.543  1.00  0.00     0.010 C 
HETATM    6  C6  UNL     1      -4.911   1.189   0.003  1.00  0.00     0.002 C 
HETATM    7  C7  UNL     1      -3.500   1.089   0.629  1.00  0.00    -0.004 C 
HETATM    8  C8  UNL     1      -2.559   2.161   0.051  1.00  0.00     0.010 C 
HETATM    9  C9  UNL     1      -1.177   2.096   0.688  1.00  0.00     0.035 C 
HETATM   10  C10 UNL     1      -0.586   0.712   0.549  1.00  0.00    -0.069 C 
HETATM   11  C11 UNL     1       0.602   0.545  -0.061  1.00  0.00     0.030 C 
HETATM   12  C12 UNL     1       1.230  -0.802  -0.156  1.00  0.00     0.032 C 
HETATM   13  N1  UNL     1       2.200  -0.973  -1.006  1.00  0.00    -0.271 N 
ATOM     14  H1  UNL     1       2.578  -0.235  -1.600  1.00  0.00     0.194 HD
HETATM   15  C22 UNL     1       0.683  -1.866   0.773  1.00  0.00     0.060 C 
HETATM   16  C23 UNL     1      -0.837  -1.815   0.688  1.00  0.00     0.020 C 
HETATM   17  C24 UNL     1      -1.434  -0.438   1.106  1.00  0.00    -0.016 C 
HETATM   18  C25 UNL     1      -1.425  -0.360   2.646  1.00  0.00     0.020 C 
HETATM   19  C26 UNL     1      -2.886  -0.331   0.504  1.00  0.00     0.002 C 
HETATM   20  C27 UNL     1      -3.861  -1.380   1.074  1.00  0.00     0.007 C 
HETATM   21  C28 UNL     1      -5.227  -1.315   0.389  1.00  0.00     0.014 C 
HETATM   22  C29 UNL     1      -5.901   0.087   0.459  1.00  0.00     0.003 C 
HETATM   23  C30 UNL     1      -6.401   0.314   1.899  1.00  0.00     0.020 C 
ENDROOT
BRANCH   3  24
HETATM   24  O1  UNL     1      -7.857  -0.937  -0.652  1.00  0.00    -0.377 OA
HETATM   25  H2  UNL     1      -7.368  -1.643  -1.107  1.00  0.00     0.211 HD
ENDBRANCH   3  24
BRANCH  13  26
HETATM   26  O2  UNL     1       2.662  -2.298  -1.004  1.00  0.00    -0.271 OA
BRANCH  26  27
HETATM   27  C13 UNL     1       3.636  -2.479  -2.026  1.00  0.00     0.303 C 
BRANCH  27  28
HETATM   28  C14 UNL     1       5.033  -2.017  -1.625  1.00  0.00     0.244 C 
HETATM   29  O3  UNL     1       6.047  -2.430  -2.177  1.00  0.00    -0.271 OA
HETATM   30  N2  UNL     1       5.040  -1.078  -0.621  1.00  0.00    -0.346 N 
HETATM   31  H16 UNL     1       4.124  -0.801  -0.276  1.00  0.00     0.163 HD
BRANCH  30  32
HETATM   32  C15 UNL     1       6.259  -0.516  -0.033  1.00  0.00     0.180 C 
BRANCH  32  33
HETATM   33  C16 UNL     1       6.540   0.879  -0.653  1.00  0.00     0.241 C 
HETATM   34  O4  UNL     1       7.577   1.507  -0.457  1.00  0.00    -0.271 OA
HETATM   35  N3  UNL     1       5.488   1.419  -1.376  1.00  0.00    -0.349 N 
HETATM   36  H18 UNL     1       4.813   0.736  -1.722  1.00  0.00     0.163 HD
BRANCH  35  37
HETATM   37  C17 UNL     1       5.712   2.588  -2.215  1.00  0.00     0.232 C 
BRANCH  37  38
HETATM   38  C18 UNL     1       6.217   2.214  -3.600  1.00  0.00     0.158 C 
HETATM   39  O5  UNL     1       6.640   2.992  -4.442  1.00  0.00    -0.649 OA
BRANCH  38  40
HETATM   40  O6  UNL     1       6.076   0.899  -3.891  1.00  0.00    -0.775 OA
HETATM   41  H21 UNL     1       6.474   0.810  -4.783  1.00  0.00     0.167 HD
ENDBRANCH  38  40
ENDBRANCH  37  38
ENDBRANCH  35  37
ENDBRANCH  32  33
BRANCH  32  42
HETATM   42  C19 UNL     1       6.138  -0.423   1.510  1.00  0.00     0.009 C 
HETATM   43  C20 UNL     1       7.525  -0.275   2.154  1.00  0.00     0.012 C 
HETATM   44  C21 UNL     1       5.461  -1.656   2.127  1.00  0.00     0.012 C 
ENDBRANCH  32  42
ENDBRANCH  30  32
ENDBRANCH  27  28
ENDBRANCH  26  27
ENDBRANCH  13  26
TORSDOF 10
