REMARK  13 active torsions:
REMARK  status: ('A' for Active; 'I' for Inactive)
REMARK    1  A    between atoms: O1_2  and  C2_3 
REMARK    2  A    between atoms: C8_9  and  O2_10 
REMARK    3  A    between atoms: O2_10  and  C9_11 
REMARK    4  A    between atoms: C10_13  and  C11_14 
REMARK    5  A    between atoms: C11_14  and  O4_15 
REMARK    6  A    between atoms: C12_16  and  O5_17 
REMARK    7  A    between atoms: C13_18  and  O6_19 
REMARK    8  A    between atoms: C14_20  and  O7_21 
REMARK    9  A    between atoms: C24_31  and  C25_32 
REMARK   10  A    between atoms: C25_32  and  C27_34 
REMARK   11  A    between atoms: C27_34  and  C28_35 
REMARK   12  A    between atoms: C29_36  and  C30_37 
REMARK   13  A    between atoms: C30_37  and  O8_40 
ROOT
HETATM    1  C2  UNL     1      -0.284   2.103   1.573  1.00  0.00     0.149 C 
HETATM    2  C3  UNL     1      -1.642   2.492   1.062  1.00  0.00     0.009 C 
HETATM    3  C4  UNL     1      -2.331   1.708   0.209  1.00  0.00    -0.066 C 
HETATM    4  C5  UNL     1      -1.637   0.428  -0.247  1.00  0.00     0.024 C 
HETATM    5  C6  UNL     1      -2.457  -0.385  -1.266  1.00  0.00     0.012 C 
HETATM    6  C7  UNL     1      -3.932  -0.547  -0.908  1.00  0.00     0.034 C 
HETATM    7  C8  UNL     1      -4.570   0.626  -0.149  1.00  0.00     0.136 C 
HETATM    8  C15 UNL     1      -3.777   1.967  -0.244  1.00  0.00     0.002 C 
HETATM    9  C16 UNL     1      -4.509   2.999   0.659  1.00  0.00     0.022 C 
HETATM   10  C17 UNL     1      -3.803   2.564  -1.668  1.00  0.00     0.022 C 
HETATM   11  C18 UNL     1      -0.139   0.724  -0.695  1.00  0.00    -0.030 C 
HETATM   12  C19 UNL     1      -0.163   1.623  -1.971  1.00  0.00     0.016 C 
HETATM   13  C20 UNL     1       0.556  -0.618  -1.095  1.00  0.00     0.011 C 
HETATM   14  C21 UNL     1       2.095  -0.701  -1.074  1.00  0.00     0.011 C 
HETATM   15  C22 UNL     1       2.813   0.301  -0.156  1.00  0.00    -0.032 C 
HETATM   16  C23 UNL     1       3.315   1.500  -1.026  1.00  0.00     0.016 C 
HETATM   17  C24 UNL     1       4.059  -0.246   0.627  1.00  0.00    -0.002 C 
HETATM   18  C33 UNL     1       4.161   0.745   1.826  1.00  0.00     0.006 C 
HETATM   19  C34 UNL     1       2.834   1.520   1.905  1.00  0.00     0.011 C 
HETATM   20  C35 UNL     1       1.856   0.722   1.024  1.00  0.00    -0.029 C 
HETATM   21  C36 UNL     1       1.345  -0.462   1.913  1.00  0.00     0.016 C 
HETATM   22  C37 UNL     1       0.635   1.523   0.455  1.00  0.00     0.036 C 
ENDROOT
BRANCH   7  23
HETATM   23  O2  UNL     1      -5.906   0.828  -0.633  1.00  0.00    -0.352 OA
BRANCH  23  24
HETATM   24  C9  UNL     1      -6.903   0.044   0.027  1.00  0.00     0.292 C 
HETATM   25  O3  UNL     1      -6.737  -1.330  -0.300  1.00  0.00    -0.348 OA
HETATM   26  C10 UNL     1      -7.704  -2.195   0.305  1.00  0.00     0.179 C 
HETATM   27  C12 UNL     1      -9.133  -1.830  -0.126  1.00  0.00     0.180 C 
HETATM   28  C13 UNL     1      -9.413  -0.339   0.084  1.00  0.00     0.183 C 
HETATM   29  C14 UNL     1      -8.286   0.560  -0.430  1.00  0.00     0.204 C 
BRANCH  26  30
HETATM   30  C11 UNL     1      -7.359  -3.647  -0.069  1.00  0.00     0.198 C 
BRANCH  30  31
HETATM   31  O4  UNL     1      -7.500  -3.868  -1.472  1.00  0.00    -0.398 OA
HETATM   32  H16 UNL     1      -7.270  -4.798  -1.639  1.00  0.00     0.209 HD
ENDBRANCH  30  31
ENDBRANCH  26  30
BRANCH  27  33
HETATM   33  O5  UNL     1     -10.079  -2.601   0.630  1.00  0.00    -0.390 OA
HETATM   34  H18 UNL     1     -10.599  -1.973   1.173  1.00  0.00     0.210 HD
ENDBRANCH  27  33
BRANCH  28  35
HETATM   35  O6  UNL     1      -9.669  -0.072   1.484  1.00  0.00    -0.390 OA
HETATM   36  H20 UNL     1      -8.898  -0.337   2.013  1.00  0.00     0.210 HD
ENDBRANCH  28  35
BRANCH  29  37
HETATM   37  O7  UNL     1      -8.518   1.904   0.029  1.00  0.00    -0.388 OA
HETATM   38  H22 UNL     1      -9.132   1.848   0.787  1.00  0.00     0.210 HD
ENDBRANCH  29  37
ENDBRANCH  23  24
ENDBRANCH   7  23
BRANCH   1  39
HETATM   39  O1  UNL     1       0.352   3.273   2.106  1.00  0.00    -0.386 OA
HETATM   40  C1  UNL     1       0.075   3.484   3.486  1.00  0.00     0.202 C 
ENDBRANCH   1  39
BRANCH  17  41
HETATM   41  C25 UNL     1       5.421  -0.424  -0.115  1.00  0.00    -0.010 C 
HETATM   42  C26 UNL     1       5.308  -1.417  -1.281  1.00  0.00     0.010 C 
BRANCH  41  43
HETATM   43  C27 UNL     1       6.527  -0.899   0.868  1.00  0.00     0.031 C 
BRANCH  43  44
HETATM   44  C28 UNL     1       7.907  -0.843   0.269  1.00  0.00    -0.027 C 
HETATM   45  C29 UNL     1       8.759  -1.882   0.217  1.00  0.00     0.006 C 
BRANCH  45  46
HETATM   46  C30 UNL     1      10.153  -1.864  -0.371  1.00  0.00     0.068 C 
HETATM   47  C31 UNL     1      11.187  -2.097   0.732  1.00  0.00     0.050 C 
HETATM   48  C32 UNL     1      10.275  -2.927  -1.462  1.00  0.00     0.050 C 
BRANCH  46  49
HETATM   49  O8  UNL     1      10.412  -0.591  -0.962  1.00  0.00    -0.387 OA
HETATM   50  H54 UNL     1      11.324  -0.603  -1.298  1.00  0.00     0.211 HD
ENDBRANCH  46  49
ENDBRANCH  45  46
ENDBRANCH  43  44
ENDBRANCH  41  43
ENDBRANCH  17  41
TORSDOF 13
