REMARK  10 active torsions:
REMARK  status: ('A' for Active; 'I' for Inactive)
REMARK    1  A    between atoms: C3_3  and  O1_4 
REMARK    2  A    between atoms: N1_14  and  O2_16 
REMARK    3  A    between atoms: O2_16  and  C13_17 
REMARK    4  A    between atoms: C13_17  and  C14_18 
REMARK       I    between atoms: C14_18  and  N2_20 
REMARK    5  A    between atoms: N2_20  and  C15_21 
REMARK    6  A    between atoms: C15_21  and  C16_22 
REMARK    7  A    between atoms: C15_21  and  C19_29 
REMARK       I    between atoms: C16_22  and  N3_24 
REMARK    8  A    between atoms: N3_24  and  C17_25 
REMARK    9  A    between atoms: C17_25  and  C18_26 
REMARK   10  A    between atoms: C18_26  and  O6_28 
ROOT
HETATM    1  C1  UNL     1      -9.522  -0.505  -1.102  1.00  0.00     0.015 C 
HETATM    2  C2  UNL     1      -8.429  -0.991  -1.206  1.00  0.00    -0.078 C 
HETATM    3  C3  UNL     1      -7.078  -1.581  -1.354  1.00  0.00     0.128 C 
HETATM    4  C4  UNL     1      -6.421  -1.056  -2.642  1.00  0.00     0.052 C 
HETATM    5  C5  UNL     1      -5.553   0.141  -2.225  1.00  0.00     0.010 C 
HETATM    6  C6  UNL     1      -5.677   0.265  -0.694  1.00  0.00     0.002 C 
HETATM    7  C7  UNL     1      -4.448   0.845   0.037  1.00  0.00    -0.004 C 
HETATM    8  C8  UNL     1      -4.044   2.204  -0.552  1.00  0.00     0.010 C 
HETATM    9  C9  UNL     1      -2.928   2.845   0.261  1.00  0.00     0.035 C 
HETATM   10  C10 UNL     1      -1.728   1.939   0.401  1.00  0.00    -0.069 C 
HETATM   11  C11 UNL     1      -0.496   2.443   0.203  1.00  0.00     0.030 C 
HETATM   12  C12 UNL     1       0.730   1.665   0.511  1.00  0.00     0.032 C 
HETATM   13  N1  UNL     1       1.875   2.285   0.437  1.00  0.00    -0.271 N 
ATOM     14  H1  UNL     1       1.985   3.250   0.125  1.00  0.00     0.194 HD
HETATM   15  C22 UNL     1       0.574   0.233   0.979  1.00  0.00     0.060 C 
HETATM   16  C23 UNL     1      -0.744  -0.373   0.515  1.00  0.00     0.020 C 
HETATM   17  C24 UNL     1      -1.992   0.496   0.843  1.00  0.00    -0.016 C 
HETATM   18  C25 UNL     1      -2.217   0.506   2.373  1.00  0.00     0.020 C 
HETATM   19  C26 UNL     1      -3.228  -0.109   0.063  1.00  0.00     0.002 C 
HETATM   20  C27 UNL     1      -3.650  -1.502   0.575  1.00  0.00     0.007 C 
HETATM   21  C28 UNL     1      -4.831  -2.083  -0.204  1.00  0.00     0.014 C 
HETATM   22  C29 UNL     1      -6.077  -1.154  -0.234  1.00  0.00     0.003 C 
HETATM   23  C30 UNL     1      -6.722  -1.146   1.168  1.00  0.00     0.020 C 
ENDROOT
BRANCH   3  24
HETATM   24  O1  UNL     1      -7.201  -2.997  -1.415  1.00  0.00    -0.377 OA
HETATM   25  H2  UNL     1      -8.054  -3.195  -1.835  1.00  0.00     0.211 HD
ENDBRANCH   3  24
BRANCH  13  26
HETATM   26  O2  UNL     1       2.936   1.460   0.839  1.00  0.00    -0.271 OA
BRANCH  26  27
HETATM   27  C13 UNL     1       4.060   2.280   1.145  1.00  0.00     0.303 C 
BRANCH  27  28
HETATM   28  C14 UNL     1       5.250   1.399   1.501  1.00  0.00     0.244 C 
HETATM   29  O3  UNL     1       6.087   1.720   2.340  1.00  0.00    -0.271 OA
HETATM   30  N2  UNL     1       5.349   0.246   0.746  1.00  0.00    -0.346 N 
HETATM   31  H16 UNL     1       4.511  -0.023   0.237  1.00  0.00     0.163 HD
BRANCH  30  32
HETATM   32  C15 UNL     1       6.341  -0.793   1.068  1.00  0.00     0.180 C 
BRANCH  32  33
HETATM   33  C16 UNL     1       7.763  -0.385   0.599  1.00  0.00     0.241 C 
HETATM   34  O4  UNL     1       8.782  -0.935   1.007  1.00  0.00    -0.271 OA
HETATM   35  N3  UNL     1       7.788   0.548  -0.412  1.00  0.00    -0.349 N 
HETATM   36  H18 UNL     1       6.944   1.093  -0.560  1.00  0.00     0.163 HD
BRANCH  35  37
HETATM   37  C17 UNL     1       9.036   1.123  -0.877  1.00  0.00     0.232 C 
BRANCH  37  38
HETATM   38  C18 UNL     1       8.803   2.324  -1.780  1.00  0.00     0.158 C 
HETATM   39  O5  UNL     1       9.664   2.967  -2.359  1.00  0.00    -0.649 OA
BRANCH  38  40
HETATM   40  O6  UNL     1       7.501   2.679  -1.896  1.00  0.00    -0.775 OA
HETATM   41  H21 UNL     1       7.533   3.463  -2.485  1.00  0.00     0.167 HD
ENDBRANCH  38  40
ENDBRANCH  37  38
ENDBRANCH  35  37
ENDBRANCH  32  33
BRANCH  32  42
HETATM   42  C19 UNL     1       5.900  -2.153   0.474  1.00  0.00     0.009 C 
HETATM   43  C20 UNL     1       5.961  -2.201  -1.056  1.00  0.00     0.012 C 
HETATM   44  C21 UNL     1       6.693  -3.322   1.066  1.00  0.00     0.012 C 
ENDBRANCH  32  42
ENDBRANCH  30  32
ENDBRANCH  27  28
ENDBRANCH  26  27
ENDBRANCH  13  26
TORSDOF 10
