REMARK  12 active torsions:
REMARK  status: ('A' for Active; 'I' for Inactive)
REMARK    1  A    between atoms: C3_3  and  O1_4 
REMARK    2  A    between atoms: O1_4  and  C4_5 
REMARK    3  A    between atoms: C5_7  and  C6_8 
REMARK    4  A    between atoms: C6_8  and  O3_9 
REMARK    5  A    between atoms: C7_10  and  O4_11 
REMARK    6  A    between atoms: C8_12  and  O5_13 
REMARK    7  A    between atoms: C9_14  and  O6_15 
REMARK    8  A    between atoms: C10_16  and  O7_17 
REMARK    9  A    between atoms: C15_22  and  O8_23 
REMARK   10  A    between atoms: C15_22  and  C16_24 
REMARK   11  A    between atoms: C17_25  and  C18_26 
REMARK   12  A    between atoms: C18_26  and  O9_28 
ROOT
HETATM    1  C1  UNL     1      -0.791   1.852   1.402  1.00  0.00     0.016 C 
HETATM    2  C2  UNL     1      -0.670   0.355   1.044  1.00  0.00     0.052 C 
HETATM    3  C3  UNL     1       0.107   0.165  -0.282  1.00  0.00     0.160 C 
HETATM    4  C10 UNL     1       0.140  -1.305  -0.761  1.00  0.00     0.148 C 
HETATM    5  C11 UNL     1      -1.199  -2.031  -0.629  1.00  0.00     0.046 C 
HETATM    6  C12 UNL     1      -1.835  -1.935   0.772  1.00  0.00    -0.010 C 
HETATM    7  C13 UNL     1      -3.170  -2.725   0.739  1.00  0.00     0.018 C 
HETATM    8  C14 UNL     1      -0.940  -2.668   1.804  1.00  0.00     0.018 C 
HETATM    9  C15 UNL     1      -2.030  -0.411   1.142  1.00  0.00     0.088 C 
ENDROOT
BRANCH   3  10
HETATM   10  O1  UNL     1       1.424   0.699  -0.029  1.00  0.00    -0.350 OA
BRANCH  10  11
HETATM   11  C4  UNL     1       2.305   0.765  -1.140  1.00  0.00     0.292 C 
HETATM   12  O2  UNL     1       3.218  -0.333  -1.162  1.00  0.00    -0.348 OA
HETATM   13  C5  UNL     1       4.120  -0.422  -0.042  1.00  0.00     0.179 C 
HETATM   14  C7  UNL     1       4.345   0.903   0.701  1.00  0.00     0.180 C 
HETATM   15  C8  UNL     1       4.388   2.020  -0.335  1.00  0.00     0.183 C 
HETATM   16  C9  UNL     1       3.064   2.117  -1.101  1.00  0.00     0.204 C 
BRANCH  13  17
HETATM   17  C6  UNL     1       3.751  -1.582   0.896  1.00  0.00     0.198 C 
BRANCH  17  18
HETATM   18  O3  UNL     1       2.650  -1.275   1.744  1.00  0.00    -0.398 OA
HETATM   19  H10 UNL     1       2.549  -2.024   2.357  1.00  0.00     0.209 HD
ENDBRANCH  17  18
ENDBRANCH  13  17
BRANCH  14  20
HETATM   20  O4  UNL     1       5.591   0.871   1.413  1.00  0.00    -0.390 OA
HETATM   21  H12 UNL     1       5.766   1.807   1.642  1.00  0.00     0.210 HD
ENDBRANCH  14  20
BRANCH  15  22
HETATM   22  O5  UNL     1       4.698   3.267   0.314  1.00  0.00    -0.390 OA
HETATM   23  H14 UNL     1       4.586   3.962  -0.363  1.00  0.00     0.210 HD
ENDBRANCH  15  22
BRANCH  16  24
HETATM   24  O6  UNL     1       3.370   2.590  -2.431  1.00  0.00    -0.388 OA
HETATM   25  H16 UNL     1       3.750   1.835  -2.919  1.00  0.00     0.210 HD
ENDBRANCH  16  24
ENDBRANCH  10  11
ENDBRANCH   3  10
BRANCH   4  26
HETATM   26  O7  UNL     1       0.506  -1.373  -2.150  1.00  0.00    -0.393 OA
HETATM   27  H18 UNL     1      -0.215  -0.995  -2.679  1.00  0.00     0.210 HD
ENDBRANCH   4  26
BRANCH   9  28
HETATM   28  O8  UNL     1      -2.406  -0.321   2.531  1.00  0.00    -0.385 OA
HETATM   29  H27 UNL     1      -3.184  -0.879   2.679  1.00  0.00     0.211 HD
ENDBRANCH   9  28
BRANCH   9  30
HETATM   30  C16 UNL     1      -3.213   0.201   0.400  1.00  0.00     0.010 C 
HETATM   31  C17 UNL     1      -3.255   0.956  -0.715  1.00  0.00     0.003 C 
BRANCH  31  32
HETATM   32  C18 UNL     1      -4.504   1.498  -1.365  1.00  0.00     0.136 C 
HETATM   33  C19 UNL     1      -4.840   0.721  -2.629  1.00  0.00     0.043 C 
BRANCH  32  34
HETATM   34  O9  UNL     1      -5.613   1.420  -0.479  1.00  0.00    -0.392 OA
HETATM   35  H34 UNL     1      -5.387   1.964   0.297  1.00  0.00     0.210 HD
ENDBRANCH  32  34
ENDBRANCH  31  32
ENDBRANCH   9  30
TORSDOF 12
