REMARK  15 active torsions:
REMARK  status: ('A' for Active; 'I' for Inactive)
REMARK    1  A    between atoms: C2_2  and  C3_3 
REMARK    2  A    between atoms: C3_3  and  C4_4 
REMARK    3  A    between atoms: C4_4  and  C5_5 
REMARK    4  A    between atoms: C5_5  and  C6_6 
REMARK    5  A    between atoms: C6_6  and  C7_7 
REMARK    6  A    between atoms: C7_7  and  C8_8 
REMARK    7  A    between atoms: C7_7  and  C30_36 
REMARK    8  A    between atoms: C9_9  and  C11_11 
REMARK    9  A    between atoms: C11_11  and  O1_12 
REMARK   10  A    between atoms: C11_11  and  C12_13 
REMARK   11  A    between atoms: C12_13  and  C14_15 
REMARK   12  A    between atoms: C14_15  and  O3_17 
REMARK   13  A    between atoms: O3_17  and  C15_18 
REMARK   14  A    between atoms: C27_31  and  O5_32 
REMARK   15  A    between atoms: C30_36  and  O7_37 
ROOT
HETATM    1  C14 UNL     1      -0.424   0.475  -2.352  1.00  0.00     0.266 C 
HETATM    2  O2  UNL     1      -0.495   0.705  -3.553  1.00  0.00    -0.265 OA
ENDROOT
BRANCH   1   3
HETATM    3  C12 UNL     1       0.836   0.052  -1.632  1.00  0.00     0.114 C 
HETATM    4  C13 UNL     1       1.889   1.137  -1.857  1.00  0.00     0.023 C 
BRANCH   3   5
HETATM    5  C11 UNL     1       1.251  -1.336  -2.135  1.00  0.00     0.159 C 
BRANCH   5   6
HETATM    6  C9  UNL     1       2.602  -1.804  -1.604  1.00  0.00    -0.058 C 
HETATM    7  C8  UNL     1       2.788  -2.032  -0.286  1.00  0.00    -0.015 C 
HETATM    8  C10 UNL     1       3.673  -1.932  -2.654  1.00  0.00     0.046 C 
BRANCH   7   9
HETATM    9  C7  UNL     1       4.070  -2.450   0.414  1.00  0.00     0.032 C 
BRANCH   9  10
HETATM   10  C6  UNL     1       4.832  -1.176   0.837  1.00  0.00     0.010 C 
BRANCH  10  11
HETATM   11  C5  UNL     1       6.251  -1.456   1.342  1.00  0.00     0.001 C 
BRANCH  11  12
HETATM   12  C4  UNL     1       7.031  -0.183   1.694  1.00  0.00     0.000 C 
BRANCH  12  13
HETATM   13  C3  UNL     1       7.351   0.690   0.478  1.00  0.00    -0.000 C 
BRANCH  13  14
HETATM   14  C2  UNL     1       8.348   1.813   0.785  1.00  0.00    -0.005 C 
HETATM   15  C1  UNL     1       7.839   2.814   1.810  1.00  0.00     0.005 C 
ENDBRANCH  13  14
ENDBRANCH  12  13
ENDBRANCH  11  12
ENDBRANCH  10  11
ENDBRANCH   9  10
BRANCH   9  16
HETATM   16  C30 UNL     1       3.746  -3.362   1.613  1.00  0.00     0.172 C 
BRANCH  16  17
HETATM   17  O7  UNL     1       3.210  -4.609   1.170  1.00  0.00    -0.400 OA
HETATM   18  H50 UNL     1       2.442  -4.410   0.606  1.00  0.00     0.209 HD
ENDBRANCH  16  17
ENDBRANCH   9  16
ENDBRANCH   7   9
ENDBRANCH   5   6
BRANCH   5  19
HETATM   19  O1  UNL     1       0.270  -2.292  -1.709  1.00  0.00    -0.390 OA
HETATM   20  H20 UNL     1       0.614  -3.171  -1.934  1.00  0.00     0.210 HD
ENDBRANCH   5  19
ENDBRANCH   3   5
ENDBRANCH   1   3
BRANCH   1  21
HETATM   21  O3  UNL     1      -1.445   0.602  -1.462  1.00  0.00    -0.312 OA
BRANCH  21  22
HETATM   22  C15 UNL     1      -2.661   1.197  -1.947  1.00  0.00     0.170 C 
HETATM   23  C16 UNL     1      -2.513   2.717  -1.844  1.00  0.00     0.036 C 
HETATM   24  C17 UNL     1      -3.851   3.390  -1.586  1.00  0.00     0.007 C 
HETATM   25  C18 UNL     1      -4.471   2.968  -0.234  1.00  0.00    -0.007 C 
HETATM   26  C19 UNL     1      -4.089   3.980   0.855  1.00  0.00     0.011 C 
HETATM   27  C20 UNL     1      -4.176   1.461   0.159  1.00  0.00    -0.004 C 
HETATM   28  C21 UNL     1      -3.047   1.316   1.208  1.00  0.00     0.019 C 
HETATM   29  C22 UNL     1      -5.486   0.874   0.755  1.00  0.00     0.023 C 
HETATM   30  C29 UNL     1      -3.793   0.679  -1.094  1.00  0.00     0.127 A 
HETATM   31  C23 UNL     1      -5.472  -0.649   0.996  1.00  0.00     0.057 C 
HETATM   32  C24 UNL     1      -6.879  -1.248   0.889  1.00  0.00     0.015 C 
HETATM   33  C27 UNL     1      -4.658  -1.506   0.007  1.00  0.00     0.195 C 
HETATM   34  C25 UNL     1      -7.714  -1.115   2.150  1.00  0.00     0.012 C 
HETATM   35  C26 UNL     1      -6.585  -2.683   0.505  1.00  0.00     0.176 C 
HETATM   36  O4  UNL     1      -5.493  -2.590  -0.414  1.00  0.00    -0.352 OA
HETATM   37  C28 UNL     1      -4.114  -0.795  -1.186  1.00  0.00     0.223 A 
HETATM   38  O6  UNL     1      -4.930   0.184  -1.839  1.00  0.00    -0.360 OA
BRANCH  33  39
HETATM   39  O5  UNL     1      -3.577  -2.083   0.730  1.00  0.00    -0.363 OA
HETATM   40  H46 UNL     1      -3.104  -2.642   0.088  1.00  0.00     0.213 HD
ENDBRANCH  33  39
ENDBRANCH  21  22
ENDBRANCH   1  21
TORSDOF 15
