REMARK  12 active torsions:
REMARK  status: ('A' for Active; 'I' for Inactive)
REMARK    1  A    between atoms: C3_3  and  O1_4 
REMARK    2  A    between atoms: N1_14  and  O2_16 
REMARK    3  A    between atoms: O2_16  and  C13_17 
REMARK    4  A    between atoms: C13_17  and  C14_18 
REMARK       I    between atoms: C14_18  and  N2_20 
REMARK    5  A    between atoms: N2_20  and  C15_21 
REMARK    6  A    between atoms: C15_21  and  C16_22 
REMARK    7  A    between atoms: C15_21  and  C26_36 
REMARK       I    between atoms: C16_22  and  N3_24 
REMARK    8  A    between atoms: N3_24  and  C17_25 
REMARK    9  A    between atoms: C17_25  and  C18_26 
REMARK   10  A    between atoms: C17_25  and  C25_33 
REMARK   11  A    between atoms: C18_26  and  C19_27 
REMARK   12  A    between atoms: C25_33  and  O6_35 
ROOT
HETATM    1  C1  UNL     1     -10.325   1.114  -2.494  1.00  0.00     0.015 C 
HETATM    2  C2  UNL     1      -9.272   1.473  -2.038  1.00  0.00    -0.078 C 
HETATM    3  C3  UNL     1      -7.980   1.909  -1.457  1.00  0.00     0.128 C 
HETATM    4  C4  UNL     1      -8.205   2.331  -0.004  1.00  0.00     0.052 C 
HETATM    5  C5  UNL     1      -8.230   1.022   0.775  1.00  0.00     0.010 C 
HETATM    6  C6  UNL     1      -7.338   0.037  -0.015  1.00  0.00     0.002 C 
HETATM    7  C7  UNL     1      -6.184  -0.629   0.798  1.00  0.00    -0.004 C 
HETATM    8  C8  UNL     1      -5.653   0.137   2.031  1.00  0.00     0.010 C 
HETATM    9  C9  UNL     1      -4.531  -0.614   2.757  1.00  0.00     0.035 C 
HETATM   10  C10 UNL     1      -3.438  -1.085   1.828  1.00  0.00    -0.069 C 
HETATM   11  C11 UNL     1      -2.155  -0.791   2.095  1.00  0.00     0.030 C 
HETATM   12  C12 UNL     1      -1.082  -1.154   1.126  1.00  0.00     0.032 C 
HETATM   13  N1  UNL     1       0.137  -1.264   1.572  1.00  0.00    -0.271 N 
ATOM     14  H1  UNL     1       0.400  -1.110   2.545  1.00  0.00     0.194 HD
HETATM   15  C29 UNL     1      -1.522  -1.358  -0.303  1.00  0.00     0.060 C 
HETATM   16  C30 UNL     1      -2.739  -2.270  -0.346  1.00  0.00     0.020 C 
HETATM   17  C31 UNL     1      -3.909  -1.868   0.609  1.00  0.00    -0.016 C 
HETATM   18  C32 UNL     1      -4.520  -3.230   1.072  1.00  0.00     0.020 C 
HETATM   19  C33 UNL     1      -5.007  -1.030  -0.136  1.00  0.00     0.002 C 
HETATM   20  C34 UNL     1      -4.443   0.221  -0.853  1.00  0.00     0.007 C 
HETATM   21  C35 UNL     1      -5.485   1.297  -1.195  1.00  0.00     0.014 C 
HETATM   22  C36 UNL     1      -6.925   0.760  -1.340  1.00  0.00     0.003 C 
HETATM   23  C37 UNL     1      -6.986  -0.161  -2.582  1.00  0.00     0.020 C 
ENDROOT
BRANCH   3  24
HETATM   24  O1  UNL     1      -7.498   2.984  -2.249  1.00  0.00    -0.377 OA
HETATM   25  H2  UNL     1      -7.011   3.599  -1.676  1.00  0.00     0.211 HD
ENDBRANCH   3  24
BRANCH  13  26
HETATM   26  O2  UNL     1       1.047  -1.617   0.567  1.00  0.00    -0.271 OA
BRANCH  26  27
HETATM   27  C13 UNL     1       1.960  -2.588   1.067  1.00  0.00     0.303 C 
BRANCH  27  28
HETATM   28  C14 UNL     1       3.382  -2.056   1.079  1.00  0.00     0.244 C 
HETATM   29  O3  UNL     1       4.350  -2.781   0.830  1.00  0.00    -0.271 OA
HETATM   30  N2  UNL     1       3.505  -0.731   1.466  1.00  0.00    -0.346 N 
HETATM   31  H16 UNL     1       2.671  -0.166   1.313  1.00  0.00     0.163 HD
BRANCH  30  32
HETATM   32  C15 UNL     1       4.794  -0.060   1.363  1.00  0.00     0.180 C 
BRANCH  32  33
HETATM   33  C16 UNL     1       4.967   0.399  -0.098  1.00  0.00     0.241 C 
HETATM   34  O4  UNL     1       4.030   0.808  -0.780  1.00  0.00    -0.271 OA
HETATM   35  N3  UNL     1       6.269   0.381  -0.553  1.00  0.00    -0.345 N 
HETATM   36  H18 UNL     1       6.914  -0.200  -0.026  1.00  0.00     0.163 HD
BRANCH  35  37
HETATM   37  C17 UNL     1       6.526   0.311  -1.999  1.00  0.00     0.186 C 
BRANCH  37  38
HETATM   38  C18 UNL     1       7.788   1.084  -2.427  1.00  0.00     0.074 C 
BRANCH  38  39
HETATM   39  C19 UNL     1       8.947   0.991  -1.463  1.00  0.00    -0.056 A 
HETATM   40  C20 UNL     1       9.112   1.990  -0.491  1.00  0.00     0.007 A 
HETATM   41  C21 UNL     1      10.138   1.906   0.452  1.00  0.00     0.001 A 
HETATM   42  C22 UNL     1      11.003   0.818   0.430  1.00  0.00     0.000 A 
HETATM   43  C23 UNL     1      10.852  -0.175  -0.535  1.00  0.00     0.001 A 
HETATM   44  C24 UNL     1       9.830  -0.086  -1.485  1.00  0.00     0.007 A 
ENDBRANCH  38  39
ENDBRANCH  37  38
BRANCH  37  45
HETATM   45  C25 UNL     1       6.614  -1.154  -2.420  1.00  0.00     0.163 C 
HETATM   46  O5  UNL     1       6.446  -1.587  -3.550  1.00  0.00    -0.648 OA
BRANCH  45  47
HETATM   47  O6  UNL     1       6.941  -1.995  -1.396  1.00  0.00    -0.775 OA
HETATM   48  H27 UNL     1       6.850  -2.888  -1.782  1.00  0.00     0.167 HD
ENDBRANCH  45  47
ENDBRANCH  37  45
ENDBRANCH  35  37
ENDBRANCH  32  33
BRANCH  32  49
HETATM   49  C26 UNL     1       4.933   1.074   2.399  1.00  0.00     0.009 C 
HETATM   50  C27 UNL     1       4.103   2.317   2.071  1.00  0.00     0.012 C 
HETATM   51  C28 UNL     1       6.403   1.479   2.598  1.00  0.00     0.012 C 
ENDBRANCH  32  49
ENDBRANCH  30  32
ENDBRANCH  27  28
ENDBRANCH  26  27
ENDBRANCH  13  26
TORSDOF 12
