REMARK  11 active torsions:
REMARK  status: ('A' for Active; 'I' for Inactive)
REMARK    1  A    between atoms: O1_2  and  C2_3 
REMARK    2  A    between atoms: C2_3  and  C3_4 
REMARK    3  A    between atoms: C3_4  and  C4_5 
REMARK    4  A    between atoms: C4_5  and  O2_6 
REMARK    5  A    between atoms: O2_6  and  C5_7 
REMARK    6  A    between atoms: C20_23  and  C21_24 
REMARK    7  A    between atoms: C21_24  and  O4_26 
REMARK    8  A    between atoms: C21_24  and  C23_27 
REMARK    9  A    between atoms: C23_27  and  O5_28 
REMARK   10  A    between atoms: C23_27  and  C24_29 
REMARK   11  A    between atoms: C34_40  and  O7_41 
ROOT
HETATM    1  C5  UNL     1       5.132   0.179   1.377  1.00  0.00     0.122 C 
HETATM    2  C6  UNL     1       3.904   0.656   2.164  1.00  0.00     0.033 C 
HETATM    3  C7  UNL     1       3.296   1.910   1.536  1.00  0.00     0.013 C 
HETATM    4  C8  UNL     1       2.708   1.619   0.121  1.00  0.00    -0.026 C 
HETATM    5  C9  UNL     1       2.774   2.954  -0.669  1.00  0.00     0.016 C 
HETATM    6  C10 UNL     1       3.625   0.611  -0.657  1.00  0.00     0.071 C 
HETATM    7  C11 UNL     1       5.059   0.580  -0.104  1.00  0.00     0.045 C 
HETATM    8  C12 UNL     1       3.074  -0.799  -0.822  1.00  0.00     0.161 C 
HETATM    9  O3  UNL     1       3.779  -1.805  -0.757  1.00  0.00    -0.292 OA
HETATM   10  C13 UNL     1       1.638  -0.930  -1.163  1.00  0.00    -0.006 C 
HETATM   11  C14 UNL     1       0.808  -0.004  -0.650  1.00  0.00    -0.030 C 
HETATM   12  C15 UNL     1       1.212   1.114   0.297  1.00  0.00     0.027 C 
HETATM   13  C16 UNL     1       0.154   2.271   0.416  1.00  0.00     0.011 C 
HETATM   14  C17 UNL     1      -1.334   1.860   0.303  1.00  0.00     0.014 C 
HETATM   15  C18 UNL     1      -1.560   0.985  -0.946  1.00  0.00    -0.002 C 
HETATM   16  C19 UNL     1      -1.213   1.811  -2.206  1.00  0.00     0.019 C 
HETATM   17  C20 UNL     1      -2.950   0.245  -1.059  1.00  0.00     0.034 C 
HETATM   18  C30 UNL     1      -2.620  -1.098  -1.820  1.00  0.00     0.016 C 
HETATM   19  C31 UNL     1      -1.084  -1.130  -1.936  1.00  0.00     0.026 C 
HETATM   20  C32 UNL     1      -0.340  -2.454  -1.896  1.00  0.00     0.013 C 
HETATM   21  C33 UNL     1       1.187  -2.177  -1.908  1.00  0.00     0.043 C 
HETATM   22  C34 UNL     1      -0.654  -0.250  -0.767  1.00  0.00     0.094 C 
ENDROOT
BRANCH  17  23
HETATM   23  C21 UNL     1      -4.247   0.989  -1.504  1.00  0.00     0.087 C 
HETATM   24  C22 UNL     1      -4.267   1.391  -2.993  1.00  0.00     0.049 C 
BRANCH  23  25
HETATM   25  O4  UNL     1      -4.313   2.213  -0.760  1.00  0.00    -0.387 OA
HETATM   26  H33 UNL     1      -5.204   2.581  -0.899  1.00  0.00     0.210 HD
ENDBRANCH  23  25
BRANCH  23  27
HETATM   27  C23 UNL     1      -5.537   0.127  -1.201  1.00  0.00     0.181 C 
BRANCH  27  28
HETATM   28  O5  UNL     1      -6.689   0.827  -1.726  1.00  0.00    -0.390 OA
HETATM   29  H35 UNL     1      -7.064   1.310  -0.959  1.00  0.00     0.210 HD
ENDBRANCH  27  28
BRANCH  27  30
HETATM   30  C24 UNL     1      -5.829  -0.162   0.292  1.00  0.00     0.157 C 
HETATM   31  O6  UNL     1      -6.467   0.992   0.890  1.00  0.00    -0.382 OA
HETATM   32  C25 UNL     1      -7.247   0.544   2.012  1.00  0.00     0.172 C 
HETATM   33  C26 UNL     1      -7.242  -0.984   2.013  1.00  0.00     0.012 C 
HETATM   34  C27 UNL     1      -6.292  -1.542   3.076  1.00  0.00     0.012 C 
HETATM   35  C28 UNL     1      -6.784  -1.329   0.595  1.00  0.00     0.019 C 
HETATM   36  C29 UNL     1      -7.995  -1.441  -0.335  1.00  0.00     0.013 C 
ENDBRANCH  27  30
ENDBRANCH  23  27
ENDBRANCH  17  23
BRANCH  22  37
HETATM   37  O7  UNL     1      -1.005  -0.926   0.463  1.00  0.00    -0.384 OA
HETATM   38  H54 UNL     1      -0.304  -1.564   0.679  1.00  0.00     0.211 HD
ENDBRANCH  22  37
BRANCH   1  39
HETATM   39  O2  UNL     1       6.278   0.781   1.995  1.00  0.00    -0.386 OA
BRANCH  39  40
HETATM   40  C4  UNL     1       7.544   0.247   1.602  1.00  0.00     0.170 C 
BRANCH  40  41
HETATM   41  C3  UNL     1       7.818  -1.098   2.271  1.00  0.00     0.052 C 
BRANCH  41  42
HETATM   42  C2  UNL     1       9.259  -1.553   2.066  1.00  0.00     0.169 C 
BRANCH  42  43
HETATM   43  O1  UNL     1       9.635  -1.595   0.692  1.00  0.00    -0.396 OA
HETATM   44  C1  UNL     1       9.100  -2.713  -0.006  1.00  0.00     0.201 C 
ENDBRANCH  42  43
ENDBRANCH  41  42
ENDBRANCH  40  41
ENDBRANCH  39  40
ENDBRANCH   1  39
TORSDOF 11
