REMARK  6 active torsions:
REMARK  status: ('A' for Active; 'I' for Inactive)
REMARK    1  A    between atoms: C3_3  and  C4_4 
REMARK    2  A    between atoms: C4_4  and  O1_5 
REMARK    3  A    between atoms: C6_9  and  C7_10 
REMARK    4  A    between atoms: C7_10  and  C9_12 
REMARK    5  A    between atoms: C15_18  and  O4_19 
REMARK    6  A    between atoms: C16_20  and  C17_21 
ROOT
HETATM    1  C9  UNL     1      -1.397  -0.534  -0.810  1.00  0.00     0.000 C 
HETATM    2  C10 UNL     1      -1.518   0.838  -1.541  1.00  0.00     0.006 C 
HETATM    3  C11 UNL     1      -0.170   1.557  -1.409  1.00  0.00     0.006 C 
HETATM    4  C12 UNL     1       0.749   0.497  -0.830  1.00  0.00    -0.001 C 
HETATM    5  C13 UNL     1       2.075   0.952  -0.200  1.00  0.00    -0.002 C 
HETATM    6  C14 UNL     1       2.904   1.782  -1.191  1.00  0.00     0.038 C 
HETATM    7  C15 UNL     1       4.250   2.197  -0.601  1.00  0.00     0.135 C 
HETATM    8  C16 UNL     1       5.082   1.017  -0.062  1.00  0.00     0.053 C 
HETATM    9  C18 UNL     1       5.600   0.103  -1.194  1.00  0.00     0.028 C 
HETATM   10  C19 UNL     1       5.990  -1.206  -0.513  1.00  0.00     0.080 C 
HETATM   11  C20 UNL     1       5.136  -1.209   0.732  1.00  0.00     0.137 C 
HETATM   12  O6  UNL     1       5.157  -2.127   1.543  1.00  0.00    -0.297 OA
HETATM   13  C21 UNL     1       4.269   0.046   0.860  1.00  0.00     0.037 C 
HETATM   14  C22 UNL     1       4.185   0.509   2.321  1.00  0.00     0.025 C 
HETATM   15  C23 UNL     1       2.863  -0.306   0.251  1.00  0.00     0.007 C 
HETATM   16  C24 UNL     1       1.991  -1.212   1.156  1.00  0.00     0.007 C 
HETATM   17  C25 UNL     1       0.626  -1.562   0.535  1.00  0.00     0.010 C 
HETATM   18  C26 UNL     1      -0.169  -0.303   0.135  1.00  0.00    -0.036 C 
HETATM   19  C27 UNL     1      -0.586   0.498   1.393  1.00  0.00     0.016 C 
ENDROOT
BRANCH   1  20
HETATM   20  C7  UNL     1      -2.767  -1.028  -0.225  1.00  0.00     0.016 C 
HETATM   21  C8  UNL     1      -2.596  -2.269   0.659  1.00  0.00     0.013 C 
BRANCH  20  22
HETATM   22  C6  UNL     1      -3.799  -1.323  -1.375  1.00  0.00     0.140 C 
HETATM   23  O3  UNL     1      -4.127  -0.116  -2.097  1.00  0.00    -0.311 OA
HETATM   24  C5  UNL     1      -5.056   0.753  -1.618  1.00  0.00     0.292 C 
HETATM   25  C3  UNL     1      -5.877   0.298  -0.457  1.00  0.00     0.042 C 
HETATM   26  O2  UNL     1      -5.225   1.846  -2.143  1.00  0.00    -0.260 OA
HETATM   27  C2  UNL     1      -5.959  -1.023  -0.185  1.00  0.00    -0.067 C 
HETATM   28  C1  UNL     1      -6.825  -1.646   0.871  1.00  0.00     0.044 C 
HETATM   29  C28 UNL     1      -5.123  -1.987  -0.984  1.00  0.00     0.067 C 
BRANCH  25  30
HETATM   30  C4  UNL     1      -6.628   1.385   0.255  1.00  0.00     0.209 C 
BRANCH  30  31
HETATM   31  O1  UNL     1      -5.998   1.654   1.503  1.00  0.00    -0.396 OA
HETATM   32  H6  UNL     1      -6.108   0.869   2.065  1.00  0.00     0.209 HD
ENDBRANCH  30  31
ENDBRANCH  25  30
ENDBRANCH  20  22
ENDBRANCH   1  20
BRANCH   7  33
HETATM   33  O4  UNL     1       3.965   3.121   0.454  1.00  0.00    -0.394 OA
HETATM   34  H22 UNL     1       4.800   3.602   0.634  1.00  0.00     0.210 HD
ENDBRANCH   7  33
BRANCH   8  35
HETATM   35  C17 UNL     1       6.331   1.590   0.631  1.00  0.00     0.244 C 
HETATM   36  O5  UNL     1       6.674   2.768   0.559  1.00  0.00    -0.306 OA
ENDBRANCH   8  35
TORSDOF 6
