REMARK  0 active torsions:
REMARK  status: ('A' for Active; 'I' for Inactive)
ROOT
HETATM    1  C1  UNL     1      -5.842  -0.639  -0.310  1.00  0.00     0.023 C 
HETATM    2  C2  UNL     1      -5.019   0.332   0.566  1.00  0.00     0.017 C 
HETATM    3  C3  UNL     1      -5.736   1.703   0.442  1.00  0.00     0.023 C 
HETATM    4  C4  UNL     1      -5.081  -0.152   2.021  1.00  0.00     0.135 C 
HETATM    5  O1  UNL     1      -5.873   0.324   2.836  1.00  0.00    -0.297 OA
HETATM    6  C5  UNL     1      -4.204  -1.324   2.409  1.00  0.00     0.080 C 
HETATM    7  C6  UNL     1      -2.760  -1.156   1.945  1.00  0.00     0.017 C 
HETATM    8  C7  UNL     1      -2.592  -0.815   0.429  1.00  0.00    -0.035 C 
HETATM    9  C8  UNL     1      -3.054  -2.054  -0.377  1.00  0.00     0.016 C 
HETATM   10  C9  UNL     1      -3.495   0.442   0.138  1.00  0.00     0.009 C 
HETATM   11  C10 UNL     1      -2.885   1.746   0.730  1.00  0.00     0.007 C 
HETATM   12  C11 UNL     1      -1.379   1.786   0.955  1.00  0.00     0.011 C 
HETATM   13  C12 UNL     1      -0.558   0.931  -0.024  1.00  0.00    -0.032 C 
HETATM   14  C13 UNL     1      -0.866   1.452  -1.462  1.00  0.00     0.016 C 
HETATM   15  C14 UNL     1      -1.020  -0.556   0.142  1.00  0.00     0.003 C 
HETATM   16  C15 UNL     1      -0.371  -1.413  -0.979  1.00  0.00     0.006 C 
HETATM   17  C16 UNL     1       1.093  -1.063  -1.294  1.00  0.00     0.006 C 
HETATM   18  C17 UNL     1       1.781  -0.324  -0.145  1.00  0.00    -0.000 C 
HETATM   19  C18 UNL     1       3.308  -0.142  -0.282  1.00  0.00     0.009 C 
HETATM   20  C19 UNL     1       4.176  -1.272  -0.849  1.00  0.00     0.067 C 
HETATM   21  C20 UNL     1       5.542  -0.573  -1.081  1.00  0.00     0.140 C 
HETATM   22  C21 UNL     1       5.298   0.942  -0.945  1.00  0.00     0.042 C 
HETATM   23  C22 UNL     1       3.771   1.096  -1.068  1.00  0.00    -0.037 C 
HETATM   24  C23 UNL     1       3.411   1.113  -2.570  1.00  0.00     0.015 C 
HETATM   25  C24 UNL     1       3.216   2.341  -0.370  1.00  0.00     0.010 C 
HETATM   26  C25 UNL     1       1.681   2.309  -0.326  1.00  0.00     0.011 C 
HETATM   27  C26 UNL     1       1.042   1.017   0.298  1.00  0.00    -0.032 C 
HETATM   28  C27 UNL     1       1.288   1.136   1.841  1.00  0.00     0.016 C 
HETATM   29  O2  UNL     1       6.453  -1.004  -0.052  1.00  0.00    -0.313 OA
HETATM   30  C28 UNL     1       5.911  -2.041   0.651  1.00  0.00     0.297 C 
HETATM   31  O3  UNL     1       6.433  -2.616   1.591  1.00  0.00    -0.262 OA
HETATM   32  C29 UNL     1       4.566  -2.323   0.123  1.00  0.00     0.175 A 
HETATM   33  C30 UNL     1       3.615  -3.306   0.755  1.00  0.00     0.218 A 
HETATM   34  O4  UNL     1       4.394  -3.659  -0.393  1.00  0.00    -0.364 OA
ENDROOT
TORSDOF 0
