REMARK  20 active torsions:
REMARK  status: ('A' for Active; 'I' for Inactive)
REMARK    1  A    between atoms: C2_2  and  C18_26 
REMARK    2  A    between atoms: C3_3  and  C4_4 
REMARK    3  A    between atoms: C4_4  and  O2_6 
REMARK    4  A    between atoms: O2_6  and  C5_7 
REMARK    5  A    between atoms: C5_7  and  C6_8 
REMARK    6  A    between atoms: C6_8  and  C7_9 
REMARK    7  A    between atoms: C7_9  and  C8_10 
REMARK    8  A    between atoms: C8_10  and  C9_11 
REMARK    9  A    between atoms: C9_11  and  C10_12 
REMARK   10  A    between atoms: C10_12  and  C11_13 
REMARK   11  A    between atoms: C11_13  and  C12_14 
REMARK       I    between atoms: C12_14  and  N1_16 
REMARK   12  A    between atoms: N1_16  and  C13_17 
REMARK   13  A    between atoms: C18_26  and  C19_27 
REMARK   14  A    between atoms: C21_29  and  O5_30 
REMARK   15  A    between atoms: C22_31  and  O6_32 
REMARK   16  A    between atoms: C22_31  and  C23_33 
REMARK   17  A    between atoms: C23_33  and  C24_34 
REMARK   18  A    between atoms: C25_35  and  C26_36 
REMARK   19  A    between atoms: C26_36  and  C28_38 
REMARK   20  A    between atoms: C28_38  and  O7_40 
ROOT
HETATM    1  C4  UNL     1       0.202   2.146   4.121  1.00  0.00     0.283 C 
HETATM    2  O1  UNL     1       0.233   3.298   4.516  1.00  0.00    -0.260 OA
ENDROOT
BRANCH   1   3
HETATM    3  C3  UNL     1      -0.963   1.466   3.505  1.00  0.00     0.084 C 
HETATM    4  C2  UNL     1      -2.010   2.080   2.914  1.00  0.00    -0.076 C 
HETATM    5  C1  UNL     1      -2.122   3.577   2.746  1.00  0.00     0.043 C 
BRANCH   4   6
HETATM    6  C18 UNL     1      -3.196   1.335   2.307  1.00  0.00     0.066 C 
BRANCH   6   7
HETATM    7  C19 UNL     1      -3.284  -0.203   2.457  1.00  0.00     0.128 C 
HETATM    8  C20 UNL     1      -4.656  -0.727   2.026  1.00  0.00     0.067 C 
HETATM    9  C21 UNL     1      -4.851  -0.656   0.510  1.00  0.00     0.157 C 
HETATM   10  C22 UNL     1      -3.631  -1.251  -0.261  1.00  0.00     0.108 C 
HETATM   11  C30 UNL     1      -2.576  -1.770   0.744  1.00  0.00     0.209 C 
HETATM   12  O8  UNL     1      -2.208  -0.799   1.728  1.00  0.00    -0.382 OA
BRANCH   9  13
HETATM   13  O5  UNL     1      -6.094  -1.302   0.238  1.00  0.00    -0.392 OA
HETATM   14  H28 UNL     1      -6.442  -0.927  -0.601  1.00  0.00     0.210 HD
ENDBRANCH   9  13
BRANCH  10  15
HETATM   15  O6  UNL     1      -2.996  -0.176  -0.997  1.00  0.00    -0.385 OA
HETATM   16  H29 UNL     1      -3.673   0.236  -1.563  1.00  0.00     0.210 HD
ENDBRANCH  10  15
BRANCH  10  17
HETATM   17  C23 UNL     1      -3.942  -2.394  -1.269  1.00  0.00     0.069 C 
BRANCH  17  18
HETATM   18  C24 UNL     1      -4.818  -1.982  -2.423  1.00  0.00    -0.027 C 
HETATM   19  C25 UNL     1      -6.049  -2.472  -2.639  1.00  0.00    -0.024 C 
BRANCH  19  20
HETATM   20  C26 UNL     1      -6.999  -1.884  -3.659  1.00  0.00     0.032 C 
HETATM   21  C27 UNL     1      -7.474  -2.961  -4.632  1.00  0.00     0.017 C 
BRANCH  20  22
HETATM   22  C28 UNL     1      -8.173  -1.137  -2.971  1.00  0.00     0.121 C 
HETATM   23  C29 UNL     1      -9.129  -2.019  -2.174  1.00  0.00     0.040 C 
BRANCH  22  24
HETATM   24  O7  UNL     1      -7.641  -0.134  -2.087  1.00  0.00    -0.395 OA
HETATM   25  H42 UNL     1      -8.399   0.373  -1.745  1.00  0.00     0.210 HD
ENDBRANCH  22  24
ENDBRANCH  20  22
ENDBRANCH  19  20
ENDBRANCH  17  18
ENDBRANCH  10  17
ENDBRANCH   6   7
ENDBRANCH   4   6
ENDBRANCH   1   3
BRANCH   1  26
HETATM   26  O2  UNL     1       1.228   1.256   4.153  1.00  0.00    -0.318 OA
BRANCH  26  27
HETATM   27  C5  UNL     1       2.499   1.799   4.544  1.00  0.00     0.179 C 
BRANCH  27  28
HETATM   28  C6  UNL     1       3.228   2.340   3.313  1.00  0.00     0.027 C 
BRANCH  28  29
HETATM   29  C7  UNL     1       3.651   1.208   2.369  1.00  0.00     0.002 C 
BRANCH  29  30
HETATM   30  C8  UNL     1       4.058   1.689   0.974  1.00  0.00     0.000 C 
BRANCH  30  31
HETATM   31  C9  UNL     1       5.187   2.719   0.920  1.00  0.00     0.000 C 
BRANCH  31  32
HETATM   32  C10 UNL     1       6.506   2.320   1.592  1.00  0.00     0.009 C 
BRANCH  32  33
HETATM   33  C11 UNL     1       7.098   0.977   1.171  1.00  0.00     0.103 C 
BRANCH  33  34
HETATM   34  C12 UNL     1       7.579   0.911  -0.271  1.00  0.00     0.222 C 
HETATM   35  O3  UNL     1       7.437   1.831  -1.064  1.00  0.00    -0.273 OA
HETATM   36  N1  UNL     1       8.191  -0.297  -0.539  1.00  0.00    -0.321 N 
HETATM   37  H19 UNL     1       8.384  -0.902   0.257  1.00  0.00     0.169 HD
BRANCH  36  38
HETATM   38  C13 UNL     1       8.703  -0.765  -1.720  1.00  0.00     0.123 A 
HETATM   39  C14 UNL     1       8.680  -0.401  -3.008  1.00  0.00     0.071 A 
HETATM   40  S1  UNL     1       7.954   0.866  -3.894  1.00  0.00    -0.049 SA
HETATM   41  C16 UNL     1       9.420  -1.336  -3.809  1.00  0.00     0.062 A 
HETATM   42  S2  UNL     1       8.698   0.248  -5.734  1.00  0.00    -0.062 SA
HETATM   43  C15 UNL     1       9.520  -1.159  -5.121  1.00  0.00     0.088 A 
HETATM   44  N2  UNL     1       9.907  -2.294  -2.990  1.00  0.00    -0.320 N 
HETATM   45  C17 UNL     1       9.524  -2.032  -1.695  1.00  0.00     0.274 A 
HETATM   46  H21 UNL     1      10.479  -3.084  -3.253  1.00  0.00     0.169 HD
HETATM   47  O4  UNL     1       9.783  -2.675  -0.692  1.00  0.00    -0.266 OA
ENDBRANCH  36  38
ENDBRANCH  33  34
ENDBRANCH  32  33
ENDBRANCH  31  32
ENDBRANCH  30  31
ENDBRANCH  29  30
ENDBRANCH  28  29
ENDBRANCH  27  28
ENDBRANCH  26  27
ENDBRANCH   1  26
TORSDOF 20
