REMARK  13 active torsions:
REMARK  status: ('A' for Active; 'I' for Inactive)
REMARK    1  A    between atoms: C2_2  and  C3_3 
REMARK    2  A    between atoms: C2_2  and  C9_11 
REMARK    3  A    between atoms: C3_3  and  C4_4 
REMARK    4  A    between atoms: C4_4  and  C5_5 
REMARK    5  A    between atoms: C5_5  and  C6_6 
REMARK    6  A    between atoms: C6_6  and  O1_8 
REMARK    7  A    between atoms: C6_6  and  C8_9 
REMARK    8  A    between atoms: C8_9  and  O2_10 
REMARK    9  A    between atoms: C10_12  and  O3_13 
REMARK   10  A    between atoms: C11_14  and  O4_15 
REMARK   11  A    between atoms: C13_17  and  O5_18 
REMARK   12  A    between atoms: C15_20  and  O6_21 
REMARK   13  A    between atoms: C18_24  and  O7_25 
ROOT
HETATM    1  C9  UNL     1      -1.451  -0.368   1.156  1.00  0.00     0.029 C 
HETATM    2  C10 UNL     1      -1.223  -0.873   2.611  1.00  0.00     0.152 C 
HETATM    3  C11 UNL     1       0.232  -1.386   2.676  1.00  0.00     0.155 C 
HETATM    4  C12 UNL     1       0.916  -0.628   1.534  1.00  0.00     0.060 C 
HETATM    5  C13 UNL     1       2.368  -1.015   1.131  1.00  0.00     0.071 C 
HETATM    6  C14 UNL     1       3.385  -0.446   2.149  1.00  0.00     0.071 C 
HETATM    7  C15 UNL     1       4.006   0.875   1.719  1.00  0.00     0.126 C 
HETATM    8  C16 UNL     1       4.823   0.742   0.420  1.00  0.00     0.025 C 
HETATM    9  C17 UNL     1       5.023   2.133  -0.223  1.00  0.00     0.039 C 
HETATM   10  C18 UNL     1       6.001   2.084  -1.400  1.00  0.00     0.118 C 
HETATM   11  C19 UNL     1       5.883   0.809  -2.236  1.00  0.00     0.032 C 
HETATM   12  C20 UNL     1       4.510   0.160  -2.073  1.00  0.00     0.012 C 
HETATM   13  C21 UNL     1       4.229  -0.289  -0.600  1.00  0.00    -0.031 C 
HETATM   14  C22 UNL     1       4.993  -1.641  -0.430  1.00  0.00     0.016 C 
HETATM   15  C23 UNL     1       2.687  -0.559  -0.350  1.00  0.00     0.029 C 
HETATM   16  C24 UNL     1       1.748   0.600  -0.771  1.00  0.00     0.009 C 
HETATM   17  C25 UNL     1       0.250   0.248  -0.722  1.00  0.00     0.011 C 
HETATM   18  C26 UNL     1      -0.134  -0.753   0.387  1.00  0.00    -0.029 C 
HETATM   19  C27 UNL     1      -0.225  -2.170  -0.218  1.00  0.00     0.016 C 
ENDROOT
BRANCH   1  20
HETATM   20  C2  UNL     1      -2.873  -0.603   0.562  1.00  0.00    -0.011 C 
HETATM   21  C1  UNL     1      -3.287  -2.053   0.285  1.00  0.00     0.010 C 
BRANCH  20  22
HETATM   22  C3  UNL     1      -3.103   0.274  -0.692  1.00  0.00     0.005 C 
BRANCH  22  23
HETATM   23  C4  UNL     1      -4.525   0.273  -1.276  1.00  0.00     0.003 C 
BRANCH  23  24
HETATM   24  C5  UNL     1      -5.587   0.805  -0.306  1.00  0.00     0.040 C 
BRANCH  24  25
HETATM   25  C6  UNL     1      -7.036   0.848  -0.846  1.00  0.00     0.075 C 
HETATM   26  C7  UNL     1      -7.975   1.278   0.287  1.00  0.00     0.048 C 
BRANCH  25  27
HETATM   27  O1  UNL     1      -7.425  -0.475  -1.240  1.00  0.00    -0.388 OA
HETATM   28  H14 UNL     1      -7.081  -0.577  -2.151  1.00  0.00     0.210 HD
ENDBRANCH  25  27
BRANCH  25  29
HETATM   29  C8  UNL     1      -7.227   1.787  -2.055  1.00  0.00     0.201 C 
BRANCH  29  30
HETATM   30  O2  UNL     1      -6.669   1.196  -3.231  1.00  0.00    -0.398 OA
HETATM   31  H17 UNL     1      -6.833   1.819  -3.962  1.00  0.00     0.209 HD
ENDBRANCH  29  30
ENDBRANCH  25  29
ENDBRANCH  24  25
ENDBRANCH  23  24
ENDBRANCH  22  23
ENDBRANCH  20  22
ENDBRANCH   1  20
BRANCH   2  32
HETATM   32  O3  UNL     1      -2.122  -1.878   3.048  1.00  0.00    -0.393 OA
HETATM   33  H20 UNL     1      -1.875  -2.080   3.969  1.00  0.00     0.210 HD
ENDBRANCH   2  32
BRANCH   3  34
HETATM   34  O4  UNL     1       0.763  -1.095   3.961  1.00  0.00    -0.392 OA
HETATM   35  H22 UNL     1       1.527  -1.676   4.110  1.00  0.00     0.210 HD
ENDBRANCH   3  34
BRANCH   5  36
HETATM   36  O5  UNL     1       2.475  -2.446   1.161  1.00  0.00    -0.389 OA
HETATM   37  H24 UNL     1       2.676  -2.735   2.067  1.00  0.00     0.210 HD
ENDBRANCH   5  36
BRANCH   7  38
HETATM   38  O6  UNL     1       4.854   1.302   2.789  1.00  0.00    -0.395 OA
HETATM   39  H28 UNL     1       5.374   2.066   2.485  1.00  0.00     0.210 HD
ENDBRANCH   7  38
BRANCH  10  40
HETATM   40  O7  UNL     1       7.328   2.185  -0.889  1.00  0.00    -0.396 OA
HETATM   41  H33 UNL     1       7.934   2.195  -1.649  1.00  0.00     0.210 HD
ENDBRANCH  10  40
TORSDOF 13
