REMARK  12 active torsions:
REMARK  status: ('A' for Active; 'I' for Inactive)
REMARK    1  A    between atoms: O1_2  and  C2_3 
REMARK    2  A    between atoms: C4_5  and  C5_6 
REMARK    3  A    between atoms: C8_10  and  O3_11 
REMARK    4  A    between atoms: O3_11  and  C9_12 
REMARK    5  A    between atoms: C9_12  and  C10_13 
REMARK    6  A    between atoms: C10_13  and  O4_14 
REMARK    7  A    between atoms: C15_19  and  O5_20 
REMARK    8  A    between atoms: C19_24  and  C20_25 
REMARK    9  A    between atoms: C20_25  and  C21_26 
REMARK   10  A    between atoms: C21_26  and  N1_27 
REMARK   11  A    between atoms: C32_39  and  O6_40 
REMARK   12  A    between atoms: C35_43  and  O7_44 
ROOT
HETATM    1  C5  UNL     1       3.082  -1.284  -0.961  1.00  0.00     0.191 C 
HETATM    2  O2  UNL     1       3.132   0.099  -0.600  1.00  0.00    -0.338 OA
HETATM    3  C6  UNL     1       1.939   0.660  -0.217  1.00  0.00     0.079 A 
HETATM    4  C7  UNL     1       2.089   1.937   0.315  1.00  0.00     0.075 A 
HETATM    5  C8  UNL     1       0.981   2.671   0.717  1.00  0.00     0.083 A 
HETATM    6  C11 UNL     1      -0.307   2.076   0.698  1.00  0.00     0.015 A 
HETATM    7  C12 UNL     1      -1.534   2.826   1.127  1.00  0.00    -0.016 A 
HETATM    8  C13 UNL     1      -1.549   3.827   2.115  1.00  0.00     0.015 A 
HETATM    9  C14 UNL     1      -2.712   4.544   2.420  1.00  0.00     0.037 A 
HETATM   10  C15 UNL     1      -3.890   4.252   1.750  1.00  0.00     0.066 A 
HETATM   11  C16 UNL     1      -3.932   3.234   0.811  1.00  0.00     0.044 A 
HETATM   12  C17 UNL     1      -2.769   2.504   0.524  1.00  0.00    -0.044 A 
HETATM   13  C18 UNL     1      -2.823   1.303  -0.387  1.00  0.00     0.049 C 
HETATM   14  C19 UNL     1      -1.932   0.204   0.232  1.00  0.00     0.027 C 
HETATM   15  C29 UNL     1      -0.467   0.739   0.151  1.00  0.00    -0.031 A 
HETATM   16  C30 UNL     1       0.671   0.065  -0.378  1.00  0.00    -0.015 A 
HETATM   17  C31 UNL     1       0.621  -1.241  -1.136  1.00  0.00     0.076 C 
HETATM   18  C32 UNL     1       1.907  -1.538  -1.922  1.00  0.00     0.156 C 
ENDROOT
BRANCH  14  19
HETATM   19  C20 UNL     1      -2.272  -1.233  -0.250  1.00  0.00     0.041 C 
BRANCH  19  20
HETATM   20  C21 UNL     1      -3.600  -1.959   0.180  1.00  0.00     0.038 C 
HETATM   21  C25 UNL     1      -3.942  -1.720   1.674  1.00  0.00     0.031 C 
HETATM   22  C26 UNL     1      -5.062  -0.694   1.676  1.00  0.00     0.002 C 
HETATM   23  C27 UNL     1      -5.867  -1.027   0.433  1.00  0.00     0.002 C 
HETATM   24  C28 UNL     1      -4.840  -1.460  -0.607  1.00  0.00     0.031 C 
BRANCH  20  25
HETATM   25  N1  UNL     1      -3.479  -3.456  -0.076  1.00  0.00    -0.342 N 
HETATM   26  C22 UNL     1      -2.500  -4.078  -0.760  1.00  0.00     0.183 A 
HETATM   27  N2  UNL     1      -2.756  -5.391  -0.739  1.00  0.00    -0.361 N 
HETATM   28  C23 UNL     1      -3.939  -5.643  -0.093  1.00  0.00     0.106 A 
HETATM   29  H22 UNL     1      -2.153  -6.097  -1.157  1.00  0.00     0.166 HD
HETATM   30  C24 UNL     1      -4.418  -4.428   0.308  1.00  0.00     0.109 A 
ENDBRANCH  20  25
ENDBRANCH  19  20
ENDBRANCH  14  19
BRANCH   5  31
HETATM   31  O3  UNL     1       1.087   3.973   1.133  1.00  0.00    -0.348 OA
BRANCH  31  32
HETATM   32  C9  UNL     1       2.249   4.717   0.733  1.00  0.00     0.201 C 
BRANCH  32  33
HETATM   33  C10 UNL     1       1.975   6.199   0.979  1.00  0.00     0.190 C 
BRANCH  33  34
HETATM   34  O4  UNL     1       1.131   6.717  -0.050  1.00  0.00    -0.399 OA
HETATM   35  H11 UNL     1       0.833   7.598   0.239  1.00  0.00     0.209 HD
ENDBRANCH  33  34
ENDBRANCH  32  33
ENDBRANCH  31  32
ENDBRANCH   5  31
BRANCH  10  36
HETATM   36  O5  UNL     1      -5.046   4.924   2.011  1.00  0.00    -0.361 OA
HETATM   37  H14 UNL     1      -4.843   5.681   2.587  1.00  0.00     0.217 HD
ENDBRANCH  10  36
BRANCH  18  38
HETATM   38  O6  UNL     1       1.973  -0.731  -3.105  1.00  0.00    -0.392 OA
HETATM   39  H36 UNL     1       1.094  -0.380  -3.332  1.00  0.00     0.210 HD
ENDBRANCH  18  38
BRANCH   1  40
HETATM   40  C4  UNL     1       4.469  -1.706  -1.416  1.00  0.00    -0.024 A 
HETATM   41  C3  UNL     1       5.450  -1.954  -0.433  1.00  0.00     0.049 A 
HETATM   42  C2  UNL     1       6.744  -2.351  -0.782  1.00  0.00     0.101 A 
HETATM   43  C35 UNL     1       7.067  -2.516  -2.130  1.00  0.00     0.099 A 
HETATM   44  C34 UNL     1       6.122  -2.255  -3.120  1.00  0.00     0.040 A 
HETATM   45  C33 UNL     1       4.834  -1.848  -2.763  1.00  0.00     0.013 A 
BRANCH  42  46
HETATM   46  O1  UNL     1       7.709  -2.646   0.145  1.00  0.00    -0.353 OA
HETATM   47  C1  UNL     1       7.766  -1.751   1.250  1.00  0.00     0.210 C 
ENDBRANCH  42  46
BRANCH  43  48
HETATM   48  O7  UNL     1       8.328  -2.920  -2.476  1.00  0.00    -0.358 OA
HETATM   49  H39 UNL     1       8.414  -2.914  -3.441  1.00  0.00     0.217 HD
ENDBRANCH  43  48
ENDBRANCH   1  40
TORSDOF 12
