REMARK  7 active torsions:
REMARK  status: ('A' for Active; 'I' for Inactive)
REMARK    1  A    between atoms: C3_4  and  O2_5 
REMARK    2  A    between atoms: O2_5  and  C4_6 
REMARK    3  A    between atoms: C4_6  and  C5_7 
REMARK    4  A    between atoms: N1_15  and  C13_16 
REMARK    5  A    between atoms: N3_24  and  C19_25 
REMARK    6  A    between atoms: C19_25  and  C20_26 
REMARK    7  A    between atoms: C20_26  and  N4_27 
ROOT
HETATM    1  C13 UNL     1       0.574  -0.312  -0.248  1.00  0.00     0.043 A 
HETATM    2  C14 UNL     1      -0.322  -0.920   0.646  1.00  0.00     0.032 A 
HETATM    3  C15 UNL     1      -1.628  -0.446   0.851  1.00  0.00     0.034 A 
HETATM    4  C16 UNL     1      -2.027   0.679   0.124  1.00  0.00     0.062 A 
HETATM    5  C17 UNL     1      -1.179   1.313  -0.776  1.00  0.00     0.011 A 
HETATM    6  C18 UNL     1      -1.948   2.372  -1.307  1.00  0.00     0.121 A 
HETATM    7  N2  UNL     1      -3.180   2.423  -0.795  1.00  0.00    -0.308 N 
ATOM      8  H2  UNL     1      -3.927   3.082  -1.012  1.00  0.00     0.186 HD
HETATM    9  N3  UNL     1      -3.201   1.393   0.079  1.00  0.00    -0.290 N 
HETATM   10  C25 UNL     1       0.128   0.820  -0.963  1.00  0.00     0.045 A 
ENDROOT
BRANCH   1  11
HETATM   11  N1  UNL     1       1.925  -0.809  -0.427  1.00  0.00    -0.290 N 
HETATM   12  C1  UNL     1       2.201  -2.186  -0.247  1.00  0.00     0.254 A 
HETATM   13  O1  UNL     1       1.396  -3.074   0.032  1.00  0.00    -0.268 OA
HETATM   14  C2  UNL     1       3.613  -2.617  -0.447  1.00  0.00     0.111 A 
HETATM   15  C3  UNL     1       4.556  -1.726  -0.763  1.00  0.00     0.075 A 
HETATM   16  C11 UNL     1       4.219  -0.347  -0.963  1.00  0.00     0.054 A 
HETATM   17  C12 UNL     1       2.958   0.062  -0.790  1.00  0.00     0.103 A 
BRANCH  15  18
HETATM   18  O2  UNL     1       5.863  -2.079  -1.002  1.00  0.00    -0.346 OA
BRANCH  18  19
HETATM   19  C4  UNL     1       6.665  -2.045   0.189  1.00  0.00     0.214 C 
BRANCH  19  20
HETATM   20  C5  UNL     1       7.366  -0.715   0.337  1.00  0.00    -0.034 A 
HETATM   21  C6  UNL     1       8.220  -0.247  -0.673  1.00  0.00     0.009 A 
HETATM   22  C7  UNL     1       8.867   0.982  -0.540  1.00  0.00     0.001 A 
HETATM   23  C8  UNL     1       8.668   1.754   0.603  1.00  0.00     0.000 A 
HETATM   24  C9  UNL     1       7.823   1.299   1.614  1.00  0.00     0.001 A 
HETATM   25  C10 UNL     1       7.174   0.070   1.483  1.00  0.00     0.009 A 
ENDBRANCH  19  20
ENDBRANCH  18  19
ENDBRANCH  15  18
ENDBRANCH   1  11
BRANCH   9  26
HETATM   26  C19 UNL     1      -4.405   1.148   0.854  1.00  0.00     0.179 C 
BRANCH  26  27
HETATM   27  C20 UNL     1      -5.387   0.253   0.091  1.00  0.00     0.294 C 
BRANCH  27  28
HETATM   28  N4  UNL     1      -6.566  -0.112   0.906  1.00  0.00     0.090 N 
HETATM   29  C21 UNL     1      -7.524   0.999   1.040  1.00  0.00     0.272 C 
HETATM   30  C22 UNL     1      -8.403   0.957  -0.203  1.00  0.00     0.032 C 
HETATM   31  C23 UNL     1      -8.268  -0.461  -0.738  1.00  0.00     0.032 C 
HETATM   32  C24 UNL     1      -7.356  -1.170   0.251  1.00  0.00     0.272 C 
ENDBRANCH  27  28
ENDBRANCH  26  27
ENDBRANCH   9  26
TORSDOF 7
