REMARK  12 active torsions:
REMARK  status: ('A' for Active; 'I' for Inactive)
REMARK    1  A    between atoms: O1_2  and  C2_3 
REMARK    2  A    between atoms: C3_5  and  C4_6 
REMARK    3  A    between atoms: C4_6  and  O3_7 
REMARK    4  A    between atoms: C4_6  and  C5_8 
REMARK    5  A    between atoms: C5_8  and  O4_10 
REMARK    6  A    between atoms: C5_8  and  C7_11 
REMARK    7  A    between atoms: C7_11  and  O5_12 
REMARK    8  A    between atoms: C9_14  and  C10_15 
REMARK    9  A    between atoms: C23_28  and  O6_29 
REMARK   10  A    between atoms: O6_29  and  C24_30 
REMARK   11  A    between atoms: C24_30  and  C25_32 
REMARK   12  A    between atoms: C34_41  and  O8_42 
ROOT
HETATM    1  C10 UNL     1      -3.009   1.443   1.234  1.00  0.00     0.004 C 
HETATM    2  C11 UNL     1      -2.749   2.936   0.925  1.00  0.00     0.007 C 
HETATM    3  C12 UNL     1      -1.760   2.992  -0.240  1.00  0.00     0.011 C 
HETATM    4  C13 UNL     1      -1.019   1.667  -0.161  1.00  0.00    -0.021 A 
HETATM    5  C14 UNL     1      -1.672   0.565  -0.956  1.00  0.00     0.022 A 
HETATM    6  C15 UNL     1      -1.896   0.653   0.550  1.00  0.00    -0.027 A 
HETATM    7  C16 UNL     1      -1.310  -0.510   1.330  1.00  0.00     0.011 C 
HETATM    8  C17 UNL     1       0.175  -0.359   1.678  1.00  0.00     0.007 C 
HETATM    9  C18 UNL     1       0.999   0.218   0.505  1.00  0.00     0.005 C 
HETATM   10  C19 UNL     1       2.575   0.011   0.623  1.00  0.00    -0.035 C 
HETATM   11  C20 UNL     1       3.141   0.583   1.942  1.00  0.00     0.016 C 
HETATM   12  C21 UNL     1       2.889  -1.518   0.607  1.00  0.00     0.012 C 
HETATM   13  C22 UNL     1       4.372  -1.852   0.423  1.00  0.00     0.034 C 
HETATM   14  C23 UNL     1       4.973  -1.205  -0.824  1.00  0.00     0.140 C 
HETATM   15  C29 UNL     1       4.753   0.340  -0.888  1.00  0.00    -0.016 C 
HETATM   16  C30 UNL     1       5.172   0.801  -2.312  1.00  0.00     0.018 C 
HETATM   17  C31 UNL     1       5.686   1.086   0.088  1.00  0.00     0.018 C 
HETATM   18  C32 UNL     1       3.226   0.635  -0.670  1.00  0.00     0.007 C 
HETATM   19  C33 UNL     1       2.820   2.118  -0.849  1.00  0.00     0.038 C 
HETATM   20  C34 UNL     1       1.300   2.268  -1.016  1.00  0.00     0.128 C 
HETATM   21  C35 UNL     1       0.502   1.687   0.186  1.00  0.00    -0.005 C 
HETATM   22  C36 UNL     1       0.691   2.638   1.408  1.00  0.00     0.019 C 
ENDROOT
BRANCH   1  23
HETATM   23  C9  UNL     1      -4.461   1.009   1.009  1.00  0.00     0.048 C 
HETATM   24  C2  UNL     1      -5.062   1.119  -0.395  1.00  0.00     0.264 C 
HETATM   25  O2  UNL     1      -5.996   0.026  -0.521  1.00  0.00    -0.353 OA
HETATM   26  C3  UNL     1      -6.191  -0.525   0.786  1.00  0.00     0.157 C 
HETATM   27  C8  UNL     1      -4.806  -0.419   1.405  1.00  0.00     0.044 C 
BRANCH  24  28
HETATM   28  O1  UNL     1      -5.733   2.367  -0.516  1.00  0.00    -0.366 OA
HETATM   29  C1  UNL     1      -6.157   2.615  -1.851  1.00  0.00     0.204 C 
ENDBRANCH  24  28
BRANCH  26  30
HETATM   30  C4  UNL     1      -6.794  -1.936   0.717  1.00  0.00     0.183 C 
BRANCH  30  31
HETATM   31  O3  UNL     1      -5.978  -2.860  -0.024  1.00  0.00    -0.390 OA
HETATM   32  H7  UNL     1      -5.168  -2.393  -0.317  1.00  0.00     0.210 HD
ENDBRANCH  30  31
BRANCH  30  33
HETATM   33  C5  UNL     1      -8.230  -2.014   0.121  1.00  0.00     0.103 C 
HETATM   34  C6  UNL     1      -9.239  -1.183   0.918  1.00  0.00     0.051 C 
BRANCH  33  35
HETATM   35  O4  UNL     1      -8.659  -3.397   0.244  1.00  0.00    -0.385 OA
HETATM   36  H11 UNL     1      -7.873  -3.917  -0.035  1.00  0.00     0.210 HD
ENDBRANCH  33  35
BRANCH  33  37
HETATM   37  C7  UNL     1      -8.301  -1.681  -1.389  1.00  0.00     0.204 C 
BRANCH  37  38
HETATM   38  O5  UNL     1      -9.610  -1.967  -1.898  1.00  0.00    -0.398 OA
HETATM   39  H14 UNL     1      -9.937  -2.728  -1.368  1.00  0.00     0.209 HD
ENDBRANCH  37  38
ENDBRANCH  33  37
ENDBRANCH  30  33
ENDBRANCH  26  30
ENDBRANCH   1  23
BRANCH  20  40
HETATM   40  O8  UNL     1       0.928   1.607  -2.232  1.00  0.00    -0.395 OA
HETATM   41  H55 UNL     1       1.366   2.072  -2.971  1.00  0.00     0.210 HD
ENDBRANCH  20  40
BRANCH  14  42
HETATM   42  O6  UNL     1       6.390  -1.470  -0.837  1.00  0.00    -0.312 OA
BRANCH  42  43
HETATM   43  C24 UNL     1       6.796  -2.616  -1.425  1.00  0.00     0.283 C 
HETATM   44  O7  UNL     1       6.090  -3.466  -1.942  1.00  0.00    -0.260 OA
BRANCH  43  45
HETATM   45  C25 UNL     1       8.273  -2.676  -1.454  1.00  0.00     0.084 C 
HETATM   46  C26 UNL     1       9.131  -2.312  -0.482  1.00  0.00    -0.082 C 
HETATM   47  C27 UNL     1       8.748  -1.832   0.893  1.00  0.00     0.043 C 
HETATM   48  C28 UNL     1      10.613  -2.396  -0.718  1.00  0.00     0.043 C 
ENDBRANCH  43  45
ENDBRANCH  42  43
ENDBRANCH  14  42
TORSDOF 12
