REMARK  13 active torsions:
REMARK  status: ('A' for Active; 'I' for Inactive)
REMARK    1  A    between atoms: C19_21  and  O3_22 
REMARK    2  A    between atoms: C19_21  and  C20_23 
REMARK    3  A    between atoms: C20_23  and  C21_25 
REMARK    4  A    between atoms: C21_25  and  O5_26 
REMARK    5  A    between atoms: O5_26  and  C22_27 
REMARK    6  A    between atoms: C22_27  and  C23_29 
REMARK    7  A    between atoms: C23_29  and  C24_30 
REMARK    8  A    between atoms: C24_30  and  C25_31 
REMARK       I    between atoms: C25_31  and  N1_33 
REMARK    9  A    between atoms: N1_33  and  C26_34 
REMARK   10  A    between atoms: C26_34  and  C27_35 
REMARK   11  A    between atoms: C26_34  and  C34_42 
REMARK   12  A    between atoms: C27_35  and  C28_36 
REMARK   13  A    between atoms: C34_42  and  O9_44 
ROOT
HETATM    1  C20 UNL     1      -0.127   2.461  -0.223  1.00  0.00     0.185 C 
HETATM    2  O4  UNL     1      -0.623   3.476   0.280  1.00  0.00    -0.292 OA
ENDROOT
BRANCH   1   3
HETATM    3  C19 UNL     1      -1.023   1.322  -0.764  1.00  0.00     0.128 C 
HETATM    4  C14 UNL     1      -2.198   0.962   0.202  1.00  0.00     0.005 C 
HETATM    5  C13 UNL     1      -3.391   1.927   0.205  1.00  0.00     0.091 C 
HETATM    6  C15 UNL     1      -1.680   0.786   1.659  1.00  0.00     0.019 C 
HETATM    7  C16 UNL     1      -2.681  -0.366  -0.435  1.00  0.00     0.002 C 
HETATM    8  C12 UNL     1      -4.553   1.296   0.961  1.00  0.00     0.133 C 
HETATM    9  C11 UNL     1      -5.016  -0.096   0.481  1.00  0.00     0.072 C 
HETATM   10  O2  UNL     1      -5.106   1.916   1.866  1.00  0.00    -0.297 OA
HETATM   11  C2  UNL     1      -6.216  -0.722   1.283  1.00  0.00    -0.009 C 
HETATM   12  C10 UNL     1      -3.794  -1.054   0.368  1.00  0.00     0.003 C 
HETATM   13  C1  UNL     1      -5.906  -0.874   2.791  1.00  0.00     0.021 C 
HETATM   14  C3  UNL     1      -7.471   0.184   1.092  1.00  0.00     0.022 C 
HETATM   15  C7  UNL     1      -6.514  -2.129   0.732  1.00  0.00    -0.067 C 
HETATM   16  C4  UNL     1      -8.779  -0.478   1.503  1.00  0.00     0.084 C 
HETATM   17  C5  UNL     1      -8.960  -1.781   0.773  1.00  0.00     0.149 C 
HETATM   18  O1  UNL     1     -10.068  -2.230   0.490  1.00  0.00    -0.293 OA
HETATM   19  C6  UNL     1      -7.753  -2.580   0.466  1.00  0.00     0.053 C 
HETATM   20  C8  UNL     1      -5.331  -3.044   0.518  1.00  0.00     0.035 C 
HETATM   21  C9  UNL     1      -4.225  -2.373  -0.285  1.00  0.00     0.010 C 
HETATM   22  C17 UNL     1      -1.387  -1.136  -0.673  1.00  0.00     0.009 C 
HETATM   23  C18 UNL     1      -0.333  -0.051  -0.971  1.00  0.00     0.047 C 
BRANCH   3  24
HETATM   24  O3  UNL     1      -1.569   1.720  -2.031  1.00  0.00    -0.381 OA
HETATM   25  H25 UNL     1      -0.959   2.375  -2.436  1.00  0.00     0.211 HD
ENDBRANCH   3  24
ENDBRANCH   1   3
BRANCH   1  26
HETATM   26  C21 UNL     1       1.397   2.326  -0.301  1.00  0.00     0.260 C 
BRANCH  26  27
HETATM   27  O5  UNL     1       2.020   1.697  -1.413  1.00  0.00    -0.314 OA
BRANCH  27  28
HETATM   28  C22 UNL     1       1.725   2.212  -2.633  1.00  0.00     0.259 C 
HETATM   29  O6  UNL     1       0.805   2.997  -2.836  1.00  0.00    -0.265 OA
BRANCH  28  30
HETATM   30  C23 UNL     1       2.631   1.697  -3.729  1.00  0.00     0.120 C 
BRANCH  30  31
HETATM   31  C24 UNL     1       3.521   0.527  -3.324  1.00  0.00     0.112 C 
BRANCH  31  32
HETATM   32  C25 UNL     1       4.653   0.961  -2.410  1.00  0.00     0.218 C 
HETATM   33  O7  UNL     1       4.960   2.132  -2.228  1.00  0.00    -0.274 OA
HETATM   34  N1  UNL     1       5.286  -0.098  -1.798  1.00  0.00    -0.346 N 
HETATM   35  H32 UNL     1       5.217  -1.000  -2.256  1.00  0.00     0.163 HD
BRANCH  34  36
HETATM   36  C26 UNL     1       6.484   0.108  -0.969  1.00  0.00     0.186 C 
BRANCH  36  37
HETATM   37  C27 UNL     1       6.461  -0.862   0.218  1.00  0.00     0.074 C 
BRANCH  37  38
HETATM   38  C28 UNL     1       7.526  -0.598   1.254  1.00  0.00    -0.056 A 
HETATM   39  C29 UNL     1       8.612  -1.472   1.398  1.00  0.00     0.007 A 
HETATM   40  C30 UNL     1       9.591  -1.229   2.364  1.00  0.00     0.001 A 
HETATM   41  C31 UNL     1       9.495  -0.112   3.191  1.00  0.00     0.000 A 
HETATM   42  C32 UNL     1       8.419   0.763   3.055  1.00  0.00     0.001 A 
HETATM   43  C33 UNL     1       7.439   0.523   2.091  1.00  0.00     0.007 A 
ENDBRANCH  37  38
ENDBRANCH  36  37
BRANCH  36  44
HETATM   44  C34 UNL     1       7.695  -0.175  -1.854  1.00  0.00     0.163 C 
HETATM   45  O8  UNL     1       7.768  -1.062  -2.693  1.00  0.00    -0.648 OA
BRANCH  44  46
HETATM   46  O9  UNL     1       8.737   0.646  -1.625  1.00  0.00    -0.775 OA
HETATM   47  H41 UNL     1       9.436   0.357  -2.247  1.00  0.00     0.167 HD
ENDBRANCH  44  46
ENDBRANCH  36  44
ENDBRANCH  34  36
ENDBRANCH  31  32
ENDBRANCH  30  31
ENDBRANCH  28  30
ENDBRANCH  27  28
ENDBRANCH  26  27
ENDBRANCH   1  26
TORSDOF 13
