REMARK  9 active torsions:
REMARK  status: ('A' for Active; 'I' for Inactive)
REMARK    1  A    between atoms: C2_2  and  C4_4 
REMARK    2  A    between atoms: C4_4  and  O1_5 
REMARK    3  A    between atoms: C4_4  and  C5_7 
REMARK    4  A    between atoms: O1_5  and  O2_6 
REMARK    5  A    between atoms: C5_7  and  O3_8 
REMARK    6  A    between atoms: C5_7  and  C6_9 
REMARK    7  A    between atoms: C6_9  and  C7_10 
REMARK    8  A    between atoms: C7_10  and  C9_12 
REMARK    9  A    between atoms: C20_23  and  O4_24 
ROOT
HETATM    1  C9  UNL     1      -1.539  -0.530  -0.398  1.00  0.00    -0.002 C 
HETATM    2  C10 UNL     1      -1.606   0.424  -1.630  1.00  0.00     0.006 C 
HETATM    3  C11 UNL     1      -0.329   1.285  -1.632  1.00  0.00     0.011 C 
HETATM    4  C12 UNL     1       0.609   0.595  -0.632  1.00  0.00    -0.032 C 
HETATM    5  C13 UNL     1       1.294  -0.597  -1.391  1.00  0.00     0.016 C 
HETATM    6  C14 UNL     1       1.721   1.500  -0.001  1.00  0.00     0.004 C 
HETATM    7  C15 UNL     1       2.600   2.172  -1.087  1.00  0.00     0.006 C 
HETATM    8  C16 UNL     1       4.112   2.157  -0.892  1.00  0.00     0.006 C 
HETATM    9  C17 UNL     1       4.614   0.780  -0.446  1.00  0.00     0.001 C 
HETATM   10  C18 UNL     1       6.144   0.731  -0.203  1.00  0.00     0.015 C 
HETATM   11  C19 UNL     1       6.978   1.362  -1.323  1.00  0.00     0.013 C 
HETATM   12  C20 UNL     1       6.603  -0.730   0.019  1.00  0.00     0.122 C 
HETATM   13  C21 UNL     1       5.478  -1.673   0.449  1.00  0.00     0.033 C 
HETATM   14  C22 UNL     1       4.476  -1.007   1.390  1.00  0.00     0.013 C 
HETATM   15  C23 UNL     1       3.926   0.307   0.842  1.00  0.00    -0.027 A 
HETATM   16  C24 UNL     1       3.579   1.368   1.866  1.00  0.00     0.021 A 
HETATM   17  C25 UNL     1       2.458   0.697   1.100  1.00  0.00    -0.027 A 
HETATM   18  C26 UNL     1       1.542  -0.071   2.069  1.00  0.00     0.011 C 
HETATM   19  C27 UNL     1       0.348  -0.794   1.434  1.00  0.00     0.011 C 
HETATM   20  C28 UNL     1      -0.419   0.128   0.473  1.00  0.00    -0.032 C 
HETATM   21  C29 UNL     1      -1.050   1.299   1.289  1.00  0.00     0.016 C 
ENDROOT
BRANCH   1  22
HETATM   22  C7  UNL     1      -2.954  -0.799   0.208  1.00  0.00    -0.011 C 
HETATM   23  C8  UNL     1      -2.894  -1.713   1.435  1.00  0.00     0.010 C 
BRANCH  22  24
HETATM   24  C6  UNL     1      -3.890  -1.410  -0.871  1.00  0.00     0.039 C 
BRANCH  24  25
HETATM   25  C5  UNL     1      -5.339  -1.739  -0.448  1.00  0.00     0.154 C 
BRANCH  25  26
HETATM   26  C4  UNL     1      -6.105  -0.519   0.150  1.00  0.00     0.216 C 
BRANCH  26  27
HETATM   27  C2  UNL     1      -7.528  -0.751   0.663  1.00  0.00    -0.059 C 
HETATM   28  C1  UNL     1      -8.211  -1.905   0.564  1.00  0.00     0.016 C 
HETATM   29  C3  UNL     1      -8.154   0.428   1.362  1.00  0.00     0.045 C 
ENDBRANCH  26  27
BRANCH  26  30
HETATM   30  O1  UNL     1      -6.144   0.522  -0.845  1.00  0.00    -0.231 OA
BRANCH  30  31
HETATM   31  O2  UNL     1      -5.638   1.737  -0.214  1.00  0.00    -0.250 OA
HETATM   32  H7  UNL     1      -6.408   2.293  -0.436  1.00  0.00     0.253 HD
ENDBRANCH  30  31
ENDBRANCH  26  30
ENDBRANCH  25  26
BRANCH  25  33
HETATM   33  O3  UNL     1      -6.009  -2.250  -1.617  1.00  0.00    -0.393 OA
HETATM   34  H9  UNL     1      -5.453  -2.949  -1.997  1.00  0.00     0.210 HD
ENDBRANCH  25  33
ENDBRANCH  24  25
ENDBRANCH  22  24
ENDBRANCH   1  22
BRANCH  12  35
HETATM   35  O4  UNL     1       7.635  -0.728   1.007  1.00  0.00    -0.395 OA
HETATM   36  H35 UNL     1       7.961  -1.640   1.095  1.00  0.00     0.210 HD
ENDBRANCH  12  35
TORSDOF 9
