REMARK  4 active torsions:
REMARK  status: ('A' for Active; 'I' for Inactive)
REMARK    1  A    between atoms: C2_2  and  C3_3 
REMARK    2  A    between atoms: C2_2  and  C9_9 
REMARK    3  A    between atoms: C3_3  and  C4_4 
REMARK    4  A    between atoms: C4_4  and  C5_5 
ROOT
HETATM    1  C9  UNL     1       2.439   0.804  -1.346  1.00  0.00     0.018 C 
HETATM    2  C10 UNL     1       1.985   1.829  -2.420  1.00  0.00     0.010 C 
HETATM    3  C11 UNL     1       0.493   1.540  -2.661  1.00  0.00     0.011 C 
HETATM    4  C12 UNL     1      -0.040   1.131  -1.269  1.00  0.00    -0.032 C 
HETATM    5  C13 UNL     1      -0.105   2.437  -0.415  1.00  0.00     0.016 C 
HETATM    6  C14 UNL     1       1.111   0.189  -0.816  1.00  0.00     0.002 C 
HETATM    7  C15 UNL     1       0.944  -0.240   0.634  1.00  0.00     0.006 C 
HETATM    8  C16 UNL     1      -0.403  -0.966   0.822  1.00  0.00     0.006 C 
HETATM    9  C17 UNL     1      -1.631  -0.174   0.290  1.00  0.00     0.003 C 
HETATM   10  C18 UNL     1      -3.052  -0.816   0.618  1.00  0.00    -0.035 C 
HETATM   11  C19 UNL     1      -3.219  -2.208  -0.033  1.00  0.00     0.016 C 
HETATM   12  C20 UNL     1      -3.180  -0.991   2.163  1.00  0.00     0.017 C 
HETATM   13  C21 UNL     1      -4.579  -1.352   2.646  1.00  0.00     0.080 C 
HETATM   14  C22 UNL     1      -5.619  -0.388   2.129  1.00  0.00     0.135 C 
HETATM   15  O1  UNL     1      -6.481   0.048   2.895  1.00  0.00    -0.297 OA
HETATM   16  C23 UNL     1      -5.620  -0.077   0.623  1.00  0.00     0.017 C 
HETATM   17  C24 UNL     1      -6.509   1.174   0.402  1.00  0.00     0.023 C 
HETATM   18  C25 UNL     1      -6.292  -1.242  -0.116  1.00  0.00     0.023 C 
HETATM   19  C26 UNL     1      -4.147   0.233   0.181  1.00  0.00     0.009 C 
HETATM   20  C27 UNL     1      -4.000   0.626  -1.305  1.00  0.00     0.007 C 
HETATM   21  C28 UNL     1      -2.621   1.232  -1.598  1.00  0.00     0.011 C 
HETATM   22  C29 UNL     1      -1.426   0.326  -1.206  1.00  0.00    -0.032 C 
HETATM   23  C30 UNL     1      -1.411  -0.859  -2.215  1.00  0.00     0.016 C 
ENDROOT
BRANCH   1  24
HETATM   24  C2  UNL     1       3.496   1.225  -0.328  1.00  0.00    -0.084 C 
HETATM   25  C1  UNL     1       3.635   2.481   0.131  1.00  0.00     0.014 C 
BRANCH  24  26
HETATM   26  C3  UNL     1       4.442   0.093   0.077  1.00  0.00     0.037 C 
BRANCH  26  27
HETATM   27  C4  UNL     1       5.452   0.372   1.200  1.00  0.00     0.031 C 
BRANCH  27  28
HETATM   28  C5  UNL     1       6.234  -0.866   1.556  1.00  0.00    -0.024 C 
HETATM   29  C6  UNL     1       7.494  -1.175   1.194  1.00  0.00    -0.091 C 
HETATM   30  C7  UNL     1       8.366  -0.337   0.299  1.00  0.00     0.042 C 
HETATM   31  C8  UNL     1       8.141  -2.448   1.674  1.00  0.00     0.042 C 
ENDBRANCH  27  28
ENDBRANCH  26  27
ENDBRANCH  24  26
ENDBRANCH   1  24
TORSDOF 4
