REMARK  10 active torsions:
REMARK  status: ('A' for Active; 'I' for Inactive)
REMARK    1  A    between atoms: N1_15  and  C13_16 
REMARK    2  A    between atoms: C13_16  and  C14_17 
REMARK    3  A    between atoms: C14_17  and  N2_18 
REMARK    4  A    between atoms: N2_18  and  C15_19 
REMARK    5  A    between atoms: C15_19  and  C16_20 
REMARK    6  A    between atoms: C16_20  and  C17_21 
REMARK    7  A    between atoms: C17_21  and  N3_22 
REMARK    8  A    between atoms: N3_22  and  C18_23 
REMARK    9  A    between atoms: C18_23  and  C19_24 
REMARK   10  A    between atoms: C19_24  and  N4_25 
ROOT
HETATM    1  C16 UNL     1       0.294  -2.528   2.188  1.00  0.00     0.060 C 
ENDROOT
BRANCH   1   2
HETATM    2  C15 UNL     1       0.893  -1.412   3.050  1.00  0.00     0.271 C 
BRANCH   2   3
HETATM    3  N2  UNL     1       2.255  -1.760   3.477  1.00  0.00     0.085 N 
HETATM    4  H11 UNL     1       2.354  -1.501   4.460  1.00  0.00     0.315 HD
BRANCH   3   5
HETATM    5  C14 UNL     1       3.299  -1.041   2.728  1.00  0.00     0.289 C 
BRANCH   5   6
HETATM    6  C13 UNL     1       3.425  -1.421   1.242  1.00  0.00     0.165 C 
BRANCH   6   7
HETATM    7  N1  UNL     1       4.565  -0.757   0.607  1.00  0.00    -0.278 N 
HETATM    8  C1  UNL     1       4.357   0.519   0.084  1.00  0.00     0.261 A 
HETATM    9  O1  UNL     1       3.283   1.113   0.138  1.00  0.00    -0.267 OA
HETATM   10  C2  UNL     1       5.519   1.182  -0.552  1.00  0.00     0.044 A 
HETATM   11  C3  UNL     1       5.355   2.439  -1.149  1.00  0.00     0.018 A 
HETATM   12  C11 UNL     1       6.767   0.549  -0.546  1.00  0.00     0.005 A 
HETATM   13  C4  UNL     1       6.442   3.072  -1.747  1.00  0.00     0.002 A 
HETATM   14  C5  UNL     1       7.693   2.454  -1.747  1.00  0.00     0.012 A 
HETATM   15  C6  UNL     1       7.872   1.196  -1.150  1.00  0.00    -0.024 A 
HETATM   16  C7  UNL     1       9.129   0.569  -1.140  1.00  0.00     0.012 A 
HETATM   17  C8  UNL     1       9.299  -0.680  -0.542  1.00  0.00     0.002 A 
HETATM   18  C9  UNL     1       8.212  -1.317   0.052  1.00  0.00     0.018 A 
HETATM   19  C10 UNL     1       6.952  -0.704   0.048  1.00  0.00     0.044 A 
HETATM   20  C12 UNL     1       5.804  -1.392   0.682  1.00  0.00     0.261 A 
HETATM   21  O2  UNL     1       5.991  -2.466   1.248  1.00  0.00    -0.267 OA
ENDBRANCH   6   7
ENDBRANCH   5   6
ENDBRANCH   3   5
ENDBRANCH   2   3
ENDBRANCH   1   2
BRANCH   1  22
HETATM   22  C17 UNL     1      -1.176  -2.280   1.836  1.00  0.00     0.271 C 
BRANCH  22  23
HETATM   23  N3  UNL     1      -1.337  -1.071   1.029  1.00  0.00     0.085 N 
HETATM   24  H18 UNL     1      -0.774  -1.150   0.180  1.00  0.00     0.315 HD
BRANCH  23  25
HETATM   25  C18 UNL     1      -2.744  -0.867   0.659  1.00  0.00     0.289 C 
BRANCH  25  26
HETATM   26  C19 UNL     1      -2.928   0.444  -0.126  1.00  0.00     0.165 C 
BRANCH  26  27
HETATM   27  N4  UNL     1      -4.307   0.619  -0.582  1.00  0.00    -0.278 N 
HETATM   28  C20 UNL     1      -4.658   0.042  -1.802  1.00  0.00     0.261 C 
HETATM   29  O3  UNL     1      -3.886  -0.621  -2.491  1.00  0.00    -0.267 OA
HETATM   30  C21 UNL     1      -6.051   0.240  -2.262  1.00  0.00     0.044 A 
HETATM   31  C22 UNL     1      -6.441  -0.249  -3.516  1.00  0.00     0.018 A 
HETATM   32  C30 UNL     1      -6.964   0.912  -1.441  1.00  0.00     0.005 A 
HETATM   33  C23 UNL     1      -7.748  -0.066  -3.959  1.00  0.00     0.002 A 
HETATM   34  C24 UNL     1      -8.668   0.602  -3.151  1.00  0.00     0.012 A 
HETATM   35  C25 UNL     1      -8.293   1.094  -1.891  1.00  0.00    -0.024 A 
HETATM   36  C26 UNL     1      -9.214   1.762  -1.067  1.00  0.00     0.012 A 
HETATM   37  C27 UNL     1      -8.834   2.242   0.186  1.00  0.00     0.002 A 
HETATM   38  C28 UNL     1      -7.527   2.063   0.630  1.00  0.00     0.018 A 
HETATM   39  C29 UNL     1      -6.595   1.402  -0.183  1.00  0.00     0.044 A 
HETATM   40  C31 UNL     1      -5.206   1.222   0.297  1.00  0.00     0.261 C 
HETATM   41  O4  UNL     1      -4.912   1.592   1.430  1.00  0.00    -0.267 OA
ENDBRANCH  26  27
ENDBRANCH  25  26
ENDBRANCH  23  25
ENDBRANCH  22  23
ENDBRANCH   1  22
TORSDOF 10
