REMARK  12 active torsions:
REMARK  status: ('A' for Active; 'I' for Inactive)
REMARK    1  A    between atoms: O1_2  and  C2_3 
REMARK    2  A    between atoms: C4_5  and  O2_6 
REMARK    3  A    between atoms: O2_6  and  C5_7 
REMARK    4  A    between atoms: C15_17  and  O3_18 
REMARK    5  A    between atoms: O3_18  and  C16_19 
REMARK    6  A    between atoms: C18_22  and  O5_23 
REMARK    7  A    between atoms: O5_23  and  C19_24 
REMARK    8  A    between atoms: C19_24  and  C20_26 
REMARK    9  A    between atoms: C20_26  and  C21_27 
REMARK   10  A    between atoms: C26_32  and  C27_33 
REMARK   11  A    between atoms: C31_38  and  O8_39 
REMARK   12  A    between atoms: C35_44  and  O10_45 
ROOT
HETATM    1  C5  UNL     1       3.808  -0.825  -0.654  1.00  0.00     0.128 C 
HETATM    2  C6  UNL     1       3.281  -0.139   0.614  1.00  0.00     0.033 C 
HETATM    3  C7  UNL     1       1.782  -0.378   0.840  1.00  0.00     0.016 C 
HETATM    4  C8  UNL     1       0.872  -0.002  -0.371  1.00  0.00    -0.014 C 
HETATM    5  C9  UNL     1       0.992   1.519  -0.613  1.00  0.00     0.020 C 
HETATM    6  C10 UNL     1       1.467  -0.741  -1.575  1.00  0.00    -0.072 C 
HETATM    7  C11 UNL     1       0.790  -1.653  -2.287  1.00  0.00    -0.023 C 
HETATM    8  C12 UNL     1      -0.577  -2.127  -1.926  1.00  0.00     0.035 C 
HETATM    9  C13 UNL     1      -0.869  -1.927  -0.425  1.00  0.00     0.032 C 
HETATM   10  C14 UNL     1      -0.631  -0.448  -0.015  1.00  0.00     0.037 C 
HETATM   11  C15 UNL     1      -1.816   0.436  -0.510  1.00  0.00     0.167 C 
HETATM   12  C18 UNL     1      -3.198  -0.112  -0.023  1.00  0.00     0.173 C 
HETATM   13  C24 UNL     1      -3.484  -1.599  -0.388  1.00  0.00     0.027 C 
HETATM   14  C25 UNL     1      -3.912  -1.737  -1.865  1.00  0.00     0.022 C 
HETATM   15  C26 UNL     1      -4.572  -2.267   0.528  1.00  0.00     0.069 C 
HETATM   16  C29 UNL     1      -3.850  -2.506   1.859  1.00  0.00     0.016 C 
HETATM   17  C30 UNL     1      -2.365  -2.636   1.527  1.00  0.00     0.040 C 
HETATM   18  C31 UNL     1      -2.251  -2.472  -0.006  1.00  0.00     0.073 C 
HETATM   19  C32 UNL     1       2.931  -0.488  -1.872  1.00  0.00     0.066 C 
ENDROOT
BRANCH   1  20
HETATM   20  O2  UNL     1       5.145  -0.424  -0.977  1.00  0.00    -0.356 OA
BRANCH  20  21
HETATM   21  C4  UNL     1       6.146  -0.888  -0.076  1.00  0.00     0.263 C 
HETATM   22  C3  UNL     1       7.484  -0.934  -0.828  1.00  0.00     0.095 C 
HETATM   23  C2  UNL     1       8.631  -0.637   0.131  1.00  0.00     0.156 C 
HETATM   24  C35 UNL     1       8.450   0.786   0.709  1.00  0.00     0.175 C 
HETATM   25  C33 UNL     1       6.959   1.122   0.886  1.00  0.00     0.151 C 
HETATM   26  O9  UNL     1       6.216  -0.080   1.101  1.00  0.00    -0.354 OA
HETATM   27  C34 UNL     1       6.736   2.041   2.080  1.00  0.00     0.042 C 
BRANCH  23  28
HETATM   28  O1  UNL     1       9.913  -0.683  -0.517  1.00  0.00    -0.388 OA
HETATM   29  C1  UNL     1      10.377  -2.005  -0.758  1.00  0.00     0.202 C 
ENDBRANCH  23  28
BRANCH  24  30
HETATM   30  O10 UNL     1       9.049   1.759  -0.160  1.00  0.00    -0.390 OA
HETATM   31  H54 UNL     1       9.825   1.303  -0.547  1.00  0.00     0.210 HD
ENDBRANCH  24  30
ENDBRANCH  20  21
ENDBRANCH   1  20
BRANCH  11  32
HETATM   32  O3  UNL     1      -1.685   1.747   0.107  1.00  0.00    -0.313 OA
BRANCH  32  33
HETATM   33  C16 UNL     1      -2.073   2.827  -0.627  1.00  0.00     0.255 C 
HETATM   34  C17 UNL     1      -1.927   4.075   0.190  1.00  0.00     0.126 C 
HETATM   35  O4  UNL     1      -2.475   2.804  -1.780  1.00  0.00    -0.266 OA
ENDBRANCH  32  33
ENDBRANCH  11  32
BRANCH  18  36
HETATM   36  O8  UNL     1      -2.414  -3.791  -0.548  1.00  0.00    -0.389 OA
HETATM   37  H46 UNL     1      -1.654  -4.336  -0.277  1.00  0.00     0.210 HD
ENDBRANCH  18  36
BRANCH  12  38
HETATM   38  O5  UNL     1      -4.221   0.731  -0.605  1.00  0.00    -0.312 OA
BRANCH  38  39
HETATM   39  C19 UNL     1      -5.012   1.457   0.231  1.00  0.00     0.259 C 
HETATM   40  O6  UNL     1      -4.946   1.427   1.452  1.00  0.00    -0.265 OA
BRANCH  39  41
HETATM   41  C20 UNL     1      -5.942   2.340  -0.575  1.00  0.00     0.115 C 
BRANCH  41  42
HETATM   42  C21 UNL     1      -7.372   2.385  -0.015  1.00  0.00    -0.013 C 
HETATM   43  C22 UNL     1      -7.477   3.267   1.231  1.00  0.00     0.010 C 
HETATM   44  C23 UNL     1      -8.334   2.906  -1.086  1.00  0.00     0.010 C 
ENDBRANCH  41  42
ENDBRANCH  39  41
ENDBRANCH  38  39
ENDBRANCH  12  38
BRANCH  15  45
HETATM   45  C27 UNL     1      -5.932  -1.577   0.672  1.00  0.00     0.128 C 
HETATM   46  C28 UNL     1      -6.662  -1.685   1.989  1.00  0.00     0.091 C 
HETATM   47  O7  UNL     1      -6.485  -1.022  -0.281  1.00  0.00    -0.298 OA
ENDBRANCH  15  45
TORSDOF 12
