REMARK  11 active torsions:
REMARK  status: ('A' for Active; 'I' for Inactive)
REMARK    1  A    between atoms: C2_2  and  C4_4 
REMARK    2  A    between atoms: C4_4  and  C6_6 
REMARK    3  A    between atoms: C7_7  and  C8_8 
REMARK    4  A    between atoms: C8_8  and  C10_10 
REMARK    5  A    between atoms: C24_24  and  O1_25 
REMARK    6  A    between atoms: O1_25  and  C25_26 
REMARK    7  A    between atoms: C26_28  and  C27_29 
REMARK    8  A    between atoms: C27_29  and  O3_30 
REMARK    9  A    between atoms: C28_31  and  O4_32 
REMARK   10  A    between atoms: C29_33  and  O5_34 
REMARK   11  A    between atoms: C30_35  and  O6_36 
ROOT
HETATM    1  C10 UNL     1       3.445  -1.065   0.722  1.00  0.00     0.001 C 
HETATM    2  C11 UNL     1       3.047   0.406   0.480  1.00  0.00     0.006 C 
HETATM    3  C12 UNL     1       2.679   0.466  -0.983  1.00  0.00     0.009 C 
HETATM    4  C13 UNL     1       1.950  -0.853  -1.288  1.00  0.00     0.036 C 
HETATM    5  C14 UNL     1       2.408  -1.868  -0.182  1.00  0.00    -0.033 C 
HETATM    6  C15 UNL     1       2.970  -3.131  -0.867  1.00  0.00     0.016 C 
HETATM    7  C16 UNL     1       1.209  -2.360   0.682  1.00  0.00     0.010 C 
HETATM    8  C17 UNL     1       0.221  -1.280   1.098  1.00  0.00     0.010 C 
HETATM    9  C18 UNL     1      -0.327  -0.459  -0.083  1.00  0.00     0.039 C 
HETATM   10  C19 UNL     1       0.414  -0.711  -1.435  1.00  0.00     0.123 C 
HETATM   11  C20 UNL     1      -0.193  -1.851  -2.228  1.00  0.00     0.014 C 
HETATM   12  C21 UNL     1      -1.487  -1.669  -2.527  1.00  0.00     0.014 C 
HETATM   13  C22 UNL     1      -2.092  -0.439  -1.881  1.00  0.00     0.124 C 
HETATM   14  C23 UNL     1      -3.542  -0.220  -2.324  1.00  0.00     0.078 C 
HETATM   15  C24 UNL     1      -4.307   0.808  -1.477  1.00  0.00     0.128 C 
HETATM   16  C31 UNL     1      -3.419   1.582  -0.501  1.00  0.00     0.033 C 
HETATM   17  C32 UNL     1      -2.608   0.659   0.411  1.00  0.00     0.015 C 
HETATM   18  C33 UNL     1      -1.905  -0.528  -0.324  1.00  0.00     0.001 C 
HETATM   19  C34 UNL     1      -2.547  -1.842   0.208  1.00  0.00     0.019 C 
HETATM   20  O7  UNL     1      -1.328   0.713  -2.332  1.00  0.00    -0.223 OA
HETATM   21  O8  UNL     1       0.139   0.441  -2.282  1.00  0.00    -0.224 OA
ENDROOT
BRANCH  15  22
HETATM   22  O1  UNL     1      -5.303   0.081  -0.748  1.00  0.00    -0.353 OA
BRANCH  22  23
HETATM   23  C25 UNL     1      -6.453   0.838  -0.377  1.00  0.00     0.292 C 
HETATM   24  O2  UNL     1      -6.757   0.516   0.982  1.00  0.00    -0.348 OA
HETATM   25  C26 UNL     1      -7.936   1.164   1.469  1.00  0.00     0.179 C 
HETATM   26  C28 UNL     1      -9.159   0.719   0.653  1.00  0.00     0.180 C 
HETATM   27  C29 UNL     1      -8.930   1.059  -0.818  1.00  0.00     0.183 C 
HETATM   28  C30 UNL     1      -7.619   0.453  -1.321  1.00  0.00     0.204 C 
BRANCH  25  29
HETATM   29  C27 UNL     1      -8.111   0.832   2.958  1.00  0.00     0.198 C 
BRANCH  29  30
HETATM   30  O3  UNL     1      -9.158   1.591   3.554  1.00  0.00    -0.398 OA
HETATM   31  H41 UNL     1      -9.916   1.567   2.929  1.00  0.00     0.209 HD
ENDBRANCH  29  30
ENDBRANCH  25  29
BRANCH  26  32
HETATM   32  O4  UNL     1     -10.356   1.361   1.109  1.00  0.00    -0.390 OA
HETATM   33  H43 UNL     1     -11.026   1.163   0.418  1.00  0.00     0.210 HD
ENDBRANCH  26  32
BRANCH  27  34
HETATM   34  O5  UNL     1     -10.044   0.574  -1.587  1.00  0.00    -0.390 OA
HETATM   35  H45 UNL     1      -9.729   0.522  -2.513  1.00  0.00     0.210 HD
ENDBRANCH  27  34
BRANCH  28  36
HETATM   36  O6  UNL     1      -7.424   0.882  -2.681  1.00  0.00    -0.388 OA
HETATM   37  H47 UNL     1      -7.114   1.804  -2.675  1.00  0.00     0.210 HD
ENDBRANCH  28  36
ENDBRANCH  22  23
ENDBRANCH  15  22
BRANCH   1  38
HETATM   38  C8  UNL     1       4.970  -1.327   0.466  1.00  0.00     0.008 C 
HETATM   39  C9  UNL     1       5.464  -2.609   1.157  1.00  0.00     0.014 C 
BRANCH  38  40
HETATM   40  C7  UNL     1       5.860  -0.220   1.000  1.00  0.00    -0.026 C 
HETATM   41  C6  UNL     1       6.763   0.440   0.254  1.00  0.00    -0.026 C 
BRANCH  41  42
HETATM   42  C4  UNL     1       7.655   1.536   0.796  1.00  0.00     0.007 C 
HETATM   43  C5  UNL     1       7.549   2.771  -0.104  1.00  0.00     0.014 C 
BRANCH  42  44
HETATM   44  C2  UNL     1       9.106   1.021   1.005  1.00  0.00    -0.015 C 
HETATM   45  C1  UNL     1       9.832   0.648  -0.292  1.00  0.00     0.010 C 
HETATM   46  C3  UNL     1       9.952   2.025   1.794  1.00  0.00     0.010 C 
ENDBRANCH  42  44
ENDBRANCH  41  42
ENDBRANCH  38  40
ENDBRANCH   1  38
TORSDOF 11
