REMARK  5 active torsions:
REMARK  status: ('A' for Active; 'I' for Inactive)
REMARK    1  A    between atoms: C2_2  and  C4_4 
REMARK    2  A    between atoms: C7_7  and  C8_8 
REMARK    3  A    between atoms: C8_8  and  O2_10 
REMARK    4  A    between atoms: C11_13  and  C12_14 
REMARK    5  A    between atoms: C12_14  and  O4_16 
ROOT
HETATM    1  C4  UNL     1      -4.358  -0.895   0.081  1.00  0.00     0.019 C 
HETATM    2  C5  UNL     1      -5.140  -0.203  -1.037  1.00  0.00     0.011 C 
HETATM    3  C6  UNL     1      -5.278   1.220  -0.512  1.00  0.00     0.021 C 
HETATM    4  C7  UNL     1      -3.889   1.562   0.076  1.00  0.00     0.050 C 
HETATM    5  C9  UNL     1      -3.026   2.230  -1.008  1.00  0.00     0.022 C 
HETATM    6  C10 UNL     1      -1.529   2.222  -0.708  1.00  0.00     0.023 C 
HETATM    7  C11 UNL     1      -0.932   0.821  -0.418  1.00  0.00     0.057 C 
HETATM    8  C13 UNL     1      -1.794   0.065   0.650  1.00  0.00     0.011 C 
HETATM    9  C14 UNL     1      -1.235  -1.335   0.933  1.00  0.00     0.007 C 
HETATM   10  C15 UNL     1       0.241  -1.328   1.354  1.00  0.00     0.006 C 
HETATM   11  C16 UNL     1       1.151  -0.533   0.386  1.00  0.00     0.003 C 
HETATM   12  C17 UNL     1       2.714  -0.667   0.662  1.00  0.00    -0.035 C 
HETATM   13  C18 UNL     1       3.094  -0.188   2.083  1.00  0.00     0.016 C 
HETATM   14  C19 UNL     1       3.113  -2.170   0.542  1.00  0.00     0.017 C 
HETATM   15  C20 UNL     1       4.613  -2.429   0.529  1.00  0.00     0.080 C 
HETATM   16  C21 UNL     1       5.315  -1.612  -0.526  1.00  0.00     0.135 C 
HETATM   17  O5  UNL     1       6.174  -2.142  -1.234  1.00  0.00    -0.297 OA
HETATM   18  C22 UNL     1       5.009  -0.106  -0.589  1.00  0.00     0.017 C 
HETATM   19  C23 UNL     1       5.828   0.599   0.502  1.00  0.00     0.023 C 
HETATM   20  C24 UNL     1       5.525   0.416  -1.955  1.00  0.00     0.023 C 
HETATM   21  C25 UNL     1       3.457   0.104  -0.494  1.00  0.00     0.009 C 
HETATM   22  C26 UNL     1       3.023   1.582  -0.547  1.00  0.00     0.007 C 
HETATM   23  C27 UNL     1       1.522   1.732  -0.810  1.00  0.00     0.011 C 
HETATM   24  C28 UNL     1       0.601   0.934   0.161  1.00  0.00    -0.022 C 
HETATM   25  C29 UNL     1       0.631   1.743   1.501  1.00  0.00     0.017 C 
HETATM   26  C30 UNL     1      -3.351   0.185   0.607  1.00  0.00     0.018 C 
ENDROOT
BRANCH   4  27
HETATM   27  C8  UNL     1      -4.027   2.556   1.229  1.00  0.00     0.149 C 
HETATM   28  O1  UNL     1      -3.321   2.617   2.223  1.00  0.00    -0.649 OA
BRANCH  27  29
HETATM   29  O2  UNL     1      -4.992   3.476   1.039  1.00  0.00    -0.776 OA
HETATM   30  H11 UNL     1      -4.930   4.052   1.830  1.00  0.00     0.167 HD
ENDBRANCH  27  29
ENDBRANCH   4  27
BRANCH   1  31
HETATM   31  C2  UNL     1      -4.012  -2.358  -0.122  1.00  0.00    -0.088 C 
HETATM   32  C1  UNL     1      -4.118  -3.225   0.904  1.00  0.00     0.014 C 
HETATM   33  C3  UNL     1      -3.665  -2.879  -1.489  1.00  0.00     0.043 C 
ENDBRANCH   1  31
BRANCH   7  34
HETATM   34  C12 UNL     1      -0.935   0.057  -1.768  1.00  0.00     0.149 C 
HETATM   35  O3  UNL     1       0.011  -0.230  -2.483  1.00  0.00    -0.649 OA
BRANCH  34  36
HETATM   36  O4  UNL     1      -2.157  -0.280  -2.205  1.00  0.00    -0.776 OA
HETATM   37  H16 UNL     1      -1.975  -0.711  -3.067  1.00  0.00     0.167 HD
ENDBRANCH  34  36
ENDBRANCH   7  34
TORSDOF 5
