REMARK  9 active torsions:
REMARK  status: ('A' for Active; 'I' for Inactive)
REMARK    1  A    between atoms: C2_2  and  C30_33 
REMARK    2  A    between atoms: C3_3  and  C4_4 
REMARK    3  A    between atoms: C4_4  and  C5_5 
REMARK    4  A    between atoms: C5_5  and  C6_6 
REMARK    5  A    between atoms: C6_6  and  C8_8 
REMARK    6  A    between atoms: C10_10  and  O1_11 
REMARK    7  A    between atoms: C23_24  and  O2_25 
REMARK    8  A    between atoms: C29_31  and  O3_32 
REMARK    9  A    between atoms: C30_33  and  O4_34 
ROOT
HETATM    1  C8  UNL     1       2.224  -1.276   0.371  1.00  0.00     0.001 C 
HETATM    2  C9  UNL     1       1.832  -2.248   1.517  1.00  0.00     0.038 C 
HETATM    3  C10 UNL     1       0.303  -2.112   1.703  1.00  0.00     0.132 C 
HETATM    4  C11 UNL     1      -0.193  -1.452   0.391  1.00  0.00     0.016 C 
HETATM    5  C12 UNL     1      -0.282  -2.549  -0.726  1.00  0.00     0.023 C 
HETATM    6  C13 UNL     1      -1.550  -0.751   0.372  1.00  0.00    -0.037 C 
HETATM    7  C14 UNL     1      -1.772   0.246  -0.528  1.00  0.00    -0.065 C 
HETATM    8  C15 UNL     1      -0.638   0.786  -1.422  1.00  0.00     0.036 C 
HETATM    9  C16 UNL     1       0.784   0.216  -1.216  1.00  0.00     0.015 C 
HETATM   10  C17 UNL     1       0.954  -0.391   0.181  1.00  0.00    -0.026 C 
HETATM   11  C18 UNL     1       0.912   0.766   1.218  1.00  0.00     0.016 C 
HETATM   12  C19 UNL     1      -3.162   0.940  -0.657  1.00  0.00    -0.016 C 
HETATM   13  C20 UNL     1      -3.001   2.307   0.051  1.00  0.00     0.020 C 
HETATM   14  C21 UNL     1      -3.534   1.152  -2.157  1.00  0.00     0.016 C 
HETATM   15  C22 UNL     1      -5.013   0.965  -2.521  1.00  0.00     0.033 C 
HETATM   16  C23 UNL     1      -5.975   1.400  -1.423  1.00  0.00     0.126 C 
HETATM   17  C24 UNL     1      -5.753   0.600  -0.103  1.00  0.00    -0.017 C 
HETATM   18  C25 UNL     1      -6.705  -0.632  -0.151  1.00  0.00     0.018 C 
HETATM   19  C26 UNL     1      -6.188   1.427   1.126  1.00  0.00     0.018 C 
HETATM   20  C27 UNL     1      -4.276   0.046  -0.006  1.00  0.00     0.011 C 
HETATM   21  C28 UNL     1      -3.867  -0.391   1.409  1.00  0.00     0.043 C 
HETATM   22  C29 UNL     1      -2.579  -1.214   1.382  1.00  0.00     0.148 C 
ENDROOT
BRANCH   1  23
HETATM   23  C6  UNL     1       3.644  -0.639   0.460  1.00  0.00    -0.013 C 
HETATM   24  C7  UNL     1       3.969   0.105   1.763  1.00  0.00     0.010 C 
BRANCH  23  25
HETATM   25  C5  UNL     1       4.717  -1.748   0.230  1.00  0.00     0.008 C 
BRANCH  25  26
HETATM   26  C4  UNL     1       5.906  -1.312  -0.643  1.00  0.00     0.028 C 
BRANCH  26  27
HETATM   27  C3  UNL     1       6.827  -0.323   0.012  1.00  0.00    -0.022 C 
HETATM   28  C2  UNL     1       7.110   0.939  -0.369  1.00  0.00    -0.064 C 
HETATM   29  C1  UNL     1       6.528   1.637  -1.570  1.00  0.00     0.045 C 
BRANCH  28  30
HETATM   30  C30 UNL     1       8.091   1.774   0.418  1.00  0.00     0.197 C 
BRANCH  30  31
HETATM   31  O4  UNL     1       7.410   2.874   1.000  1.00  0.00    -0.397 OA
HETATM   32  H50 UNL     1       6.611   2.515   1.422  1.00  0.00     0.209 HD
ENDBRANCH  30  31
ENDBRANCH  28  30
ENDBRANCH  26  27
ENDBRANCH  25  26
ENDBRANCH  23  25
ENDBRANCH   1  23
BRANCH   3  33
HETATM   33  O1  UNL     1      -0.313  -3.369   1.956  1.00  0.00    -0.394 OA
HETATM   34  H17 UNL     1       0.171  -3.784   2.692  1.00  0.00     0.210 HD
ENDBRANCH   3  33
BRANCH  22  35
HETATM   35  O3  UNL     1      -2.924  -2.569   1.113  1.00  0.00    -0.391 OA
HETATM   36  H47 UNL     1      -2.142  -3.100   1.372  1.00  0.00     0.210 HD
ENDBRANCH  22  35
BRANCH  16  37
HETATM   37  O2  UNL     1      -5.842   2.806  -1.228  1.00  0.00    -0.395 OA
HETATM   38  H36 UNL     1      -6.053   3.241  -2.072  1.00  0.00     0.210 HD
ENDBRANCH  16  37
TORSDOF 9
