REMARK  7 active torsions:
REMARK  status: ('A' for Active; 'I' for Inactive)
REMARK    1  A    between atoms: O1_2  and  C2_3 
REMARK    2  A    between atoms: C19_21  and  C20_22 
REMARK    3  A    between atoms: C20_22  and  C22_24 
REMARK    4  A    between atoms: C22_24  and  C23_25 
REMARK    5  A    between atoms: C23_25  and  C24_26 
REMARK    6  A    between atoms: C25_27  and  C27_29 
REMARK    7  A    between atoms: C27_29  and  O4_31 
ROOT
HETATM    1  C2  UNL     1      -2.060   0.715   1.527  1.00  0.00     0.151 C 
HETATM    2  C3  UNL     1      -3.340   1.344   0.968  1.00  0.00     0.043 C 
HETATM    3  C4  UNL     1      -4.190   0.292   0.240  1.00  0.00     0.016 C 
HETATM    4  C5  UNL     1      -5.650   0.769  -0.071  1.00  0.00     0.018 C 
HETATM    5  C6  UNL     1      -5.761   2.262  -0.440  1.00  0.00     0.023 C 
HETATM    6  C7  UNL     1      -6.546   0.534   1.165  1.00  0.00     0.023 C 
HETATM    7  C8  UNL     1      -6.233  -0.086  -1.203  1.00  0.00     0.135 C 
HETATM    8  O2  UNL     1      -7.139   0.315  -1.934  1.00  0.00    -0.297 OA
HETATM    9  C9  UNL     1      -5.709  -1.494  -1.334  1.00  0.00     0.080 C 
HETATM   10  C10 UNL     1      -4.189  -1.561  -1.462  1.00  0.00     0.021 C 
HETATM   11  C11 UNL     1      -3.412  -0.296  -0.991  1.00  0.00    -0.015 C 
HETATM   12  C12 UNL     1      -3.317   0.707  -2.167  1.00  0.00     0.020 C 
HETATM   13  C13 UNL     1      -1.957  -0.674  -0.595  1.00  0.00    -0.066 C 
HETATM   14  C14 UNL     1      -1.376  -0.225   0.553  1.00  0.00    -0.039 C 
HETATM   15  C15 UNL     1       0.037  -0.694   0.914  1.00  0.00    -0.010 C 
HETATM   16  C16 UNL     1      -0.162  -2.035   1.692  1.00  0.00     0.021 C 
HETATM   17  C17 UNL     1       0.954   0.201   1.773  1.00  0.00     0.015 C 
HETATM   18  C18 UNL     1       2.389  -0.294   1.481  1.00  0.00     0.007 C 
HETATM   19  C19 UNL     1       2.310  -1.150   0.195  1.00  0.00    -0.002 C 
HETATM   20  C28 UNL     1       0.914  -0.799  -0.394  1.00  0.00    -0.029 C 
HETATM   21  C29 UNL     1       0.960   0.538  -1.190  1.00  0.00     0.016 C 
HETATM   22  C30 UNL     1       0.293  -1.875  -1.286  1.00  0.00     0.015 C 
HETATM   23  C31 UNL     1      -1.189  -1.569  -1.588  1.00  0.00     0.036 C 
ENDROOT
BRANCH  19  24
HETATM   24  C20 UNL     1       3.578  -1.242  -0.701  1.00  0.00    -0.014 C 
HETATM   25  C21 UNL     1       4.707  -1.942   0.078  1.00  0.00     0.010 C 
BRANCH  24  26
HETATM   26  C22 UNL     1       4.121  -0.019  -1.477  1.00  0.00     0.008 C 
BRANCH  26  27
HETATM   27  C23 UNL     1       4.566   1.255  -0.752  1.00  0.00     0.028 C 
BRANCH  27  28
HETATM   28  C24 UNL     1       5.737   1.095   0.173  1.00  0.00    -0.013 C 
HETATM   29  C25 UNL     1       7.043   1.216  -0.141  1.00  0.00     0.008 C 
HETATM   30  C26 UNL     1       7.592   1.495  -1.507  1.00  0.00     0.055 C 
BRANCH  29  31
HETATM   31  C27 UNL     1       8.011   1.032   0.970  1.00  0.00     0.171 C 
HETATM   32  O3  UNL     1       7.752   0.728   2.121  1.00  0.00    -0.646 OA
BRANCH  31  33
HETATM   33  O4  UNL     1       9.280   1.245   0.584  1.00  0.00    -0.773 OA
HETATM   34  H41 UNL     1       9.794   1.092   1.403  1.00  0.00     0.167 HD
ENDBRANCH  31  33
ENDBRANCH  29  31
ENDBRANCH  27  28
ENDBRANCH  26  27
ENDBRANCH  24  26
ENDBRANCH  19  24
BRANCH   1  35
HETATM   35  O1  UNL     1      -2.385  -0.041   2.699  1.00  0.00    -0.386 OA
HETATM   36  C1  UNL     1      -2.305   0.720   3.896  1.00  0.00     0.202 C 
ENDBRANCH   1  35
TORSDOF 7
