REMARK  8 active torsions:
REMARK  status: ('A' for Active; 'I' for Inactive)
REMARK    1  A    between atoms: C3_3  and  O1_4 
REMARK    2  A    between atoms: N1_14  and  O2_16 
REMARK    3  A    between atoms: O2_16  and  C13_17 
REMARK    4  A    between atoms: C13_17  and  C14_18 
REMARK       I    between atoms: C14_18  and  N2_20 
REMARK    5  A    between atoms: N2_20  and  C15_21 
REMARK    6  A    between atoms: C15_21  and  C16_22 
REMARK    7  A    between atoms: C16_22  and  O4_23 
REMARK    8  A    between atoms: C16_22  and  C17_24 
ROOT
HETATM    1  C1  UNL     1      -6.960   4.346   1.921  1.00  0.00     0.015 C 
HETATM    2  C2  UNL     1      -6.295   3.350   2.018  1.00  0.00    -0.078 C 
HETATM    3  C3  UNL     1      -5.474   2.137   2.151  1.00  0.00     0.128 C 
HETATM    4  C4  UNL     1      -6.113   1.107   3.090  1.00  0.00     0.052 C 
HETATM    5  C5  UNL     1      -5.285  -0.142   2.822  1.00  0.00     0.010 C 
HETATM    6  C6  UNL     1      -5.103  -0.152   1.299  1.00  0.00     0.002 C 
HETATM    7  C7  UNL     1      -3.895  -0.943   0.752  1.00  0.00    -0.004 C 
HETATM    8  C8  UNL     1      -2.553  -0.763   1.481  1.00  0.00     0.010 C 
HETATM    9  C9  UNL     1      -1.465  -1.653   0.878  1.00  0.00     0.035 C 
HETATM   10  C10 UNL     1      -1.342  -1.558  -0.628  1.00  0.00    -0.069 C 
HETATM   11  C11 UNL     1      -0.121  -1.515  -1.192  1.00  0.00     0.030 C 
HETATM   12  C12 UNL     1       0.072  -1.619  -2.667  1.00  0.00     0.032 C 
HETATM   13  N1  UNL     1       1.216  -1.637  -3.284  1.00  0.00    -0.271 N 
ATOM     14  H1  UNL     1       1.314  -1.744  -4.294  1.00  0.00     0.194 HD
HETATM   15  C23 UNL     1      -1.162  -1.817  -3.527  1.00  0.00     0.060 C 
HETATM   16  C24 UNL     1      -2.388  -1.162  -2.904  1.00  0.00     0.020 C 
HETATM   17  C25 UNL     1      -2.642  -1.598  -1.431  1.00  0.00    -0.016 C 
HETATM   18  C26 UNL     1      -3.159  -3.065  -1.452  1.00  0.00     0.020 C 
HETATM   19  C27 UNL     1      -3.731  -0.668  -0.766  1.00  0.00     0.002 C 
HETATM   20  C28 UNL     1      -3.505   0.843  -1.035  1.00  0.00     0.007 C 
HETATM   21  C29 UNL     1      -4.014   1.810   0.038  1.00  0.00     0.014 C 
HETATM   22  C30 UNL     1      -5.248   1.331   0.821  1.00  0.00     0.003 C 
HETATM   23  C31 UNL     1      -6.485   1.407  -0.118  1.00  0.00     0.020 C 
ENDROOT
BRANCH   3  24
HETATM   24  O1  UNL     1      -4.223   2.514   2.734  1.00  0.00    -0.377 OA
HETATM   25  H2  UNL     1      -4.424   3.084   3.498  1.00  0.00     0.211 HD
ENDBRANCH   3  24
BRANCH  13  26
HETATM   26  O2  UNL     1       2.302  -1.492  -2.406  1.00  0.00    -0.271 OA
BRANCH  26  27
HETATM   27  C13 UNL     1       3.426  -2.164  -2.969  1.00  0.00     0.303 C 
BRANCH  27  28
HETATM   28  C14 UNL     1       4.698  -1.813  -2.211  1.00  0.00     0.243 C 
HETATM   29  O3  UNL     1       5.533  -2.664  -1.906  1.00  0.00    -0.271 OA
HETATM   30  N2  UNL     1       4.863  -0.460  -1.980  1.00  0.00    -0.356 N 
HETATM   31  H16 UNL     1       4.035   0.118  -2.068  1.00  0.00     0.162 HD
BRANCH  30  32
HETATM   32  C15 UNL     1       6.018   0.055  -1.258  1.00  0.00     0.159 C 
BRANCH  32  33
HETATM   33  C16 UNL     1       5.708   0.477   0.197  1.00  0.00     0.170 C 
BRANCH  33  34
HETATM   34  O4  UNL     1       5.007  -0.559   0.896  1.00  0.00    -0.389 OA
HETATM   35  H20 UNL     1       5.221  -0.480   1.842  1.00  0.00     0.210 HD
ENDBRANCH  33  34
BRANCH  33  36
HETATM   36  C17 UNL     1       6.977   0.849   0.925  1.00  0.00    -0.013 A 
HETATM   37  C18 UNL     1       7.864  -0.123   1.403  1.00  0.00     0.013 A 
HETATM   38  C19 UNL     1       9.045   0.264   2.034  1.00  0.00     0.025 A 
HETATM   39  C20 UNL     1       9.320   1.621   2.167  1.00  0.00     0.005 A 
HETATM   40  C21 UNL     1      10.572   2.070   2.856  1.00  0.00     0.068 C 
HETATM   41  N3  UNL     1       8.481   2.583   1.712  1.00  0.00    -0.369 N 
HETATM   42  C22 UNL     1       7.340   2.180   1.104  1.00  0.00     0.097 A 
ATOM     43  H3  UNL     1       8.701   3.573   1.823  1.00  0.00     0.165 HD
ENDBRANCH  33  36
ENDBRANCH  32  33
ENDBRANCH  30  32
ENDBRANCH  27  28
ENDBRANCH  26  27
ENDBRANCH  13  26
TORSDOF 8
