REMARK  13 active torsions:
REMARK  status: ('A' for Active; 'I' for Inactive)
REMARK    1  A    between atoms: O1_2  and  C2_3 
REMARK    2  A    between atoms: C12_14  and  C13_15 
REMARK    3  A    between atoms: C13_15  and  C15_17 
REMARK    4  A    between atoms: C15_17  and  C16_18 
REMARK    5  A    between atoms: C17_19  and  C18_20 
REMARK    6  A    between atoms: C18_20  and  O3_23 
REMARK    7  A    between atoms: C29_32  and  O4_33 
REMARK    8  A    between atoms: O4_33  and  C30_34 
REMARK    9  A    between atoms: C31_36  and  C32_37 
REMARK   10  A    between atoms: C32_37  and  O6_38 
REMARK   11  A    between atoms: C33_39  and  O7_40 
REMARK   12  A    between atoms: C34_41  and  O8_42 
REMARK   13  A    between atoms: C35_43  and  O9_44 
ROOT
HETATM    1  C2  UNL     1      -1.275  -3.367   0.683  1.00  0.00     0.270 C 
HETATM    2  O2  UNL     1      -2.448  -2.905   1.408  1.00  0.00    -0.344 OA
HETATM    3  C3  UNL     1      -2.723  -1.538   1.001  1.00  0.00     0.095 C 
HETATM    4  C4  UNL     1      -2.163  -0.620   2.099  1.00  0.00     0.008 C 
HETATM    5  C5  UNL     1      -0.834  -0.515   2.310  1.00  0.00    -0.021 C 
HETATM    6  C6  UNL     1       0.090  -1.484   1.612  1.00  0.00     0.030 C 
HETATM    7  C7  UNL     1      -0.519  -2.055   0.255  1.00  0.00     0.024 C 
HETATM    8  C8  UNL     1       0.459  -2.236  -0.939  1.00  0.00     0.016 C 
HETATM    9  C9  UNL     1       1.966  -2.048  -0.710  1.00  0.00     0.011 C 
HETATM   10  C10 UNL     1       2.291  -0.929   0.288  1.00  0.00    -0.032 C 
HETATM   11  C11 UNL     1       1.791   0.426  -0.263  1.00  0.00     0.016 C 
HETATM   12  C12 UNL     1       3.796  -0.762   0.683  1.00  0.00    -0.002 C 
HETATM   13  C22 UNL     1       3.697  -0.111   2.101  1.00  0.00     0.006 C 
HETATM   14  C23 UNL     1       2.246  -0.278   2.596  1.00  0.00     0.011 C 
HETATM   15  C24 UNL     1       1.646  -1.334   1.659  1.00  0.00    -0.029 C 
HETATM   16  C25 UNL     1       2.173  -2.727   2.198  1.00  0.00     0.016 C 
HETATM   17  C26 UNL     1      -1.816  -1.320  -0.214  1.00  0.00     0.039 C 
HETATM   18  C27 UNL     1      -1.846   0.143  -0.676  1.00  0.00     0.011 C 
HETATM   19  C28 UNL     1      -3.268   0.730  -0.624  1.00  0.00     0.033 C 
HETATM   20  C29 UNL     1      -4.356  -0.350  -0.623  1.00  0.00     0.136 C 
HETATM   21  C36 UNL     1      -4.236  -1.333   0.603  1.00  0.00     0.014 C 
HETATM   22  C37 UNL     1      -5.101  -0.860   1.797  1.00  0.00     0.021 C 
HETATM   23  C38 UNL     1      -4.871  -2.676   0.153  1.00  0.00     0.021 C 
ENDROOT
BRANCH  20  24
HETATM   24  O4  UNL     1      -5.669   0.222  -0.644  1.00  0.00    -0.352 OA
BRANCH  24  25
HETATM   25  C30 UNL     1      -6.091   0.695  -1.921  1.00  0.00     0.292 C 
HETATM   26  O5  UNL     1      -5.860   2.097  -2.070  1.00  0.00    -0.348 OA
HETATM   27  C31 UNL     1      -6.700   2.954  -1.289  1.00  0.00     0.179 C 
HETATM   28  C33 UNL     1      -8.196   2.657  -1.519  1.00  0.00     0.180 C 
HETATM   29  C34 UNL     1      -8.534   1.170  -1.336  1.00  0.00     0.183 C 
HETATM   30  C35 UNL     1      -7.567   0.303  -2.158  1.00  0.00     0.204 C 
BRANCH  27  31
HETATM   31  C32 UNL     1      -6.287   3.004   0.190  1.00  0.00     0.198 C 
BRANCH  31  32
HETATM   32  O6  UNL     1      -6.839   4.155   0.829  1.00  0.00    -0.398 OA
HETATM   33  H50 UNL     1      -6.310   4.922   0.543  1.00  0.00     0.209 HD
ENDBRANCH  31  32
ENDBRANCH  27  31
BRANCH  28  34
HETATM   34  O7  UNL     1      -8.521   3.006  -2.884  1.00  0.00    -0.390 OA
HETATM   35  H52 UNL     1      -8.479   3.979  -2.943  1.00  0.00     0.210 HD
ENDBRANCH  28  34
BRANCH  29  36
HETATM   36  O8  UNL     1      -8.550   0.827   0.049  1.00  0.00    -0.390 OA
HETATM   37  H54 UNL     1      -8.490  -0.141   0.126  1.00  0.00     0.210 HD
ENDBRANCH  29  36
BRANCH  30  38
HETATM   38  O9  UNL     1      -7.888   0.402  -3.557  1.00  0.00    -0.388 OA
HETATM   39  H56 UNL     1      -7.982   1.361  -3.753  1.00  0.00     0.210 HD
ENDBRANCH  30  38
ENDBRANCH  24  25
ENDBRANCH  20  24
BRANCH   1  40
HETATM   40  O1  UNL     1      -1.661  -4.150  -0.449  1.00  0.00    -0.365 OA
HETATM   41  C1  UNL     1      -2.229  -5.394  -0.062  1.00  0.00     0.204 C 
ENDBRANCH   1  40
BRANCH  12  42
HETATM   42  C13 UNL     1       4.802  -0.002  -0.243  1.00  0.00    -0.010 C 
HETATM   43  C14 UNL     1       4.824  -0.572  -1.666  1.00  0.00     0.010 C 
BRANCH  42  44
HETATM   44  C15 UNL     1       6.224  -0.078   0.387  1.00  0.00     0.031 C 
BRANCH  44  45
HETATM   45  C16 UNL     1       7.314   0.638  -0.367  1.00  0.00    -0.027 C 
HETATM   46  C17 UNL     1       7.967   1.718   0.097  1.00  0.00     0.006 C 
BRANCH  46  47
HETATM   47  C18 UNL     1       9.122   2.463  -0.556  1.00  0.00     0.070 C 
HETATM   48  C19 UNL     1      10.374   2.372   0.335  1.00  0.00     0.050 C 
HETATM   49  C20 UNL     1       9.493   1.915  -1.945  1.00  0.00     0.050 C 
BRANCH  47  50
HETATM   50  O3  UNL     1       8.708   3.816  -0.809  1.00  0.00    -0.382 OA
HETATM   51  C21 UNL     1       8.704   4.710   0.290  1.00  0.00     0.202 C 
ENDBRANCH  47  50
ENDBRANCH  46  47
ENDBRANCH  44  45
ENDBRANCH  42  44
ENDBRANCH  12  42
TORSDOF 13
