REMARK  13 active torsions:
REMARK  status: ('A' for Active; 'I' for Inactive)
REMARK    1  A    between atoms: O1_2  and  C2_3 
REMARK    2  A    between atoms: C12_14  and  C13_15 
REMARK    3  A    between atoms: C13_15  and  C15_17 
REMARK    4  A    between atoms: C15_17  and  C16_18 
REMARK    5  A    between atoms: C17_19  and  C18_20 
REMARK    6  A    between atoms: C18_20  and  O3_23 
REMARK    7  A    between atoms: C29_32  and  O4_33 
REMARK    8  A    between atoms: O4_33  and  C30_34 
REMARK    9  A    between atoms: C31_36  and  C32_37 
REMARK   10  A    between atoms: C32_37  and  O6_38 
REMARK   11  A    between atoms: C33_39  and  O7_40 
REMARK   12  A    between atoms: C34_41  and  O8_42 
REMARK   13  A    between atoms: C35_43  and  O9_44 
ROOT
HETATM    1  C2  UNL     1      -1.656   1.726   0.725  1.00  0.00     0.270 C 
HETATM    2  O2  UNL     1      -2.650   1.275   1.671  1.00  0.00    -0.344 OA
HETATM    3  C3  UNL     1      -2.365  -0.102   1.994  1.00  0.00     0.095 C 
HETATM    4  C4  UNL     1      -1.411  -0.005   3.182  1.00  0.00     0.008 C 
HETATM    5  C5  UNL     1      -0.109   0.279   3.023  1.00  0.00    -0.021 C 
HETATM    6  C6  UNL     1       0.482   0.560   1.656  1.00  0.00     0.030 C 
HETATM    7  C7  UNL     1      -0.630   0.554   0.518  1.00  0.00     0.024 C 
HETATM    8  C8  UNL     1      -0.000   0.670  -0.894  1.00  0.00     0.016 C 
HETATM    9  C9  UNL     1       1.272  -0.154  -1.156  1.00  0.00     0.011 C 
HETATM   10  C10 UNL     1       2.337   0.081  -0.071  1.00  0.00    -0.032 C 
HETATM   11  C11 UNL     1       2.766   1.582  -0.134  1.00  0.00     0.016 C 
HETATM   12  C12 UNL     1       3.625  -0.801  -0.095  1.00  0.00    -0.002 C 
HETATM   13  C22 UNL     1       4.120  -0.683   1.384  1.00  0.00     0.006 C 
HETATM   14  C23 UNL     1       2.930  -0.197   2.239  1.00  0.00     0.011 C 
HETATM   15  C24 UNL     1       1.709  -0.353   1.314  1.00  0.00    -0.029 C 
HETATM   16  C25 UNL     1       1.328  -1.873   1.387  1.00  0.00     0.016 C 
HETATM   17  C26 UNL     1      -1.610  -0.625   0.747  1.00  0.00     0.039 C 
HETATM   18  C27 UNL     1      -2.511  -0.942  -0.459  1.00  0.00     0.011 C 
HETATM   19  C28 UNL     1      -3.701  -1.804  -0.076  1.00  0.00     0.033 C 
HETATM   20  C29 UNL     1      -4.524  -1.139   1.031  1.00  0.00     0.136 C 
HETATM   21  C36 UNL     1      -3.676  -0.900   2.323  1.00  0.00     0.014 C 
HETATM   22  C37 UNL     1      -4.558  -0.131   3.340  1.00  0.00     0.021 C 
HETATM   23  C38 UNL     1      -3.337  -2.279   2.946  1.00  0.00     0.021 C 
ENDROOT
BRANCH  20  24
HETATM   24  O4  UNL     1      -5.015   0.118   0.542  1.00  0.00    -0.352 OA
BRANCH  24  25
HETATM   25  C30 UNL     1      -6.376   0.070   0.096  1.00  0.00     0.292 C 
HETATM   26  O5  UNL     1      -6.505  -0.738  -1.066  1.00  0.00    -0.348 OA
HETATM   27  C31 UNL     1      -7.866  -0.844  -1.499  1.00  0.00     0.179 C 
HETATM   28  C33 UNL     1      -8.461   0.539  -1.832  1.00  0.00     0.180 C 
HETATM   29  C34 UNL     1      -8.215   1.562  -0.722  1.00  0.00     0.183 C 
HETATM   30  C35 UNL     1      -6.768   1.518  -0.238  1.00  0.00     0.204 C 
BRANCH  27  31
HETATM   31  C32 UNL     1      -7.901  -1.754  -2.742  1.00  0.00     0.198 C 
BRANCH  31  32
HETATM   32  O6  UNL     1      -9.213  -2.038  -3.203  1.00  0.00    -0.398 OA
HETATM   33  H50 UNL     1      -9.807  -1.314  -2.898  1.00  0.00     0.209 HD
ENDBRANCH  31  32
ENDBRANCH  27  31
BRANCH  28  34
HETATM   34  O7  UNL     1      -9.871   0.411  -2.057  1.00  0.00    -0.390 OA
HETATM   35  H52 UNL     1     -10.289   0.644  -1.203  1.00  0.00     0.210 HD
ENDBRANCH  28  34
BRANCH  29  36
HETATM   36  O8  UNL     1      -9.104   1.277   0.375  1.00  0.00    -0.390 OA
HETATM   37  H54 UNL     1      -8.798   1.869   1.096  1.00  0.00     0.210 HD
ENDBRANCH  29  36
BRANCH  30  38
HETATM   38  O9  UNL     1      -6.637   2.364   0.913  1.00  0.00    -0.388 OA
HETATM   39  H56 UNL     1      -5.727   2.201   1.246  1.00  0.00     0.210 HD
ENDBRANCH  30  38
ENDBRANCH  24  25
ENDBRANCH  20  24
BRANCH   1  40
HETATM   40  O1  UNL     1      -1.009   2.925   1.138  1.00  0.00    -0.365 OA
HETATM   41  C1  UNL     1      -1.928   3.982   1.347  1.00  0.00     0.204 C 
ENDBRANCH   1  40
BRANCH  12  42
HETATM   42  C13 UNL     1       4.763  -0.506  -1.117  1.00  0.00    -0.010 C 
HETATM   43  C14 UNL     1       4.268  -0.579  -2.570  1.00  0.00     0.010 C 
BRANCH  42  44
HETATM   44  C15 UNL     1       5.944  -1.491  -0.902  1.00  0.00     0.031 C 
BRANCH  44  45
HETATM   45  C16 UNL     1       7.158  -1.151  -1.727  1.00  0.00    -0.027 C 
HETATM   46  C17 UNL     1       8.156  -0.375  -1.269  1.00  0.00     0.006 C 
BRANCH  46  47
HETATM   47  C18 UNL     1       9.411   0.070  -2.002  1.00  0.00     0.070 C 
HETATM   48  C19 UNL     1      10.656  -0.290  -1.171  1.00  0.00     0.050 C 
HETATM   49  C20 UNL     1       9.567  -0.576  -3.391  1.00  0.00     0.050 C 
BRANCH  47  50
HETATM   50  O3  UNL     1       9.329   1.484  -2.267  1.00  0.00    -0.382 OA
HETATM   51  C21 UNL     1       9.402   2.361  -1.152  1.00  0.00     0.202 C 
ENDBRANCH  47  50
ENDBRANCH  46  47
ENDBRANCH  44  45
ENDBRANCH  42  44
ENDBRANCH  12  42
TORSDOF 13
