REMARK  3 active torsions:
REMARK  status: ('A' for Active; 'I' for Inactive)
REMARK    1  A    between atoms: C2_2  and  O1_3 
REMARK    2  A    between atoms: O1_3  and  C3_4 
REMARK    3  A    between atoms: C3_4  and  C4_6 
ROOT
HETATM    1  C4  UNL     1       4.647   0.704  -0.824  1.00  0.00     0.045 C 
HETATM    2  C5  UNL     1       5.380   1.225  -2.073  1.00  0.00     0.026 C 
HETATM    3  C6  UNL     1       5.129  -0.721  -0.450  1.00  0.00     0.020 C 
HETATM    4  C7  UNL     1       4.237  -1.820  -1.028  1.00  0.00     0.011 C 
HETATM    5  C8  UNL     1       2.776  -1.746  -0.497  1.00  0.00    -0.036 C 
HETATM    6  C9  UNL     1       2.684  -2.561   0.820  1.00  0.00     0.016 C 
HETATM    7  C10 UNL     1       1.849  -2.410  -1.544  1.00  0.00     0.011 C 
HETATM    8  C11 UNL     1       0.347  -2.152  -1.331  1.00  0.00     0.015 C 
HETATM    9  C12 UNL     1      -0.048  -0.645  -1.224  1.00  0.00    -0.013 C 
HETATM   10  C13 UNL     1       0.277   0.053  -2.575  1.00  0.00     0.021 C 
HETATM   11  C14 UNL     1       0.855  -0.088  -0.120  1.00  0.00    -0.070 C 
HETATM   12  C15 UNL     1       0.357   0.396   1.027  1.00  0.00    -0.022 C 
HETATM   13  C16 UNL     1      -1.072   0.353   1.429  1.00  0.00     0.033 C 
HETATM   14  C17 UNL     1      -1.977  -0.622   0.611  1.00  0.00     0.007 C 
HETATM   15  C18 UNL     1      -3.516  -0.424   1.046  1.00  0.00    -0.034 C 
HETATM   16  C19 UNL     1      -3.521  -0.383   2.618  1.00  0.00     0.016 C 
HETATM   17  C20 UNL     1      -4.402  -1.656   0.683  1.00  0.00     0.017 C 
HETATM   18  C21 UNL     1      -5.653  -1.455  -0.172  1.00  0.00     0.080 C 
HETATM   19  C22 UNL     1      -6.299  -0.089  -0.208  1.00  0.00     0.135 C 
HETATM   20  O3  UNL     1      -7.339   0.071  -0.853  1.00  0.00    -0.297 OA
HETATM   21  C23 UNL     1      -5.663   1.054   0.573  1.00  0.00     0.017 C 
HETATM   22  C24 UNL     1      -6.233   0.988   2.001  1.00  0.00     0.023 C 
HETATM   23  C25 UNL     1      -6.129   2.407  -0.019  1.00  0.00     0.023 C 
HETATM   24  C26 UNL     1      -4.096   0.919   0.475  1.00  0.00     0.009 C 
HETATM   25  C27 UNL     1      -3.628   1.217  -0.977  1.00  0.00     0.007 C 
HETATM   26  C28 UNL     1      -2.157   0.958  -1.307  1.00  0.00     0.011 C 
HETATM   27  C29 UNL     1      -1.654  -0.459  -0.920  1.00  0.00    -0.028 C 
HETATM   28  C30 UNL     1      -2.422  -1.488  -1.789  1.00  0.00     0.016 C 
HETATM   29  C31 UNL     1       2.372  -0.268  -0.205  1.00  0.00     0.024 C 
HETATM   30  C32 UNL     1       3.116   0.725  -1.113  1.00  0.00     0.029 C 
ENDROOT
BRANCH   1  31
HETATM   31  C3  UNL     1       4.977   1.653   0.338  1.00  0.00     0.267 C 
HETATM   32  O2  UNL     1       4.173   2.370   0.918  1.00  0.00    -0.264 OA
BRANCH  31  33
HETATM   33  O1  UNL     1       6.304   1.581   0.648  1.00  0.00    -0.321 OA
BRANCH  33  34
HETATM   34  C2  UNL     1       6.694   2.366   1.781  1.00  0.00     0.174 C 
HETATM   35  C1  UNL     1       8.186   2.191   1.989  1.00  0.00     0.034 C 
ENDBRANCH  33  34
ENDBRANCH  31  33
ENDBRANCH   1  31
TORSDOF 3
