REMARK  8 active torsions:
REMARK  status: ('A' for Active; 'I' for Inactive)
REMARK    1  A    between atoms: C4_4  and  C5_5 
REMARK    2  A    between atoms: C5_5  and  C6_6 
REMARK    3  A    between atoms: C6_6  and  C7_7 
REMARK    4  A    between atoms: C7_7  and  C9_9 
REMARK    5  A    between atoms: C22_22  and  O1_23 
REMARK    6  A    between atoms: C24_25  and  O2_26 
REMARK    7  A    between atoms: C25_27  and  C27_29 
REMARK    8  A    between atoms: C27_29  and  O4_31 
ROOT
HETATM    1  C9  UNL     1       2.470  -0.225   1.283  1.00  0.00    -0.002 C 
HETATM    2  C10 UNL     1       2.317   0.779   2.451  1.00  0.00     0.007 C 
HETATM    3  C11 UNL     1       0.807   1.091   2.570  1.00  0.00     0.015 C 
HETATM    4  C12 UNL     1       0.095   0.023   1.707  1.00  0.00    -0.005 C 
HETATM    5  C13 UNL     1      -0.056  -1.248   2.600  1.00  0.00     0.021 C 
HETATM    6  C14 UNL     1      -1.301   0.259   1.144  1.00  0.00    -0.000 C 
HETATM    7  C15 UNL     1      -1.706  -0.339  -0.010  1.00  0.00    -0.058 C 
HETATM    8  C16 UNL     1      -0.726  -1.213  -0.815  1.00  0.00     0.036 C 
HETATM    9  C17 UNL     1       0.735  -1.309  -0.325  1.00  0.00     0.015 C 
HETATM   10  C18 UNL     1       1.122  -0.094   0.519  1.00  0.00    -0.028 C 
HETATM   11  C19 UNL     1       1.134   1.155  -0.412  1.00  0.00     0.016 C 
HETATM   12  C20 UNL     1      -3.135  -0.149  -0.624  1.00  0.00     0.011 C 
HETATM   13  C21 UNL     1      -2.993   0.942  -1.714  1.00  0.00     0.023 C 
HETATM   14  C22 UNL     1      -3.690  -1.473  -1.270  1.00  0.00     0.133 C 
HETATM   15  C23 UNL     1      -5.169  -1.403  -1.643  1.00  0.00     0.065 C 
HETATM   16  C24 UNL     1      -6.041  -1.001  -0.466  1.00  0.00     0.139 C 
HETATM   17  C25 UNL     1      -5.640   0.361   0.159  1.00  0.00     0.072 C 
HETATM   18  C26 UNL     1      -6.521   0.581   1.412  1.00  0.00     0.030 C 
HETATM   19  C28 UNL     1      -4.117   0.265   0.541  1.00  0.00     0.029 C 
HETATM   20  C29 UNL     1      -3.570   1.472   1.311  1.00  0.00     0.090 C 
HETATM   21  C30 UNL     1      -2.236   1.131   1.921  1.00  0.00     0.157 C 
HETATM   22  O5  UNL     1      -1.928   1.579   3.023  1.00  0.00    -0.293 OA
ENDROOT
BRANCH   1  23
HETATM   23  C7  UNL     1       3.805  -0.165   0.481  1.00  0.00    -0.014 C 
HETATM   24  C8  UNL     1       4.855  -0.994   1.247  1.00  0.00     0.010 C 
BRANCH  23  25
HETATM   25  C6  UNL     1       4.360   1.255   0.209  1.00  0.00     0.008 C 
BRANCH  25  26
HETATM   26  C5  UNL     1       5.132   1.392  -1.115  1.00  0.00     0.028 C 
BRANCH  26  27
HETATM   27  C4  UNL     1       6.507   0.786  -1.094  1.00  0.00    -0.025 C 
HETATM   28  C2  UNL     1       6.975  -0.247  -1.822  1.00  0.00    -0.091 C 
HETATM   29  C1  UNL     1       8.403  -0.703  -1.667  1.00  0.00     0.042 C 
HETATM   30  C3  UNL     1       6.178  -1.048  -2.814  1.00  0.00     0.042 C 
ENDBRANCH  26  27
ENDBRANCH  25  26
ENDBRANCH  23  25
ENDBRANCH   1  23
BRANCH  14  31
HETATM   31  O1  UNL     1      -2.989  -1.801  -2.473  1.00  0.00    -0.394 OA
HETATM   32  H35 UNL     1      -3.300  -2.675  -2.770  1.00  0.00     0.210 HD
ENDBRANCH  14  31
BRANCH  17  33
HETATM   33  C27 UNL     1      -5.934   1.564  -0.737  1.00  0.00     0.151 C 
HETATM   34  O3  UNL     1      -5.522   2.700  -0.574  1.00  0.00    -0.649 OA
BRANCH  33  35
HETATM   35  O4  UNL     1      -6.773   1.318  -1.763  1.00  0.00    -0.776 OA
HETATM   36  H43 UNL     1      -6.872   2.199  -2.190  1.00  0.00     0.167 HD
ENDBRANCH  33  35
ENDBRANCH  17  33
BRANCH  16  37
HETATM   37  O2  UNL     1      -7.413  -1.060  -0.853  1.00  0.00    -0.394 OA
HETATM   38  H39 UNL     1      -7.556  -0.341  -1.502  1.00  0.00     0.210 HD
ENDBRANCH  16  37
TORSDOF 8
