REMARK  10 active torsions:
REMARK  status: ('A' for Active; 'I' for Inactive)
REMARK    1  A    between atoms: O1_2  and  C2_3 
REMARK    2  A    between atoms: C11_15  and  O3_16 
REMARK    3  A    between atoms: O3_16  and  C12_17 
REMARK    4  A    between atoms: C12_17  and  C13_19 
REMARK    5  A    between atoms: C13_19  and  C14_20 
REMARK    6  A    between atoms: C24_31  and  O6_32 
REMARK    7  A    between atoms: C25_35  and  O7_36 
REMARK    8  A    between atoms: C26_38  and  O9_39 
REMARK    9  A    between atoms: C31_44  and  C32_45 
REMARK   10  A    between atoms: C32_45  and  O10_46 
ROOT
HETATM    1  C2  UNL     1      -1.753  -4.964  -1.619  1.00  0.00     0.092 A 
HETATM    2  C3  UNL     1      -2.846  -4.164  -1.269  1.00  0.00     0.046 A 
HETATM    3  C4  UNL     1      -2.671  -2.814  -0.928  1.00  0.00    -0.049 A 
HETATM    4  C5  UNL     1      -1.378  -2.268  -0.930  1.00  0.00     0.039 A 
HETATM    5  C6  UNL     1      -0.262  -3.054  -1.249  1.00  0.00     0.061 A 
HETATM    6  C7  UNL     1      -0.459  -4.404  -1.611  1.00  0.00     0.094 A 
HETATM    7 CL1  UNL     1       0.877  -5.378  -2.169  1.00  0.00    -0.079 Cl
HETATM    8  N1  UNL     1       1.043  -2.458  -1.179  1.00  0.00    -0.321 N 
HETATM    9  C8  UNL     1       1.974  -3.066  -0.236  1.00  0.00     0.159 C 
HETATM   10  C9  UNL     1       1.301  -1.292  -1.901  1.00  0.00     0.226 C 
HETATM   11  O2  UNL     1       0.448  -0.763  -2.624  1.00  0.00    -0.273 OA
HETATM   12  C10 UNL     1       2.720  -0.728  -1.924  1.00  0.00     0.139 C 
HETATM   13  C11 UNL     1       3.160   0.271  -0.852  1.00  0.00     0.177 C 
HETATM   14  C17 UNL     1       2.353   1.548  -0.628  1.00  0.00     0.111 A 
HETATM   15  C18 UNL     1       2.975   2.510   0.348  1.00  0.00     0.051 C 
HETATM   16  O5  UNL     1       0.950   1.362  -0.424  1.00  0.00    -0.366 OA
HETATM   17  C19 UNL     1       1.306   2.017  -1.648  1.00  0.00     0.165 A 
HETATM   18  C20 UNL     1       0.817   3.427  -1.864  1.00  0.00     0.043 C 
HETATM   19  C21 UNL     1       1.994   4.343  -2.235  1.00  0.00     0.015 C 
HETATM   20  C22 UNL     1      -0.101   4.055  -0.786  1.00  0.00     0.143 C 
HETATM   21  C23 UNL     1      -1.408   3.290  -0.579  1.00  0.00     0.097 C 
HETATM   22  C24 UNL     1      -2.343   4.143   0.283  1.00  0.00     0.166 C 
HETATM   23  N2  UNL     1      -2.592   5.423  -0.384  1.00  0.00    -0.316 N 
ATOM     24  H2  UNL     1      -3.500   5.886  -0.350  1.00  0.00     0.166 HD
HETATM   25  C25 UNL     1      -1.599   5.920  -1.010  1.00  0.00     0.260 C 
HETATM   26  O8  UNL     1      -0.383   5.406  -1.225  1.00  0.00    -0.311 OA
HETATM   27  C26 UNL     1      -3.740   3.435   0.470  1.00  0.00     0.199 C 
HETATM   28  C28 UNL     1      -3.664   2.111   1.188  1.00  0.00     0.010 C 
HETATM   29  C29 UNL     1      -3.878   0.912   0.623  1.00  0.00    -0.001 C 
HETATM   30  C30 UNL     1      -3.837  -0.311   1.395  1.00  0.00     0.005 C 
HETATM   31  C31 UNL     1      -3.865  -1.578   0.931  1.00  0.00    -0.052 C 
HETATM   32  C33 UNL     1      -3.861  -1.961  -0.539  1.00  0.00     0.075 C 
ENDROOT
BRANCH  13  33
HETATM   33  O3  UNL     1       3.348  -0.380   0.423  1.00  0.00    -0.312 OA
BRANCH  33  34
HETATM   34  C12 UNL     1       4.588  -0.891   0.668  1.00  0.00     0.259 C 
HETATM   35  O4  UNL     1       5.498  -0.927  -0.145  1.00  0.00    -0.265 OA
BRANCH  34  36
HETATM   36  C13 UNL     1       4.649  -1.408   2.089  1.00  0.00     0.115 C 
BRANCH  36  37
HETATM   37  C14 UNL     1       6.048  -1.894   2.499  1.00  0.00    -0.013 C 
HETATM   38  C15 UNL     1       6.379  -3.254   1.876  1.00  0.00     0.010 C 
HETATM   39  C16 UNL     1       6.141  -1.995   4.024  1.00  0.00     0.010 C 
ENDBRANCH  36  37
ENDBRANCH  34  36
ENDBRANCH  33  34
ENDBRANCH  13  33
BRANCH   1  40
HETATM   40  O1  UNL     1      -1.851  -6.286  -1.974  1.00  0.00    -0.354 OA
HETATM   41  C1  UNL     1      -3.149  -6.853  -2.089  1.00  0.00     0.210 C 
ENDBRANCH   1  40
BRANCH  22  42
HETATM   42  O6  UNL     1      -1.763   4.329   1.577  1.00  0.00    -0.368 OA
HETATM   43  H32 UNL     1      -2.469   4.789   2.071  1.00  0.00     0.212 HD
ENDBRANCH  22  42
BRANCH  25  44
HETATM   44  O7  UNL     1      -1.724   7.121  -1.587  1.00  0.00    -0.327 OA
HETATM   45  H33 UNL     1      -2.613   7.442  -1.373  1.00  0.00     0.221 HD
ENDBRANCH  25  44
BRANCH  27  46
HETATM   46  O9  UNL     1      -4.555   4.275   1.322  1.00  0.00    -0.382 OA
HETATM   47  C27 UNL     1      -5.830   4.538   0.753  1.00  0.00     0.202 C 
ENDBRANCH  27  46
BRANCH  31  48
HETATM   48  C32 UNL     1      -3.887  -2.768   1.872  1.00  0.00     0.198 C 
BRANCH  48  49
HETATM   49  O10 UNL     1      -4.331  -2.415   3.176  1.00  0.00    -0.397 OA
HETATM   50  H43 UNL     1      -5.209  -2.009   3.071  1.00  0.00     0.209 HD
ENDBRANCH  48  49
ENDBRANCH  31  48
TORSDOF 10
