REMARK  9 active torsions:
REMARK  status: ('A' for Active; 'I' for Inactive)
REMARK    1  A    between atoms: C2_2  and  C3_3 
REMARK    2  A    between atoms: C3_3  and  C5_5 
REMARK    3  A    between atoms: C5_5  and  C6_6 
REMARK    4  A    between atoms: C6_6  and  O2_8 
REMARK    5  A    between atoms: O2_8  and  C7_9 
REMARK    6  A    between atoms: C7_9  and  C8_10 
REMARK    7  A    between atoms: C20_22  and  O3_23 
REMARK    8  A    between atoms: C20_22  and  C21_24 
REMARK    9  A    between atoms: C21_24  and  O4_25 
ROOT
HETATM    1  C8  UNL     1       1.109  -0.432  -0.296  1.00  0.00    -0.018 C 
HETATM    2  C9  UNL     1       1.442  -0.492   1.224  1.00  0.00     0.018 C 
HETATM    3  C10 UNL     1       1.314  -1.859  -0.862  1.00  0.00     0.012 C 
HETATM    4  C11 UNL     1       0.235  -2.876  -0.502  1.00  0.00     0.002 C 
HETATM    5  C12 UNL     1      -1.142  -2.290  -0.203  1.00  0.00     0.010 C 
HETATM    6  C13 UNL     1      -1.451  -0.956  -0.917  1.00  0.00    -0.032 C 
HETATM    7  C14 UNL     1      -1.342  -1.182  -2.458  1.00  0.00     0.016 C 
HETATM    8  C15 UNL     1      -0.383   0.097  -0.453  1.00  0.00     0.005 C 
HETATM    9  C16 UNL     1      -0.558   1.415  -1.254  1.00  0.00     0.007 C 
HETATM   10  C17 UNL     1      -2.026   1.842  -1.432  1.00  0.00     0.006 C 
HETATM   11  C18 UNL     1      -2.920   1.165  -0.398  1.00  0.00    -0.002 C 
HETATM   12  C19 UNL     1      -4.331   1.767  -0.337  1.00  0.00     0.045 C 
HETATM   13  C20 UNL     1      -5.177   1.059   0.742  1.00  0.00     0.083 C 
HETATM   14  C22 UNL     1      -5.003  -0.483   0.662  1.00  0.00     0.023 C 
HETATM   15  C23 UNL     1      -5.331  -1.023  -0.736  1.00  0.00     0.008 C 
HETATM   16  C24 UNL     1      -4.020  -0.917  -1.527  1.00  0.00     0.011 C 
HETATM   17  C25 UNL     1      -2.921  -0.412  -0.539  1.00  0.00    -0.029 C 
HETATM   18  C26 UNL     1      -3.531  -0.917   0.796  1.00  0.00     0.018 C 
ENDROOT
BRANCH   1  19
HETATM   19  C7  UNL     1       2.157   0.513  -0.953  1.00  0.00     0.188 C 
BRANCH  19  20
HETATM   20  O2  UNL     1       3.487   0.006  -0.749  1.00  0.00    -0.321 OA
BRANCH  20  21
HETATM   21  C6  UNL     1       4.482   0.863  -1.101  1.00  0.00     0.259 C 
HETATM   22  O1  UNL     1       4.316   1.963  -1.612  1.00  0.00    -0.265 OA
BRANCH  21  23
HETATM   23  C5  UNL     1       5.838   0.260  -0.826  1.00  0.00     0.115 C 
BRANCH  23  24
HETATM   24  C3  UNL     1       5.994  -0.300   0.598  1.00  0.00    -0.010 C 
HETATM   25  C4  UNL     1       7.376  -0.942   0.752  1.00  0.00     0.010 C 
BRANCH  24  26
HETATM   26  C2  UNL     1       5.726   0.738   1.709  1.00  0.00     0.000 C 
HETATM   27  C1  UNL     1       6.612   1.975   1.676  1.00  0.00     0.005 C 
ENDBRANCH  24  26
ENDBRANCH  23  24
ENDBRANCH  21  23
ENDBRANCH  20  21
ENDBRANCH  19  20
ENDBRANCH   1  19
BRANCH  13  28
HETATM   28  O3  UNL     1      -6.567   1.384   0.547  1.00  0.00    -0.387 OA
HETATM   29  H34 UNL     1      -6.781   1.280  -0.395  1.00  0.00     0.210 HD
ENDBRANCH  13  28
BRANCH  13  30
HETATM   30  C21 UNL     1      -4.842   1.606   2.152  1.00  0.00     0.202 C 
BRANCH  30  31
HETATM   31  O4  UNL     1      -5.709   1.018   3.123  1.00  0.00    -0.398 OA
HETATM   32  H37 UNL     1      -6.597   1.063   2.713  1.00  0.00     0.209 HD
ENDBRANCH  30  31
ENDBRANCH  13  30
TORSDOF 9
