REMARK  10 active torsions:
REMARK  status: ('A' for Active; 'I' for Inactive)
REMARK    1  A    between atoms: C2_2  and  O2_4 
REMARK    2  A    between atoms: O2_4  and  C3_5 
REMARK    3  A    between atoms: C3_5  and  C4_6 
REMARK    4  A    between atoms: C3_5  and  C30_36 
REMARK    5  A    between atoms: C4_6  and  O3_7 
REMARK    6  A    between atoms: C4_6  and  C5_8 
REMARK    7  A    between atoms: C5_8  and  C6_9 
REMARK    8  A    between atoms: C6_9  and  C8_11 
REMARK    9  A    between atoms: C27_31  and  O5_32 
REMARK   10  A    between atoms: C30_36  and  O7_39 
ROOT
HETATM    1  C8  UNL     1       1.228   0.321   0.746  1.00  0.00     0.097 A 
HETATM    2  C9  UNL     1       1.176  -0.780   1.766  1.00  0.00     0.042 C 
HETATM    3  C10 UNL     1       0.249  -0.250   2.880  1.00  0.00     0.016 C 
HETATM    4  C11 UNL     1      -0.706   0.808   2.221  1.00  0.00    -0.002 C 
HETATM    5  C12 UNL     1      -0.854   2.001   3.204  1.00  0.00     0.019 C 
HETATM    6  C13 UNL     1      -2.138   0.221   1.770  1.00  0.00    -0.027 C 
HETATM    7  C14 UNL     1      -2.974   0.080   3.078  1.00  0.00     0.016 C 
HETATM    8  C15 UNL     1      -2.036  -1.189   1.131  1.00  0.00     0.011 C 
HETATM    9  C16 UNL     1      -3.362  -1.761   0.617  1.00  0.00     0.007 C 
HETATM   10  C17 UNL     1      -4.089  -0.851  -0.390  1.00  0.00     0.009 C 
HETATM   11  C18 UNL     1      -5.395  -1.489  -0.994  1.00  0.00     0.017 C 
HETATM   12  C19 UNL     1      -5.013  -2.361  -2.213  1.00  0.00     0.023 C 
HETATM   13  C20 UNL     1      -6.149  -2.394   0.006  1.00  0.00     0.023 C 
HETATM   14  C21 UNL     1      -6.407  -0.457  -1.519  1.00  0.00     0.135 C 
HETATM   15  O4  UNL     1      -7.565  -0.790  -1.805  1.00  0.00    -0.297 OA
HETATM   16  C22 UNL     1      -5.993   0.975  -1.771  1.00  0.00     0.080 C 
HETATM   17  C23 UNL     1      -4.703   1.437  -1.113  1.00  0.00     0.017 C 
HETATM   18  C24 UNL     1      -4.245   0.614   0.124  1.00  0.00    -0.032 C 
HETATM   19  C25 UNL     1      -5.355   0.758   1.201  1.00  0.00     0.016 C 
HETATM   20  C26 UNL     1      -2.853   1.186   0.711  1.00  0.00     0.032 C 
HETATM   21  C27 UNL     1      -1.871   1.667  -0.422  1.00  0.00     0.126 C 
HETATM   22  C28 UNL     1      -0.547   2.225   0.083  1.00  0.00     0.074 C 
HETATM   23  C29 UNL     1       0.093   1.274   1.022  1.00  0.00     0.104 A 
HETATM   24  O6  UNL     1       1.460   1.622   1.316  1.00  0.00    -0.362 OA
ENDROOT
BRANCH   1  25
HETATM   25  C6  UNL     1       1.911   0.128  -0.592  1.00  0.00     0.022 C 
HETATM   26  C7  UNL     1       1.422  -1.140  -1.296  1.00  0.00     0.013 C 
BRANCH  25  27
HETATM   27  C5  UNL     1       3.450   0.128  -0.405  1.00  0.00     0.041 C 
BRANCH  27  28
HETATM   28  C4  UNL     1       4.246   0.108  -1.717  1.00  0.00     0.151 C 
BRANCH  28  29
HETATM   29  C3  UNL     1       5.788  -0.015  -1.549  1.00  0.00     0.194 C 
BRANCH  29  30
HETATM   30  O2  UNL     1       6.126  -1.251  -0.879  1.00  0.00    -0.311 OA
BRANCH  30  31
HETATM   31  C2  UNL     1       6.222  -2.363  -1.656  1.00  0.00     0.255 C 
HETATM   32  C1  UNL     1       6.562  -3.554  -0.810  1.00  0.00     0.126 C 
HETATM   33  O1  UNL     1       6.030  -2.411  -2.862  1.00  0.00    -0.266 OA
ENDBRANCH  30  31
ENDBRANCH  29  30
BRANCH  29  34
HETATM   34  C30 UNL     1       6.515   1.169  -0.825  1.00  0.00     0.080 C 
HETATM   35  C31 UNL     1       7.967   1.245  -1.329  1.00  0.00     0.048 C 
HETATM   36  C32 UNL     1       6.557   1.036   0.705  1.00  0.00     0.048 C 
BRANCH  34  37
HETATM   37  O7  UNL     1       5.882   2.416  -1.157  1.00  0.00    -0.388 OA
HETATM   38  H52 UNL     1       6.388   3.129  -0.724  1.00  0.00     0.210 HD
ENDBRANCH  34  37
ENDBRANCH  29  34
ENDBRANCH  28  29
BRANCH  28  39
HETATM   39  O3  UNL     1       3.907   1.265  -2.489  1.00  0.00    -0.393 OA
HETATM   40  H6  UNL     1       4.396   2.014  -2.081  1.00  0.00     0.210 HD
ENDBRANCH  28  39
ENDBRANCH  27  28
ENDBRANCH  25  27
ENDBRANCH   1  25
BRANCH  21  41
HETATM   41  O5  UNL     1      -1.603   0.636  -1.366  1.00  0.00    -0.395 OA
HETATM   42  H43 UNL     1      -0.978   0.984  -2.027  1.00  0.00     0.210 HD
ENDBRANCH  21  41
TORSDOF 10
