REMARK  12 active torsions:
REMARK  status: ('A' for Active; 'I' for Inactive)
REMARK    1  A    between atoms: N1_6  and  O1_8 
REMARK    2  A    between atoms: O1_8  and  C6_9 
REMARK    3  A    between atoms: C6_9  and  C7_10 
REMARK       I    between atoms: C7_10  and  N2_12 
REMARK    4  A    between atoms: N2_12  and  C8_13 
REMARK    5  A    between atoms: C8_13  and  C9_14 
REMARK    6  A    between atoms: C12_17  and  C13_18 
REMARK    7  A    between atoms: C13_18  and  O4_20 
REMARK    8  A    between atoms: C22_29  and  O5_30 
REMARK    9  A    between atoms: C29_37  and  O6_38 
REMARK   10  A    between atoms: C29_37  and  C30_39 
REMARK   11  A    between atoms: C30_39  and  C31_41 
REMARK   12  A    between atoms: C31_41  and  O8_42 
ROOT
HETATM    1  C1  UNL     1      -1.992   1.987   1.977  1.00  0.00     0.020 C 
HETATM    2  C2  UNL     1      -1.511   0.695   1.278  1.00  0.00    -0.014 C 
HETATM    3  C3  UNL     1      -0.879  -0.264   2.329  1.00  0.00     0.020 C 
HETATM    4  C4  UNL     1       0.457   0.220   2.872  1.00  0.00     0.060 C 
HETATM    5  C5  UNL     1       1.441   0.498   1.755  1.00  0.00     0.032 C 
HETATM    6  N1  UNL     1       2.701   0.377   2.045  1.00  0.00    -0.271 N 
ATOM      7  H1  UNL     1       3.050   0.079   2.956  1.00  0.00     0.194 HD
HETATM    8  C16 UNL     1       0.882   0.953   0.450  1.00  0.00     0.030 C 
HETATM    9  C17 UNL     1      -0.442   1.081   0.243  1.00  0.00    -0.069 C 
HETATM   10  C18 UNL     1      -0.926   1.672  -1.064  1.00  0.00     0.035 C 
HETATM   11  C19 UNL     1      -2.068   0.873  -1.685  1.00  0.00     0.010 C 
HETATM   12  C20 UNL     1      -3.212   0.702  -0.678  1.00  0.00    -0.002 C 
HETATM   13  C21 UNL     1      -2.696  -0.069   0.562  1.00  0.00     0.031 C 
HETATM   14  C22 UNL     1      -3.852  -0.501   1.500  1.00  0.00     0.124 C 
HETATM   15  C23 UNL     1      -5.228   0.081   1.152  1.00  0.00     0.045 C 
HETATM   16  C24 UNL     1      -5.674   0.077  -0.349  1.00  0.00     0.001 C 
HETATM   17  C25 UNL     1      -6.466   1.394  -0.545  1.00  0.00     0.019 C 
HETATM   18  C26 UNL     1      -4.455   0.050  -1.311  1.00  0.00     0.002 C 
HETATM   19  C27 UNL     1      -4.277  -1.412  -1.762  1.00  0.00     0.009 C 
HETATM   20  C28 UNL     1      -5.456  -2.203  -1.206  1.00  0.00     0.047 C 
HETATM   21  C29 UNL     1      -6.514  -1.168  -0.802  1.00  0.00     0.128 C 
ENDROOT
BRANCH   6  22
HETATM   22  O1  UNL     1       3.527   0.704   0.958  1.00  0.00    -0.271 OA
BRANCH  22  23
HETATM   23  C6  UNL     1       4.829   0.993   1.453  1.00  0.00     0.303 C 
BRANCH  23  24
HETATM   24  C7  UNL     1       5.744   1.334   0.286  1.00  0.00     0.244 C 
HETATM   25  O2  UNL     1       6.266   2.439   0.154  1.00  0.00    -0.271 OA
HETATM   26  N2  UNL     1       5.954   0.287  -0.589  1.00  0.00    -0.355 N 
HETATM   27  H10 UNL     1       5.584  -0.624  -0.349  1.00  0.00     0.162 HD
BRANCH  26  28
HETATM   28  C8  UNL     1       6.897   0.383  -1.678  1.00  0.00     0.161 C 
BRANCH  28  29
HETATM   29  C9  UNL     1       8.255  -0.129  -1.265  1.00  0.00    -0.040 A 
HETATM   30  C10 UNL     1       8.624  -1.461  -1.499  1.00  0.00     0.010 A 
HETATM   31  C11 UNL     1       9.875  -1.930  -1.087  1.00  0.00     0.019 A 
HETATM   32  C12 UNL     1      10.768  -1.076  -0.426  1.00  0.00     0.037 A 
HETATM   33  C14 UNL     1      10.402   0.253  -0.183  1.00  0.00     0.019 A 
HETATM   34  C15 UNL     1       9.153   0.720  -0.599  1.00  0.00     0.010 A 
BRANCH  32  35
HETATM   35  C13 UNL     1      12.079  -1.623  -0.002  1.00  0.00     0.176 C 
HETATM   36  O3  UNL     1      12.473  -2.759  -0.193  1.00  0.00    -0.646 OA
BRANCH  35  37
HETATM   37  O4  UNL     1      12.835  -0.723   0.651  1.00  0.00    -0.773 OA
HETATM   38  H15 UNL     1      13.651  -1.219   0.871  1.00  0.00     0.167 HD
ENDBRANCH  35  37
ENDBRANCH  32  35
ENDBRANCH  28  29
ENDBRANCH  26  28
ENDBRANCH  23  24
ENDBRANCH  22  23
ENDBRANCH   6  22
BRANCH  14  39
HETATM   39  O5  UNL     1      -3.949  -1.923   1.508  1.00  0.00    -0.395 OA
HETATM   40  H26 UNL     1      -3.128  -2.282   1.887  1.00  0.00     0.210 HD
ENDBRANCH  14  39
BRANCH  21  41
HETATM   41  O6  UNL     1      -7.269  -1.739   0.259  1.00  0.00    -0.381 OA
HETATM   42  H37 UNL     1      -7.965  -1.100   0.511  1.00  0.00     0.211 HD
ENDBRANCH  21  41
BRANCH  21  43
HETATM   43  C30 UNL     1      -7.425  -0.904  -2.047  1.00  0.00     0.184 C 
HETATM   44  O7  UNL     1      -6.989  -0.944  -3.204  1.00  0.00    -0.292 OA
BRANCH  43  45
HETATM   45  C31 UNL     1      -8.879  -0.466  -1.816  1.00  0.00     0.245 C 
BRANCH  45  46
HETATM   46  O8  UNL     1      -9.494  -0.874  -0.609  1.00  0.00    -0.393 OA
HETATM   47  H40 UNL     1      -9.635  -1.838  -0.680  1.00  0.00     0.209 HD
ENDBRANCH  45  46
ENDBRANCH  43  45
ENDBRANCH  21  43
TORSDOF 12
