REMARK  7 active torsions:
REMARK  status: ('A' for Active; 'I' for Inactive)
REMARK    1  A    between atoms: C2_2  and  C30_33 
REMARK    2  A    between atoms: C3_3  and  C4_4 
REMARK    3  A    between atoms: C4_4  and  O1_5 
REMARK    4  A    between atoms: C4_4  and  C5_6 
REMARK    5  A    between atoms: C5_6  and  C6_7 
REMARK    6  A    between atoms: C6_7  and  C8_9 
REMARK    7  A    between atoms: C30_33  and  O5_35 
ROOT
HETATM    1  C8  UNL     1       1.750  -0.109  -0.480  1.00  0.00    -0.002 C 
HETATM    2  C9  UNL     1       1.718  -1.653  -0.280  1.00  0.00     0.007 C 
HETATM    3  C10 UNL     1       0.248  -2.070  -0.093  1.00  0.00     0.015 C 
HETATM    4  C11 UNL     1      -0.574  -0.843  -0.528  1.00  0.00    -0.005 C 
HETATM    5  C12 UNL     1      -0.696  -0.902  -2.082  1.00  0.00     0.021 C 
HETATM    6  C13 UNL     1      -2.000  -0.665  -0.029  1.00  0.00    -0.000 C 
HETATM    7  C14 UNL     1      -2.548   0.567   0.131  1.00  0.00    -0.060 C 
HETATM    8  C15 UNL     1      -1.705   1.827  -0.121  1.00  0.00     0.036 C 
HETATM    9  C16 UNL     1      -0.226   1.636  -0.514  1.00  0.00     0.015 C 
HETATM   10  C17 UNL     1       0.341   0.319   0.032  1.00  0.00    -0.028 C 
HETATM   11  C18 UNL     1       0.363   0.387   1.593  1.00  0.00     0.016 C 
HETATM   12  C19 UNL     1      -4.006   0.805   0.595  1.00  0.00    -0.014 C 
HETATM   13  C20 UNL     1      -3.945   1.278   2.075  1.00  0.00     0.020 C 
HETATM   14  C21 UNL     1      -4.672   1.935  -0.246  1.00  0.00     0.021 C 
HETATM   15  C22 UNL     1      -6.185   1.827  -0.292  1.00  0.00     0.080 C 
HETATM   16  C23 UNL     1      -6.565   0.567  -1.034  1.00  0.00     0.135 C 
HETATM   17  O2  UNL     1      -7.533   0.567  -1.795  1.00  0.00    -0.297 OA
HETATM   18  C24 UNL     1      -5.711  -0.692  -0.787  1.00  0.00     0.018 C 
HETATM   19  C25 UNL     1      -6.697  -1.875  -0.648  1.00  0.00     0.023 C 
HETATM   20  C26 UNL     1      -4.856  -0.931  -2.040  1.00  0.00     0.023 C 
HETATM   21  C27 UNL     1      -4.898  -0.494   0.545  1.00  0.00     0.020 C 
HETATM   22  C28 UNL     1      -4.097  -1.714   1.011  1.00  0.00     0.090 C 
HETATM   23  C29 UNL     1      -2.820  -1.884   0.239  1.00  0.00     0.157 C 
HETATM   24  O3  UNL     1      -2.456  -2.995  -0.135  1.00  0.00    -0.293 OA
ENDROOT
BRANCH   1  25
HETATM   25  C6  UNL     1       3.045   0.529   0.121  1.00  0.00    -0.011 C 
HETATM   26  C7  UNL     1       3.049   2.054   0.003  1.00  0.00     0.010 C 
BRANCH  25  27
HETATM   27  C5  UNL     1       4.303  -0.103  -0.556  1.00  0.00     0.040 C 
BRANCH  27  28
HETATM   28  C4  UNL     1       5.656   0.485  -0.113  1.00  0.00     0.142 C 
BRANCH  28  29
HETATM   29  C3  UNL     1       6.807  -0.431  -0.423  1.00  0.00     0.018 C 
HETATM   30  C2  UNL     1       8.028  -0.393   0.151  1.00  0.00     0.010 C 
HETATM   31  C1  UNL     1       8.470   0.591   1.194  1.00  0.00     0.055 C 
BRANCH  30  32
HETATM   32  C30 UNL     1       9.015  -1.395  -0.321  1.00  0.00     0.171 C 
HETATM   33  O4  UNL     1       8.830  -2.259  -1.160  1.00  0.00    -0.646 OA
BRANCH  32  34
HETATM   34  O5  UNL     1      10.206  -1.266   0.287  1.00  0.00    -0.773 OA
HETATM   35  H44 UNL     1      10.747  -1.974  -0.118  1.00  0.00     0.167 HD
ENDBRANCH  32  34
ENDBRANCH  30  32
ENDBRANCH  28  29
BRANCH  28  36
HETATM   36  O1  UNL     1       5.902   1.701  -0.810  1.00  0.00    -0.392 OA
HETATM   37  H6  UNL     1       6.108   1.476  -1.734  1.00  0.00     0.210 HD
ENDBRANCH  28  36
ENDBRANCH  27  28
ENDBRANCH  25  27
ENDBRANCH   1  25
TORSDOF 7
