REMARK  6 active torsions:
REMARK  status: ('A' for Active; 'I' for Inactive)
REMARK    1  A    between atoms: C2_2  and  C3_3 
REMARK    2  A    between atoms: C5_5  and  C6_6 
REMARK    3  A    between atoms: C6_6  and  C7_7 
REMARK    4  A    between atoms: C8_8  and  C9_9 
REMARK       I    between atoms: C9_9  and  N1_11 
REMARK    5  A    between atoms: N1_11  and  C10_12 
REMARK    6  A    between atoms: C10_12  and  C12_14 
ROOT
HETATM    1  C7  UNL     1      -0.272   0.519  -1.026  1.00  0.00     0.036 C 
HETATM    2  C8  UNL     1       1.099   0.077  -0.535  1.00  0.00     0.011 C 
HETATM    3  C18 UNL     1       1.484  -1.201  -0.685  1.00  0.00    -0.013 C 
HETATM    4  C19 UNL     1       0.517  -2.181  -1.259  1.00  0.00     0.034 C 
HETATM    5  C20 UNL     1      -0.872  -2.026  -0.594  1.00  0.00     0.005 C 
HETATM    6  C21 UNL     1      -1.914  -3.069  -1.141  1.00  0.00    -0.043 C 
HETATM    7  C22 UNL     1      -1.561  -4.487  -0.620  1.00  0.00     0.015 C 
HETATM    8  C23 UNL     1      -1.947  -3.159  -2.682  1.00  0.00     0.015 C 
HETATM    9  C24 UNL     1      -3.309  -2.721  -0.596  1.00  0.00     0.009 C 
HETATM   10  C25 UNL     1      -3.802  -1.339  -0.992  1.00  0.00     0.002 C 
HETATM   11  C26 UNL     1      -2.706  -0.312  -1.264  1.00  0.00     0.010 C 
HETATM   12  C27 UNL     1      -1.380  -0.504  -0.491  1.00  0.00    -0.031 C 
HETATM   13  C28 UNL     1      -1.663  -0.202   1.009  1.00  0.00     0.016 C 
ENDROOT
BRANCH   2  14
HETATM   14  C9  UNL     1       2.069   1.004   0.096  1.00  0.00     0.248 C 
HETATM   15  O1  UNL     1       2.624   1.890  -0.537  1.00  0.00    -0.268 OA
HETATM   16  N1  UNL     1       2.250   0.740   1.430  1.00  0.00    -0.349 N 
HETATM   17  H11 UNL     1       1.855  -0.116   1.796  1.00  0.00     0.163 HD
BRANCH  16  18
HETATM   18  C10 UNL     1       3.315   1.366   2.191  1.00  0.00     0.114 C 
HETATM   19  C11 UNL     1       2.833   1.679   3.610  1.00  0.00     0.037 C 
BRANCH  18  20
HETATM   20  C12 UNL     1       4.547   0.478   2.169  1.00  0.00    -0.036 A 
HETATM   21  C13 UNL     1       5.626   0.814   1.334  1.00  0.00     0.009 A 
HETATM   22  C14 UNL     1       6.766   0.011   1.281  1.00  0.00     0.001 A 
HETATM   23  C15 UNL     1       6.842  -1.145   2.053  1.00  0.00     0.000 A 
HETATM   24  C16 UNL     1       5.772  -1.507   2.870  1.00  0.00     0.001 A 
HETATM   25  C17 UNL     1       4.631  -0.704   2.924  1.00  0.00     0.009 A 
ENDBRANCH  18  20
ENDBRANCH  16  18
ENDBRANCH   2  14
BRANCH   1  26
HETATM   26  C6  UNL     1      -0.526   2.039  -0.776  1.00  0.00     0.038 C 
BRANCH  26  27
HETATM   27  C5  UNL     1      -1.649   2.654  -1.571  1.00  0.00    -0.019 C 
HETATM   28  C3  UNL     1      -2.670   3.422  -1.135  1.00  0.00    -0.067 C 
HETATM   29  C4  UNL     1      -2.883   3.809   0.306  1.00  0.00     0.048 C 
BRANCH  28  30
HETATM   30  C2  UNL     1      -3.634   3.914  -2.117  1.00  0.00    -0.004 C 
HETATM   31  C1  UNL     1      -4.710   4.673  -1.871  1.00  0.00     0.012 C 
ENDBRANCH  28  30
ENDBRANCH  26  27
ENDBRANCH   1  26
TORSDOF 6
