REMARK  12 active torsions:
REMARK  status: ('A' for Active; 'I' for Inactive)
REMARK    1  A    between atoms: C2_2  and  O2_4 
REMARK    2  A    between atoms: O2_4  and  C3_5 
REMARK    3  A    between atoms: C4_6  and  O3_7 
REMARK    4  A    between atoms: O3_7  and  C5_8 
REMARK    5  A    between atoms: C5_8  and  C6_10 
REMARK    6  A    between atoms: C12_16  and  C13_17 
REMARK    7  A    between atoms: C13_17  and  O5_18 
REMARK    8  A    between atoms: O5_18  and  C14_19 
REMARK    9  A    between atoms: C14_19  and  C15_21 
REMARK   10  A    between atoms: C20_28  and  O7_29 
REMARK   11  A    between atoms: O7_29  and  C21_30 
REMARK   12  A    between atoms: C21_30  and  C22_32 
ROOT
HETATM    1  C3  UNL     1       1.629  -1.650  -1.267  1.00  0.00     0.169 C 
HETATM    2  C4  UNL     1       0.722  -0.724  -0.396  1.00  0.00     0.178 C 
HETATM    3  C12 UNL     1      -0.149   0.322  -1.197  1.00  0.00     0.069 C 
HETATM    4  C20 UNL     1      -0.396   1.600  -0.334  1.00  0.00     0.148 C 
HETATM    5  C25 UNL     1      -1.292   2.630  -1.040  1.00  0.00     0.034 C 
HETATM    6  C26 UNL     1      -1.073   2.717  -2.549  1.00  0.00     0.010 C 
HETATM    7  C27 UNL     1       0.314   2.238  -2.994  1.00  0.00     0.017 C 
HETATM    8  C28 UNL     1       1.379   3.275  -2.597  1.00  0.00     0.013 C 
HETATM    9  C29 UNL     1       0.595   0.773  -2.529  1.00  0.00     0.080 C 
HETATM   10  C30 UNL     1       2.096   0.447  -2.476  1.00  0.00     0.050 C 
HETATM   11  C31 UNL     1       2.035  -1.063  -2.644  1.00  0.00     0.054 C 
HETATM   12  C32 UNL     1       1.049  -1.158  -3.828  1.00  0.00     0.061 C 
HETATM   13  C33 UNL     1       1.745  -0.837  -5.172  1.00  0.00     0.046 C 
HETATM   14  C34 UNL     1       0.308  -2.478  -4.039  1.00  0.00     0.046 C 
HETATM   15  O9  UNL     1       0.096  -0.100  -3.590  1.00  0.00    -0.368 OA
ENDROOT
BRANCH   3  16
HETATM   16  C13 UNL     1      -1.520  -0.379  -1.502  1.00  0.00     0.197 C 
BRANCH  16  17
HETATM   17  O5  UNL     1      -2.172  -0.778  -0.282  1.00  0.00    -0.316 OA
BRANCH  17  18
HETATM   18  C14 UNL     1      -3.491  -1.062  -0.371  1.00  0.00     0.294 C 
HETATM   19  O6  UNL     1      -4.180  -0.990  -1.374  1.00  0.00    -0.259 OA
BRANCH  18  20
HETATM   20  C15 UNL     1      -4.002  -1.464   0.956  1.00  0.00     0.054 A 
HETATM   21  C16 UNL     1      -3.177  -1.747   2.049  1.00  0.00     0.020 A 
HETATM   22  C17 UNL     1      -3.753  -2.109   3.266  1.00  0.00     0.018 A 
HETATM   23  C18 UNL     1      -5.135  -2.178   3.346  1.00  0.00     0.087 A 
HETATM   24  N1  UNL     1      -5.961  -1.920   2.307  1.00  0.00    -0.374 N 
HETATM   25  C19 UNL     1      -5.374  -1.572   1.133  1.00  0.00     0.105 A 
ATOM     26  H1  UNL     1      -6.975  -1.984   2.400  1.00  0.00     0.164 HD
ENDBRANCH  18  20
ENDBRANCH  17  18
ENDBRANCH  16  17
ENDBRANCH   3  16
BRANCH   2  27
HETATM   27  O3  UNL     1       1.596  -0.005   0.525  1.00  0.00    -0.308 OA
BRANCH  27  28
HETATM   28  C5  UNL     1       1.873  -0.628   1.700  1.00  0.00     0.293 C 
HETATM   29  O4  UNL     1       1.512  -1.752   2.011  1.00  0.00    -0.259 OA
BRANCH  28  30
HETATM   30  C6  UNL     1       2.676   0.251   2.589  1.00  0.00     0.039 A 
HETATM   31  C7  UNL     1       2.975   1.581   2.265  1.00  0.00     0.017 A 
HETATM   32  C8  UNL     1       3.709   2.371   3.154  1.00  0.00     0.001 A 
HETATM   33  C9  UNL     1       4.149   1.838   4.365  1.00  0.00     0.000 A 
HETATM   34  C10 UNL     1       3.856   0.516   4.694  1.00  0.00     0.001 A 
HETATM   35  C11 UNL     1       3.121  -0.276   3.810  1.00  0.00     0.017 A 
ENDBRANCH  28  30
ENDBRANCH  27  28
ENDBRANCH   2  27
BRANCH   4  36
HETATM   36  O7  UNL     1      -0.979   1.270   0.944  1.00  0.00    -0.315 OA
BRANCH  36  37
HETATM   37  C21 UNL     1      -0.739   2.137   1.969  1.00  0.00     0.262 C 
HETATM   38  O8  UNL     1      -0.082   3.164   1.880  1.00  0.00    -0.265 OA
BRANCH  37  39
HETATM   39  C22 UNL     1      -1.412   1.635   3.232  1.00  0.00     0.077 C 
HETATM   40  C23 UNL     1      -2.903   1.948   3.175  1.00  0.00     0.020 C 
HETATM   41  C24 UNL     1      -0.768   2.250   4.470  1.00  0.00     0.020 C 
ENDBRANCH  37  39
ENDBRANCH  36  37
ENDBRANCH   4  36
BRANCH   1  42
HETATM   42  O2  UNL     1       1.027  -2.951  -1.343  1.00  0.00    -0.313 OA
BRANCH  42  43
HETATM   43  C2  UNL     1       1.884  -4.004  -1.457  1.00  0.00     0.255 C 
HETATM   44  C1  UNL     1       1.121  -5.292  -1.399  1.00  0.00     0.126 C 
HETATM   45  O1  UNL     1       3.094  -3.922  -1.611  1.00  0.00    -0.266 OA
ENDBRANCH  42  43
ENDBRANCH   1  42
TORSDOF 12
