REMARK  14 active torsions:
REMARK  status: ('A' for Active; 'I' for Inactive)
REMARK    1  A    between atoms: O1_2  and  C2_3 
REMARK    2  A    between atoms: C2_3  and  C3_5 
REMARK    3  A    between atoms: C3_5  and  C4_6 
REMARK    4  A    between atoms: C3_5  and  N2_16 
REMARK    5  A    between atoms: C4_6  and  C5_7 
REMARK       I    between atoms: N2_16  and  C13_17 
REMARK    6  A    between atoms: C13_17  and  C14_19 
REMARK    7  A    between atoms: C14_19  and  C15_20 
REMARK    8  A    between atoms: C15_20  and  C16_21 
REMARK    9  A    between atoms: C16_21  and  O5_23 
REMARK   10  A    between atoms: O5_23  and  C17_24 
REMARK   11  A    between atoms: C17_24  and  C18_25 
REMARK   12  A    between atoms: C18_25  and  C19_27 
REMARK   13  A    between atoms: C19_27  and  O7_28 
REMARK   14  A    between atoms: C34_44  and  O9_45 
ROOT
HETATM    1  C17 UNL     1       0.344   1.102  -0.589  1.00  0.00     0.260 C 
ENDROOT
BRANCH   1   2
HETATM    2  O5  UNL     1       1.123   0.049  -1.154  1.00  0.00    -0.314 OA
BRANCH   2   3
HETATM    3  C16 UNL     1       1.664   0.380  -2.359  1.00  0.00     0.259 C 
HETATM    4  O4  UNL     1       1.503   1.459  -2.915  1.00  0.00    -0.265 OA
BRANCH   3   5
HETATM    5  C15 UNL     1       2.375  -0.788  -2.998  1.00  0.00     0.120 C 
BRANCH   5   6
HETATM    6  C14 UNL     1       3.153  -1.665  -2.024  1.00  0.00     0.112 C 
BRANCH   6   7
HETATM    7  C13 UNL     1       4.395  -0.980  -1.499  1.00  0.00     0.218 C 
HETATM    8  N2  UNL     1       5.067  -1.729  -0.566  1.00  0.00    -0.347 N 
HETATM    9  H13 UNL     1       4.663  -2.588  -0.213  1.00  0.00     0.163 HD
HETATM   10  O3  UNL     1       4.782   0.113  -1.889  1.00  0.00    -0.274 OA
BRANCH   8  11
HETATM   11  C3  UNL     1       6.314  -1.268   0.076  1.00  0.00     0.188 C 
BRANCH  11  12
HETATM   12  C2  UNL     1       6.512  -1.989   1.427  1.00  0.00     0.281 C 
HETATM   13  O2  UNL     1       7.389  -1.736   2.246  1.00  0.00    -0.263 OA
BRANCH  12  14
HETATM   14  O1  UNL     1       5.584  -2.990   1.590  1.00  0.00    -0.325 OA
HETATM   15  C1  UNL     1       5.710  -3.687   2.834  1.00  0.00     0.213 C 
ENDBRANCH  12  14
ENDBRANCH  11  12
BRANCH  11  16
HETATM   16  C4  UNL     1       7.511  -1.541  -0.848  1.00  0.00     0.076 C 
BRANCH  16  17
HETATM   17  C5  UNL     1       8.748  -0.780  -0.486  1.00  0.00    -0.028 A 
HETATM   18  C6  UNL     1       9.861  -1.282   0.163  1.00  0.00     0.096 A 
HETATM   19  N1  UNL     1      10.768  -0.267   0.313  1.00  0.00    -0.365 N 
HETATM   20  C7  UNL     1      10.286   0.889  -0.252  1.00  0.00     0.042 A 
HETATM   21  H8  UNL     1      11.669  -0.351   0.763  1.00  0.00     0.165 HD
HETATM   22  C8  UNL     1      10.873   2.156  -0.349  1.00  0.00     0.030 A 
HETATM   23  C12 UNL     1       9.017   0.601  -0.760  1.00  0.00    -0.002 A 
HETATM   24  C9  UNL     1      10.141   3.162  -0.985  1.00  0.00     0.002 A 
HETATM   25  C10 UNL     1       8.872   2.908  -1.503  1.00  0.00     0.001 A 
HETATM   26  C11 UNL     1       8.301   1.634  -1.399  1.00  0.00     0.014 A 
ENDBRANCH  16  17
ENDBRANCH  11  16
ENDBRANCH   8  11
ENDBRANCH   6   7
ENDBRANCH   5   6
ENDBRANCH   3   5
ENDBRANCH   2   3
ENDBRANCH   1   2
BRANCH   1  27
HETATM   27  C18 UNL     1      -0.136   0.701   0.792  1.00  0.00     0.185 C 
HETATM   28  O6  UNL     1       0.517   1.013   1.792  1.00  0.00    -0.292 OA
BRANCH  27  29
HETATM   29  C19 UNL     1      -1.435  -0.135   0.890  1.00  0.00     0.128 C 
HETATM   30  C20 UNL     1      -1.580  -0.802   2.297  1.00  0.00     0.047 C 
HETATM   31  C21 UNL     1      -3.071  -0.745   2.675  1.00  0.00     0.009 C 
HETATM   32  C22 UNL     1      -3.759  -0.345   1.377  1.00  0.00     0.002 C 
HETATM   33  C23 UNL     1      -5.218   0.137   1.432  1.00  0.00    -0.002 C 
HETATM   34  C36 UNL     1      -2.774   0.669   0.739  1.00  0.00     0.001 C 
HETATM   35  C24 UNL     1      -6.100  -0.916   2.122  1.00  0.00     0.010 C 
HETATM   36  C33 UNL     1      -5.703   0.392  -0.029  1.00  0.00     0.031 C 
HETATM   37  C25 UNL     1      -7.573  -0.545   2.088  1.00  0.00     0.035 C 
HETATM   38  C26 UNL     1      -8.044  -0.289   0.678  1.00  0.00    -0.068 C 
HETATM   39  C27 UNL     1      -9.115  -0.943   0.197  1.00  0.00     0.053 C 
HETATM   40  C31 UNL     1      -7.242   0.751  -0.124  1.00  0.00    -0.014 C 
HETATM   41  C28 UNL     1      -9.698  -0.611  -1.123  1.00  0.00     0.149 C 
HETATM   42  O8  UNL     1     -10.648  -1.266  -1.547  1.00  0.00    -0.293 OA
HETATM   43  C29 UNL     1      -9.153   0.590  -1.849  1.00  0.00     0.084 C 
HETATM   44  C30 UNL     1      -7.653   0.698  -1.624  1.00  0.00     0.022 C 
HETATM   45  C32 UNL     1      -7.598   2.141   0.444  1.00  0.00     0.020 C 
HETATM   46  C34 UNL     1      -4.748   1.352  -0.798  1.00  0.00     0.124 C 
HETATM   47  C35 UNL     1      -3.263   0.932  -0.705  1.00  0.00     0.045 C 
HETATM   48  C37 UNL     1      -2.672   2.002   1.525  1.00  0.00     0.019 C 
BRANCH  29  49
HETATM   49  O7  UNL     1      -1.396  -1.178  -0.089  1.00  0.00    -0.381 OA
HETATM   50  H20 UNL     1      -0.718  -1.824   0.190  1.00  0.00     0.211 HD
ENDBRANCH  29  49
BRANCH  46  51
HETATM   51  O9  UNL     1      -4.889   2.688  -0.336  1.00  0.00    -0.395 OA
HETATM   52  H41 UNL     1      -4.391   3.266  -0.940  1.00  0.00     0.210 HD
ENDBRANCH  46  51
ENDBRANCH  27  29
ENDBRANCH   1  27
TORSDOF 14
