REMARK  7 active torsions:
REMARK  status: ('A' for Active; 'I' for Inactive)
REMARK    1  A    between atoms: C4_4  and  C5_5 
REMARK    2  A    between atoms: C5_5  and  C6_6 
REMARK    3  A    between atoms: C6_6  and  C7_7 
REMARK    4  A    between atoms: C7_7  and  C9_9 
REMARK    5  A    between atoms: C18_18  and  O1_19 
REMARK    6  A    between atoms: O1_19  and  C19_20 
REMARK    7  A    between atoms: C19_20  and  C20_22 
ROOT
HETATM    1  C9  UNL     1       3.422   0.435  -0.015  1.00  0.00    -0.002 C 
HETATM    2  C10 UNL     1       3.555  -0.181  -1.434  1.00  0.00     0.006 C 
HETATM    3  C11 UNL     1       2.141  -0.489  -1.940  1.00  0.00     0.010 C 
HETATM    4  C12 UNL     1       1.226   0.168  -0.913  1.00  0.00     0.023 C 
HETATM    5  C13 UNL     1      -0.237  -0.196  -0.839  1.00  0.00    -0.070 C 
HETATM    6  C14 UNL     1      -0.870  -0.919  -1.776  1.00  0.00     0.004 C 
HETATM    7  C15 UNL     1      -2.303  -1.046  -1.803  1.00  0.00     0.004 C 
HETATM    8  C16 UNL     1      -3.085  -0.668  -0.778  1.00  0.00    -0.069 C 
HETATM    9  C17 UNL     1      -4.584  -0.852  -0.843  1.00  0.00     0.067 C 
HETATM   10  C18 UNL     1      -5.352   0.379  -0.355  1.00  0.00     0.136 C 
HETATM   11  C26 UNL     1      -4.870   0.788   1.038  1.00  0.00     0.034 C 
HETATM   12  C27 UNL     1      -3.371   1.078   1.033  1.00  0.00     0.017 C 
HETATM   13  C28 UNL     1      -2.489  -0.097   0.516  1.00  0.00    -0.013 C 
HETATM   14  C29 UNL     1      -2.516  -1.252   1.548  1.00  0.00     0.021 C 
HETATM   15  C30 UNL     1      -1.012   0.472   0.297  1.00  0.00     0.027 C 
HETATM   16  C31 UNL     1      -0.195   0.550   1.617  1.00  0.00     0.011 C 
HETATM   17  C32 UNL     1       1.286   0.916   1.437  1.00  0.00     0.011 C 
HETATM   18  C33 UNL     1       1.988  -0.013   0.424  1.00  0.00    -0.033 C 
HETATM   19  C34 UNL     1       1.984  -1.481   0.917  1.00  0.00     0.016 C 
ENDROOT
BRANCH  10  20
HETATM   20  O1  UNL     1      -6.749   0.027  -0.296  1.00  0.00    -0.312 OA
BRANCH  20  21
HETATM   21  C19 UNL     1      -7.625   1.058  -0.407  1.00  0.00     0.293 C 
HETATM   22  O2  UNL     1      -7.334   2.234  -0.554  1.00  0.00    -0.259 OA
BRANCH  21  23
HETATM   23  C20 UNL     1      -9.027   0.563  -0.331  1.00  0.00     0.039 A 
HETATM   24  C21 UNL     1     -10.065   1.492  -0.500  1.00  0.00     0.017 A 
HETATM   25  C22 UNL     1     -11.397   1.079  -0.438  1.00  0.00     0.001 A 
HETATM   26  C23 UNL     1     -11.701  -0.262  -0.205  1.00  0.00     0.000 A 
HETATM   27  C24 UNL     1     -10.675  -1.192  -0.033  1.00  0.00     0.001 A 
HETATM   28  C25 UNL     1      -9.340  -0.783  -0.096  1.00  0.00     0.017 A 
ENDBRANCH  21  23
ENDBRANCH  20  21
ENDBRANCH  10  20
BRANCH   1  29
HETATM   29  C7  UNL     1       4.644   0.109   0.897  1.00  0.00    -0.014 C 
HETATM   30  C8  UNL     1       4.444   0.617   2.332  1.00  0.00     0.010 C 
BRANCH  29  31
HETATM   31  C6  UNL     1       5.969   0.731   0.366  1.00  0.00     0.008 C 
BRANCH  31  32
HETATM   32  C5  UNL     1       6.717  -0.127  -0.663  1.00  0.00     0.028 C 
BRANCH  32  33
HETATM   33  C4  UNL     1       8.084   0.440  -0.940  1.00  0.00    -0.025 C 
HETATM   34  C2  UNL     1       9.283  -0.088  -0.624  1.00  0.00    -0.091 C 
HETATM   35  C1  UNL     1      10.556   0.622  -1.007  1.00  0.00     0.042 C 
HETATM   36  C3  UNL     1       9.500  -1.379   0.117  1.00  0.00     0.042 C 
ENDBRANCH  32  33
ENDBRANCH  31  32
ENDBRANCH  29  31
ENDBRANCH   1  29
TORSDOF 7
