REMARK  14 active torsions:
REMARK  status: ('A' for Active; 'I' for Inactive)
REMARK    1  A    between atoms: O1_2  and  C2_3 
REMARK    2  A    between atoms: C6_8  and  C7_9 
REMARK    3  A    between atoms: C7_9  and  O3_11 
REMARK    4  A    between atoms: C8_12  and  C9_13 
REMARK    5  A    between atoms: C9_13  and  C10_14 
REMARK    6  A    between atoms: C10_14  and  N2_15 
REMARK       I    between atoms: N2_15  and  C11_16 
REMARK    7  A    between atoms: C11_16  and  C12_18 
REMARK    8  A    between atoms: C12_18  and  C13_19 
REMARK    9  A    between atoms: C13_19  and  C14_20 
REMARK   10  A    between atoms: C14_20  and  O6_22 
REMARK   11  A    between atoms: O6_22  and  C15_23 
REMARK   12  A    between atoms: C15_23  and  C16_24 
REMARK   13  A    between atoms: C16_24  and  C17_26 
REMARK   14  A    between atoms: C17_26  and  O8_27 
ROOT
HETATM    1  C14 UNL     1       1.332  -1.882  -2.368  1.00  0.00     0.259 C 
HETATM    2  O5  UNL     1       1.005  -0.865  -1.766  1.00  0.00    -0.265 OA
ENDROOT
BRANCH   1   3
HETATM    3  C13 UNL     1       2.479  -1.980  -3.344  1.00  0.00     0.120 C 
BRANCH   3   4
HETATM    4  C12 UNL     1       3.487  -0.860  -3.110  1.00  0.00     0.112 C 
BRANCH   4   5
HETATM    5  C11 UNL     1       4.115  -0.957  -1.733  1.00  0.00     0.218 C 
HETATM    6  N2  UNL     1       4.813   0.176  -1.376  1.00  0.00    -0.361 N 
HETATM    7  H12 UNL     1       4.761   0.992  -1.971  1.00  0.00     0.162 HD
HETATM    8  O4  UNL     1       4.022  -1.954  -1.025  1.00  0.00    -0.274 OA
BRANCH   6   9
HETATM    9  C10 UNL     1       5.379   0.336  -0.048  1.00  0.00     0.127 C 
BRANCH   9  10
HETATM   10  C9  UNL     1       6.720  -0.381   0.126  1.00  0.00     0.061 C 
BRANCH  10  11
HETATM   11  C8  UNL     1       7.356  -0.066   1.452  1.00  0.00    -0.011 A 
HETATM   12  C6  UNL     1       7.127  -0.686   2.680  1.00  0.00     0.114 A 
HETATM   13  N1  UNL     1       7.928  -0.051   3.604  1.00  0.00    -0.350 N 
HETATM   14  C5  UNL     1       8.647   0.964   3.028  1.00  0.00     0.043 A 
HETATM   15  H6  UNL     1       7.959  -0.300   4.584  1.00  0.00     0.166 HD
HETATM   16  C4  UNL     1       9.550   1.863   3.601  1.00  0.00     0.033 A 
HETATM   17  C36 UNL     1       8.323   0.976   1.676  1.00  0.00     0.002 A 
HETATM   18  C3  UNL     1      10.147   2.801   2.754  1.00  0.00     0.039 A 
HETATM   19  C2  UNL     1       9.859   2.843   1.390  1.00  0.00     0.069 A 
HETATM   20  C37 UNL     1       8.945   1.935   0.842  1.00  0.00     0.051 A 
BRANCH  12  21
HETATM   21  C7  UNL     1       6.271  -1.768   3.089  1.00  0.00     0.194 C 
HETATM   22  O2  UNL     1       6.185  -2.239   4.213  1.00  0.00    -0.645 OA
BRANCH  21  23
HETATM   23  O3  UNL     1       5.518  -2.234   2.080  1.00  0.00    -0.772 OA
HETATM   24  H7  UNL     1       4.985  -2.954   2.467  1.00  0.00     0.167 HD
ENDBRANCH  21  23
ENDBRANCH  12  21
BRANCH  19  25
HETATM   25  O1  UNL     1      10.531   3.818   0.700  1.00  0.00    -0.356 OA
HETATM   26  C1  UNL     1      10.321   3.871  -0.706  1.00  0.00     0.210 C 
ENDBRANCH  19  25
ENDBRANCH  10  11
ENDBRANCH   9  10
ENDBRANCH   6   9
ENDBRANCH   4   5
ENDBRANCH   3   4
ENDBRANCH   1   3
BRANCH   1  27
HETATM   27  O6  UNL     1       0.682  -3.072  -2.281  1.00  0.00    -0.314 OA
BRANCH  27  28
HETATM   28  C15 UNL     1      -0.274  -3.169  -1.232  1.00  0.00     0.260 C 
BRANCH  28  29
HETATM   29  C16 UNL     1      -1.741  -3.090  -1.654  1.00  0.00     0.185 C 
HETATM   30  O7  UNL     1      -2.429  -4.118  -1.632  1.00  0.00    -0.292 OA
BRANCH  29  31
HETATM   31  C17 UNL     1      -2.355  -1.702  -2.032  1.00  0.00     0.128 C 
HETATM   32  C18 UNL     1      -3.565  -1.951  -2.963  1.00  0.00     0.047 C 
HETATM   33  C19 UNL     1      -4.812  -1.975  -2.071  1.00  0.00     0.009 C 
HETATM   34  C20 UNL     1      -4.330  -1.697  -0.637  1.00  0.00     0.002 C 
HETATM   35  C21 UNL     1      -5.341  -0.987   0.286  1.00  0.00    -0.004 C 
HETATM   36  C34 UNL     1      -3.001  -0.935  -0.828  1.00  0.00    -0.002 C 
HETATM   37  C22 UNL     1      -6.663  -1.763   0.359  1.00  0.00     0.010 C 
HETATM   38  C31 UNL     1      -5.600   0.491  -0.102  1.00  0.00     0.002 C 
HETATM   39  C23 UNL     1      -7.605  -1.140   1.379  1.00  0.00     0.035 C 
HETATM   40  C24 UNL     1      -7.863   0.318   1.086  1.00  0.00    -0.068 C 
HETATM   41  C25 UNL     1      -9.126   0.781   1.085  1.00  0.00     0.053 C 
HETATM   42  C29 UNL     1      -6.635   1.208   0.856  1.00  0.00    -0.016 C 
HETATM   43  C26 UNL     1      -9.434   2.223   0.947  1.00  0.00     0.149 C 
HETATM   44  O9  UNL     1     -10.603   2.598   1.002  1.00  0.00    -0.293 OA
HETATM   45  C27 UNL     1      -8.285   3.192   0.840  1.00  0.00     0.084 C 
HETATM   46  C28 UNL     1      -7.079   2.540   0.180  1.00  0.00     0.022 C 
HETATM   47  C30 UNL     1      -6.021   1.523   2.239  1.00  0.00     0.020 C 
HETATM   48  C32 UNL     1      -4.261   1.245  -0.231  1.00  0.00     0.007 C 
HETATM   49  C33 UNL     1      -3.284   0.553  -1.185  1.00  0.00     0.013 C 
HETATM   50  C35 UNL     1      -2.145  -0.978   0.449  1.00  0.00     0.019 C 
BRANCH  31  51
HETATM   51  O8  UNL     1      -1.451  -0.881  -2.754  1.00  0.00    -0.381 OA
HETATM   52  H19 UNL     1      -0.772  -0.536  -2.138  1.00  0.00     0.211 HD
ENDBRANCH  31  51
ENDBRANCH  29  31
ENDBRANCH  28  29
ENDBRANCH  27  28
ENDBRANCH   1  27
TORSDOF 14
