REMARK  2 active torsions:
REMARK  status: ('A' for Active; 'I' for Inactive)
REMARK    1  A    between atoms: C13_16  and  C14_17 
REMARK    2  A    between atoms: C14_17  and  O4_19 
ROOT
HETATM    1  C1  UNL     1      -0.767   0.349  -3.995  1.00  0.00     0.046 C 
HETATM    2  C2  UNL     1      -1.359   0.367  -2.613  1.00  0.00    -0.054 C 
HETATM    3  C3  UNL     1      -2.683   0.319  -2.415  1.00  0.00     0.011 C 
HETATM    4  C4  UNL     1      -3.325   0.400  -1.053  1.00  0.00     0.159 C 
HETATM    5  O1  UNL     1      -4.481  -0.452  -1.154  1.00  0.00    -0.372 OA
HETATM    6  C5  UNL     1      -4.364  -1.747  -0.581  1.00  0.00     0.162 C 
HETATM    7  C6  UNL     1      -3.126  -2.524  -1.094  1.00  0.00     0.068 C 
HETATM    8  C7  UNL     1      -2.142  -2.454   0.083  1.00  0.00     0.147 C 
HETATM    9  O2  UNL     1      -0.753  -2.388  -0.247  1.00  0.00    -0.312 OA
HETATM   10  C8  UNL     1       0.011  -3.293   0.429  1.00  0.00     0.283 C 
HETATM   11  O3  UNL     1      -0.366  -4.378   0.856  1.00  0.00    -0.260 OA
HETATM   12  C9  UNL     1       1.281  -2.702   0.887  1.00  0.00     0.082 C 
HETATM   13  C10 UNL     1       2.201  -1.986   0.230  1.00  0.00     0.006 C 
HETATM   14  C11 UNL     1       2.275  -1.714  -1.182  1.00  0.00    -0.001 C 
HETATM   15  C12 UNL     1       3.013  -0.745  -1.756  1.00  0.00     0.007 C 
HETATM   16  C13 UNL     1       3.788   0.410  -1.144  1.00  0.00     0.172 C 
HETATM   17  O5  UNL     1       3.283   0.725   0.158  1.00  0.00    -0.379 OA
HETATM   18  C16 UNL     1       2.721   2.039   0.243  1.00  0.00     0.173 C 
HETATM   19  C17 UNL     1       2.018   2.207   1.598  1.00  0.00     0.060 C 
HETATM   20  C18 UNL     1       1.227   3.500   1.731  1.00  0.00    -0.076 C 
HETATM   21  C19 UNL     1       2.027   4.765   1.565  1.00  0.00     0.043 C 
HETATM   22  C20 UNL     1      -0.101   3.582   1.974  1.00  0.00     0.084 C 
HETATM   23  C21 UNL     1      -0.992   2.424   2.209  1.00  0.00     0.283 C 
HETATM   24  O6  UNL     1      -0.763   1.533   3.008  1.00  0.00    -0.260 OA
HETATM   25  O7  UNL     1      -2.053   2.508   1.365  1.00  0.00    -0.317 OA
HETATM   26  C22 UNL     1      -2.891   1.334   1.307  1.00  0.00     0.195 C 
HETATM   27  C23 UNL     1      -2.416   0.224   0.268  1.00  0.00     0.053 C 
HETATM   28  C24 UNL     1      -0.936   0.429  -0.081  1.00  0.00     0.170 A 
HETATM   29  O8  UNL     1      -0.602   1.706  -0.660  1.00  0.00    -0.370 OA
HETATM   30  C25 UNL     1      -0.441   0.571  -1.503  1.00  0.00     0.180 A 
HETATM   31  C26 UNL     1      -2.628  -1.235   0.951  1.00  0.00     0.034 C 
HETATM   32  C27 UNL     1      -2.025  -1.386   2.360  1.00  0.00     0.022 C 
HETATM   33  C28 UNL     1      -4.095  -1.547   0.870  1.00  0.00     0.119 A 
HETATM   34  C29 UNL     1      -4.949  -2.175   1.949  1.00  0.00     0.210 A 
HETATM   35  O9  UNL     1      -5.015  -0.769   1.632  1.00  0.00    -0.371 OA
ENDROOT
BRANCH  16  36
HETATM   36  C14 UNL     1       5.318   0.173  -1.084  1.00  0.00     0.146 C 
HETATM   37  C15 UNL     1       5.746  -1.010  -0.224  1.00  0.00     0.042 C 
BRANCH  36  38
HETATM   38  O4  UNL     1       5.864   0.025  -2.400  1.00  0.00    -0.393 OA
HETATM   39  H19 UNL     1       5.660  -0.878  -2.698  1.00  0.00     0.210 HD
ENDBRANCH  36  38
ENDBRANCH  16  36
TORSDOF 2
