REMARK  6 active torsions:
REMARK  status: ('A' for Active; 'I' for Inactive)
REMARK    1  A    between atoms: O1_2  and  C2_3 
REMARK    2  A    between atoms: C2_3  and  C3_5 
REMARK    3  A    between atoms: C9_11  and  O3_12 
REMARK    4  A    between atoms: C11_14  and  C12_15 
REMARK    5  A    between atoms: C12_15  and  O4_17 
REMARK    6  A    between atoms: C30_36  and  O7_37 
ROOT
HETATM    1  C3  UNL     1      -1.575   0.588   0.013  1.00  0.00     0.087 C 
HETATM    2  C4  UNL     1      -0.951   1.543   1.093  1.00  0.00     0.024 C 
HETATM    3  C5  UNL     1       0.462   1.129   1.533  1.00  0.00     0.011 C 
HETATM    4  C6  UNL     1       1.551   1.036   0.416  1.00  0.00    -0.033 C 
HETATM    5  C7  UNL     1       1.986   2.488   0.103  1.00  0.00     0.016 C 
HETATM    6  C8  UNL     1       0.950   0.355  -0.888  1.00  0.00     0.032 C 
HETATM    7  C9  UNL     1       1.360  -1.124  -0.991  1.00  0.00     0.124 C 
HETATM    8  C10 UNL     1       2.876  -1.219  -1.146  1.00  0.00     0.046 C 
HETATM    9  C11 UNL     1       3.715  -0.623   0.033  1.00  0.00     0.014 C 
HETATM   10  C14 UNL     1       4.808   0.285  -0.614  1.00  0.00     0.191 C 
HETATM   11  O5  UNL     1       5.983   0.490   0.197  1.00  0.00    -0.321 OA
HETATM   12  C15 UNL     1       5.982   1.196   1.341  1.00  0.00     0.258 C 
HETATM   13  O6  UNL     1       6.976   1.256   2.058  1.00  0.00    -0.265 OA
HETATM   14  C16 UNL     1       4.708   1.898   1.699  1.00  0.00     0.111 C 
HETATM   15  C17 UNL     1       3.607   0.940   2.139  1.00  0.00     0.016 C 
HETATM   16  C18 UNL     1       2.803   0.197   1.031  1.00  0.00     0.008 C 
HETATM   17  C19 UNL     1      -0.595   0.674  -1.244  1.00  0.00    -0.017 C 
HETATM   18  C20 UNL     1      -0.561   2.119  -1.892  1.00  0.00     0.017 C 
HETATM   19  C21 UNL     1      -1.160  -0.210  -2.397  1.00  0.00     0.012 C 
HETATM   20  C22 UNL     1      -2.588   0.152  -2.838  1.00  0.00     0.013 C 
HETATM   21  C23 UNL     1      -3.640   0.310  -1.704  1.00  0.00    -0.008 C 
HETATM   22  C24 UNL     1      -4.816   1.136  -2.323  1.00  0.00     0.018 C 
HETATM   23  C25 UNL     1      -4.233  -1.102  -1.412  1.00  0.00     0.039 C 
HETATM   24  C26 UNL     1      -4.918  -1.264  -0.092  1.00  0.00    -0.023 C 
HETATM   25  C27 UNL     1      -4.862  -0.367   0.902  1.00  0.00    -0.085 C 
HETATM   26  C28 UNL     1      -5.553  -0.592   2.217  1.00  0.00     0.043 C 
HETATM   27  C29 UNL     1      -4.106   0.925   0.774  1.00  0.00     0.073 C 
HETATM   28  C30 UNL     1      -3.070   1.029  -0.395  1.00  0.00     0.086 C 
ENDROOT
BRANCH   1  29
HETATM   29  C2  UNL     1      -1.698  -0.777   0.758  1.00  0.00     0.271 C 
HETATM   30  O2  UNL     1      -1.854  -0.874   1.975  1.00  0.00    -0.264 OA
BRANCH  29  31
HETATM   31  O1  UNL     1      -1.696  -1.857  -0.061  1.00  0.00    -0.326 OA
HETATM   32  C1  UNL     1      -1.870  -3.107   0.614  1.00  0.00     0.213 C 
ENDBRANCH  29  31
ENDBRANCH   1  29
BRANCH  28  33
HETATM   33  O7  UNL     1      -2.990   2.459  -0.655  1.00  0.00    -0.387 OA
HETATM   34  H46 UNL     1      -3.882   2.812  -0.798  1.00  0.00     0.210 HD
ENDBRANCH  28  33
BRANCH   7  35
HETATM   35  O3  UNL     1       0.948  -1.869   0.135  1.00  0.00    -0.395 OA
HETATM   36  H13 UNL     1       1.058  -2.811  -0.089  1.00  0.00     0.210 HD
ENDBRANCH   7  35
BRANCH   9  37
HETATM   37  C12 UNL     1       4.472  -1.808   0.770  1.00  0.00     0.125 C 
HETATM   38  C13 UNL     1       3.609  -2.864   1.461  1.00  0.00     0.040 C 
BRANCH  37  39
HETATM   39  O4  UNL     1       5.293  -2.488  -0.191  1.00  0.00    -0.395 OA
HETATM   40  H20 UNL     1       5.656  -3.293   0.222  1.00  0.00     0.210 HD
ENDBRANCH  37  39
ENDBRANCH   9  37
TORSDOF 6
