REMARK  7 active torsions:
REMARK  status: ('A' for Active; 'I' for Inactive)
REMARK    1  A    between atoms: C2_2  and  C30_33 
REMARK    2  A    between atoms: C3_3  and  C4_4 
REMARK    3  A    between atoms: C4_4  and  C5_5 
REMARK    4  A    between atoms: C5_5  and  C6_6 
REMARK    5  A    between atoms: C6_6  and  C8_8 
REMARK    6  A    between atoms: C10_10  and  O1_11 
REMARK    7  A    between atoms: C30_33  and  O5_35 
ROOT
HETATM    1  C8  UNL     1       2.094  -0.168  -0.215  1.00  0.00     0.001 C 
HETATM    2  C9  UNL     1       2.061  -1.521  -0.972  1.00  0.00     0.038 C 
HETATM    3  C10 UNL     1       0.569  -1.841  -1.232  1.00  0.00     0.131 C 
HETATM    4  C11 UNL     1      -0.177  -0.502  -0.973  1.00  0.00     0.014 C 
HETATM    5  C12 UNL     1      -0.067   0.380  -2.259  1.00  0.00     0.023 C 
HETATM    6  C13 UNL     1      -1.666  -0.498  -0.630  1.00  0.00    -0.058 C 
HETATM    7  C14 UNL     1      -2.219   0.515   0.089  1.00  0.00    -0.000 C 
HETATM    8  C15 UNL     1      -1.302   1.593   0.664  1.00  0.00     0.157 C 
HETATM    9  O2  UNL     1      -1.764   2.588   1.221  1.00  0.00    -0.293 OA
HETATM   10  C16 UNL     1       0.213   1.456   0.552  1.00  0.00     0.094 C 
HETATM   11  C17 UNL     1       0.625   0.013   0.271  1.00  0.00    -0.019 C 
HETATM   12  C18 UNL     1       0.369  -0.814   1.568  1.00  0.00     0.017 C 
HETATM   13  C19 UNL     1      -3.740   0.626   0.367  1.00  0.00    -0.008 C 
HETATM   14  C20 UNL     1      -3.934   0.277   1.863  1.00  0.00     0.021 C 
HETATM   15  C21 UNL     1      -4.276   2.072   0.112  1.00  0.00     0.022 C 
HETATM   16  C22 UNL     1      -5.733   2.180  -0.332  1.00  0.00     0.080 C 
HETATM   17  C23 UNL     1      -6.557   1.004   0.127  1.00  0.00     0.135 C 
HETATM   18  O3  UNL     1      -7.587   1.169   0.780  1.00  0.00    -0.297 OA
HETATM   19  C24 UNL     1      -6.091  -0.378  -0.341  1.00  0.00     0.018 C 
HETATM   20  C25 UNL     1      -6.542  -1.451   0.668  1.00  0.00     0.023 C 
HETATM   21  C26 UNL     1      -6.824  -0.660  -1.670  1.00  0.00     0.023 C 
HETATM   22  C27 UNL     1      -4.543  -0.335  -0.590  1.00  0.00     0.014 C 
HETATM   23  C28 UNL     1      -3.898  -1.724  -0.650  1.00  0.00     0.011 C 
HETATM   24  C29 UNL     1      -2.479  -1.635  -1.199  1.00  0.00     0.036 C 
ENDROOT
BRANCH   1  25
HETATM   25  C6  UNL     1       3.246   0.040   0.812  1.00  0.00    -0.013 C 
HETATM   26  C7  UNL     1       3.653  -1.211   1.601  1.00  0.00     0.010 C 
BRANCH  25  27
HETATM   27  C5  UNL     1       4.483   0.626   0.079  1.00  0.00     0.008 C 
BRANCH  27  28
HETATM   28  C4  UNL     1       5.628   1.029   1.014  1.00  0.00     0.028 C 
BRANCH  28  29
HETATM   29  C3  UNL     1       6.731   1.717   0.257  1.00  0.00    -0.013 C 
HETATM   30  C2  UNL     1       7.940   1.231  -0.091  1.00  0.00     0.008 C 
HETATM   31  C1  UNL     1       8.969   2.089  -0.770  1.00  0.00     0.055 C 
BRANCH  30  32
HETATM   32  C30 UNL     1       8.399  -0.155   0.161  1.00  0.00     0.171 C 
HETATM   33  O4  UNL     1       9.552  -0.486   0.373  1.00  0.00    -0.646 OA
BRANCH  32  34
HETATM   34  O5  UNL     1       7.427  -1.073   0.040  1.00  0.00    -0.773 OA
HETATM   35  H44 UNL     1       7.897  -1.919   0.190  1.00  0.00     0.167 HD
ENDBRANCH  32  34
ENDBRANCH  30  32
ENDBRANCH  28  29
ENDBRANCH  27  28
ENDBRANCH  25  27
ENDBRANCH   1  25
BRANCH   3  36
HETATM   36  O1  UNL     1       0.383  -2.343  -2.547  1.00  0.00    -0.394 OA
HETATM   37  H17 UNL     1       0.944  -3.132  -2.642  1.00  0.00     0.210 HD
ENDBRANCH   3  36
TORSDOF 7
