REMARK  6 active torsions:
REMARK  status: ('A' for Active; 'I' for Inactive)
REMARK    1  A    between atoms: C2_2  and  C30_31 
REMARK    2  A    between atoms: C3_3  and  C4_4 
REMARK    3  A    between atoms: C4_4  and  C5_5 
REMARK    4  A    between atoms: C5_5  and  C6_6 
REMARK    5  A    between atoms: C6_6  and  C8_8 
REMARK    6  A    between atoms: C30_31  and  O2_32 
ROOT
HETATM    1  C8  UNL     1       1.988  -0.106  -1.012  1.00  0.00    -0.002 C 
HETATM    2  C9  UNL     1       2.086  -1.630  -0.667  1.00  0.00     0.007 C 
HETATM    3  C10 UNL     1       0.699  -2.083  -0.157  1.00  0.00     0.015 C 
HETATM    4  C11 UNL     1      -0.241  -0.936  -0.556  1.00  0.00    -0.013 C 
HETATM    5  C12 UNL     1      -0.568  -1.145  -2.081  1.00  0.00     0.021 C 
HETATM    6  C13 UNL     1      -1.605  -0.812   0.138  1.00  0.00    -0.070 C 
HETATM    7  C14 UNL     1      -2.443  -1.870   0.193  1.00  0.00    -0.022 C 
HETATM    8  C15 UNL     1      -3.930  -1.752   0.396  1.00  0.00     0.034 C 
HETATM    9  C16 UNL     1      -4.390  -0.308   0.105  1.00  0.00     0.013 C 
HETATM   10  C17 UNL     1      -5.933  -0.071   0.060  1.00  0.00     0.018 C 
HETATM   11  C18 UNL     1      -6.663  -0.317   1.385  1.00  0.00     0.023 C 
HETATM   12  C19 UNL     1      -6.573  -0.970  -1.019  1.00  0.00     0.023 C 
HETATM   13  C20 UNL     1      -6.187   1.392  -0.354  1.00  0.00     0.135 C 
HETATM   14  O1  UNL     1      -7.302   1.785  -0.706  1.00  0.00    -0.297 OA
HETATM   15  C21 UNL     1      -5.012   2.349  -0.332  1.00  0.00     0.080 C 
HETATM   16  C22 UNL     1      -4.189   2.113   0.924  1.00  0.00     0.017 C 
HETATM   17  C23 UNL     1      -3.569   0.692   0.986  1.00  0.00    -0.031 C 
HETATM   18  C24 UNL     1      -3.551   0.296   2.498  1.00  0.00     0.016 C 
HETATM   19  C25 UNL     1      -2.057   0.620   0.511  1.00  0.00     0.024 C 
HETATM   20  C26 UNL     1      -1.594   1.590  -0.593  1.00  0.00     0.010 C 
HETATM   21  C27 UNL     1      -0.052   1.575  -0.810  1.00  0.00     0.011 C 
HETATM   22  C28 UNL     1       0.673   0.312  -0.272  1.00  0.00    -0.029 C 
HETATM   23  C29 UNL     1       1.032   0.491   1.242  1.00  0.00     0.016 C 
ENDROOT
BRANCH   1  24
HETATM   24  C6  UNL     1       3.325   0.651  -0.735  1.00  0.00    -0.014 C 
HETATM   25  C7  UNL     1       3.194   2.156  -0.986  1.00  0.00     0.010 C 
BRANCH  24  26
HETATM   26  C5  UNL     1       4.457   0.053  -1.617  1.00  0.00     0.008 C 
BRANCH  26  27
HETATM   27  C4  UNL     1       5.867   0.615  -1.395  1.00  0.00     0.028 C 
BRANCH  27  28
HETATM   28  C3  UNL     1       6.360   0.458   0.017  1.00  0.00    -0.022 C 
HETATM   29  C2  UNL     1       7.117  -0.542   0.515  1.00  0.00    -0.064 C 
HETATM   30  C1  UNL     1       7.590  -1.731  -0.278  1.00  0.00     0.045 C 
BRANCH  29  31
HETATM   31  C30 UNL     1       7.559  -0.530   1.955  1.00  0.00     0.197 C 
BRANCH  31  32
HETATM   32  O2  UNL     1       6.988  -1.646   2.619  1.00  0.00    -0.397 OA
HETATM   33  H48 UNL     1       7.265  -1.588   3.549  1.00  0.00     0.209 HD
ENDBRANCH  31  32
ENDBRANCH  29  31
ENDBRANCH  27  28
ENDBRANCH  26  27
ENDBRANCH  24  26
ENDBRANCH   1  24
TORSDOF 6
