REMARK  3 active torsions:
REMARK  status: ('A' for Active; 'I' for Inactive)
REMARK    1  A    between atoms: C4_4  and  C5_5 
REMARK    2  A    between atoms: C5_5  and  C7_7 
REMARK    3  A    between atoms: C7_7  and  O1_10 
ROOT
HETATM    1  C1  UNL     1      -3.405  -1.918  -1.763  1.00  0.00     0.010 C 
HETATM    2  C2  UNL     1      -3.190  -0.847  -0.697  1.00  0.00    -0.009 C 
HETATM    3  C3  UNL     1      -4.410   0.077  -0.591  1.00  0.00     0.037 C 
HETATM    4  C4  UNL     1      -4.289   1.005   0.629  1.00  0.00     0.129 C 
HETATM    5  O2  UNL     1      -2.904   1.326   0.873  1.00  0.00    -0.380 OA
HETATM    6  C10 UNL     1      -2.079   1.416  -0.278  1.00  0.00     0.128 C 
HETATM    7  C11 UNL     1      -0.650   1.786   0.165  1.00  0.00     0.042 C 
HETATM    8  C12 UNL     1       0.274   0.891  -0.686  1.00  0.00    -0.030 C 
HETATM    9  C13 UNL     1       0.405   1.577  -2.083  1.00  0.00     0.016 C 
HETATM   10  C14 UNL     1       1.673   0.641  -0.068  1.00  0.00     0.004 C 
HETATM   11  C15 UNL     1       2.578   1.880  -0.066  1.00  0.00     0.007 C 
HETATM   12  C16 UNL     1       3.901   1.573   0.623  1.00  0.00     0.007 C 
HETATM   13  C17 UNL     1       4.721   0.603  -0.229  1.00  0.00     0.010 C 
HETATM   14  C18 UNL     1       6.087   0.184   0.405  1.00  0.00     0.018 C 
HETATM   15  C19 UNL     1       5.996  -0.194   1.890  1.00  0.00     0.023 C 
HETATM   16  C20 UNL     1       7.113   1.321   0.233  1.00  0.00     0.023 C 
HETATM   17  C21 UNL     1       6.644  -1.029  -0.357  1.00  0.00     0.135 C 
HETATM   18  O3  UNL     1       7.519  -1.752   0.140  1.00  0.00    -0.297 OA
HETATM   19  C22 UNL     1       6.160  -1.249  -1.766  1.00  0.00     0.080 C 
HETATM   20  C23 UNL     1       4.640  -1.352  -1.836  1.00  0.00     0.018 C 
HETATM   21  C24 UNL     1       3.930  -0.620  -0.703  1.00  0.00    -0.026 A 
HETATM   22  C25 UNL     1       3.166  -1.454   0.293  1.00  0.00     0.021 A 
HETATM   23  C26 UNL     1       2.375  -0.595  -0.681  1.00  0.00    -0.027 A 
HETATM   24  C27 UNL     1       1.631  -1.346  -1.795  1.00  0.00     0.011 C 
HETATM   25  C28 UNL     1       0.092  -1.387  -1.732  1.00  0.00     0.011 C 
HETATM   26  C29 UNL     1      -0.535  -0.453  -0.690  1.00  0.00    -0.030 C 
HETATM   27  C30 UNL     1      -0.539  -1.205   0.676  1.00  0.00     0.016 C 
HETATM   28  C31 UNL     1      -1.974   0.050  -1.013  1.00  0.00     0.027 C 
ENDROOT
BRANCH   4  29
HETATM   29  C5  UNL     1      -4.841   0.469   1.997  1.00  0.00     0.044 C 
HETATM   30  C6  UNL     1      -4.629   1.591   3.045  1.00  0.00     0.015 C 
BRANCH  29  31
HETATM   31  C7  UNL     1      -6.320  -0.066   2.013  1.00  0.00     0.056 C 
HETATM   32  C8  UNL     1      -6.410  -1.553   1.618  1.00  0.00     0.045 C 
HETATM   33  C9  UNL     1      -6.993   0.048   3.399  1.00  0.00     0.045 C 
BRANCH  31  34
HETATM   34  O1  UNL     1      -7.135   0.716   1.138  1.00  0.00    -0.390 OA
HETATM   35  H18 UNL     1      -7.055   0.375   0.230  1.00  0.00     0.210 HD
ENDBRANCH  31  34
ENDBRANCH  29  31
ENDBRANCH   4  29
TORSDOF 3
