REMARK  21 active torsions:
REMARK  status: ('A' for Active; 'I' for Inactive)
REMARK    1  A    between atoms: C2_2  and  C3_3 
REMARK    2  A    between atoms: C2_2  and  C27_33 
REMARK    3  A    between atoms: C4_4  and  C5_5 
REMARK    4  A    between atoms: C6_6  and  C7_7 
REMARK    5  A    between atoms: C6_6  and  C10_12 
REMARK    6  A    between atoms: C7_7  and  O1_8 
REMARK    7  A    between atoms: O1_8  and  C8_9 
REMARK    8  A    between atoms: C8_9  and  C9_10 
REMARK    9  A    between atoms: C9_10  and  O2_11 
REMARK   10  A    between atoms: C14_16  and  O3_17 
REMARK   11  A    between atoms: C15_18  and  C16_19 
REMARK   12  A    between atoms: C16_19  and  C17_20 
REMARK   13  A    between atoms: C17_20  and  C18_21 
REMARK   14  A    between atoms: C18_21  and  O4_22 
REMARK   15  A    between atoms: C20_24  and  C22_26 
REMARK   16  A    between atoms: C25_30  and  O6_32 
REMARK   17  A    between atoms: C27_33  and  C28_34 
REMARK   18  A    between atoms: C28_34  and  C29_35 
REMARK   19  A    between atoms: C30_36  and  C32_38 
REMARK   20  A    between atoms: C32_38  and  N1_39 
REMARK   21  A    between atoms: N1_39  and  C33_40 
ROOT
HETATM    1  C10 UNL     1      -1.505   1.886  -1.039  1.00  0.00     0.046 C 
HETATM    2  C11 UNL     1      -1.823   1.966  -2.529  1.00  0.00     0.013 C 
HETATM    3  C12 UNL     1      -2.716   0.751  -2.766  1.00  0.00     0.017 C 
HETATM    4  C13 UNL     1      -3.568   0.528  -1.465  1.00  0.00     0.024 C 
HETATM    5  C14 UNL     1      -2.895   1.541  -0.441  1.00  0.00     0.138 C 
HETATM    6  C15 UNL     1      -3.493  -1.000  -1.019  1.00  0.00     0.029 C 
HETATM    7  C19 UNL     1      -4.664  -1.428  -0.102  1.00  0.00    -0.066 C 
HETATM    8  C20 UNL     1      -5.100  -2.703   0.075  1.00  0.00    -0.021 C 
HETATM    9  C21 UNL     1      -6.245  -3.098   0.973  1.00  0.00     0.052 C 
HETATM   10  C23 UNL     1      -5.353  -0.258   0.574  1.00  0.00     0.038 C 
HETATM   11  C24 UNL     1      -5.935   0.724  -0.445  1.00  0.00     0.042 C 
HETATM   12  C25 UNL     1      -5.099   0.851  -1.744  1.00  0.00     0.065 C 
HETATM   13  C26 UNL     1      -5.751  -0.026  -2.838  1.00  0.00     0.047 C 
ENDROOT
BRANCH   1  14
HETATM   14  C6  UNL     1      -0.703   3.072  -0.497  1.00  0.00    -0.050 C 
HETATM   15  C5  UNL     1       0.541   2.987   0.028  1.00  0.00     0.005 C 
BRANCH  15  16
HETATM   16  C4  UNL     1       1.357   1.816   0.278  1.00  0.00     0.001 C 
HETATM   17  C3  UNL     1       2.610   1.925   0.754  1.00  0.00     0.006 C 
BRANCH  17  18
HETATM   18  C2  UNL     1       3.531   0.837   1.086  1.00  0.00    -0.067 C 
HETATM   19  C1  UNL     1       4.757   1.161   1.530  1.00  0.00     0.019 C 
BRANCH  18  20
HETATM   20  C27 UNL     1       3.033  -0.593   0.933  1.00  0.00     0.041 C 
BRANCH  20  21
HETATM   21  C28 UNL     1       3.982  -1.770   1.240  1.00  0.00     0.032 C 
BRANCH  21  22
HETATM   22  C29 UNL     1       5.063  -1.958   0.206  1.00  0.00    -0.022 C 
HETATM   23  C30 UNL     1       6.379  -2.191   0.405  1.00  0.00    -0.060 C 
HETATM   24  C31 UNL     1       7.023  -2.270   1.763  1.00  0.00     0.045 C 
BRANCH  23  25
HETATM   25  C32 UNL     1       7.311  -2.317  -0.786  1.00  0.00     0.303 C 
BRANCH  25  26
HETATM   26  N1  UNL     1       7.604  -3.690  -1.181  1.00  0.00     0.086 N 
HETATM   27  H50 UNL     1       6.733  -4.219  -1.196  1.00  0.00     0.316 HD
BRANCH  26  28
HETATM   28  C33 UNL     1       8.602  -4.402  -0.392  1.00  0.00     0.265 C 
HETATM   29  C34 UNL     1       9.990  -3.777  -0.438  1.00  0.00     0.037 C 
ENDBRANCH  26  28
ENDBRANCH  25  26
ENDBRANCH  23  25
ENDBRANCH  21  22
ENDBRANCH  20  21
ENDBRANCH  18  20
ENDBRANCH  17  18
ENDBRANCH  15  16
BRANCH  14  30
HETATM   30  C7  UNL     1      -1.301   4.462  -0.608  1.00  0.00     0.202 C 
BRANCH  30  31
HETATM   31  O1  UNL     1      -2.225   4.656   0.468  1.00  0.00    -0.385 OA
BRANCH  31  32
HETATM   32  C8  UNL     1      -1.676   5.354   1.596  1.00  0.00     0.194 C 
BRANCH  32  33
HETATM   33  C9  UNL     1      -1.709   6.863   1.360  1.00  0.00     0.190 C 
BRANCH  33  34
HETATM   34  O2  UNL     1      -3.046   7.286   1.095  1.00  0.00    -0.399 OA
HETATM   35  H12 UNL     1      -3.417   6.629   0.475  1.00  0.00     0.209 HD
ENDBRANCH  33  34
ENDBRANCH  32  33
ENDBRANCH  31  32
ENDBRANCH  30  31
ENDBRANCH  14  30
ENDBRANCH   1  14
BRANCH   5  36
HETATM   36  O3  UNL     1      -3.708   2.710  -0.326  1.00  0.00    -0.394 OA
HETATM   37  H19 UNL     1      -3.246   3.333   0.277  1.00  0.00     0.210 HD
ENDBRANCH   5  36
BRANCH   6  38
HETATM   38  C16 UNL     1      -2.118  -1.543  -0.539  1.00  0.00     0.012 C 
BRANCH  38  39
HETATM   39  C17 UNL     1      -1.737  -1.339   0.933  1.00  0.00     0.027 C 
BRANCH  39  40
HETATM   40  C18 UNL     1      -0.694  -2.355   1.400  1.00  0.00     0.164 C 
BRANCH  40  41
HETATM   41  O4  UNL     1       0.431  -2.357   0.531  1.00  0.00    -0.401 OA
HETATM   42  H27 UNL     1       0.243  -2.988  -0.189  1.00  0.00     0.209 HD
ENDBRANCH  40  41
ENDBRANCH  39  40
ENDBRANCH  38  39
ENDBRANCH   6  38
BRANCH  12  43
HETATM   43  O6  UNL     1      -5.246   2.188  -2.247  1.00  0.00    -0.389 OA
HETATM   44  H39 UNL     1      -4.813   2.763  -1.577  1.00  0.00     0.210 HD
ENDBRANCH  12  43
BRANCH   8  45
HETATM   45  C22 UNL     1      -4.480  -3.858  -0.643  1.00  0.00     0.265 C 
HETATM   46  O5  UNL     1      -4.592  -5.017  -0.260  1.00  0.00    -0.302 OA
ENDBRANCH   8  45
TORSDOF 21
