REMARK  8 active torsions:
REMARK  status: ('A' for Active; 'I' for Inactive)
REMARK    1  A    between atoms: C4_4  and  C5_5 
REMARK    2  A    between atoms: C5_5  and  C6_6 
REMARK    3  A    between atoms: C6_6  and  C7_7 
REMARK    4  A    between atoms: C7_7  and  C9_9 
REMARK    5  A    between atoms: C18_18  and  C20_20 
REMARK    6  A    between atoms: C20_20  and  O2_22 
REMARK    7  A    between atoms: C21_23  and  O3_24 
REMARK    8  A    between atoms: C23_26  and  O4_27 
ROOT
HETATM    1  C9  UNL     1       2.375   1.239   0.406  1.00  0.00    -0.002 C 
HETATM    2  C10 UNL     1       2.155   2.521  -0.447  1.00  0.00     0.006 C 
HETATM    3  C11 UNL     1       0.666   2.564  -0.818  1.00  0.00     0.011 C 
HETATM    4  C12 UNL     1      -0.015   1.578   0.149  1.00  0.00    -0.032 C 
HETATM    5  C13 UNL     1      -0.232   2.352   1.489  1.00  0.00     0.016 C 
HETATM    6  C14 UNL     1      -1.356   0.999  -0.369  1.00  0.00     0.004 C 
HETATM    7  C15 UNL     1      -2.491   2.032  -0.449  1.00  0.00     0.007 C 
HETATM    8  C16 UNL     1      -3.731   1.392  -1.061  1.00  0.00     0.007 C 
HETATM    9  C17 UNL     1      -4.335   0.372  -0.083  1.00  0.00     0.018 C 
HETATM   10  C18 UNL     1      -5.617  -0.360  -0.622  1.00  0.00     0.072 C 
HETATM   11  C19 UNL     1      -5.442  -0.891  -2.062  1.00  0.00     0.030 C 
HETATM   12  C21 UNL     1      -6.065  -1.507   0.341  1.00  0.00     0.139 C 
HETATM   13  C22 UNL     1      -5.422  -1.394   1.716  1.00  0.00     0.065 C 
HETATM   14  C23 UNL     1      -3.887  -1.433   1.655  1.00  0.00     0.130 C 
HETATM   15  C24 UNL     1      -3.309  -0.621   0.486  1.00  0.00    -0.001 A 
HETATM   16  C25 UNL     1      -2.398  -1.370  -0.463  1.00  0.00     0.024 A 
HETATM   17  C26 UNL     1      -1.781  -0.284   0.395  1.00  0.00    -0.025 A 
HETATM   18  C27 UNL     1      -0.849  -0.761   1.521  1.00  0.00     0.011 C 
HETATM   19  C28 UNL     1       0.668  -0.529   1.355  1.00  0.00     0.011 C 
HETATM   20  C29 UNL     1       1.054   0.424   0.213  1.00  0.00    -0.032 C 
HETATM   21  C30 UNL     1       1.135  -0.432  -1.080  1.00  0.00     0.016 C 
ENDROOT
BRANCH   1  22
HETATM   22  C7  UNL     1       3.795   0.620   0.220  1.00  0.00    -0.014 C 
HETATM   23  C8  UNL     1       4.165   0.216  -1.214  1.00  0.00     0.010 C 
BRANCH  22  24
HETATM   24  C6  UNL     1       4.050  -0.525   1.231  1.00  0.00     0.008 C 
BRANCH  24  25
HETATM   25  C5  UNL     1       5.529  -0.821   1.528  1.00  0.00     0.028 C 
BRANCH  25  26
HETATM   26  C4  UNL     1       6.248  -1.566   0.440  1.00  0.00    -0.025 C 
HETATM   27  C2  UNL     1       7.327  -1.174  -0.269  1.00  0.00    -0.091 C 
HETATM   28  C1  UNL     1       7.908  -2.067  -1.331  1.00  0.00     0.042 C 
HETATM   29  C3  UNL     1       8.041   0.147  -0.121  1.00  0.00     0.042 C 
ENDBRANCH  25  26
ENDBRANCH  24  25
ENDBRANCH  22  24
ENDBRANCH   1  22
BRANCH  14  30
HETATM   30  O4  UNL     1      -3.415  -0.895   2.893  1.00  0.00    -0.395 OA
HETATM   31  H39 UNL     1      -3.637  -1.543   3.584  1.00  0.00     0.210 HD
ENDBRANCH  14  30
BRANCH  10  32
HETATM   32  C20 UNL     1      -6.760   0.659  -0.661  1.00  0.00     0.151 C 
HETATM   33  O1  UNL     1      -7.399   1.001  -1.642  1.00  0.00    -0.649 OA
BRANCH  32  34
HETATM   34  O2  UNL     1      -7.063   1.188   0.540  1.00  0.00    -0.776 OA
HETATM   35  H33 UNL     1      -7.775   1.835   0.347  1.00  0.00     0.167 HD
ENDBRANCH  32  34
ENDBRANCH  10  32
BRANCH  12  36
HETATM   36  O3  UNL     1      -5.761  -2.814  -0.167  1.00  0.00    -0.394 OA
HETATM   37  H35 UNL     1      -6.427  -3.030  -0.848  1.00  0.00     0.210 HD
ENDBRANCH  12  36
TORSDOF 8
