REMARK  12 active torsions:
REMARK  status: ('A' for Active; 'I' for Inactive)
REMARK    1  A    between atoms: C2_2  and  O1_3 
REMARK    2  A    between atoms: C2_2  and  C3_4 
REMARK    3  A    between atoms: C4_5  and  C5_6 
REMARK    4  A    between atoms: C5_6  and  O2_7 
REMARK    5  A    between atoms: C8_10  and  O3_11 
REMARK    6  A    between atoms: O3_11  and  C9_12 
REMARK    7  A    between atoms: C10_14  and  C11_15 
REMARK    8  A    between atoms: C11_15  and  O5_16 
REMARK    9  A    between atoms: C12_17  and  O6_18 
REMARK   10  A    between atoms: C13_19  and  O7_20 
REMARK   11  A    between atoms: C14_21  and  O8_22 
REMARK   12  A    between atoms: C15_23  and  O9_24 
ROOT
HETATM    1  C5  UNL     1       2.176  -0.469  -0.490  1.00  0.00     0.088 C 
HETATM    2  C6  UNL     1       0.832   0.361  -0.524  1.00  0.00     0.052 C 
HETATM    3  C7  UNL     1       0.698   1.152  -1.843  1.00  0.00     0.016 C 
HETATM    4  C8  UNL     1      -0.425  -0.505  -0.222  1.00  0.00     0.160 C 
HETATM    5  C15 UNL     1      -0.208  -1.958  -0.651  1.00  0.00     0.148 C 
HETATM    6  C16 UNL     1       0.916  -2.616   0.158  1.00  0.00     0.046 C 
HETATM    7  C17 UNL     1       2.112  -1.680   0.518  1.00  0.00    -0.010 C 
HETATM    8  C18 UNL     1       1.968  -1.192   1.982  1.00  0.00     0.018 C 
HETATM    9  C19 UNL     1       3.402  -2.545   0.490  1.00  0.00     0.018 C 
ENDROOT
BRANCH   4  10
HETATM   10  O3  UNL     1      -1.626  -0.021  -0.850  1.00  0.00    -0.350 OA
BRANCH  10  11
HETATM   11  C9  UNL     1      -2.229   1.077  -0.159  1.00  0.00     0.292 C 
HETATM   12  O4  UNL     1      -2.743   0.674   1.107  1.00  0.00    -0.348 OA
HETATM   13  C10 UNL     1      -4.067   0.133   1.108  1.00  0.00     0.179 C 
HETATM   14  C12 UNL     1      -4.581  -0.330  -0.265  1.00  0.00     0.180 C 
HETATM   15  C13 UNL     1      -4.499   0.815  -1.286  1.00  0.00     0.183 C 
HETATM   16  C14 UNL     1      -3.294   1.739  -1.057  1.00  0.00     0.204 C 
BRANCH  13  17
HETATM   17  C11 UNL     1      -4.082  -1.014   2.129  1.00  0.00     0.198 C 
BRANCH  17  18
HETATM   18  O5  UNL     1      -5.387  -1.551   2.313  1.00  0.00    -0.398 OA
HETATM   19  H18 UNL     1      -5.899  -0.889   2.812  1.00  0.00     0.209 HD
ENDBRANCH  17  18
ENDBRANCH  13  17
BRANCH  14  20
HETATM   20  O6  UNL     1      -5.946  -0.770  -0.187  1.00  0.00    -0.390 OA
HETATM   21  H20 UNL     1      -5.976  -1.478   0.490  1.00  0.00     0.210 HD
ENDBRANCH  14  20
BRANCH  15  22
HETATM   22  O7  UNL     1      -4.432   0.244  -2.605  1.00  0.00    -0.390 OA
HETATM   23  H22 UNL     1      -4.774   0.915  -3.218  1.00  0.00     0.210 HD
ENDBRANCH  15  22
BRANCH  16  24
HETATM   24  O8  UNL     1      -3.766   2.964  -0.469  1.00  0.00    -0.388 OA
HETATM   25  H24 UNL     1      -2.995   3.533  -0.310  1.00  0.00     0.210 HD
ENDBRANCH  16  24
ENDBRANCH  10  11
ENDBRANCH   4  10
BRANCH   5  26
HETATM   26  O9  UNL     1      -1.401  -2.720  -0.452  1.00  0.00    -0.393 OA
HETATM   27  H26 UNL     1      -2.096  -2.239  -0.945  1.00  0.00     0.210 HD
ENDBRANCH   5  26
BRANCH   1  28
HETATM   28  C4  UNL     1       3.416   0.390  -0.277  1.00  0.00     0.010 C 
HETATM   29  C3  UNL     1       3.530   1.541   0.409  1.00  0.00     0.003 C 
BRANCH  29  30
HETATM   30  C2  UNL     1       4.758   2.392   0.576  1.00  0.00     0.136 C 
HETATM   31  C1  UNL     1       5.992   1.967  -0.213  1.00  0.00     0.043 C 
BRANCH  30  32
HETATM   32  O1  UNL     1       4.382   3.709   0.178  1.00  0.00    -0.392 OA
HETATM   33  H5  UNL     1       5.174   4.269   0.243  1.00  0.00     0.210 HD
ENDBRANCH  30  32
ENDBRANCH  29  30
ENDBRANCH   1  28
BRANCH   1  34
HETATM   34  O2  UNL     1       2.377  -0.975  -1.827  1.00  0.00    -0.385 OA
HETATM   35  H8  UNL     1       2.354  -1.948  -1.831  1.00  0.00     0.211 HD
ENDBRANCH   1  34
TORSDOF 12
