REMARK  10 active torsions:
REMARK  status: ('A' for Active; 'I' for Inactive)
REMARK    1  A    between atoms: C2_2  and  O2_4 
REMARK    2  A    between atoms: O2_4  and  C3_5 
REMARK    3  A    between atoms: C3_5  and  C4_6 
REMARK    4  A    between atoms: C18_21  and  O4_22 
REMARK    5  A    between atoms: C21_25  and  O5_26 
REMARK    6  A    between atoms: C21_25  and  C22_27 
REMARK    7  A    between atoms: C22_27  and  O6_29 
REMARK    8  A    between atoms: C22_27  and  C24_30 
REMARK    9  A    between atoms: C28_34  and  C29_35 
REMARK   10  A    between atoms: C29_35  and  O7_36 
ROOT
HETATM    1  C4  UNL     1       0.146  -1.549   0.016  1.00  0.00     0.047 C 
HETATM    2  C5  UNL     1       0.492  -0.782   1.301  1.00  0.00     0.018 C 
HETATM    3  C6  UNL     1      -0.774  -0.394   2.092  1.00  0.00     0.007 C 
HETATM    4  C7  UNL     1      -1.842   0.385   1.264  1.00  0.00     0.013 C 
HETATM    5  C8  UNL     1      -2.115  -0.299  -0.115  1.00  0.00     0.030 C 
HETATM    6  C9  UNL     1      -3.026   0.582  -0.985  1.00  0.00     0.035 C 
HETATM    7  C10 UNL     1      -4.210   1.098  -0.235  1.00  0.00    -0.022 C 
HETATM    8  C11 UNL     1      -4.314   1.124   1.106  1.00  0.00    -0.064 C 
HETATM    9  C12 UNL     1      -5.578   1.654   1.751  1.00  0.00     0.062 C 
HETATM   10  C13 UNL     1      -5.286   2.562   2.905  1.00  0.00    -0.019 C 
HETATM   11  C14 UNL     1      -4.087   2.684   3.485  1.00  0.00     0.047 C 
HETATM   12  C15 UNL     1      -2.935   1.858   3.034  1.00  0.00     0.162 C 
HETATM   13  O3  UNL     1      -1.831   2.125   3.509  1.00  0.00    -0.292 OA
HETATM   14  C16 UNL     1      -3.185   0.680   2.051  1.00  0.00     0.048 C 
HETATM   15  C17 UNL     1      -3.649  -0.538   2.874  1.00  0.00     0.029 C 
HETATM   16  C18 UNL     1      -0.791  -0.647  -0.836  1.00  0.00     0.075 C 
HETATM   17  C19 UNL     1      -0.897  -1.416  -2.146  1.00  0.00     0.042 C 
HETATM   18  C20 UNL     1       0.542  -1.901  -2.398  1.00  0.00     0.045 C 
HETATM   19  C21 UNL     1       1.297  -1.887  -1.018  1.00  0.00     0.103 C 
ENDROOT
BRANCH  19  20
HETATM   20  O5  UNL     1       1.684  -3.281  -0.823  1.00  0.00    -0.386 OA
HETATM   21  H27 UNL     1       2.452  -3.404  -1.425  1.00  0.00     0.210 HD
ENDBRANCH  19  20
BRANCH  19  22
HETATM   22  C22 UNL     1       2.698  -1.133  -1.098  1.00  0.00     0.113 C 
HETATM   23  C23 UNL     1       3.540  -1.302   0.181  1.00  0.00     0.052 C 
BRANCH  22  24
HETATM   24  O6  UNL     1       3.424  -1.969  -2.085  1.00  0.00    -0.384 OA
HETATM   25  H31 UNL     1       4.172  -1.418  -2.400  1.00  0.00     0.210 HD
ENDBRANCH  22  24
BRANCH  22  26
HETATM   26  C24 UNL     1       2.779   0.334  -1.654  1.00  0.00     0.173 C 
HETATM   27  C25 UNL     1       2.728   1.482  -0.646  1.00  0.00     0.070 C 
HETATM   28  C26 UNL     1       2.953   2.791  -1.362  1.00  0.00    -0.067 C 
HETATM   29  C27 UNL     1       2.278   3.982  -0.740  1.00  0.00     0.044 C 
HETATM   30  C28 UNL     1       3.733   2.836  -2.464  1.00  0.00     0.042 C 
HETATM   31  C30 UNL     1       4.424   1.604  -2.932  1.00  0.00     0.292 C 
HETATM   32  O8  UNL     1       5.283   1.624  -3.804  1.00  0.00    -0.260 OA
HETATM   33  O9  UNL     1       4.080   0.441  -2.323  1.00  0.00    -0.309 OA
BRANCH  30  34
HETATM   34  C29 UNL     1       4.027   4.069  -3.265  1.00  0.00     0.209 C 
BRANCH  34  35
HETATM   35  O7  UNL     1       4.881   4.925  -2.514  1.00  0.00    -0.396 OA
HETATM   36  H40 UNL     1       5.337   5.498  -3.155  1.00  0.00     0.209 HD
ENDBRANCH  34  35
ENDBRANCH  30  34
ENDBRANCH  22  26
ENDBRANCH  19  22
BRANCH   1  37
HETATM   37  C3  UNL     1      -0.576  -2.897   0.432  1.00  0.00     0.194 C 
BRANCH  37  38
HETATM   38  O2  UNL     1       0.185  -3.591   1.438  1.00  0.00    -0.321 OA
BRANCH  38  39
HETATM   39  C2  UNL     1      -0.271  -4.837   1.732  1.00  0.00     0.254 C 
HETATM   40  C1  UNL     1       0.645  -5.499   2.713  1.00  0.00     0.126 C 
HETATM   41  O1  UNL     1      -1.296  -5.341   1.293  1.00  0.00    -0.266 OA
ENDBRANCH  38  39
ENDBRANCH  37  38
ENDBRANCH   1  37
BRANCH  16  42
HETATM   42  O4  UNL     1      -0.105   0.566  -1.188  1.00  0.00    -0.388 OA
HETATM   43  H22 UNL     1      -0.444   1.312  -0.666  1.00  0.00     0.210 HD
ENDBRANCH  16  42
TORSDOF 10
