REMARK  5 active torsions:
REMARK  status: ('A' for Active; 'I' for Inactive)
REMARK    1  A    between atoms: C2_2  and  C3_3 
REMARK    2  A    between atoms: C4_5  and  C5_6 
REMARK    3  A    between atoms: C5_6  and  C6_7 
REMARK    4  A    between atoms: C6_7  and  C7_8 
REMARK    5  A    between atoms: C7_8  and  C9_10 
ROOT
HETATM    1  C9  UNL     1       1.907  -0.356  -1.494  1.00  0.00    -0.002 C 
HETATM    2  C10 UNL     1       1.971  -1.822  -1.005  1.00  0.00     0.007 C 
HETATM    3  C11 UNL     1       0.618  -2.115  -0.313  1.00  0.00     0.015 C 
HETATM    4  C12 UNL     1      -0.313  -0.956  -0.734  1.00  0.00    -0.005 C 
HETATM    5  C13 UNL     1      -0.885  -1.313  -2.141  1.00  0.00     0.021 C 
HETATM    6  C14 UNL     1      -1.541  -0.592   0.088  1.00  0.00    -0.000 C 
HETATM    7  C15 UNL     1      -2.015   0.681   0.132  1.00  0.00    -0.060 C 
HETATM    8  C16 UNL     1      -1.257   1.823  -0.574  1.00  0.00     0.036 C 
HETATM    9  C17 UNL     1       0.053   1.468  -1.308  1.00  0.00     0.015 C 
HETATM   10  C18 UNL     1       0.720   0.239  -0.688  1.00  0.00    -0.028 C 
HETATM   11  C19 UNL     1       1.147   0.594   0.768  1.00  0.00     0.016 C 
HETATM   12  C20 UNL     1      -3.292   1.090   0.907  1.00  0.00    -0.014 C 
HETATM   13  C21 UNL     1      -2.833   1.832   2.194  1.00  0.00     0.020 C 
HETATM   14  C22 UNL     1      -4.155   2.075   0.063  1.00  0.00     0.021 C 
HETATM   15  C23 UNL     1      -5.628   2.038   0.429  1.00  0.00     0.080 C 
HETATM   16  C24 UNL     1      -6.191   0.681   0.076  1.00  0.00     0.135 C 
HETATM   17  O2  UNL     1      -7.327   0.587  -0.392  1.00  0.00    -0.297 OA
HETATM   18  C25 UNL     1      -5.302  -0.551   0.336  1.00  0.00     0.018 C 
HETATM   19  C26 UNL     1      -6.215  -1.637   0.950  1.00  0.00     0.023 C 
HETATM   20  C27 UNL     1      -4.804  -1.064  -1.023  1.00  0.00     0.023 C 
HETATM   21  C28 UNL     1      -4.171  -0.142   1.350  1.00  0.00     0.020 C 
HETATM   22  C29 UNL     1      -3.283  -1.290   1.839  1.00  0.00     0.090 C 
HETATM   23  C30 UNL     1      -2.246  -1.682   0.826  1.00  0.00     0.157 C 
HETATM   24  O3  UNL     1      -1.964  -2.864   0.647  1.00  0.00    -0.293 OA
ENDROOT
BRANCH   1  25
HETATM   25  C7  UNL     1       3.244   0.413  -1.675  1.00  0.00    -0.014 C 
HETATM   26  C8  UNL     1       4.118  -0.315  -2.716  1.00  0.00     0.010 C 
BRANCH  25  27
HETATM   27  C6  UNL     1       4.114   0.819  -0.466  1.00  0.00     0.008 C 
BRANCH  27  28
HETATM   28  C5  UNL     1       4.730  -0.299   0.378  1.00  0.00     0.028 C 
BRANCH  28  29
HETATM   29  C4  UNL     1       5.698   0.265   1.383  1.00  0.00    -0.017 C 
HETATM   30  C2  UNL     1       7.041   0.183   1.357  1.00  0.00    -0.028 C 
HETATM   31  C1  UNL     1       7.886  -0.454   0.300  1.00  0.00     0.051 C 
BRANCH  30  32
HETATM   32  C3  UNL     1       7.800   0.808   2.484  1.00  0.00     0.265 C 
HETATM   33  O1  UNL     1       7.278   1.421   3.406  1.00  0.00    -0.302 OA
ENDBRANCH  30  32
ENDBRANCH  28  29
ENDBRANCH  27  28
ENDBRANCH  25  27
ENDBRANCH   1  25
TORSDOF 5
