REMARK  14 active torsions:
REMARK  status: ('A' for Active; 'I' for Inactive)
REMARK    1  A    between atoms: C2_2  and  O1_3 
REMARK    2  A    between atoms: O1_3  and  C3_4 
REMARK    3  A    between atoms: C4_6  and  C5_7 
REMARK    4  A    between atoms: C5_7  and  O3_8 
REMARK    5  A    between atoms: C5_7  and  C6_9 
REMARK    6  A    between atoms: C6_9  and  O4_10 
REMARK    7  A    between atoms: O4_10  and  C7_11 
REMARK    8  A    between atoms: C12_16  and  C13_17 
REMARK    9  A    between atoms: C13_17  and  O5_19 
REMARK   10  A    between atoms: C13_17  and  C15_20 
REMARK   11  A    between atoms: C15_20  and  O6_21 
REMARK   12  A    between atoms: C18_24  and  O7_26 
REMARK   13  A    between atoms: C22_29  and  O8_30 
REMARK   14  A    between atoms: C23_31  and  O9_32 
ROOT
HETATM    1  C7  UNL     1       0.007  -0.461  -0.117  1.00  0.00     0.126 C 
HETATM    2  C8  UNL     1      -0.512  -1.797   0.386  1.00  0.00     0.040 C 
HETATM    3  C9  UNL     1      -2.041  -1.615   0.484  1.00  0.00     0.026 C 
HETATM    4  C10 UNL     1      -2.385  -0.594  -0.636  1.00  0.00    -0.001 C 
HETATM    5  C11 UNL     1      -3.415   0.507  -0.363  1.00  0.00     0.013 C 
HETATM    6  C12 UNL     1      -4.821   0.001   0.041  1.00  0.00     0.022 C 
HETATM    7  C16 UNL     1      -4.854  -0.230   1.567  1.00  0.00     0.010 C 
HETATM    8  C17 UNL     1      -4.061  -1.437   2.051  1.00  0.00     0.038 C 
HETATM    9  C18 UNL     1      -2.529  -1.390   1.937  1.00  0.00     0.058 C 
HETATM   10  C19 UNL     1      -1.919  -0.185   2.660  1.00  0.00     0.046 C 
HETATM   11  C20 UNL     1      -1.017  -0.099  -1.193  1.00  0.00     0.015 C 
HETATM   12  C21 UNL     1      -0.901   1.366  -1.605  1.00  0.00     0.013 C 
ENDROOT
BRANCH   1  13
HETATM   13  O4  UNL     1       1.302  -0.570  -0.700  1.00  0.00    -0.383 OA
BRANCH  13  14
HETATM   14  C6  UNL     1       2.347  -0.655   0.281  1.00  0.00     0.202 C 
BRANCH  14  15
HETATM   15  C5  UNL     1       3.675  -0.767  -0.475  1.00  0.00     0.173 C 
BRANCH  15  16
HETATM   16  C4  UNL     1       4.875  -0.915   0.472  1.00  0.00     0.187 C 
HETATM   17  O2  UNL     1       6.075  -1.170  -0.305  1.00  0.00    -0.348 OA
HETATM   18  C3  UNL     1       7.034  -0.143  -0.001  1.00  0.00     0.291 C 
HETATM   19  C23 UNL     1       6.702   0.281   1.433  1.00  0.00     0.204 C 
HETATM   20  C22 UNL     1       5.180   0.273   1.403  1.00  0.00     0.183 C 
BRANCH  18  21
HETATM   21  O1  UNL     1       6.900   0.969  -0.880  1.00  0.00    -0.359 OA
BRANCH  21  22
HETATM   22  C2  UNL     1       7.210   0.626  -2.228  1.00  0.00     0.166 C 
HETATM   23  C1  UNL     1       7.047   1.869  -3.081  1.00  0.00     0.033 C 
ENDBRANCH  21  22
ENDBRANCH  18  21
BRANCH  19  24
HETATM   24  O9  UNL     1       7.180  -0.685   2.383  1.00  0.00    -0.388 OA
HETATM   25  H42 UNL     1       7.081  -1.570   1.985  1.00  0.00     0.210 HD
ENDBRANCH  19  24
BRANCH  20  26
HETATM   26  O8  UNL     1       4.679   1.522   0.929  1.00  0.00    -0.390 OA
HETATM   27  H40 UNL     1       4.786   1.518  -0.051  1.00  0.00     0.210 HD
ENDBRANCH  20  26
ENDBRANCH  15  16
BRANCH  15  28
HETATM   28  O3  UNL     1       3.822   0.388  -1.322  1.00  0.00    -0.391 OA
HETATM   29  H9  UNL     1       2.958   0.473  -1.775  1.00  0.00     0.210 HD
ENDBRANCH  15  28
ENDBRANCH  14  15
ENDBRANCH  13  14
ENDBRANCH   1  13
BRANCH   9  30
HETATM   30  O7  UNL     1      -2.070  -2.553   2.671  1.00  0.00    -0.390 OA
HETATM   31  H34 UNL     1      -2.347  -2.455   3.598  1.00  0.00     0.210 HD
ENDBRANCH   9  30
BRANCH   6  32
HETATM   32  C13 UNL     1      -5.950   1.004  -0.418  1.00  0.00     0.079 C 
HETATM   33  C14 UNL     1      -7.347   0.545   0.042  1.00  0.00     0.048 C 
BRANCH  32  34
HETATM   34  O5  UNL     1      -5.697   2.279   0.190  1.00  0.00    -0.388 OA
HETATM   35  H23 UNL     1      -6.407   2.890  -0.075  1.00  0.00     0.210 HD
ENDBRANCH  32  34
BRANCH  32  36
HETATM   36  C15 UNL     1      -5.998   1.187  -1.963  1.00  0.00     0.201 C 
BRANCH  36  37
HETATM   37  O6  UNL     1      -6.093  -0.046  -2.663  1.00  0.00    -0.398 OA
HETATM   38  H26 UNL     1      -6.981  -0.413  -2.509  1.00  0.00     0.209 HD
ENDBRANCH  36  37
ENDBRANCH  32  36
ENDBRANCH   6  32
TORSDOF 14
