REMARK  10 active torsions:
REMARK  status: ('A' for Active; 'I' for Inactive)
REMARK    1  A    between atoms: C2_2  and  C3_3 
REMARK    2  A    between atoms: C3_3  and  C4_4 
REMARK    3  A    between atoms: C4_4  and  O1_5 
REMARK    4  A    between atoms: O1_5  and  C5_6 
REMARK    5  A    between atoms: C5_6  and  C6_7 
REMARK    6  A    between atoms: C10_11  and  C12_13 
REMARK    7  A    between atoms: C12_13  and  C13_15 
REMARK    8  A    between atoms: C13_15  and  S1_16 
REMARK    9  A    between atoms: S1_16  and  C14_17 
REMARK   10  A    between atoms: C15_20  and  C16_21 
ROOT
HETATM    1  C12 UNL     1      -1.648  -1.327  -0.791  1.00  0.00     0.171 C 
HETATM    2  O2  UNL     1      -2.004  -1.320  -1.974  1.00  0.00    -0.294 OA
ENDROOT
BRANCH   1   3
HETATM    3  C10 UNL     1      -1.023  -0.062  -0.165  1.00  0.00     0.129 C 
HETATM    4  C9  UNL     1      -0.084   0.655  -1.132  1.00  0.00     0.076 C 
HETATM    5  C8  UNL     1       1.296   0.142  -0.751  1.00  0.00     0.141 C 
HETATM    6  C7  UNL     1       2.386   1.165  -1.012  1.00  0.00     0.065 C 
HETATM    7  C22 UNL     1       1.106  -0.228   0.684  1.00  0.00     0.279 C 
HETATM    8  C23 UNL     1       1.741  -1.053  -1.533  1.00  0.00     0.278 C 
HETATM    9  C6  UNL     1       3.537   0.364  -1.597  1.00  0.00     0.157 C 
HETATM   10  O6  UNL     1       2.963  -0.847  -2.095  1.00  0.00    -0.313 OA
HETATM   11  O3  UNL     1      -0.221  -0.330   0.984  1.00  0.00    -0.301 OA
HETATM   12  O4  UNL     1       1.994  -0.442   1.492  1.00  0.00    -0.264 OA
HETATM   13  O5  UNL     1       1.106  -2.089  -1.649  1.00  0.00    -0.264 OA
HETATM   14  C11 UNL     1      -2.177   0.843   0.270  1.00  0.00     0.055 C 
BRANCH   9  15
HETATM   15  C5  UNL     1       4.665   0.053  -0.606  1.00  0.00     0.200 C 
BRANCH  15  16
HETATM   16  O1  UNL     1       5.240   1.254  -0.094  1.00  0.00    -0.389 OA
BRANCH  16  17
HETATM   17  C4  UNL     1       6.302   1.785  -0.882  1.00  0.00     0.167 C 
BRANCH  17  18
HETATM   18  C3  UNL     1       7.652   1.141  -0.566  1.00  0.00     0.026 C 
BRANCH  18  19
HETATM   19  C2  UNL     1       8.183   1.445   0.838  1.00  0.00    -0.002 C 
HETATM   20  C1  UNL     1       7.474   0.687   1.950  1.00  0.00     0.005 C 
ENDBRANCH  18  19
ENDBRANCH  17  18
ENDBRANCH  16  17
ENDBRANCH  15  16
ENDBRANCH   9  15
ENDBRANCH   1   3
BRANCH   1  21
HETATM   21  C13 UNL     1      -1.823  -2.524   0.136  1.00  0.00     0.164 C 
BRANCH  21  22
HETATM   22  S1  UNL     1      -2.938  -3.775  -0.559  1.00  0.00    -0.085 SA
BRANCH  22  23
HETATM   23  C14 UNL     1      -4.409  -2.884  -0.598  1.00  0.00     0.161 A 
HETATM   24  N1  UNL     1      -4.834  -1.975   0.241  1.00  0.00    -0.320 N 
HETATM   25  C15 UNL     1      -6.086  -1.653  -0.260  1.00  0.00     0.134 A 
ATOM     26  H1  UNL     1      -4.361  -1.596   1.062  1.00  0.00     0.169 HD
HETATM   27  N2  UNL     1      -6.384  -2.270  -1.414  1.00  0.00    -0.283 N 
HETATM   28  N3  UNL     1      -5.311  -3.059  -1.594  1.00  0.00    -0.278 N 
ATOM     29  H2  UNL     1      -7.211  -2.167  -2.002  1.00  0.00     0.188 HD
HETATM   30  H26 UNL     1      -5.254  -3.669  -2.400  1.00  0.00     0.189 HD
BRANCH  25  31
HETATM   31  C16 UNL     1      -6.943  -0.668   0.391  1.00  0.00     0.031 A 
HETATM   32  C17 UNL     1      -6.332   0.471   0.948  1.00  0.00     0.017 A 
HETATM   33  C18 UNL     1      -7.090   1.466   1.572  1.00  0.00     0.001 A 
HETATM   34  C19 UNL     1      -8.472   1.335   1.653  1.00  0.00     0.002 A 
HETATM   35  C20 UNL     1      -9.093   0.205   1.121  1.00  0.00     0.025 A 
HETATM   36  C21 UNL     1      -8.338  -0.797   0.496  1.00  0.00     0.048 A 
HETATM   37 CL1  UNL     1      -9.214  -2.184  -0.059  1.00  0.00    -0.083 Cl
ENDBRANCH  25  31
ENDBRANCH  22  23
ENDBRANCH  21  22
ENDBRANCH   1  21
TORSDOF 10
