REMARK  5 active torsions:
REMARK  status: ('A' for Active; 'I' for Inactive)
REMARK    1  A    between atoms: C2_2  and  C4_4 
REMARK    2  A    between atoms: C7_7  and  C8_8 
REMARK    3  A    between atoms: C8_8  and  O2_10 
REMARK    4  A    between atoms: C11_13  and  C12_14 
REMARK    5  A    between atoms: C12_14  and  O4_16 
ROOT
HETATM    1  C4  UNL     1       4.125   0.706   0.781  1.00  0.00     0.019 C 
HETATM    2  C5  UNL     1       4.670   0.979  -0.627  1.00  0.00     0.011 C 
HETATM    3  C6  UNL     1       4.656  -0.364  -1.363  1.00  0.00     0.021 C 
HETATM    4  C7  UNL     1       3.944  -1.381  -0.448  1.00  0.00     0.050 C 
HETATM    5  C9  UNL     1       2.984  -2.284  -1.240  1.00  0.00     0.022 C 
HETATM    6  C10 UNL     1       1.688  -1.657  -1.783  1.00  0.00     0.023 C 
HETATM    7  C11 UNL     1       1.127  -0.375  -1.057  1.00  0.00     0.057 C 
HETATM    8  C13 UNL     1       1.666  -0.500   0.404  1.00  0.00     0.011 C 
HETATM    9  C14 UNL     1       0.860   0.319   1.386  1.00  0.00     0.007 C 
HETATM   10  C15 UNL     1      -0.565  -0.221   1.474  1.00  0.00     0.006 C 
HETATM   11  C16 UNL     1      -1.174  -0.883   0.187  1.00  0.00     0.003 C 
HETATM   12  C17 UNL     1      -2.778  -0.846   0.257  1.00  0.00    -0.035 C 
HETATM   13  C18 UNL     1      -3.355  -1.845  -0.779  1.00  0.00     0.016 C 
HETATM   14  C19 UNL     1      -3.285  -1.321   1.656  1.00  0.00     0.017 C 
HETATM   15  C20 UNL     1      -4.789  -1.169   1.859  1.00  0.00     0.080 C 
HETATM   16  C21 UNL     1      -5.255   0.238   1.562  1.00  0.00     0.135 C 
HETATM   17  O5  UNL     1      -6.040   0.796   2.333  1.00  0.00    -0.297 OA
HETATM   18  C22 UNL     1      -4.805   0.884   0.237  1.00  0.00     0.017 C 
HETATM   19  C23 UNL     1      -5.697   0.347  -0.890  1.00  0.00     0.023 C 
HETATM   20  C24 UNL     1      -5.077   2.407   0.339  1.00  0.00     0.023 C 
HETATM   21  C25 UNL     1      -3.265   0.635   0.059  1.00  0.00     0.009 C 
HETATM   22  C26 UNL     1      -2.650   1.276  -1.199  1.00  0.00     0.007 C 
HETATM   23  C27 UNL     1      -1.111   1.171  -1.245  1.00  0.00     0.011 C 
HETATM   24  C28 UNL     1      -0.534  -0.281  -1.131  1.00  0.00    -0.022 C 
HETATM   25  C29 UNL     1      -0.972  -0.998  -2.444  1.00  0.00     0.017 C 
HETATM   26  C30 UNL     1       3.212  -0.546   0.639  1.00  0.00     0.018 C 
ENDROOT
BRANCH   4  27
HETATM   27  C8  UNL     1       4.972  -2.310   0.225  1.00  0.00     0.149 C 
HETATM   28  O1  UNL     1       4.827  -3.502   0.468  1.00  0.00    -0.649 OA
BRANCH  27  29
HETATM   29  O2  UNL     1       6.120  -1.702   0.591  1.00  0.00    -0.776 OA
HETATM   30  H11 UNL     1       6.643  -2.424   1.000  1.00  0.00     0.167 HD
ENDBRANCH  27  29
ENDBRANCH   4  27
BRANCH   1  31
HETATM   31  C2  UNL     1       3.686   1.871   1.647  1.00  0.00    -0.088 C 
HETATM   32  C1  UNL     1       3.417   3.110   1.200  1.00  0.00     0.014 C 
HETATM   33  C3  UNL     1       3.686   1.608   3.135  1.00  0.00     0.043 C 
ENDBRANCH   1  31
BRANCH   7  34
HETATM   34  C12 UNL     1       1.649   0.841  -1.828  1.00  0.00     0.149 C 
HETATM   35  O3  UNL     1       1.976   0.875  -3.004  1.00  0.00    -0.649 OA
BRANCH  34  36
HETATM   36  O4  UNL     1       1.647   1.986  -1.130  1.00  0.00    -0.776 OA
HETATM   37  H16 UNL     1       1.933   2.659  -1.782  1.00  0.00     0.167 HD
ENDBRANCH  34  36
ENDBRANCH   7  34
TORSDOF 5
