REMARK  11 active torsions:
REMARK  status: ('A' for Active; 'I' for Inactive)
REMARK    1  A    between atoms: C2_2  and  C4_4 
REMARK    2  A    between atoms: C4_4  and  C6_6 
REMARK    3  A    between atoms: C7_7  and  C8_8 
REMARK    4  A    between atoms: C8_8  and  C10_10 
REMARK    5  A    between atoms: C19_19  and  O1_20 
REMARK    6  A    between atoms: O1_20  and  C20_21 
REMARK    7  A    between atoms: C21_23  and  C22_24 
REMARK    8  A    between atoms: C22_24  and  O3_25 
REMARK    9  A    between atoms: C23_26  and  O4_27 
REMARK   10  A    between atoms: C24_28  and  O5_29 
REMARK   11  A    between atoms: C25_30  and  O6_31 
ROOT
HETATM    1  C10 UNL     1       4.029  -0.300  -0.902  1.00  0.00     0.001 C 
HETATM    2  C11 UNL     1       3.737  -0.605   0.589  1.00  0.00     0.006 C 
HETATM    3  C12 UNL     1       2.333  -0.091   0.893  1.00  0.00     0.009 C 
HETATM    4  C13 UNL     1       1.749   0.450  -0.422  1.00  0.00     0.036 C 
HETATM    5  C14 UNL     1       0.210   0.304  -0.550  1.00  0.00     0.123 C 
HETATM    6  C15 UNL     1      -0.519   0.864   0.655  1.00  0.00     0.014 C 
HETATM    7  C16 UNL     1      -1.852   0.846   0.550  1.00  0.00     0.014 C 
HETATM    8  C17 UNL     1      -2.345   0.307  -0.776  1.00  0.00     0.124 C 
HETATM    9  C18 UNL     1      -3.870   0.411  -0.877  1.00  0.00     0.078 C 
HETATM   10  C19 UNL     1      -4.591  -0.576   0.047  1.00  0.00     0.128 C 
HETATM   11  C26 UNL     1      -4.066  -2.012  -0.089  1.00  0.00     0.033 C 
HETATM   12  C27 UNL     1      -2.537  -2.114  -0.051  1.00  0.00     0.015 C 
HETATM   13  C28 UNL     1      -1.837  -1.151  -1.048  1.00  0.00     0.001 C 
HETATM   14  C29 UNL     1      -2.204  -1.591  -2.493  1.00  0.00     0.019 C 
HETATM   15  C30 UNL     1      -0.263  -1.159  -0.803  1.00  0.00     0.039 C 
HETATM   16  C31 UNL     1       0.561  -1.837  -1.915  1.00  0.00     0.010 C 
HETATM   17  C32 UNL     1       2.067  -1.733  -1.688  1.00  0.00     0.010 C 
HETATM   18  C33 UNL     1       2.578  -0.270  -1.518  1.00  0.00    -0.033 C 
HETATM   19  C34 UNL     1       2.485   0.447  -2.871  1.00  0.00     0.016 C 
HETATM   20  O7  UNL     1      -1.736   1.166  -1.772  1.00  0.00    -0.223 OA
HETATM   21  O8  UNL     1      -0.234   1.078  -1.702  1.00  0.00    -0.224 OA
ENDROOT
BRANCH  10  22
HETATM   22  O1  UNL     1      -5.973  -0.564  -0.331  1.00  0.00    -0.353 OA
BRANCH  22  23
HETATM   23  C20 UNL     1      -6.871  -0.723   0.774  1.00  0.00     0.292 C 
HETATM   24  O2  UNL     1      -6.875   0.423   1.622  1.00  0.00    -0.348 OA
HETATM   25  C21 UNL     1      -7.818   1.460   1.308  1.00  0.00     0.179 C 
HETATM   26  C23 UNL     1      -9.272   0.935   1.215  1.00  0.00     0.180 C 
HETATM   27  C24 UNL     1      -9.370  -0.596   1.089  1.00  0.00     0.183 C 
HETATM   28  C25 UNL     1      -8.255  -1.104   0.191  1.00  0.00     0.204 C 
BRANCH  25  29
HETATM   29  C22 UNL     1      -7.397   2.269   0.066  1.00  0.00     0.198 C 
BRANCH  29  30
HETATM   30  O3  UNL     1      -6.164   2.948   0.318  1.00  0.00    -0.398 OA
HETATM   31  H33 UNL     1      -5.884   3.341  -0.525  1.00  0.00     0.209 HD
ENDBRANCH  29  30
ENDBRANCH  25  29
BRANCH  26  32
HETATM   32  O4  UNL     1     -10.013   1.329   2.386  1.00  0.00    -0.390 OA
HETATM   33  H35 UNL     1      -9.803   0.644   3.056  1.00  0.00     0.210 HD
ENDBRANCH  26  32
BRANCH  27  34
HETATM   34  O5  UNL     1      -9.311  -1.196   2.392  1.00  0.00    -0.390 OA
HETATM   35  H37 UNL     1      -9.635  -2.112   2.306  1.00  0.00     0.210 HD
ENDBRANCH  27  34
BRANCH  28  36
HETATM   36  O6  UNL     1      -8.434  -0.555  -1.129  1.00  0.00    -0.388 OA
HETATM   37  H39 UNL     1      -7.552  -0.637  -1.548  1.00  0.00     0.210 HD
ENDBRANCH  28  36
ENDBRANCH  22  23
ENDBRANCH  10  22
BRANCH   1  38
HETATM   38  C8  UNL     1       4.953   0.962  -1.048  1.00  0.00     0.008 C 
HETATM   39  C9  UNL     1       5.459   1.219  -2.476  1.00  0.00     0.014 C 
BRANCH  38  40
HETATM   40  C7  UNL     1       6.210   0.921  -0.182  1.00  0.00    -0.026 C 
HETATM   41  C6  UNL     1       6.995  -0.156   0.005  1.00  0.00    -0.026 C 
BRANCH  41  42
HETATM   42  C4  UNL     1       8.259  -0.307   0.829  1.00  0.00     0.007 C 
HETATM   43  C5  UNL     1       7.975  -1.300   1.966  1.00  0.00     0.014 C 
BRANCH  42  44
HETATM   44  C2  UNL     1       9.027   0.943   1.350  1.00  0.00    -0.015 C 
HETATM   45  C1  UNL     1       8.328   1.748   2.448  1.00  0.00     0.010 C 
HETATM   46  C3  UNL     1       9.483   1.864   0.214  1.00  0.00     0.010 C 
ENDBRANCH  42  44
ENDBRANCH  41  42
ENDBRANCH  38  40
ENDBRANCH   1  38
TORSDOF 11
