REMARK  20 active torsions:
REMARK  status: ('A' for Active; 'I' for Inactive)
REMARK    1  A    between atoms: C2_2  and  C3_3 
REMARK    2  A    between atoms: C2_2  and  C28_35 
REMARK    3  A    between atoms: C4_4  and  C5_5 
REMARK    4  A    between atoms: C6_6  and  C7_7 
REMARK    5  A    between atoms: C6_6  and  C11_14 
REMARK    6  A    between atoms: C7_7  and  O1_8 
REMARK    7  A    between atoms: O1_8  and  C8_9 
REMARK    8  A    between atoms: C8_9  and  C9_10 
REMARK    9  A    between atoms: C9_10  and  O2_11 
REMARK   10  A    between atoms: C9_10  and  C10_12 
REMARK   11  A    between atoms: C10_12  and  O3_13 
REMARK   12  A    between atoms: C15_18  and  O4_19 
REMARK   13  A    between atoms: C16_20  and  C17_21 
REMARK   14  A    between atoms: C17_21  and  C18_22 
REMARK   15  A    between atoms: C18_22  and  C19_23 
REMARK   16  A    between atoms: C19_23  and  O5_24 
REMARK   17  A    between atoms: C21_26  and  C23_28 
REMARK   18  A    between atoms: C26_32  and  O7_34 
REMARK   19  A    between atoms: C28_35  and  C29_36 
REMARK   20  A    between atoms: C29_36  and  C30_37 
ROOT
HETATM    1  C11 UNL     1      -0.718   2.029   0.699  1.00  0.00     0.046 C 
HETATM    2  C12 UNL     1      -2.142   2.604   0.715  1.00  0.00     0.013 C 
HETATM    3  C13 UNL     1      -2.943   1.558  -0.047  1.00  0.00     0.017 C 
HETATM    4  C14 UNL     1      -2.379   0.171   0.404  1.00  0.00     0.024 C 
HETATM    5  C15 UNL     1      -1.010   0.558   1.090  1.00  0.00     0.138 C 
HETATM    6  C16 UNL     1      -2.073  -0.694  -0.901  1.00  0.00     0.029 C 
HETATM    7  C20 UNL     1      -3.388  -1.018  -1.626  1.00  0.00    -0.066 C 
HETATM    8  C21 UNL     1      -3.712  -0.662  -2.896  1.00  0.00    -0.021 C 
HETATM    9  C22 UNL     1      -5.029  -0.974  -3.563  1.00  0.00     0.052 C 
HETATM   10  C24 UNL     1      -4.320  -1.825  -0.740  1.00  0.00     0.038 C 
HETATM   11  C25 UNL     1      -4.656  -1.065   0.536  1.00  0.00     0.042 C 
HETATM   12  C26 UNL     1      -3.424  -0.565   1.334  1.00  0.00     0.065 C 
HETATM   13  C27 UNL     1      -3.986   0.274   2.507  1.00  0.00     0.047 C 
ENDROOT
BRANCH   1  14
HETATM   14  C6  UNL     1       0.334   2.875   1.431  1.00  0.00    -0.050 C 
HETATM   15  C5  UNL     1       1.436   2.471   2.106  1.00  0.00     0.005 C 
BRANCH  15  16
HETATM   16  C4  UNL     1       1.982   1.141   2.262  1.00  0.00     0.001 C 
HETATM   17  C3  UNL     1       3.080   0.871   2.987  1.00  0.00     0.006 C 
BRANCH  17  18
HETATM   18  C2  UNL     1       3.702  -0.442   3.153  1.00  0.00    -0.067 C 
HETATM   19  C1  UNL     1       4.752  -0.572   3.982  1.00  0.00     0.019 C 
BRANCH  18  20
HETATM   20  C28 UNL     1       3.154  -1.659   2.423  1.00  0.00     0.041 C 
BRANCH  20  21
HETATM   21  C29 UNL     1       3.480  -1.707   0.920  1.00  0.00     0.032 C 
BRANCH  21  22
HETATM   22  C30 UNL     1       4.943  -1.942   0.641  1.00  0.00    -0.024 C 
HETATM   23  C31 UNL     1       5.530  -3.062   0.177  1.00  0.00    -0.091 C 
HETATM   24  C32 UNL     1       7.016  -3.101  -0.070  1.00  0.00     0.042 C 
HETATM   25  C33 UNL     1       4.822  -4.353  -0.130  1.00  0.00     0.042 C 
ENDBRANCH  21  22
ENDBRANCH  20  21
ENDBRANCH  18  20
ENDBRANCH  17  18
ENDBRANCH  15  16
BRANCH  14  26
HETATM   26  C7  UNL     1       0.146   4.379   1.282  1.00  0.00     0.202 C 
BRANCH  26  27
HETATM   27  O1  UNL     1       0.021   4.735  -0.099  1.00  0.00    -0.384 OA
BRANCH  27  28
HETATM   28  C8  UNL     1       1.278   4.739  -0.790  1.00  0.00     0.201 C 
BRANCH  28  29
HETATM   29  C9  UNL     1       1.021   4.917  -2.294  1.00  0.00     0.165 C 
BRANCH  29  30
HETATM   30  O2  UNL     1       0.036   5.944  -2.487  1.00  0.00    -0.391 OA
HETATM   31  H11 UNL     1      -0.516   5.913  -1.677  1.00  0.00     0.210 HD
ENDBRANCH  29  30
BRANCH  29  32
HETATM   32  C10 UNL     1       0.541   3.637  -2.994  1.00  0.00     0.198 C 
BRANCH  32  33
HETATM   33  O3  UNL     1      -0.778   3.265  -2.601  1.00  0.00    -0.398 OA
HETATM   34  H14 UNL     1      -1.319   4.065  -2.744  1.00  0.00     0.209 HD
ENDBRANCH  32  33
ENDBRANCH  29  32
ENDBRANCH  28  29
ENDBRANCH  27  28
ENDBRANCH  26  27
ENDBRANCH  14  26
ENDBRANCH   1  14
BRANCH   5  35
HETATM   35  O4  UNL     1      -1.045   0.397   2.500  1.00  0.00    -0.394 OA
HETATM   36  H21 UNL     1      -1.271  -0.543   2.655  1.00  0.00     0.210 HD
ENDBRANCH   5  35
BRANCH   6  37
HETATM   37  C17 UNL     1      -1.239  -1.996  -0.688  1.00  0.00     0.012 C 
BRANCH  37  38
HETATM   38  C18 UNL     1      -0.818  -2.656  -2.008  1.00  0.00     0.027 C 
BRANCH  38  39
HETATM   39  C19 UNL     1       0.067  -3.873  -1.763  1.00  0.00     0.164 C 
BRANCH  39  40
HETATM   40  O5  UNL     1       0.487  -4.423  -3.004  1.00  0.00    -0.401 OA
HETATM   41  H29 UNL     1      -0.310  -4.634  -3.520  1.00  0.00     0.209 HD
ENDBRANCH  39  40
ENDBRANCH  38  39
ENDBRANCH  37  38
ENDBRANCH   6  37
BRANCH  12  42
HETATM   42  O7  UNL     1      -2.766  -1.700   1.923  1.00  0.00    -0.389 OA
HETATM   43  H41 UNL     1      -3.416  -2.163   2.482  1.00  0.00     0.210 HD
ENDBRANCH  12  42
BRANCH   8  44
HETATM   44  C23 UNL     1      -2.773   0.093  -3.794  1.00  0.00     0.265 C 
HETATM   45  O6  UNL     1      -3.006   0.276  -4.984  1.00  0.00    -0.302 OA
ENDBRANCH   8  44
TORSDOF 20
