REMARK  12 active torsions:
REMARK  status: ('A' for Active; 'I' for Inactive)
REMARK    1  A    between atoms: C19_20  and  O2_21 
REMARK    2  A    between atoms: C19_20  and  C20_22 
REMARK    3  A    between atoms: C20_22  and  C21_24 
REMARK    4  A    between atoms: C21_24  and  O4_25 
REMARK    5  A    between atoms: O4_25  and  C22_26 
REMARK    6  A    between atoms: C22_26  and  C23_28 
REMARK    7  A    between atoms: C23_28  and  C24_29 
REMARK    8  A    between atoms: C24_29  and  C25_30 
REMARK       I    between atoms: C25_30  and  N1_32 
REMARK    9  A    between atoms: N1_32  and  C26_33 
REMARK   10  A    between atoms: C26_33  and  C27_34 
REMARK   11  A    between atoms: C30_37  and  C31_38 
REMARK   12  A    between atoms: C31_38  and  O8_40 
ROOT
HETATM    1  C20 UNL     1       0.343   1.973   1.324  1.00  0.00     0.185 C 
HETATM    2  O3  UNL     1       0.551   2.626   2.352  1.00  0.00    -0.292 OA
ENDROOT
BRANCH   1   3
HETATM    3  C19 UNL     1      -0.576   0.721   1.324  1.00  0.00     0.128 C 
HETATM    4  C14 UNL     1      -2.030   0.982   0.812  1.00  0.00    -0.002 C 
HETATM    5  C13 UNL     1      -2.245   0.948  -0.713  1.00  0.00     0.013 C 
HETATM    6  C15 UNL     1      -2.570   2.321   1.383  1.00  0.00     0.019 C 
HETATM    7  C16 UNL     1      -2.747  -0.264   1.393  1.00  0.00     0.002 C 
HETATM    8  C12 UNL     1      -3.737   0.895  -1.090  1.00  0.00     0.007 C 
HETATM    9  C11 UNL     1      -4.504  -0.265  -0.406  1.00  0.00     0.002 C 
HETATM   10  C2  UNL     1      -6.032  -0.337  -0.789  1.00  0.00    -0.016 C 
HETATM   11  C10 UNL     1      -4.259  -0.281   1.134  1.00  0.00    -0.004 C 
HETATM   12  C1  UNL     1      -6.778   0.971  -0.445  1.00  0.00     0.020 C 
HETATM   13  C3  UNL     1      -6.141  -0.589  -2.323  1.00  0.00     0.022 C 
HETATM   14  C7  UNL     1      -6.695  -1.487  -0.017  1.00  0.00    -0.068 C 
HETATM   15  C4  UNL     1      -7.512  -1.075  -2.769  1.00  0.00     0.084 C 
HETATM   16  C5  UNL     1      -7.896  -2.315  -2.007  1.00  0.00     0.149 C 
HETATM   17  O1  UNL     1      -8.575  -3.210  -2.503  1.00  0.00    -0.293 OA
HETATM   18  C6  UNL     1      -7.499  -2.403  -0.584  1.00  0.00     0.053 C 
HETATM   19  C8  UNL     1      -6.414  -1.555   1.466  1.00  0.00     0.035 C 
HETATM   20  C9  UNL     1      -4.920  -1.516   1.762  1.00  0.00     0.010 C 
HETATM   21  C17 UNL     1      -2.263  -0.317   2.835  1.00  0.00     0.009 C 
HETATM   22  C18 UNL     1      -0.806   0.173   2.767  1.00  0.00     0.047 C 
BRANCH   3  23
HETATM   23  O2  UNL     1       0.013  -0.343   0.570  1.00  0.00    -0.381 OA
HETATM   24  H27 UNL     1       0.867  -0.556   0.985  1.00  0.00     0.211 HD
ENDBRANCH   3  23
ENDBRANCH   1   3
BRANCH   1  25
HETATM   25  C21 UNL     1       0.944   2.422   0.001  1.00  0.00     0.260 C 
BRANCH  25  26
HETATM   26  O4  UNL     1       1.791   1.408  -0.535  1.00  0.00    -0.314 OA
BRANCH  26  27
HETATM   27  C22 UNL     1       2.192   1.646  -1.812  1.00  0.00     0.259 C 
HETATM   28  O5  UNL     1       1.847   2.616  -2.477  1.00  0.00    -0.265 OA
BRANCH  27  29
HETATM   29  C23 UNL     1       3.040   0.525  -2.370  1.00  0.00     0.120 C 
BRANCH  29  30
HETATM   30  C24 UNL     1       3.728  -0.348  -1.327  1.00  0.00     0.112 C 
BRANCH  30  31
HETATM   31  C25 UNL     1       4.757   0.422  -0.526  1.00  0.00     0.218 C 
HETATM   32  O6  UNL     1       4.971   1.619  -0.679  1.00  0.00    -0.274 OA
HETATM   33  N1  UNL     1       5.410  -0.360   0.400  1.00  0.00    -0.357 N 
HETATM   34  H34 UNL     1       5.334  -1.365   0.327  1.00  0.00     0.162 HD
BRANCH  33  35
HETATM   35  C26 UNL     1       6.496   0.165   1.199  1.00  0.00     0.161 C 
BRANCH  35  36
HETATM   36  C27 UNL     1       7.830  -0.170   0.581  1.00  0.00    -0.040 A 
HETATM   37  C28 UNL     1       8.550  -1.300   0.995  1.00  0.00     0.010 A 
HETATM   38  C29 UNL     1       9.781  -1.609   0.410  1.00  0.00     0.019 A 
HETATM   39  C30 UNL     1      10.304  -0.796  -0.603  1.00  0.00     0.037 A 
HETATM   40  C32 UNL     1       9.583   0.325  -1.029  1.00  0.00     0.019 A 
HETATM   41  C33 UNL     1       8.353   0.633  -0.443  1.00  0.00     0.010 A 
BRANCH  39  42
HETATM   42  C31 UNL     1      11.607  -1.082  -1.249  1.00  0.00     0.176 C 
HETATM   43  O7  UNL     1      12.120  -0.432  -2.141  1.00  0.00    -0.646 OA
BRANCH  42  44
HETATM   44  O8  UNL     1      12.211  -2.173  -0.747  1.00  0.00    -0.773 OA
HETATM   45  H39 UNL     1      13.046  -2.229  -1.257  1.00  0.00     0.167 HD
ENDBRANCH  42  44
ENDBRANCH  39  42
ENDBRANCH  35  36
ENDBRANCH  33  35
ENDBRANCH  30  31
ENDBRANCH  29  30
ENDBRANCH  27  29
ENDBRANCH  26  27
ENDBRANCH  25  26
ENDBRANCH   1  25
TORSDOF 12
