REMARK  8 active torsions:
REMARK  status: ('A' for Active; 'I' for Inactive)
REMARK    1  A    between atoms: C4_4  and  C5_5 
REMARK    2  A    between atoms: C5_5  and  C6_6 
REMARK    3  A    between atoms: C12_14  and  O3_15 
REMARK    4  A    between atoms: C20_24  and  O5_25 
REMARK    5  A    between atoms: C27_33  and  C28_34 
REMARK    6  A    between atoms: C28_34  and  C29_35 
REMARK    7  A    between atoms: C30_36  and  C32_38 
REMARK    8  A    between atoms: C32_38  and  O8_40 
ROOT
HETATM    1  C6  UNL     1       1.631  -0.144  -0.680  1.00  0.00     0.014 A 
HETATM    2  C7  UNL     1       0.595  -1.086  -0.509  1.00  0.00     0.096 A 
HETATM    3  O1  UNL     1      -0.640  -0.740  -0.981  1.00  0.00    -0.333 OA
HETATM    4  C8  UNL     1      -1.775  -1.581  -0.727  1.00  0.00     0.126 C 
HETATM    5  C9  UNL     1      -1.393  -3.069  -0.719  1.00  0.00     0.129 C 
HETATM    6  C10 UNL     1      -0.180  -3.327   0.133  1.00  0.00     0.174 C 
HETATM    7  O2  UNL     1       0.002  -4.384   0.735  1.00  0.00    -0.292 OA
HETATM    8  C11 UNL     1       0.866  -2.297   0.124  1.00  0.00     0.078 A 
HETATM    9  C12 UNL     1       2.131  -2.551   0.677  1.00  0.00     0.095 A 
HETATM   10  C13 UNL     1       3.153  -1.600   0.570  1.00  0.00     0.032 A 
HETATM   11  C14 UNL     1       2.902  -0.406  -0.119  1.00  0.00     0.092 A 
HETATM   12  O4  UNL     1       3.855   0.560  -0.300  1.00  0.00    -0.335 OA
HETATM   13  C15 UNL     1       5.181   0.382   0.234  1.00  0.00     0.078 A 
HETATM   14  C16 UNL     1       6.140   0.462  -0.960  1.00  0.00     0.051 C 
HETATM   15  C17 UNL     1       5.434   1.564   1.177  1.00  0.00     0.051 C 
HETATM   16  C18 UNL     1       5.417  -0.906   0.978  1.00  0.00     0.012 A 
HETATM   17  C19 UNL     1       4.474  -1.837   1.139  1.00  0.00     0.016 A 
HETATM   18  C20 UNL     1      -2.597  -3.950  -0.354  1.00  0.00     0.144 C 
HETATM   19  C21 UNL     1      -3.884  -3.163  -0.608  1.00  0.00     0.089 C 
HETATM   20  C22 UNL     1      -3.796  -2.462  -1.969  1.00  0.00     0.025 C 
HETATM   21  C23 UNL     1      -2.785  -1.283  -1.892  1.00  0.00     0.060 C 
HETATM   22  C24 UNL     1      -3.411   0.084  -1.454  1.00  0.00     0.062 C 
HETATM   23  C25 UNL     1      -2.664   1.284  -2.053  1.00  0.00     0.046 C 
HETATM   24  C26 UNL     1      -4.899   0.279  -1.771  1.00  0.00     0.046 C 
HETATM   25  O6  UNL     1      -3.257   0.144  -0.018  1.00  0.00    -0.358 OA
HETATM   26  C27 UNL     1      -2.707  -1.119   0.435  1.00  0.00     0.158 C 
HETATM   27  C33 UNL     1      -3.933  -2.077   0.453  1.00  0.00     0.171 C 
HETATM   28  O9  UNL     1      -4.918  -1.930   1.175  1.00  0.00    -0.294 OA
ENDROOT
BRANCH  26  29
HETATM   29  C28 UNL     1      -2.152  -1.002   1.863  1.00  0.00     0.077 C 
BRANCH  29  30
HETATM   30  C29 UNL     1      -1.252   0.176   2.150  1.00  0.00    -0.010 C 
HETATM   31  C30 UNL     1      -1.557   1.286   2.851  1.00  0.00     0.008 C 
HETATM   32  C31 UNL     1      -0.572   2.385   3.109  1.00  0.00     0.055 C 
BRANCH  31  33
HETATM   33  C32 UNL     1      -2.897   1.486   3.439  1.00  0.00     0.171 C 
HETATM   34  O7  UNL     1      -3.479   0.736   4.200  1.00  0.00    -0.646 OA
BRANCH  33  35
HETATM   35  O8  UNL     1      -3.429   2.654   3.046  1.00  0.00    -0.773 OA
HETATM   36  H38 UNL     1      -4.322   2.639   3.449  1.00  0.00     0.167 HD
ENDBRANCH  33  35
ENDBRANCH  31  33
ENDBRANCH  29  30
ENDBRANCH  26  29
BRANCH  18  37
HETATM   37  O5  UNL     1      -2.599  -4.369   1.004  1.00  0.00    -0.394 OA
HETATM   38  H21 UNL     1      -1.784  -4.894   1.165  1.00  0.00     0.210 HD
ENDBRANCH  18  37
BRANCH   1  39
HETATM   39  C5  UNL     1       1.405   1.130  -1.475  1.00  0.00     0.072 C 
BRANCH  39  40
HETATM   40  C4  UNL     1       0.941   2.291  -0.639  1.00  0.00    -0.020 C 
HETATM   41  C2  UNL     1       1.546   3.480  -0.451  1.00  0.00    -0.091 C 
HETATM   42  C1  UNL     1       2.881   3.881  -1.017  1.00  0.00     0.042 C 
HETATM   43  C3  UNL     1       0.886   4.554   0.374  1.00  0.00     0.042 C 
ENDBRANCH  39  40
ENDBRANCH   1  39
BRANCH   9  44
HETATM   44  O3  UNL     1       2.413  -3.734   1.319  1.00  0.00    -0.359 OA
HETATM   45  H11 UNL     1       1.608  -4.297   1.325  1.00  0.00     0.217 HD
ENDBRANCH   9  44
TORSDOF 8
