REMARK  12 active torsions:
REMARK  status: ('A' for Active; 'I' for Inactive)
REMARK    1  A    between atoms: C2_2  and  C17_19 
REMARK    2  A    between atoms: C3_3  and  C4_4 
REMARK    3  A    between atoms: C4_4  and  C5_5 
REMARK    4  A    between atoms: C5_5  and  C6_6 
REMARK    5  A    between atoms: C12_12  and  O1_13 
REMARK    6  A    between atoms: C17_19  and  C18_20 
REMARK    7  A    between atoms: C19_21  and  C20_22 
REMARK    8  A    between atoms: C20_22  and  C22_24 
REMARK    9  A    between atoms: C22_24  and  C23_26 
REMARK   10  A    between atoms: C23_26  and  O4_27 
REMARK   11  A    between atoms: C23_26  and  C24_28 
REMARK   12  A    between atoms: C24_28  and  C25_29 
ROOT
HETATM    1  C1  UNL     1      -0.096  -1.761  -0.674  1.00  0.00     0.043 C 
HETATM    2  C2  UNL     1      -0.023  -0.284  -0.955  1.00  0.00    -0.084 C 
HETATM    3  C3  UNL     1       1.102   0.355  -1.338  1.00  0.00    -0.024 C 
ENDROOT
BRANCH   3   4
HETATM    4  C4  UNL     1       2.436  -0.260  -1.659  1.00  0.00     0.030 C 
BRANCH   4   5
HETATM    5  C5  UNL     1       3.375  -0.532  -0.477  1.00  0.00     0.042 C 
BRANCH   5   6
HETATM    6  C6  UNL     1       3.901   0.667   0.354  1.00  0.00     0.065 C 
HETATM    7  C7  UNL     1       2.810   1.199   1.299  1.00  0.00     0.046 C 
HETATM    8  C8  UNL     1       4.442   1.841  -0.472  1.00  0.00     0.043 C 
HETATM    9  C9  UNL     1       5.655   1.427  -1.288  1.00  0.00     0.044 C 
HETATM   10  C10 UNL     1       6.620   0.656  -0.436  1.00  0.00    -0.021 A 
HETATM   11  C11 UNL     1       7.947   0.499  -0.861  1.00  0.00     0.046 A 
HETATM   12  C16 UNL     1       6.204   0.068   0.767  1.00  0.00     0.082 A 
HETATM   13  C12 UNL     1       8.843  -0.215  -0.074  1.00  0.00     0.066 A 
HETATM   14  C13 UNL     1       8.439  -0.782   1.127  1.00  0.00     0.046 A 
HETATM   15  C14 UNL     1       7.115  -0.645   1.562  1.00  0.00    -0.025 A 
HETATM   16  C15 UNL     1       6.688  -1.256   2.867  1.00  0.00     0.051 C 
HETATM   17  O2  UNL     1       4.923   0.155   1.242  1.00  0.00    -0.340 OA
BRANCH  13  18
HETATM   18  O1  UNL     1      10.143  -0.388  -0.453  1.00  0.00    -0.361 OA
HETATM   19  H17 UNL     1      10.294   0.102  -1.280  1.00  0.00     0.217 HD
ENDBRANCH  13  18
ENDBRANCH   5   6
ENDBRANCH   4   5
ENDBRANCH   3   4
BRANCH   2  20
HETATM   20  C17 UNL     1      -1.323   0.480  -0.745  1.00  0.00     0.060 C 
BRANCH  20  21
HETATM   21  C18 UNL     1      -2.292   0.230  -1.867  1.00  0.00    -0.026 C 
HETATM   22  C19 UNL     1      -3.542  -0.268  -1.837  1.00  0.00    -0.019 C 
BRANCH  22  23
HETATM   23  C20 UNL     1      -4.376  -0.773  -0.683  1.00  0.00     0.076 C 
HETATM   24  C21 UNL     1      -3.683  -1.788   0.229  1.00  0.00     0.022 C 
BRANCH  23  25
HETATM   25  C22 UNL     1      -4.946   0.417   0.104  1.00  0.00     0.162 C 
HETATM   26  O3  UNL     1      -4.438   0.822   1.158  1.00  0.00    -0.294 OA
BRANCH  25  27
HETATM   27  C23 UNL     1      -6.134   1.189  -0.505  1.00  0.00     0.188 C 
BRANCH  27  28
HETATM   28  O4  UNL     1      -6.412   2.368   0.247  1.00  0.00    -0.388 OA
HETATM   29  H31 UNL     1      -5.753   2.397   0.972  1.00  0.00     0.210 HD
ENDBRANCH  27  28
BRANCH  27  30
HETATM   30  C24 UNL     1      -7.424   0.377  -0.694  1.00  0.00     0.043 C 
BRANCH  30  31
HETATM   31  C25 UNL     1      -8.237  -0.068   0.545  1.00  0.00    -0.020 C 
HETATM   32  C26 UNL     1      -8.846   1.095   1.334  1.00  0.00     0.009 C 
HETATM   33  C27 UNL     1      -7.470  -1.001   1.479  1.00  0.00     0.009 C 
ENDBRANCH  30  31
ENDBRANCH  27  30
ENDBRANCH  25  27
ENDBRANCH  23  25
ENDBRANCH  22  23
ENDBRANCH  20  21
ENDBRANCH   2  20
TORSDOF 12
