REMARK  6 active torsions:
REMARK  status: ('A' for Active; 'I' for Inactive)
REMARK    1  A    between atoms: C11_13  and  C12_14 
REMARK    2  A    between atoms: C12_14  and  O3_15 
REMARK    3  A    between atoms: C13_16  and  O4_17 
REMARK    4  A    between atoms: C22_27  and  O6_28 
REMARK    5  A    between atoms: C23_29  and  O7_30 
REMARK    6  A    between atoms: C29_37  and  C30_38 
ROOT
HETATM    1  C1  UNL     1      -4.558  -6.135   0.416  1.00  0.00     0.046 C 
HETATM    2  C2  UNL     1      -4.281  -4.663   0.571  1.00  0.00    -0.056 C 
HETATM    3  C3  UNL     1      -3.022  -4.202   0.741  1.00  0.00    -0.004 C 
HETATM    4  C4  UNL     1      -2.647  -2.724   0.792  1.00  0.00     0.150 C 
HETATM    5  C5  UNL     1      -1.401  -2.485  -0.065  1.00  0.00     0.270 C 
HETATM    6  O1  UNL     1      -1.182  -3.029  -1.140  1.00  0.00    -0.264 OA
HETATM    7  O2  UNL     1      -0.598  -1.551   0.516  1.00  0.00    -0.315 OA
HETATM    8  C6  UNL     1       0.535  -1.073  -0.238  1.00  0.00     0.139 C 
HETATM    9  C7  UNL     1       0.089  -0.112  -1.340  1.00  0.00     0.065 C 
HETATM   10  C8  UNL     1       1.243   0.747  -1.871  1.00  0.00     0.131 C 
HETATM   11  C9  UNL     1       1.076   2.290  -1.886  1.00  0.00     0.059 C 
HETATM   12  C10 UNL     1       0.144   2.948  -0.892  1.00  0.00    -0.017 C 
HETATM   13  C11 UNL     1      -0.970   3.665  -1.174  1.00  0.00    -0.031 C 
HETATM   14  C13 UNL     1      -1.816   4.408  -0.135  1.00  0.00     0.156 C 
HETATM   15  C14 UNL     1      -1.722   4.010   1.370  1.00  0.00     0.037 C 
HETATM   16  C15 UNL     1      -2.673   4.846   2.235  1.00  0.00     0.017 C 
HETATM   17  C16 UNL     1      -1.946   2.531   1.579  1.00  0.00    -0.020 C 
HETATM   18  C17 UNL     1      -3.040   1.847   1.203  1.00  0.00    -0.003 C 
HETATM   19  C18 UNL     1      -2.983   0.410   1.097  1.00  0.00     0.008 C 
HETATM   20  C19 UNL     1      -3.938  -0.395   0.610  1.00  0.00    -0.019 C 
HETATM   21  C20 UNL     1      -5.389  -0.066   0.390  1.00  0.00     0.206 C 
HETATM   22  O5  UNL     1      -6.106  -1.315   0.546  1.00  0.00    -0.375 OA
HETATM   23  C21 UNL     1      -5.124  -2.307   0.915  1.00  0.00     0.194 C 
HETATM   24  C22 UNL     1      -5.487  -3.737   0.484  1.00  0.00     0.179 C 
HETATM   25  C23 UNL     1      -3.810  -1.852   0.277  1.00  0.00     0.128 C 
HETATM   26  O8  UNL     1       2.524   0.373  -1.365  1.00  0.00    -0.349 OA
HETATM   27  C24 UNL     1       2.702   0.133   0.026  1.00  0.00     0.167 C 
HETATM   28  C25 UNL     1       3.334   1.346   0.709  1.00  0.00     0.069 C 
HETATM   29  C26 UNL     1       4.661   1.726   0.057  1.00  0.00     0.012 C 
HETATM   30  C27 UNL     1       5.370   0.521  -0.588  1.00  0.00     0.011 C 
HETATM   31  C28 UNL     1       6.866   0.812  -0.688  1.00  0.00     0.012 C 
HETATM   32  C29 UNL     1       4.988  -0.776   0.165  1.00  0.00     0.132 C 
HETATM   33  O9  UNL     1       3.569  -1.002   0.151  1.00  0.00    -0.349 OA
HETATM   34  C33 UNL     1       1.410  -0.286   0.727  1.00  0.00     0.101 C 
ENDROOT
BRANCH  32  35
HETATM   35  C30 UNL     1       5.687  -2.059  -0.381  1.00  0.00     0.007 C 
HETATM   36  C31 UNL     1       4.809  -3.317  -0.281  1.00  0.00     0.012 C 
HETATM   37  C32 UNL     1       7.006  -2.344   0.352  1.00  0.00     0.012 C 
ENDBRANCH  32  35
BRANCH  13  38
HETATM   38  C12 UNL     1      -1.520   3.834  -2.575  1.00  0.00     0.200 C 
BRANCH  38  39
HETATM   39  O3  UNL     1      -1.185   5.126  -3.057  1.00  0.00    -0.397 OA
HETATM   40  H15 UNL     1      -1.394   5.753  -2.337  1.00  0.00     0.209 HD
ENDBRANCH  38  39
ENDBRANCH  13  38
BRANCH  14  41
HETATM   41  O4  UNL     1      -1.481   5.794  -0.292  1.00  0.00    -0.390 OA
HETATM   42  H17 UNL     1      -0.546   5.886  -0.028  1.00  0.00     0.210 HD
ENDBRANCH  14  41
BRANCH  25  43
HETATM   43  O7  UNL     1      -3.910  -1.904  -1.162  1.00  0.00    -0.381 OA
HETATM   44  H30 UNL     1      -3.522  -2.736  -1.492  1.00  0.00     0.211 HD
ENDBRANCH  25  43
BRANCH  24  45
HETATM   45  O6  UNL     1      -6.521  -4.257   1.325  1.00  0.00    -0.389 OA
HETATM   46  H29 UNL     1      -6.214  -4.200   2.244  1.00  0.00     0.210 HD
ENDBRANCH  24  45
TORSDOF 6
