REMARK  5 active torsions:
REMARK  status: ('A' for Active; 'I' for Inactive)
REMARK    1  A    between atoms: C4_4  and  O1_5 
REMARK    2  A    between atoms: C5_6  and  O2_7 
REMARK    3  A    between atoms: C8_11  and  C9_12 
REMARK    4  A    between atoms: C19_23  and  C20_24 
REMARK    5  A    between atoms: C26_32  and  O7_33 
ROOT
HETATM    1  C1  UNL     1       9.088   0.019  -0.598  1.00  0.00     0.040 C 
HETATM    2  C2  UNL     1       7.712   0.128   0.045  1.00  0.00     0.123 C 
HETATM    3  C3  UNL     1       7.481  -1.006   1.049  1.00  0.00     0.069 C 
HETATM    4  C4  UNL     1       6.002  -1.362   1.186  1.00  0.00     0.188 C 
HETATM    5  C5  UNL     1       5.096  -0.149   0.911  1.00  0.00     0.240 C 
HETATM    6  O3  UNL     1       3.731  -0.529   1.145  1.00  0.00    -0.341 OA
HETATM    7  C6  UNL     1       2.862   0.196   0.274  1.00  0.00     0.156 C 
HETATM    8  C7  UNL     1       1.412  -0.114   0.657  1.00  0.00     0.056 C 
HETATM    9  C8  UNL     1       0.373   0.538  -0.294  1.00  0.00     0.043 C 
HETATM   10  C10 UNL     1       0.769   0.268  -1.748  1.00  0.00    -0.065 C 
HETATM   11  C11 UNL     1      -0.123  -0.118  -2.676  1.00  0.00    -0.022 C 
HETATM   12  C12 UNL     1      -1.589  -0.290  -2.426  1.00  0.00     0.035 C 
HETATM   13  C13 UNL     1      -2.082   0.289  -1.081  1.00  0.00     0.030 C 
HETATM   14  C14 UNL     1      -1.060  -0.031   0.040  1.00  0.00     0.012 C 
HETATM   15  C15 UNL     1      -1.578   0.411   1.421  1.00  0.00     0.007 C 
HETATM   16  C16 UNL     1      -2.966  -0.140   1.723  1.00  0.00     0.013 C 
HETATM   17  C17 UNL     1      -4.030   0.244   0.659  1.00  0.00    -0.005 C 
HETATM   18  C18 UNL     1      -4.324   1.754   0.773  1.00  0.00     0.019 C 
HETATM   19  C19 UNL     1      -5.294  -0.666   0.891  1.00  0.00     0.028 C 
HETATM   20  C24 UNL     1      -5.108  -1.873  -0.061  1.00  0.00     0.013 C 
HETATM   21  C25 UNL     1      -3.776  -1.675  -0.783  1.00  0.00     0.040 C 
HETATM   22  C26 UNL     1      -3.538  -0.159  -0.762  1.00  0.00     0.070 C 
HETATM   23  C27 UNL     1       2.222   0.466  -2.126  1.00  0.00     0.069 C 
HETATM   24  C28 UNL     1       3.155  -0.256  -1.157  1.00  0.00     0.158 C 
HETATM   25  O8  UNL     1       4.514  -0.068  -1.557  1.00  0.00    -0.347 OA
HETATM   26  C29 UNL     1       5.404   0.402  -0.537  1.00  0.00     0.325 C 
HETATM   27  O9  UNL     1       6.731   0.076  -0.987  1.00  0.00    -0.351 OA
ENDROOT
BRANCH  19  28
HETATM   28  C20 UNL     1      -6.649  -0.021   0.769  1.00  0.00    -0.045 A 
HETATM   29  C21 UNL     1      -7.370   0.235  -0.323  1.00  0.00     0.087 A 
HETATM   30  C22 UNL     1      -8.621   0.848   0.115  1.00  0.00     0.283 A 
HETATM   31  O5  UNL     1      -9.523   1.198  -0.621  1.00  0.00    -0.260 OA
HETATM   32  O6  UNL     1      -8.619   0.944   1.473  1.00  0.00    -0.314 OA
HETATM   33  C23 UNL     1      -7.395   0.411   1.975  1.00  0.00     0.213 A 
ENDBRANCH  19  28
BRANCH  22  34
HETATM   34  O7  UNL     1      -4.418   0.426  -1.732  1.00  0.00    -0.389 OA
HETATM   35  H34 UNL     1      -4.203   0.073  -2.611  1.00  0.00     0.210 HD
ENDBRANCH  22  34
BRANCH   9  36
HETATM   36  C9  UNL     1       0.393   2.062  -0.058  1.00  0.00     0.245 C 
HETATM   37  O4  UNL     1       0.186   2.917  -0.914  1.00  0.00    -0.306 OA
ENDBRANCH   9  36
BRANCH   5  38
HETATM   38  O2  UNL     1       5.388   0.862   1.890  1.00  0.00    -0.360 OA
HETATM   39  H9  UNL     1       5.576   0.363   2.708  1.00  0.00     0.213 HD
ENDBRANCH   5  38
BRANCH   4  40
HETATM   40  O1  UNL     1       5.773  -1.834   2.527  1.00  0.00    -0.390 OA
HETATM   41  H8  UNL     1       4.813  -2.012   2.581  1.00  0.00     0.210 HD
ENDBRANCH   4  40
TORSDOF 5
