REMARK  9 active torsions:
REMARK  status: ('A' for Active; 'I' for Inactive)
REMARK    1  A    between atoms: C2_2  and  O1_3 
REMARK    2  A    between atoms: O1_3  and  C3_4 
REMARK    3  A    between atoms: C14_15  and  O2_16 
REMARK    4  A    between atoms: O2_16  and  C15_17 
REMARK    5  A    between atoms: C21_24  and  O4_25 
REMARK    6  A    between atoms: O4_25  and  C22_26 
REMARK    7  A    between atoms: C24_29  and  O6_30 
REMARK    8  A    between atoms: C25_31  and  O7_32 
REMARK    9  A    between atoms: C26_33  and  O8_34 
ROOT
HETATM    1  C3  UNL     1       6.942   0.140   1.437  1.00  0.00     0.260 C 
HETATM    2  C4  UNL     1       6.996   1.435   0.609  1.00  0.00     0.065 C 
HETATM    3  C5  UNL     1       5.610   2.081   0.485  1.00  0.00    -0.007 C 
HETATM    4  C6  UNL     1       5.697   3.412  -0.258  1.00  0.00     0.010 C 
HETATM    5  C7  UNL     1       4.686   1.069  -0.229  1.00  0.00     0.027 C 
HETATM    6  C8  UNL     1       4.947  -0.388   0.268  1.00  0.00     0.130 C 
HETATM    7  C9  UNL     1       3.561  -1.064   0.408  1.00  0.00     0.042 C 
HETATM    8  C10 UNL     1       2.644  -0.215  -0.491  1.00  0.00    -0.029 C 
HETATM    9  C11 UNL     1       2.992  -0.631  -1.969  1.00  0.00     0.016 C 
HETATM   10  C12 UNL     1       1.091  -0.369  -0.364  1.00  0.00     0.006 C 
HETATM   11  C13 UNL     1       0.555  -1.178   0.819  1.00  0.00     0.039 C 
HETATM   12  C14 UNL     1      -0.892  -1.615   0.515  1.00  0.00     0.138 C 
HETATM   13  C17 UNL     1      -1.878  -0.448   0.141  1.00  0.00     0.035 C 
HETATM   14  C18 UNL     1      -3.167  -0.872  -0.669  1.00  0.00    -0.015 C 
HETATM   15  C19 UNL     1      -2.828  -1.372  -2.101  1.00  0.00     0.018 C 
HETATM   16  C20 UNL     1      -3.891  -2.037   0.057  1.00  0.00     0.018 C 
HETATM   17  C21 UNL     1      -4.159   0.349  -0.771  1.00  0.00     0.133 C 
HETATM   18  C27 UNL     1      -3.475   1.715  -0.905  1.00  0.00     0.034 C 
HETATM   19  C28 UNL     1      -2.051   1.633  -1.413  1.00  0.00     0.013 C 
HETATM   20  C29 UNL     1      -1.194   0.828  -0.454  1.00  0.00    -0.025 A 
HETATM   21  C30 UNL     1      -0.455   1.630   0.590  1.00  0.00     0.021 A 
HETATM   22  C31 UNL     1       0.345   0.965  -0.515  1.00  0.00    -0.027 A 
HETATM   23  C32 UNL     1       1.031   1.935  -1.471  1.00  0.00     0.011 C 
HETATM   24  C33 UNL     1       2.495   2.250  -1.083  1.00  0.00     0.011 C 
HETATM   25  C34 UNL     1       3.134   1.228  -0.118  1.00  0.00    -0.030 C 
HETATM   26  C35 UNL     1       2.801   1.640   1.346  1.00  0.00     0.016 C 
HETATM   27  O9  UNL     1       5.624  -0.405   1.517  1.00  0.00    -0.356 OA
ENDROOT
BRANCH  17  28
HETATM   28  O4  UNL     1      -5.010   0.376   0.392  1.00  0.00    -0.353 OA
BRANCH  28  29
HETATM   29  C22 UNL     1      -6.202   1.160   0.254  1.00  0.00     0.291 C 
HETATM   30  O5  UNL     1      -6.736   1.411   1.567  1.00  0.00    -0.356 OA
HETATM   31  C23 UNL     1      -7.494   0.312   2.072  1.00  0.00     0.205 C 
HETATM   32  C24 UNL     1      -8.787   0.126   1.262  1.00  0.00     0.173 C 
HETATM   33  C25 UNL     1      -8.641   0.721  -0.141  1.00  0.00     0.182 C 
HETATM   34  C26 UNL     1      -7.235   0.470  -0.675  1.00  0.00     0.204 C 
BRANCH  32  35
HETATM   35  O6  UNL     1      -9.911   0.776   1.879  1.00  0.00    -0.391 OA
HETATM   36  H39 UNL     1      -9.948   0.492   2.810  1.00  0.00     0.210 HD
ENDBRANCH  32  35
BRANCH  33  37
HETATM   37  O7  UNL     1      -9.602   0.133  -1.033  1.00  0.00    -0.390 OA
HETATM   38  H41 UNL     1     -10.477   0.374  -0.666  1.00  0.00     0.210 HD
ENDBRANCH  33  37
BRANCH  34  39
HETATM   39  O8  UNL     1      -7.145   0.958  -2.024  1.00  0.00    -0.388 OA
HETATM   40  H43 UNL     1      -7.984   0.677  -2.445  1.00  0.00     0.210 HD
ENDBRANCH  34  39
ENDBRANCH  28  29
ENDBRANCH  17  28
BRANCH  12  41
HETATM   41  O2  UNL     1      -0.827  -2.594  -0.547  1.00  0.00    -0.316 OA
BRANCH  41  42
HETATM   42  C15 UNL     1      -0.551  -3.878  -0.187  1.00  0.00     0.255 C 
HETATM   43  C16 UNL     1      -0.516  -4.752  -1.403  1.00  0.00     0.126 C 
HETATM   44  O3  UNL     1      -0.376  -4.279   0.954  1.00  0.00    -0.266 OA
ENDBRANCH  41  42
ENDBRANCH  12  41
BRANCH   1  45
HETATM   45  O1  UNL     1       7.866  -0.789   0.869  1.00  0.00    -0.362 OA
BRANCH  45  46
HETATM   46  C2  UNL     1       8.102  -1.930   1.691  1.00  0.00     0.166 C 
HETATM   47  C1  UNL     1       9.176  -1.643   2.726  1.00  0.00     0.033 C 
ENDBRANCH  45  46
ENDBRANCH   1  45
TORSDOF 9
