REMARK  8 active torsions:
REMARK  status: ('A' for Active; 'I' for Inactive)
REMARK    1  A    between atoms: C12_14  and  C13_15 
REMARK    2  A    between atoms: C13_15  and  C15_17 
REMARK    3  A    between atoms: C15_17  and  C16_18 
REMARK    4  A    between atoms: C16_18  and  C17_20 
REMARK    5  A    between atoms: C26_29  and  C27_30 
REMARK    6  A    between atoms: C27_30  and  C28_31 
REMARK    7  A    between atoms: C28_31  and  C29_32 
REMARK    8  A    between atoms: C29_32  and  O5_34 
ROOT
HETATM    1  C1  UNL     1      -6.649   0.231  -0.356  1.00  0.00     0.025 C 
HETATM    2  C2  UNL     1      -5.797   0.881   0.446  1.00  0.00     0.015 C 
HETATM    3  C3  UNL     1      -6.117   2.221   0.984  1.00  0.00     0.289 C 
HETATM    4  O1  UNL     1      -7.177   2.809   0.881  1.00  0.00    -0.260 OA
HETATM    5  O2  UNL     1      -5.018   2.680   1.637  1.00  0.00    -0.311 OA
HETATM    6  C4  UNL     1      -3.887   1.820   1.395  1.00  0.00     0.142 C 
HETATM    7  C5  UNL     1      -2.969   2.519   0.402  1.00  0.00     0.039 C 
HETATM    8  C6  UNL     1      -1.802   1.676  -0.137  1.00  0.00     0.006 C 
HETATM    9  C7  UNL     1      -2.214   0.231  -0.512  1.00  0.00    -0.027 A 
HETATM   10  C8  UNL     1      -1.049  -0.673  -0.966  1.00  0.00     0.011 C 
HETATM   11  C9  UNL     1       0.257  -0.532  -0.169  1.00  0.00     0.011 C 
HETATM   12  C10 UNL     1       0.665   0.942  -0.024  1.00  0.00    -0.032 C 
HETATM   13  C11 UNL     1       0.946   1.513  -1.443  1.00  0.00     0.016 C 
HETATM   14  C12 UNL     1       1.882   1.257   0.903  1.00  0.00    -0.002 C 
HETATM   15  C21 UNL     1       1.593   2.707   1.392  1.00  0.00     0.006 C 
HETATM   16  C22 UNL     1       0.131   3.031   1.025  1.00  0.00     0.011 C 
HETATM   17  C23 UNL     1      -0.516   1.664   0.748  1.00  0.00    -0.032 C 
HETATM   18  C24 UNL     1      -0.843   1.030   2.138  1.00  0.00     0.016 C 
HETATM   19  C25 UNL     1      -3.423   0.087  -1.405  1.00  0.00     0.022 A 
HETATM   20  C26 UNL     1      -3.548  -0.363   0.042  1.00  0.00    -0.021 A 
HETATM   21  C30 UNL     1      -4.452   0.478   0.954  1.00  0.00     0.063 C 
ENDROOT
BRANCH  14  22
HETATM   22  C13 UNL     1       3.366   1.017   0.490  1.00  0.00    -0.007 C 
HETATM   23  C14 UNL     1       3.952   1.923  -0.603  1.00  0.00     0.011 C 
BRANCH  22  24
HETATM   24  C15 UNL     1       3.625  -0.463   0.148  1.00  0.00     0.087 C 
BRANCH  24  25
HETATM   25  C16 UNL     1       5.092  -0.861   0.236  1.00  0.00     0.149 C 
HETATM   26  O3  UNL     1       5.898  -0.276   0.953  1.00  0.00    -0.293 OA
BRANCH  25  27
HETATM   27  C17 UNL     1       5.484  -2.065  -0.559  1.00  0.00     0.052 C 
HETATM   28  C18 UNL     1       6.707  -2.306  -1.069  1.00  0.00    -0.084 C 
HETATM   29  C19 UNL     1       6.983  -3.587  -1.811  1.00  0.00     0.043 C 
HETATM   30  C20 UNL     1       7.887  -1.377  -0.977  1.00  0.00     0.043 C 
ENDBRANCH  25  27
ENDBRANCH  24  25
ENDBRANCH  22  24
ENDBRANCH  14  22
BRANCH  20  31
HETATM   31  C27 UNL     1      -3.580  -1.860   0.398  1.00  0.00     0.021 C 
BRANCH  31  32
HETATM   32  C28 UNL     1      -3.993  -2.797  -0.735  1.00  0.00     0.111 C 
BRANCH  32  33
HETATM   33  C29 UNL     1      -4.092  -4.220  -0.256  1.00  0.00     0.139 C 
HETATM   34  O4  UNL     1      -3.692  -4.676   0.801  1.00  0.00    -0.650 OA
BRANCH  33  35
HETATM   35  O5  UNL     1      -4.679  -5.017  -1.170  1.00  0.00    -0.776 OA
HETATM   36  H41 UNL     1      -4.676  -5.906  -0.755  1.00  0.00     0.167 HD
ENDBRANCH  33  35
ENDBRANCH  32  33
ENDBRANCH  31  32
ENDBRANCH  20  31
TORSDOF 8
