REMARK  11 active torsions:
REMARK  status: ('A' for Active; 'I' for Inactive)
REMARK    1  A    between atoms: C2_2  and  C3_3 
REMARK    2  A    between atoms: C3_3  and  N1_4 
REMARK       I    between atoms: N1_4  and  C4_5 
REMARK    3  A    between atoms: C4_5  and  C5_7 
REMARK       I    between atoms: N2_8  and  C6_9 
REMARK    4  A    between atoms: C6_9  and  C7_11 
REMARK    5  A    between atoms: C7_11  and  O3_12 
REMARK    6  A    between atoms: C7_11  and  C8_13 
REMARK    7  A    between atoms: C8_13  and  C9_14 
REMARK    8  A    between atoms: C8_13  and  N3_21 
REMARK    9  A    between atoms: C9_14  and  C10_15 
REMARK       I    between atoms: N3_21  and  C16_22 
REMARK   10  A    between atoms: C16_22  and  C17_24 
REMARK   11  A    between atoms: C21_28  and  O5_29 
ROOT
HETATM    1  C8  UNL     1      -1.790   0.990   0.527  1.00  0.00     0.127 C 
ENDROOT
BRANCH   1   2
HETATM    2  C7  UNL     1      -0.621   1.117   1.544  1.00  0.00     0.233 C 
BRANCH   2   3
HETATM    3  C6  UNL     1       0.715   0.552   1.014  1.00  0.00     0.252 C 
HETATM    4  N2  UNL     1       1.163   0.917  -0.251  1.00  0.00    -0.326 N 
HETATM    5  C5  UNL     1       2.432   0.353  -0.756  1.00  0.00     0.198 C 
HETATM    6  C24 UNL     1       1.014   2.283  -0.711  1.00  0.00     0.201 C 
HETATM    7  C25 UNL     1       3.554   1.360  -0.419  1.00  0.00     0.032 C 
HETATM    8  S1  UNL     1       2.691   2.996  -0.633  1.00  0.00    -0.137 SA
HETATM    9  C26 UNL     1       4.704   1.350  -1.434  1.00  0.00     0.029 C 
HETATM   10  C27 UNL     1       4.085   1.315   1.015  1.00  0.00     0.029 C 
HETATM   11  O2  UNL     1       1.374  -0.185   1.756  1.00  0.00    -0.270 OA
BRANCH   5  12
HETATM   12  C4  UNL     1       2.571  -1.182  -0.536  1.00  0.00     0.242 C 
HETATM   13  N1  UNL     1       3.819  -1.695  -0.282  1.00  0.00    -0.356 N 
HETATM   14  H6  UNL     1       4.647  -1.135  -0.399  1.00  0.00     0.162 HD
HETATM   15  O1  UNL     1       1.597  -1.930  -0.662  1.00  0.00    -0.271 OA
BRANCH  13  16
HETATM   16  C3  UNL     1       4.004  -3.120  -0.155  1.00  0.00     0.149 C 
BRANCH  16  17
HETATM   17  C2  UNL     1       5.384  -3.428   0.344  1.00  0.00    -0.018 C 
HETATM   18  C1  UNL     1       6.082  -2.743   1.261  1.00  0.00     0.008 C 
ENDBRANCH  16  17
ENDBRANCH  13  16
ENDBRANCH   5  12
ENDBRANCH   2   3
BRANCH   2  19
HETATM   19  O3  UNL     1      -0.415   2.436   2.049  1.00  0.00    -0.384 OA
HETATM   20  H9  UNL     1       0.276   2.363   2.734  1.00  0.00     0.210 HD
ENDBRANCH   2  19
ENDBRANCH   1   2
BRANCH   1  21
HETATM   21  C9  UNL     1      -2.923   2.019   0.776  1.00  0.00     0.066 C 
BRANCH  21  22
HETATM   22  C10 UNL     1      -2.730   3.318   0.023  1.00  0.00    -0.056 A 
HETATM   23  C11 UNL     1      -2.923   3.360  -1.366  1.00  0.00     0.007 A 
HETATM   24  C12 UNL     1      -2.733   4.548  -2.072  1.00  0.00     0.001 A 
HETATM   25  C13 UNL     1      -2.349   5.706  -1.399  1.00  0.00     0.000 A 
HETATM   26  C14 UNL     1      -2.160   5.677  -0.018  1.00  0.00     0.001 A 
HETATM   27  C15 UNL     1      -2.352   4.490   0.690  1.00  0.00     0.007 A 
ENDBRANCH  21  22
ENDBRANCH   1  21
BRANCH   1  28
HETATM   28  N3  UNL     1      -2.338  -0.377   0.539  1.00  0.00    -0.349 N 
HETATM   29  C16 UNL     1      -3.052  -0.878  -0.530  1.00  0.00     0.252 C 
HETATM   30  O4  UNL     1      -3.279  -0.255  -1.560  1.00  0.00    -0.268 OA
HETATM   31  H18 UNL     1      -2.347  -0.905   1.405  1.00  0.00     0.163 HD
BRANCH  29  32
HETATM   32  C17 UNL     1      -3.618  -2.234  -0.332  1.00  0.00     0.040 A 
HETATM   33  C18 UNL     1      -5.005  -2.362  -0.502  1.00  0.00     0.018 A 
HETATM   34  C19 UNL     1      -5.624  -3.591  -0.287  1.00  0.00     0.004 A 
HETATM   35  C20 UNL     1      -4.863  -4.693   0.096  1.00  0.00     0.037 A 
HETATM   36  C21 UNL     1      -3.480  -4.565   0.243  1.00  0.00     0.072 A 
HETATM   37  C22 UNL     1      -2.826  -3.347   0.011  1.00  0.00    -0.013 A 
HETATM   38  C23 UNL     1      -1.329  -3.252   0.125  1.00  0.00     0.052 C 
BRANCH  36  39
HETATM   39  O5  UNL     1      -2.738  -5.652   0.616  1.00  0.00    -0.360 OA
HETATM   40  H22 UNL     1      -3.302  -6.442   0.595  1.00  0.00     0.217 HD
ENDBRANCH  36  39
ENDBRANCH  29  32
ENDBRANCH   1  28
TORSDOF 11
