REMARK  13 active torsions:
REMARK  status: ('A' for Active; 'I' for Inactive)
REMARK    1  A    between atoms: C3_3  and  O1_4 
REMARK    2  A    between atoms: N1_14  and  O2_16 
REMARK    3  A    between atoms: O2_16  and  C13_17 
REMARK    4  A    between atoms: C13_17  and  C14_18 
REMARK       I    between atoms: C14_18  and  N2_20 
REMARK    5  A    between atoms: N2_20  and  C15_21 
REMARK    6  A    between atoms: C15_21  and  C16_22 
REMARK    7  A    between atoms: C15_21  and  C21_33 
REMARK       I    between atoms: C16_22  and  N3_24 
REMARK    8  A    between atoms: N3_24  and  C17_25 
REMARK    9  A    between atoms: C17_25  and  C18_26 
REMARK   10  A    between atoms: C17_25  and  C20_30 
REMARK   11  A    between atoms: C18_26  and  C19_27 
REMARK   12  A    between atoms: C19_27  and  O6_29 
REMARK   13  A    between atoms: C20_30  and  O8_32 
ROOT
HETATM    1  C1  UNL     1     -10.585  -0.536  -2.056  1.00  0.00     0.015 C 
HETATM    2  C2  UNL     1      -9.435  -0.514  -1.709  1.00  0.00    -0.078 C 
HETATM    3  C3  UNL     1      -8.023  -0.515  -1.286  1.00  0.00     0.128 C 
HETATM    4  C4  UNL     1      -7.083  -0.648  -2.489  1.00  0.00     0.052 C 
HETATM    5  C5  UNL     1      -5.747  -0.168  -1.940  1.00  0.00     0.010 C 
HETATM    6  C6  UNL     1      -6.132   1.097  -1.173  1.00  0.00     0.002 C 
HETATM    7  C7  UNL     1      -5.086   1.643  -0.181  1.00  0.00    -0.004 C 
HETATM    8  C8  UNL     1      -3.765   2.026  -0.862  1.00  0.00     0.010 C 
HETATM    9  C9  UNL     1      -2.648   2.214   0.153  1.00  0.00     0.035 C 
HETATM   10  C10 UNL     1      -2.377   0.862   0.748  1.00  0.00    -0.069 C 
HETATM   11  C11 UNL     1      -1.201   0.249   0.515  1.00  0.00     0.030 C 
HETATM   12  C12 UNL     1      -0.949  -1.149   0.965  1.00  0.00     0.032 C 
HETATM   13  N1  UNL     1       0.205  -1.747   0.967  1.00  0.00    -0.271 N 
ATOM     14  H1  UNL     1       0.350  -2.712   1.263  1.00  0.00     0.194 HD
HETATM   15  C24 UNL     1      -2.127  -1.955   1.480  1.00  0.00     0.060 C 
HETATM   16  C25 UNL     1      -3.480  -1.312   1.185  1.00  0.00     0.020 C 
HETATM   17  C26 UNL     1      -3.531   0.204   1.499  1.00  0.00    -0.016 C 
HETATM   18  C27 UNL     1      -3.280   0.412   3.020  1.00  0.00     0.020 C 
HETATM   19  C28 UNL     1      -4.934   0.867   1.161  1.00  0.00     0.002 C 
HETATM   20  C29 UNL     1      -6.154  -0.024   1.461  1.00  0.00     0.007 C 
HETATM   21  C30 UNL     1      -7.456   0.628   0.996  1.00  0.00     0.014 C 
HETATM   22  C31 UNL     1      -7.539   0.794  -0.543  1.00  0.00     0.003 C 
HETATM   23  C32 UNL     1      -8.453   2.011  -0.829  1.00  0.00     0.020 C 
ENDROOT
BRANCH   3  24
HETATM   24  O1  UNL     1      -7.825  -1.672  -0.471  1.00  0.00    -0.377 OA
HETATM   25  H2  UNL     1      -8.216  -2.425  -0.945  1.00  0.00     0.211 HD
ENDBRANCH   3  24
BRANCH  13  26
HETATM   26  O2  UNL     1       1.228  -0.900   0.511  1.00  0.00    -0.271 OA
BRANCH  26  27
HETATM   27  C13 UNL     1       2.477  -1.547   0.705  1.00  0.00     0.303 C 
BRANCH  27  28
HETATM   28  C14 UNL     1       3.626  -0.563   0.501  1.00  0.00     0.244 C 
HETATM   29  O3  UNL     1       3.529   0.482  -0.137  1.00  0.00    -0.271 OA
HETATM   30  N2  UNL     1       4.799  -0.952   1.124  1.00  0.00    -0.346 N 
HETATM   31  H16 UNL     1       4.908  -1.948   1.292  1.00  0.00     0.163 HD
BRANCH  30  32
HETATM   32  C15 UNL     1       6.053  -0.228   0.896  1.00  0.00     0.180 C 
BRANCH  32  33
HETATM   33  C16 UNL     1       6.825  -1.008  -0.192  1.00  0.00     0.241 C 
HETATM   34  O4  UNL     1       6.676  -2.219  -0.358  1.00  0.00    -0.271 OA
HETATM   35  N3  UNL     1       7.691  -0.255  -0.951  1.00  0.00    -0.344 N 
HETATM   36  H18 UNL     1       7.947   0.667  -0.606  1.00  0.00     0.163 HD
BRANCH  35  37
HETATM   37  C17 UNL     1       8.639  -0.883  -1.875  1.00  0.00     0.192 C 
BRANCH  37  38
HETATM   38  C18 UNL     1       8.808  -0.050  -3.145  1.00  0.00     0.146 C 
BRANCH  38  39
HETATM   39  C19 UNL     1       9.457   1.275  -2.864  1.00  0.00     0.141 C 
HETATM   40  O5  UNL     1       9.540   1.830  -1.781  1.00  0.00    -0.650 OA
BRANCH  39  41
HETATM   41  O6  UNL     1       9.930   1.860  -3.980  1.00  0.00    -0.776 OA
HETATM   42  H22 UNL     1      10.296   2.719  -3.680  1.00  0.00     0.167 HD
ENDBRANCH  39  41
ENDBRANCH  38  39
ENDBRANCH  37  38
BRANCH  37  43
HETATM   43  C20 UNL     1       9.973  -1.131  -1.156  1.00  0.00     0.164 C 
HETATM   44  O7  UNL     1      10.176  -1.099   0.048  1.00  0.00    -0.648 OA
BRANCH  43  45
HETATM   45  O8  UNL     1      10.978  -1.460  -1.994  1.00  0.00    -0.775 OA
HETATM   46  H23 UNL     1      11.736  -1.626  -1.393  1.00  0.00     0.167 HD
ENDBRANCH  43  45
ENDBRANCH  37  43
ENDBRANCH  35  37
ENDBRANCH  32  33
BRANCH  32  47
HETATM   47  C21 UNL     1       6.825  -0.067   2.224  1.00  0.00     0.009 C 
HETATM   48  C22 UNL     1       7.919   1.000   2.136  1.00  0.00     0.012 C 
HETATM   49  C23 UNL     1       7.411  -1.378   2.756  1.00  0.00     0.012 C 
ENDBRANCH  32  47
ENDBRANCH  30  32
ENDBRANCH  27  28
ENDBRANCH  26  27
ENDBRANCH  13  26
TORSDOF 13
