REMARK  9 active torsions:
REMARK  status: ('A' for Active; 'I' for Inactive)
REMARK    1  A    between atoms: O1_2  and  C2_3 
REMARK    2  A    between atoms: C2_3  and  C3_4 
REMARK    3  A    between atoms: C3_4  and  C4_5 
REMARK    4  A    between atoms: C4_5  and  O2_6 
REMARK    5  A    between atoms: O2_6  and  C5_7 
REMARK    6  A    between atoms: C31_36  and  O5_37 
REMARK    7  A    between atoms: C36_42  and  O6_44 
REMARK    8  A    between atoms: C38_45  and  O7_46 
REMARK    9  A    between atoms: C45_54  and  O9_55 
ROOT
HETATM    1  C5  UNL     1       5.781  -0.291   0.137  1.00  0.00     0.122 C 
HETATM    2  C6  UNL     1       5.082   0.939   0.710  1.00  0.00     0.033 C 
HETATM    3  C7  UNL     1       3.568   0.767   0.863  1.00  0.00     0.014 C 
HETATM    4  C8  UNL     1       2.829   0.279  -0.435  1.00  0.00    -0.010 C 
HETATM    5  C9  UNL     1       2.984   1.389  -1.512  1.00  0.00     0.018 C 
HETATM    6  C10 UNL     1       3.554  -1.020  -0.899  1.00  0.00     0.073 C 
HETATM    7  C11 UNL     1       5.064  -0.811  -1.114  1.00  0.00     0.045 C 
HETATM    8  C12 UNL     1       3.330  -2.168   0.096  1.00  0.00     0.161 C 
HETATM    9  O3  UNL     1       4.217  -2.947   0.434  1.00  0.00    -0.292 OA
HETATM   10  C13 UNL     1       1.946  -2.403   0.577  1.00  0.00    -0.005 C 
HETATM   11  C14 UNL     1       1.017  -1.468   0.301  1.00  0.00    -0.013 C 
HETATM   12  C15 UNL     1       1.259  -0.016  -0.181  1.00  0.00     0.058 C 
HETATM   13  C16 UNL     1       0.761   1.009   0.817  1.00  0.00    -0.091 C 
HETATM   14  C17 UNL     1       0.301   1.949   1.417  1.00  0.00    -0.104 C 
HETATM   15  C18 UNL     1      -0.332   3.167   1.971  1.00  0.00     0.115 C 
HETATM   16  C19 UNL     1      -1.064   2.789   3.221  1.00  0.00     0.090 A 
HETATM   17  C20 UNL     1      -1.719   1.424   3.389  1.00  0.00     0.120 A 
HETATM   18  N1  UNL     1      -2.476   2.600   3.306  1.00  0.00    -0.243 NA
HETATM   19  C21 UNL     1      -3.460   3.023   2.432  1.00  0.00     0.240 C 
HETATM   20  O4  UNL     1      -3.653   4.236   2.276  1.00  0.00    -0.277 OA
HETATM   21  C22 UNL     1      -4.221   1.959   1.525  1.00  0.00     0.245 C 
HETATM   22  C23 UNL     1      -4.408   0.594   2.320  1.00  0.00     0.145 C 
HETATM   23  C24 UNL     1      -3.763  -0.566   1.665  1.00  0.00    -0.103 C 
HETATM   24  C25 UNL     1      -3.303  -1.344   0.868  1.00  0.00    -0.092 C 
HETATM   25  C26 UNL     1      -2.755  -2.168  -0.265  1.00  0.00     0.067 C 
HETATM   26  C27 UNL     1      -2.239  -3.512   0.488  1.00  0.00     0.034 C 
HETATM   27  C28 UNL     1      -0.683  -3.410   0.538  1.00  0.00     0.027 C 
HETATM   28  C29 UNL     1       0.168  -3.997   1.645  1.00  0.00     0.013 C 
HETATM   29  C30 UNL     1       1.655  -3.743   1.251  1.00  0.00     0.043 C 
HETATM   30  C31 UNL     1      -0.413  -1.904   0.426  1.00  0.00     0.096 C 
HETATM   31  C32 UNL     1      -1.332  -1.604  -0.799  1.00  0.00     0.013 C 
HETATM   32  C33 UNL     1      -0.855  -2.393  -2.082  1.00  0.00     0.020 C 
HETATM   33  C34 UNL     1      -1.164  -0.129  -1.162  1.00  0.00     0.016 C 
HETATM   34  C35 UNL     1       0.334   0.225  -1.431  1.00  0.00     0.029 C 
HETATM   35  C36 UNL     1      -3.928  -2.298  -1.426  1.00  0.00     0.102 C 
HETATM   36  C37 UNL     1      -4.121  -3.772  -1.839  1.00  0.00     0.050 C 
HETATM   37  C38 UNL     1      -5.391  -1.692  -1.110  1.00  0.00     0.183 C 
HETATM   38  C39 UNL     1      -5.441  -0.160  -0.892  1.00  0.00     0.158 C 
HETATM   39  O8  UNL     1      -5.115   0.722  -1.971  1.00  0.00    -0.373 OA
HETATM   40  C40 UNL     1      -5.238   2.071  -1.387  1.00  0.00     0.185 C 
HETATM   41  C41 UNL     1      -6.251   1.963  -0.222  1.00  0.00     0.028 C 
HETATM   42  C42 UNL     1      -5.655   2.482   1.128  1.00  0.00     0.060 C 
HETATM   43  C43 UNL     1      -6.669   0.478  -0.245  1.00  0.00     0.020 C 
HETATM   44  C44 UNL     1      -7.948   0.289  -1.063  1.00  0.00     0.013 C 
HETATM   45  C45 UNL     1      -3.881   2.632  -0.862  1.00  0.00     0.385 C 
HETATM   46  N2  UNL     1      -3.387   1.890   0.286  1.00  0.00     0.134 N 
HETATM   47  H60 UNL     1      -2.428   2.137   0.498  1.00  0.00     0.321 HD
ENDROOT
BRANCH   1  48
HETATM   48  O2  UNL     1       7.119   0.047  -0.247  1.00  0.00    -0.386 OA
BRANCH  48  49
HETATM   49  C4  UNL     1       8.050  -0.043   0.830  1.00  0.00     0.170 C 
BRANCH  49  50
HETATM   50  C3  UNL     1       9.438   0.340   0.335  1.00  0.00     0.052 C 
BRANCH  50  51
HETATM   51  C2  UNL     1       9.494   1.778  -0.168  1.00  0.00     0.169 C 
BRANCH  51  52
HETATM   52  O1  UNL     1      10.853   2.085  -0.484  1.00  0.00    -0.396 OA
HETATM   53  C1  UNL     1      10.983   3.398  -1.014  1.00  0.00     0.201 C 
ENDBRANCH  51  52
ENDBRANCH  50  51
ENDBRANCH  49  50
ENDBRANCH  48  49
ENDBRANCH   1  48
BRANCH  30  54
HETATM   54  O5  UNL     1      -0.833  -1.289   1.643  1.00  0.00    -0.384 OA
HETATM   55  H35 UNL     1      -0.119  -1.361   2.296  1.00  0.00     0.211 HD
ENDBRANCH  30  54
BRANCH  35  56
HETATM   56  O6  UNL     1      -3.482  -1.647  -2.635  1.00  0.00    -0.386 OA
HETATM   57  H46 UNL     1      -4.030  -0.841  -2.773  1.00  0.00     0.210 HD
ENDBRANCH  35  56
BRANCH  37  58
HETATM   58  O7  UNL     1      -6.311  -1.986  -2.176  1.00  0.00    -0.390 OA
HETATM   59  H48 UNL     1      -6.502  -2.938  -2.163  1.00  0.00     0.210 HD
ENDBRANCH  37  58
BRANCH  45  60
HETATM   60  O9  UNL     1      -2.919   2.578  -1.897  1.00  0.00    -0.366 OA
HETATM   61  H59 UNL     1      -2.060   2.758  -1.488  1.00  0.00     0.212 HD
ENDBRANCH  45  60
TORSDOF 9
