REMARK  13 active torsions:
REMARK  status: ('A' for Active; 'I' for Inactive)
REMARK    1  A    between atoms: C4_4  and  C5_5 
REMARK    2  A    between atoms: C5_5  and  C6_6 
REMARK    3  A    between atoms: C6_6  and  C7_7 
REMARK    4  A    between atoms: C9_9  and  C10_10 
REMARK    5  A    between atoms: C11_11  and  C12_12 
REMARK    6  A    between atoms: C14_14  and  C15_15 
REMARK    7  A    between atoms: C18_18  and  C19_19 
REMARK    8  A    between atoms: C19_19  and  C20_20 
REMARK    9  A    between atoms: C20_20  and  C21_21 
REMARK   10  A    between atoms: C21_21  and  O1_22 
REMARK   11  A    between atoms: C23_24  and  C25_26 
REMARK   12  A    between atoms: C28_30  and  O3_32 
REMARK   13  A    between atoms: C30_33  and  O4_34 
ROOT
HETATM    1  C15 UNL     1      -1.014  -0.963  -0.016  1.00  0.00     0.149 C 
HETATM    2  C16 UNL     1      -2.170  -0.009   0.286  1.00  0.00     0.054 C 
HETATM    3  C17 UNL     1      -3.236  -0.235  -0.828  1.00  0.00     0.050 C 
HETATM    4  C18 UNL     1      -4.667  -0.367  -0.171  1.00  0.00     0.032 C 
HETATM    5  C22 UNL     1      -4.970   0.893   0.659  1.00  0.00    -0.066 C 
HETATM    6  C23 UNL     1      -5.531   0.905   1.899  1.00  0.00    -0.021 C 
HETATM    7  C24 UNL     1      -5.748   2.137   2.745  1.00  0.00     0.052 C 
HETATM    8  C26 UNL     1      -4.466   2.193   0.046  1.00  0.00     0.038 C 
HETATM    9  C27 UNL     1      -4.096   2.149  -1.434  1.00  0.00     0.042 C 
HETATM   10  C28 UNL     1      -3.264   0.927  -1.898  1.00  0.00     0.067 C 
HETATM   11  C29 UNL     1      -1.885   1.393  -2.385  1.00  0.00     0.047 C 
HETATM   12  C30 UNL     1      -2.746  -1.599  -1.371  1.00  0.00     0.270 C 
HETATM   13  O5  UNL     1      -1.329  -1.597  -1.258  1.00  0.00    -0.351 OA
ENDROOT
BRANCH   4  14
HETATM   14  C19 UNL     1      -5.803  -0.692  -1.177  1.00  0.00     0.012 C 
BRANCH  14  15
HETATM   15  C20 UNL     1      -7.118  -1.135  -0.530  1.00  0.00     0.027 C 
BRANCH  15  16
HETATM   16  C21 UNL     1      -8.161  -1.501  -1.579  1.00  0.00     0.164 C 
BRANCH  16  17
HETATM   17  O1  UNL     1      -9.351  -1.930  -0.931  1.00  0.00    -0.401 OA
HETATM   18  H32 UNL     1      -9.717  -1.165  -0.455  1.00  0.00     0.209 HD
ENDBRANCH  16  17
ENDBRANCH  15  16
ENDBRANCH  14  15
ENDBRANCH   4  14
BRANCH  10  19
HETATM   19  O3  UNL     1      -3.934   0.498  -3.102  1.00  0.00    -0.389 OA
HETATM   20  H44 UNL     1      -3.556  -0.376  -3.347  1.00  0.00     0.210 HD
ENDBRANCH  10  19
BRANCH  12  21
HETATM   21  O4  UNL     1      -3.074  -1.843  -2.721  1.00  0.00    -0.370 OA
HETATM   22  H46 UNL     1      -2.739  -2.743  -2.895  1.00  0.00     0.212 HD
ENDBRANCH  12  21
BRANCH   1  23
HETATM   23  C14 UNL     1       0.318  -0.290  -0.153  1.00  0.00     0.011 C 
HETATM   24  C12 UNL     1       1.364  -0.325   0.701  1.00  0.00    -0.063 C 
HETATM   25  C13 UNL     1       1.345  -1.041   2.028  1.00  0.00     0.048 C 
BRANCH  24  26
HETATM   26  C11 UNL     1       2.582   0.405   0.336  1.00  0.00     0.006 C 
HETATM   27  C10 UNL     1       3.769   0.340   0.965  1.00  0.00     0.001 C 
BRANCH  27  28
HETATM   28  C9  UNL     1       4.920   1.102   0.528  1.00  0.00     0.002 C 
HETATM   29  C7  UNL     1       6.167   1.059   1.043  1.00  0.00    -0.084 C 
HETATM   30  C8  UNL     1       6.594   0.220   2.219  1.00  0.00     0.043 C 
BRANCH  29  31
HETATM   31  C6  UNL     1       7.255   1.938   0.445  1.00  0.00     0.037 C 
BRANCH  31  32
HETATM   32  C5  UNL     1       8.108   1.250  -0.631  1.00  0.00     0.031 C 
BRANCH  32  33
HETATM   33  C4  UNL     1       9.124   0.285  -0.078  1.00  0.00    -0.024 C 
HETATM   34  C2  UNL     1       9.213  -1.042  -0.294  1.00  0.00    -0.091 C 
HETATM   35  C1  UNL     1      10.333  -1.847   0.317  1.00  0.00     0.042 C 
HETATM   36  C3  UNL     1       8.255  -1.857  -1.120  1.00  0.00     0.042 C 
ENDBRANCH  32  33
ENDBRANCH  31  32
ENDBRANCH  29  31
ENDBRANCH  27  28
ENDBRANCH  24  26
ENDBRANCH   1  23
BRANCH   6  37
HETATM   37  C25 UNL     1      -5.992  -0.338   2.600  1.00  0.00     0.265 C 
HETATM   38  O2  UNL     1      -6.495  -0.320   3.719  1.00  0.00    -0.302 OA
ENDBRANCH   6  37
TORSDOF 13
