REMARK  19 active torsions:
REMARK  status: ('A' for Active; 'I' for Inactive)
REMARK    1  A    between atoms: C2_2  and  C3_3 
REMARK    2  A    between atoms: C3_3  and  C5_5 
REMARK    3  A    between atoms: C5_5  and  N1_6 
REMARK    4  A    between atoms: C5_5  and  C37_46 
REMARK       I    between atoms: N1_6  and  C6_7 
REMARK    5  A    between atoms: C6_7  and  C7_9 
REMARK    6  A    between atoms: C7_9  and  C8_10 
REMARK    7  A    between atoms: C8_10  and  C9_11 
REMARK    8  A    between atoms: C9_11  and  C10_12 
REMARK    9  A    between atoms: C10_12  and  C11_13 
REMARK   10  A    between atoms: C11_13  and  N2_14 
REMARK       I    between atoms: N2_14  and  C12_15 
REMARK   11  A    between atoms: C12_15  and  C13_17 
REMARK   12  A    between atoms: C13_17  and  C14_18 
REMARK   13  A    between atoms: C14_18  and  C15_19 
REMARK   14  A    between atoms: C15_19  and  O4_21 
REMARK   15  A    between atoms: O4_21  and  C16_22 
REMARK   16  A    between atoms: C16_22  and  C17_23 
REMARK   17  A    between atoms: C17_23  and  C18_25 
REMARK   18  A    between atoms: C18_25  and  O6_26 
REMARK   19  A    between atoms: C37_46  and  O9_48 
ROOT
HETATM    1  C15 UNL     1      -0.925  -3.340  -0.558  1.00  0.00     0.259 C 
HETATM    2  O3  UNL     1      -1.043  -4.490  -0.959  1.00  0.00    -0.265 OA
ENDROOT
BRANCH   1   3
HETATM    3  C14 UNL     1      -0.083  -2.955   0.636  1.00  0.00     0.120 C 
BRANCH   3   4
HETATM    4  C13 UNL     1       0.730  -1.686   0.430  1.00  0.00     0.112 C 
BRANCH   4   5
HETATM    5  C12 UNL     1       1.598  -1.801  -0.802  1.00  0.00     0.217 C 
HETATM    6  N2  UNL     1       2.837  -2.358  -0.572  1.00  0.00    -0.361 N 
HETATM    7  H22 UNL     1       3.179  -2.359   0.378  1.00  0.00     0.162 HD
HETATM    8  O2  UNL     1       1.183  -1.480  -1.910  1.00  0.00    -0.274 OA
BRANCH   6   9
HETATM    9  C11 UNL     1       3.809  -2.421  -1.646  1.00  0.00     0.122 C 
BRANCH   9  10
HETATM   10  C10 UNL     1       5.023  -3.285  -1.308  1.00  0.00     0.020 C 
BRANCH  10  11
HETATM   11  C9  UNL     1       6.160  -2.539  -0.598  1.00  0.00     0.002 C 
BRANCH  11  12
HETATM   12  C8  UNL     1       5.856  -2.154   0.853  1.00  0.00     0.009 C 
BRANCH  12  13
HETATM   13  C7  UNL     1       7.064  -1.506   1.535  1.00  0.00     0.103 C 
BRANCH  13  14
HETATM   14  C6  UNL     1       7.304  -0.076   1.081  1.00  0.00     0.218 C 
HETATM   15  N1  UNL     1       8.542   0.406   1.453  1.00  0.00    -0.346 N 
HETATM   16  H11 UNL     1       8.971  -0.051   2.249  1.00  0.00     0.163 HD
HETATM   17  O1  UNL     1       6.477   0.587   0.466  1.00  0.00    -0.274 OA
BRANCH  15  18
HETATM   18  C5  UNL     1       8.862   1.830   1.300  1.00  0.00     0.186 C 
BRANCH  18  19
HETATM   19  C3  UNL     1      10.340   2.048   0.890  1.00  0.00     0.014 C 
HETATM   20  C4  UNL     1      11.325   1.425   1.889  1.00  0.00     0.012 C 
BRANCH  19  21
HETATM   21  C2  UNL     1      10.575   1.523  -0.543  1.00  0.00     0.002 C 
HETATM   22  C1  UNL     1      11.934   1.901  -1.115  1.00  0.00     0.005 C 
ENDBRANCH  19  21
ENDBRANCH  18  19
BRANCH  18  23
HETATM   23  C37 UNL     1       8.544   2.611   2.583  1.00  0.00     0.163 C 
HETATM   24  O8  UNL     1       8.638   3.819   2.735  1.00  0.00    -0.648 OA
BRANCH  23  25
HETATM   25  O9  UNL     1       8.194   1.830   3.630  1.00  0.00    -0.775 OA
HETATM   26  H56 UNL     1       8.039   2.477   4.353  1.00  0.00     0.167 HD
ENDBRANCH  23  25
ENDBRANCH  18  23
ENDBRANCH  15  18
ENDBRANCH  13  14
ENDBRANCH  12  13
ENDBRANCH  11  12
ENDBRANCH  10  11
ENDBRANCH   9  10
ENDBRANCH   6   9
ENDBRANCH   4   5
ENDBRANCH   3   4
ENDBRANCH   1   3
BRANCH   1  27
HETATM   27  O4  UNL     1      -1.583  -2.265  -1.076  1.00  0.00    -0.314 OA
BRANCH  27  28
HETATM   28  C16 UNL     1      -2.298  -2.555  -2.278  1.00  0.00     0.260 C 
BRANCH  28  29
HETATM   29  C17 UNL     1      -2.650  -1.291  -3.057  1.00  0.00     0.185 C 
HETATM   30  O5  UNL     1      -2.596  -1.299  -4.290  1.00  0.00    -0.292 OA
BRANCH  29  31
HETATM   31  C18 UNL     1      -3.191  -0.070  -2.259  1.00  0.00     0.128 C 
HETATM   32  C19 UNL     1      -3.336   1.179  -3.170  1.00  0.00     0.047 C 
HETATM   33  C20 UNL     1      -4.525   1.987  -2.625  1.00  0.00     0.009 C 
HETATM   34  C21 UNL     1      -5.013   1.211  -1.401  1.00  0.00     0.002 C 
HETATM   35  C22 UNL     1      -6.485   1.419  -0.994  1.00  0.00    -0.004 C 
HETATM   36  C35 UNL     1      -4.645  -0.257  -1.707  1.00  0.00    -0.002 C 
HETATM   37  C23 UNL     1      -6.686   2.854  -0.458  1.00  0.00     0.010 C 
HETATM   38  C32 UNL     1      -6.966   0.291  -0.003  1.00  0.00     0.002 C 
HETATM   39  C24 UNL     1      -6.572   2.939   1.057  1.00  0.00     0.035 C 
HETATM   40  C25 UNL     1      -7.565   2.048   1.759  1.00  0.00    -0.068 C 
HETATM   41  C26 UNL     1      -7.976   2.362   3.002  1.00  0.00     0.053 C 
HETATM   42  C30 UNL     1      -8.045   0.799   1.025  1.00  0.00    -0.016 C 
HETATM   43  C27 UNL     1      -8.925   1.507   3.758  1.00  0.00     0.149 C 
HETATM   44  O7  UNL     1      -9.342   1.892   4.849  1.00  0.00    -0.293 OA
HETATM   45  C28 UNL     1      -9.375   0.201   3.145  1.00  0.00     0.084 C 
HETATM   46  C29 UNL     1      -8.382  -0.284   2.090  1.00  0.00     0.022 C 
HETATM   47  C31 UNL     1      -9.354   1.114   0.247  1.00  0.00     0.020 C 
HETATM   48  C33 UNL     1      -5.758  -0.451   0.625  1.00  0.00     0.007 C 
HETATM   49  C34 UNL     1      -4.774  -1.060  -0.397  1.00  0.00     0.013 C 
HETATM   50  C36 UNL     1      -5.560  -0.890  -2.793  1.00  0.00     0.019 C 
BRANCH  31  51
HETATM   51  O6  UNL     1      -2.307   0.337  -1.209  1.00  0.00    -0.381 OA
HETATM   52  H29 UNL     1      -1.877  -0.462  -0.851  1.00  0.00     0.211 HD
ENDBRANCH  31  51
ENDBRANCH  29  31
ENDBRANCH  28  29
ENDBRANCH  27  28
ENDBRANCH   1  27
TORSDOF 19
