REMARK  10 active torsions:
REMARK  status: ('A' for Active; 'I' for Inactive)
REMARK    1  A    between atoms: C3_3  and  C4_4 
REMARK    2  A    between atoms: C4_4  and  O1_5 
REMARK    3  A    between atoms: C5_6  and  C6_7 
REMARK    4  A    between atoms: C6_7  and  O2_8 
REMARK    5  A    between atoms: C6_7  and  C7_9 
REMARK    6  A    between atoms: C7_9  and  O3_11 
REMARK    7  A    between atoms: C7_9  and  C9_12 
REMARK    8  A    between atoms: C16_20  and  C17_21 
REMARK    9  A    between atoms: C39_46  and  C40_47 
REMARK   10  A    between atoms: C40_47  and  O8_48 
ROOT
HETATM    1  C9  UNL     1      -1.790  -0.050   0.400  1.00  0.00     0.034 C 
HETATM    2  C10 UNL     1      -1.322   0.856   1.574  1.00  0.00     0.012 C 
HETATM    3  C11 UNL     1       0.075   0.356   1.986  1.00  0.00     0.044 C 
HETATM    4  C12 UNL     1       0.596  -0.392   0.743  1.00  0.00     0.093 C 
HETATM    5  O4  UNL     1       0.877   0.508  -0.357  1.00  0.00    -0.363 OA
HETATM    6  C13 UNL     1       1.556   1.746  -0.146  1.00  0.00     0.263 C 
HETATM    7  C14 UNL     1       2.984   1.679  -0.468  1.00  0.00    -0.080 C 
HETATM    8  C15 UNL     1       4.151   1.727  -0.770  1.00  0.00    -0.093 C 
HETATM    9  C16 UNL     1       5.575   1.797  -1.181  1.00  0.00     0.121 C 
HETATM   10  C23 UNL     1       6.397   0.600  -0.648  1.00  0.00     0.190 C 
HETATM   11  O5  UNL     1       6.202  -0.600  -1.415  1.00  0.00    -0.384 OA
HETATM   12  C24 UNL     1       5.100  -1.393  -0.977  1.00  0.00     0.122 C 
HETATM   13  C25 UNL     1       4.668  -2.315  -2.121  1.00  0.00     0.033 C 
HETATM   14  C26 UNL     1       3.843  -3.524  -1.656  1.00  0.00     0.013 C 
HETATM   15  C27 UNL     1       3.134  -3.328  -0.283  1.00  0.00    -0.026 C 
HETATM   16  C28 UNL     1       2.531  -4.702   0.125  1.00  0.00     0.016 C 
HETATM   17  C29 UNL     1       4.232  -3.003   0.777  1.00  0.00     0.071 C 
HETATM   18  C30 UNL     1       5.445  -2.217   0.256  1.00  0.00     0.045 C 
HETATM   19  C31 UNL     1       3.690  -2.341   2.028  1.00  0.00     0.154 C 
HETATM   20  O6  UNL     1       4.254  -2.453   3.116  1.00  0.00    -0.293 OA
HETATM   21  C32 UNL     1       2.509  -1.466   1.943  1.00  0.00     0.057 C 
HETATM   22  C33 UNL     1       1.758  -1.371   0.837  1.00  0.00    -0.036 C 
HETATM   23  C34 UNL     1       2.011  -2.206  -0.425  1.00  0.00     0.026 C 
HETATM   24  C35 UNL     1       0.696  -2.766  -1.059  1.00  0.00     0.011 C 
HETATM   25  C36 UNL     1      -0.499  -1.804  -1.049  1.00  0.00     0.014 C 
HETATM   26  C37 UNL     1      -0.711  -1.194   0.356  1.00  0.00    -0.002 C 
HETATM   27  C38 UNL     1      -1.044  -2.328   1.363  1.00  0.00     0.019 C 
ENDROOT
BRANCH   1  28
HETATM   28  C7  UNL     1      -3.326  -0.394   0.354  1.00  0.00     0.087 C 
HETATM   29  C8  UNL     1      -3.928  -0.737   1.734  1.00  0.00     0.049 C 
BRANCH  28  30
HETATM   30  C6  UNL     1      -4.115   0.804  -0.323  1.00  0.00     0.181 C 
BRANCH  30  31
HETATM   31  C5  UNL     1      -5.377   0.364  -1.128  1.00  0.00     0.160 C 
HETATM   32  C3  UNL     1      -6.330   1.454  -1.642  1.00  0.00     0.047 C 
HETATM   33  C2  UNL     1      -7.361   1.548  -0.520  1.00  0.00     0.021 C 
HETATM   34  C1  UNL     1      -8.706   2.141  -0.929  1.00  0.00     0.013 C 
HETATM   35  C39 UNL     1      -7.477   0.088  -0.097  1.00  0.00     0.149 C 
HETATM   36  O7  UNL     1      -6.191  -0.535  -0.340  1.00  0.00    -0.375 OA
BRANCH  32  37
HETATM   37  C4  UNL     1      -5.680   2.769  -2.050  1.00  0.00     0.172 C 
BRANCH  37  38
HETATM   38  O1  UNL     1      -6.592   3.577  -2.785  1.00  0.00    -0.400 OA
HETATM   39  H8  UNL     1      -6.813   3.108  -3.609  1.00  0.00     0.209 HD
ENDBRANCH  37  38
ENDBRANCH  32  37
BRANCH  35  40
HETATM   40  C40 UNL     1      -7.843  -0.093   1.374  1.00  0.00     0.196 C 
BRANCH  40  41
HETATM   41  O8  UNL     1      -7.950  -1.485   1.675  1.00  0.00    -0.398 OA
HETATM   42  H54 UNL     1      -7.171  -1.903   1.257  1.00  0.00     0.209 HD
ENDBRANCH  40  41
ENDBRANCH  35  40
ENDBRANCH  30  31
BRANCH  30  43
HETATM   43  O2  UNL     1      -4.451   1.810   0.637  1.00  0.00    -0.390 OA
HETATM   44  H11 UNL     1      -3.623   2.214   0.952  1.00  0.00     0.210 HD
ENDBRANCH  30  43
ENDBRANCH  28  30
BRANCH  28  45
HETATM   45  O3  UNL     1      -3.472  -1.558  -0.471  1.00  0.00    -0.387 OA
HETATM   46  H15 UNL     1      -4.407  -1.834  -0.414  1.00  0.00     0.210 HD
ENDBRANCH  28  45
ENDBRANCH   1  28
BRANCH   9  47
HETATM   47  C17 UNL     1       6.198   3.111  -0.729  1.00  0.00    -0.040 A 
HETATM   48  C18 UNL     1       6.296   3.443   0.633  1.00  0.00     0.008 A 
HETATM   49  C19 UNL     1       6.904   4.633   1.027  1.00  0.00     0.001 A 
HETATM   50  C20 UNL     1       7.414   5.510   0.074  1.00  0.00     0.000 A 
HETATM   51  C21 UNL     1       7.318   5.196  -1.279  1.00  0.00     0.001 A 
HETATM   52  C22 UNL     1       6.713   4.005  -1.681  1.00  0.00     0.008 A 
ENDBRANCH   9  47
TORSDOF 10
