REMARK  16 active torsions:
REMARK  status: ('A' for Active; 'I' for Inactive)
REMARK    1  A    between atoms: C2_2  and  C3_3 
REMARK    2  A    between atoms: C3_3  and  C4_4 
REMARK    3  A    between atoms: C4_4  and  C5_5 
REMARK    4  A    between atoms: C5_5  and  C6_6 
REMARK    5  A    between atoms: C6_6  and  C7_7 
REMARK    6  A    between atoms: C7_7  and  C8_8 
REMARK    7  A    between atoms: C8_8  and  N1_9 
REMARK    8  A    between atoms: N1_9  and  C9_10 
REMARK    9  A    between atoms: N1_9  and  C11_12 
REMARK   10  A    between atoms: N1_9  and  C13_14 
REMARK   11  A    between atoms: C13_14  and  C14_15 
REMARK   12  A    between atoms: C14_15  and  O1_16 
REMARK   13  A    between atoms: O1_16  and  C15_17 
REMARK   14  A    between atoms: C15_17  and  C16_19 
REMARK   15  A    between atoms: C16_19  and  C17_20 
REMARK   16  A    between atoms: C16_19  and  C22_25 
ROOT
HETATM    1  C14 UNL     1      -1.012  -0.026  -0.566  1.00  0.00     0.206 C 
ENDROOT
BRANCH   1   2
HETATM    2  C13 UNL     1      -0.496  -1.178   0.316  1.00  0.00     0.264 C 
BRANCH   2   3
HETATM    3  N1  UNL     1       1.049  -1.507   0.229  1.00  0.00    -0.066 N 
BRANCH   3   4
HETATM    4  C8  UNL     1       1.833  -0.180   0.070  1.00  0.00     0.237 C 
BRANCH   4   5
HETATM    5  C7  UNL     1       3.352  -0.307   0.146  1.00  0.00     0.028 C 
BRANCH   5   6
HETATM    6  C6  UNL     1       4.021   1.029  -0.200  1.00  0.00     0.002 C 
BRANCH   6   7
HETATM    7  C5  UNL     1       5.551   0.950  -0.259  1.00  0.00     0.000 C 
BRANCH   7   8
HETATM    8  C4  UNL     1       6.199   0.681   1.102  1.00  0.00     0.000 C 
BRANCH   8   9
HETATM    9  C3  UNL     1       7.728   0.600   1.040  1.00  0.00    -0.000 C 
BRANCH   9  10
HETATM   10  C2  UNL     1       8.398   1.930   0.693  1.00  0.00    -0.005 C 
HETATM   11  C1  UNL     1       9.914   1.821   0.757  1.00  0.00     0.005 C 
ENDBRANCH   9  10
ENDBRANCH   8   9
ENDBRANCH   7   8
ENDBRANCH   6   7
ENDBRANCH   5   6
ENDBRANCH   4   5
ENDBRANCH   3   4
BRANCH   3  12
HETATM   12  C9  UNL     1       1.369  -2.167   1.623  1.00  0.00     0.233 C 
HETATM   13  C10 UNL     1       2.547  -3.132   1.644  1.00  0.00     0.035 C 
ENDBRANCH   3  12
BRANCH   3  14
HETATM   14  C11 UNL     1       1.317  -2.531  -0.897  1.00  0.00     0.233 C 
HETATM   15  C12 UNL     1       0.895  -2.093  -2.286  1.00  0.00     0.035 C 
ENDBRANCH   3  14
ENDBRANCH   2   3
ENDBRANCH   1   2
BRANCH   1  16
HETATM   16  O1  UNL     1      -2.448  -0.060  -0.678  1.00  0.00    -0.319 OA
BRANCH  16  17
HETATM   17  C15 UNL     1      -3.127   0.327   0.438  1.00  0.00     0.263 C 
HETATM   18  O2  UNL     1      -2.571   0.612   1.491  1.00  0.00    -0.265 OA
BRANCH  17  19
HETATM   19  C16 UNL     1      -4.635   0.365   0.226  1.00  0.00     0.093 C 
BRANCH  19  20
HETATM   20  C17 UNL     1      -5.127  -0.897  -0.539  1.00  0.00    -0.001 C 
HETATM   21  C18 UNL     1      -6.651  -1.006  -0.670  1.00  0.00     0.005 C 
HETATM   22  C19 UNL     1      -7.121  -1.561   0.669  1.00  0.00     0.000 C 
HETATM   23  C20 UNL     1      -5.948  -2.373   1.216  1.00  0.00     0.000 C 
HETATM   24  C21 UNL     1      -4.813  -2.203   0.209  1.00  0.00     0.005 C 
ENDBRANCH  19  20
BRANCH  19  25
HETATM   25  C22 UNL     1      -5.090   1.698  -0.407  1.00  0.00    -0.001 C 
HETATM   26  C23 UNL     1      -4.522   2.963   0.242  1.00  0.00     0.005 C 
HETATM   27  C24 UNL     1      -4.925   4.063  -0.731  1.00  0.00     0.000 C 
HETATM   28  C25 UNL     1      -4.925   3.410  -2.113  1.00  0.00     0.000 C 
HETATM   29  C26 UNL     1      -4.746   1.909  -1.882  1.00  0.00     0.005 C 
ENDBRANCH  19  25
ENDBRANCH  17  19
ENDBRANCH  16  17
ENDBRANCH   1  16
TORSDOF 16
