REMARK  6 active torsions:
REMARK  status: ('A' for Active; 'I' for Inactive)
REMARK    1  A    between atoms: C2_2  and  C30_31 
REMARK    2  A    between atoms: C3_3  and  C4_4 
REMARK    3  A    between atoms: C4_4  and  C5_5 
REMARK    4  A    between atoms: C5_5  and  C6_6 
REMARK    5  A    between atoms: C6_6  and  C8_8 
REMARK    6  A    between atoms: C30_31  and  O3_33 
ROOT
HETATM    1  C8  UNL     1       2.141   0.305   1.096  1.00  0.00    -0.002 C 
HETATM    2  C9  UNL     1       2.183  -1.074   1.805  1.00  0.00     0.007 C 
HETATM    3  C10 UNL     1       0.724  -1.584   1.867  1.00  0.00     0.015 C 
HETATM    4  C11 UNL     1      -0.146  -0.370   1.468  1.00  0.00    -0.013 C 
HETATM    5  C12 UNL     1      -0.342   0.465   2.776  1.00  0.00     0.021 C 
HETATM    6  C13 UNL     1      -1.548  -0.615   0.924  1.00  0.00    -0.070 C 
HETATM    7  C14 UNL     1      -2.308  -1.649   1.332  1.00  0.00    -0.022 C 
HETATM    8  C15 UNL     1      -3.743  -1.859   0.938  1.00  0.00     0.034 C 
HETATM    9  C16 UNL     1      -4.237  -0.910  -0.176  1.00  0.00     0.013 C 
HETATM   10  C17 UNL     1      -5.772  -1.008  -0.522  1.00  0.00     0.018 C 
HETATM   11  C18 UNL     1      -5.940  -1.587  -1.946  1.00  0.00     0.023 C 
HETATM   12  C19 UNL     1      -6.562  -1.925   0.436  1.00  0.00     0.023 C 
HETATM   13  C20 UNL     1      -6.461   0.365  -0.543  1.00  0.00     0.135 C 
HETATM   14  O1  UNL     1      -7.627   0.513  -0.163  1.00  0.00    -0.297 OA
HETATM   15  C21 UNL     1      -5.730   1.545  -1.138  1.00  0.00     0.080 C 
HETATM   16  C22 UNL     1      -4.215   1.413  -1.122  1.00  0.00     0.017 C 
HETATM   17  C23 UNL     1      -3.677   0.543   0.036  1.00  0.00    -0.031 C 
HETATM   18  C24 UNL     1      -4.106   1.151   1.396  1.00  0.00     0.016 C 
HETATM   19  C25 UNL     1      -2.102   0.434  -0.051  1.00  0.00     0.024 C 
HETATM   20  C26 UNL     1      -1.345   1.786   0.004  1.00  0.00     0.010 C 
HETATM   21  C27 UNL     1       0.201   1.700   0.035  1.00  0.00     0.011 C 
HETATM   22  C28 UNL     1       0.755   0.302   0.375  1.00  0.00    -0.029 C 
HETATM   23  C29 UNL     1       0.857  -0.516  -0.945  1.00  0.00     0.016 C 
ENDROOT
BRANCH   1  24
HETATM   24  C6  UNL     1       3.413   0.718   0.294  1.00  0.00    -0.014 C 
HETATM   25  C7  UNL     1       4.421   1.336   1.284  1.00  0.00     0.010 C 
BRANCH  24  26
HETATM   26  C5  UNL     1       4.103  -0.421  -0.499  1.00  0.00     0.008 C 
BRANCH  26  27
HETATM   27  C4  UNL     1       4.779   0.026  -1.806  1.00  0.00     0.028 C 
BRANCH  27  28
HETATM   28  C3  UNL     1       6.037   0.831  -1.631  1.00  0.00    -0.013 C 
HETATM   29  C2  UNL     1       7.312   0.391  -1.580  1.00  0.00     0.008 C 
HETATM   30  C1  UNL     1       8.459   1.351  -1.435  1.00  0.00     0.055 C 
BRANCH  29  31
HETATM   31  C30 UNL     1       7.647  -1.056  -1.626  1.00  0.00     0.171 C 
HETATM   32  O2  UNL     1       6.892  -1.999  -1.469  1.00  0.00    -0.646 OA
BRANCH  31  33
HETATM   33  O3  UNL     1       8.956  -1.261  -1.860  1.00  0.00    -0.773 OA
HETATM   34  H46 UNL     1       9.032  -2.238  -1.862  1.00  0.00     0.167 HD
ENDBRANCH  31  33
ENDBRANCH  29  31
ENDBRANCH  27  28
ENDBRANCH  26  27
ENDBRANCH  24  26
ENDBRANCH   1  24
TORSDOF 6
