REMARK  11 active torsions:
REMARK  status: ('A' for Active; 'I' for Inactive)
REMARK    1  A    between atoms: C3_3  and  O1_4 
REMARK    2  A    between atoms: N1_14  and  O2_16 
REMARK    3  A    between atoms: O2_16  and  C13_17 
REMARK    4  A    between atoms: C13_17  and  C14_18 
REMARK       I    between atoms: C14_18  and  N2_20 
REMARK    5  A    between atoms: N2_20  and  C15_21 
REMARK    6  A    between atoms: C15_21  and  C16_22 
REMARK    7  A    between atoms: C15_21  and  C19_27 
REMARK    8  A    between atoms: C16_22  and  O5_24 
REMARK    9  A    between atoms: O5_24  and  C17_25 
REMARK   10  A    between atoms: C19_27  and  O6_28 
REMARK   11  A    between atoms: C19_27  and  C20_29 
ROOT
HETATM    1  C1  UNL     1      -7.224   1.984   4.290  1.00  0.00     0.015 C 
HETATM    2  C2  UNL     1      -7.136   1.624   3.146  1.00  0.00    -0.078 C 
HETATM    3  C3  UNL     1      -7.033   1.202   1.727  1.00  0.00     0.128 C 
HETATM    4  C4  UNL     1      -5.834   1.900   1.082  1.00  0.00     0.052 C 
HETATM    5  C5  UNL     1      -4.632   1.013   1.403  1.00  0.00     0.010 C 
HETATM    6  C6  UNL     1      -5.184  -0.377   1.793  1.00  0.00     0.002 C 
HETATM    7  C7  UNL     1      -4.486  -1.566   1.101  1.00  0.00    -0.004 C 
HETATM    8  C8  UNL     1      -3.031  -1.718   1.572  1.00  0.00     0.010 C 
HETATM    9  C9  UNL     1      -2.192  -2.531   0.601  1.00  0.00     0.035 C 
HETATM   10  C10 UNL     1      -2.142  -1.739  -0.673  1.00  0.00    -0.069 C 
HETATM   11  C11 UNL     1      -0.997  -1.132  -1.039  1.00  0.00     0.030 C 
HETATM   12  C12 UNL     1      -0.934  -0.221  -2.218  1.00  0.00     0.032 C 
HETATM   13  N1  UNL     1       0.088   0.492  -2.577  1.00  0.00    -0.271 N 
ATOM     14  H1  UNL     1       0.077   1.147  -3.359  1.00  0.00     0.194 HD
HETATM   15  C26 UNL     1      -2.174  -0.109  -3.074  1.00  0.00     0.060 C 
HETATM   16  C27 UNL     1      -3.437  -0.272  -2.237  1.00  0.00     0.020 C 
HETATM   17  C28 UNL     1      -3.468  -1.589  -1.412  1.00  0.00    -0.016 C 
HETATM   18  C29 UNL     1      -3.573  -2.783  -2.402  1.00  0.00     0.020 C 
HETATM   19  C30 UNL     1      -4.727  -1.670  -0.439  1.00  0.00     0.002 C 
HETATM   20  C31 UNL     1      -5.946  -0.840  -0.898  1.00  0.00     0.007 C 
HETATM   21  C32 UNL     1      -7.082  -0.869   0.117  1.00  0.00     0.014 C 
HETATM   22  C33 UNL     1      -6.719  -0.321   1.535  1.00  0.00     0.003 C 
HETATM   23  C34 UNL     1      -7.487  -1.201   2.546  1.00  0.00     0.020 C 
ENDROOT
BRANCH   3  24
HETATM   24  O1  UNL     1      -8.229   1.592   1.071  1.00  0.00    -0.377 OA
HETATM   25  H2  UNL     1      -8.966   1.231   1.593  1.00  0.00     0.211 HD
ENDBRANCH   3  24
BRANCH  13  26
HETATM   26  O2  UNL     1       1.212   0.259  -1.767  1.00  0.00    -0.271 OA
BRANCH  26  27
HETATM   27  C13 UNL     1       2.079   1.386  -1.843  1.00  0.00     0.303 C 
BRANCH  27  28
HETATM   28  C14 UNL     1       3.537   0.944  -1.868  1.00  0.00     0.244 C 
HETATM   29  O3  UNL     1       3.979   0.098  -2.648  1.00  0.00    -0.271 OA
HETATM   30  N2  UNL     1       4.355   1.587  -0.965  1.00  0.00    -0.343 N 
HETATM   31  H16 UNL     1       3.950   2.058  -0.162  1.00  0.00     0.163 HD
BRANCH  30  32
HETATM   32  C15 UNL     1       5.763   1.181  -0.806  1.00  0.00     0.217 C 
BRANCH  32  33
HETATM   33  C16 UNL     1       6.496   2.351  -0.154  1.00  0.00     0.284 C 
HETATM   34  O4  UNL     1       6.032   3.049   0.743  1.00  0.00    -0.263 OA
BRANCH  33  35
HETATM   35  O5  UNL     1       7.709   2.554  -0.743  1.00  0.00    -0.320 OA
BRANCH  35  36
HETATM   36  C17 UNL     1       8.425   3.716  -0.297  1.00  0.00     0.174 C 
HETATM   37  C18 UNL     1       9.343   3.353   0.859  1.00  0.00     0.034 C 
ENDBRANCH  35  36
ENDBRANCH  33  35
ENDBRANCH  32  33
BRANCH  32  38
HETATM   38  C19 UNL     1       5.885  -0.118   0.018  1.00  0.00     0.183 C 
BRANCH  38  39
HETATM   39  O6  UNL     1       5.283   0.033   1.314  1.00  0.00    -0.388 OA
HETATM   40  H24 UNL     1       5.473  -0.781   1.808  1.00  0.00     0.210 HD
ENDBRANCH  38  39
BRANCH  38  41
HETATM   41  C20 UNL     1       7.299  -0.647   0.146  1.00  0.00    -0.027 A 
HETATM   42  C21 UNL     1       7.794  -1.522  -0.830  1.00  0.00     0.010 A 
HETATM   43  C22 UNL     1       9.101  -2.009  -0.753  1.00  0.00     0.001 A 
HETATM   44  C23 UNL     1       9.927  -1.617   0.297  1.00  0.00     0.000 A 
HETATM   45  C24 UNL     1       9.440  -0.757   1.285  1.00  0.00     0.001 A 
HETATM   46  C25 UNL     1       8.136  -0.270   1.210  1.00  0.00     0.010 A 
ENDBRANCH  38  41
ENDBRANCH  32  38
ENDBRANCH  30  32
ENDBRANCH  27  28
ENDBRANCH  26  27
ENDBRANCH  13  26
TORSDOF 11
