REMARK  12 active torsions:
REMARK  status: ('A' for Active; 'I' for Inactive)
REMARK    1  A    between atoms: O1_2  and  C2_3 
REMARK    2  A    between atoms: C4_5  and  O2_6 
REMARK    3  A    between atoms: O2_6  and  C5_7 
REMARK    4  A    between atoms: C8_10  and  C9_11 
REMARK    5  A    between atoms: N1_12  and  C10_14 
REMARK    6  A    between atoms: C10_14  and  C11_15 
REMARK    7  A    between atoms: C11_15  and  C12_16 
REMARK    8  A    between atoms: C12_16  and  O3_17 
REMARK    9  A    between atoms: C18_23  and  C19_24 
REMARK   10  A    between atoms: C25_32  and  O6_33 
REMARK   11  A    between atoms: C29_37  and  O7_38 
REMARK   12  A    between atoms: C33_43  and  O9_44 
ROOT
HETATM    1  C5  UNL     1       2.480   0.995   0.610  1.00  0.00     0.127 C 
HETATM    2  C6  UNL     1       1.599  -0.102   1.207  1.00  0.00     0.033 C 
HETATM    3  C7  UNL     1       0.224   0.434   1.587  1.00  0.00     0.021 C 
HETATM    4  C8  UNL     1      -0.595   1.008   0.377  1.00  0.00     0.026 C 
HETATM    5  C13 UNL     1      -1.571  -0.122  -0.159  1.00  0.00     0.009 C 
HETATM    6  C14 UNL     1      -2.845  -0.255   0.712  1.00  0.00     0.007 C 
HETATM    7  C15 UNL     1      -3.819  -1.315   0.203  1.00  0.00     0.013 C 
HETATM    8  C16 UNL     1      -4.246  -1.084  -1.268  1.00  0.00    -0.005 C 
HETATM    9  C17 UNL     1      -5.162   0.151  -1.363  1.00  0.00     0.019 C 
HETATM   10  C18 UNL     1      -4.927  -2.350  -1.883  1.00  0.00     0.028 C 
HETATM   11  C23 UNL     1      -3.740  -3.302  -2.143  1.00  0.00     0.013 C 
HETATM   12  C24 UNL     1      -2.498  -2.414  -2.305  1.00  0.00     0.040 C 
HETATM   13  C25 UNL     1      -2.989  -0.955  -2.175  1.00  0.00     0.070 C 
HETATM   14  C26 UNL     1      -1.927   0.055  -1.654  1.00  0.00     0.026 C 
HETATM   15  C27 UNL     1      -0.672   0.057  -2.554  1.00  0.00     0.011 C 
HETATM   16  C28 UNL     1       0.610   0.502  -1.853  1.00  0.00     0.039 C 
HETATM   17  C29 UNL     1       0.361   1.545  -0.755  1.00  0.00     0.073 C 
HETATM   18  C30 UNL     1       1.680   2.060  -0.149  1.00  0.00     0.071 C 
ENDROOT
BRANCH   1  19
HETATM   19  O2  UNL     1       3.417   0.440  -0.318  1.00  0.00    -0.356 OA
BRANCH  19  20
HETATM   20  C4  UNL     1       4.653   0.041   0.273  1.00  0.00     0.263 C 
HETATM   21  C3  UNL     1       5.660  -0.117  -0.865  1.00  0.00     0.095 C 
HETATM   22  C2  UNL     1       7.004  -0.621  -0.337  1.00  0.00     0.156 C 
HETATM   23  C33 UNL     1       6.794  -1.876   0.529  1.00  0.00     0.175 C 
HETATM   24  C31 UNL     1       5.720  -1.603   1.604  1.00  0.00     0.151 C 
HETATM   25  O8  UNL     1       4.497  -1.200   0.962  1.00  0.00    -0.354 OA
HETATM   26  C32 UNL     1       5.420  -2.851   2.429  1.00  0.00     0.042 C 
BRANCH  22  27
HETATM   27  O1  UNL     1       7.585   0.442   0.434  1.00  0.00    -0.388 OA
HETATM   28  C1  UNL     1       9.007   0.394   0.460  1.00  0.00     0.202 C 
ENDBRANCH  22  27
BRANCH  23  29
HETATM   29  O9  UNL     1       6.397  -2.960  -0.323  1.00  0.00    -0.390 OA
HETATM   30  H51 UNL     1       5.420  -2.948  -0.361  1.00  0.00     0.210 HD
ENDBRANCH  23  29
ENDBRANCH  19  20
ENDBRANCH   1  19
BRANCH  17  31
HETATM   31  O7  UNL     1      -0.257   2.661  -1.442  1.00  0.00    -0.389 OA
HETATM   32  H43 UNL     1       0.449   3.161  -1.887  1.00  0.00     0.210 HD
ENDBRANCH  17  31
BRANCH   4  33
HETATM   33  C9  UNL     1      -1.430   2.221   0.840  1.00  0.00     0.068 C 
HETATM   34  N1  UNL     1      -1.262   2.784   1.988  1.00  0.00    -0.401 N 
ATOM     35  H1  UNL     1      -0.580   2.450   2.669  1.00  0.00     0.158 HD
BRANCH  34  36
HETATM   36  C10 UNL     1      -2.125   3.939   2.240  1.00  0.00     0.121 C 
BRANCH  36  37
HETATM   37  C11 UNL     1      -1.396   4.927   3.147  1.00  0.00     0.045 C 
BRANCH  37  38
HETATM   38  C12 UNL     1      -0.187   5.551   2.465  1.00  0.00     0.165 C 
BRANCH  38  39
HETATM   39  O3  UNL     1       0.376   6.531   3.331  1.00  0.00    -0.401 OA
HETATM   40  H20 UNL     1       1.156   6.892   2.875  1.00  0.00     0.209 HD
ENDBRANCH  38  39
ENDBRANCH  37  38
ENDBRANCH  36  37
ENDBRANCH  34  36
ENDBRANCH   4  33
BRANCH  13  41
HETATM   41  O6  UNL     1      -3.386  -0.555  -3.497  1.00  0.00    -0.389 OA
HETATM   42  H37 UNL     1      -3.477   0.415  -3.512  1.00  0.00     0.210 HD
ENDBRANCH  13  41
BRANCH  10  43
HETATM   43  C19 UNL     1      -6.093  -2.937  -1.134  1.00  0.00    -0.045 A 
HETATM   44  C20 UNL     1      -6.136  -3.991  -0.315  1.00  0.00     0.087 A 
HETATM   45  C21 UNL     1      -7.534  -4.174   0.079  1.00  0.00     0.283 A 
HETATM   46  O4  UNL     1      -7.931  -5.040   0.839  1.00  0.00    -0.260 OA
HETATM   47  O5  UNL     1      -8.302  -3.231  -0.531  1.00  0.00    -0.314 OA
HETATM   48  C22 UNL     1      -7.465  -2.398  -1.327  1.00  0.00     0.213 A 
ENDBRANCH  10  43
TORSDOF 12
