REMARK  13 active torsions:
REMARK  status: ('A' for Active; 'I' for Inactive)
REMARK    1  A    between atoms: C2_2  and  C3_3 
REMARK    2  A    between atoms: C2_2  and  C11_12 
REMARK    3  A    between atoms: C3_3  and  C4_4 
REMARK    4  A    between atoms: C4_4  and  C5_5 
REMARK    5  A    between atoms: C5_5  and  O1_7 
REMARK    6  A    between atoms: C5_5  and  C7_8 
REMARK    7  A    between atoms: C28_32  and  O5_33 
REMARK    8  A    between atoms: O5_33  and  C29_34 
REMARK    9  A    between atoms: C30_36  and  C31_37 
REMARK   10  A    between atoms: C31_37  and  O7_38 
REMARK   11  A    between atoms: C32_39  and  O8_40 
REMARK   12  A    between atoms: C33_41  and  O9_42 
REMARK   13  A    between atoms: C34_43  and  O10_44 
ROOT
HETATM    1  C11 UNL     1      -3.358  -0.704   0.059  1.00  0.00    -0.001 C 
HETATM    2  C12 UNL     1      -3.674  -0.823  -1.459  1.00  0.00     0.007 C 
HETATM    3  C13 UNL     1      -2.368  -0.580  -2.234  1.00  0.00     0.024 C 
HETATM    4  C14 UNL     1      -1.320  -0.381  -1.162  1.00  0.00     0.092 C 
HETATM    5  C15 UNL     1      -0.638  -1.719  -0.780  1.00  0.00     0.272 C 
HETATM    6  O2  UNL     1      -1.106  -2.842  -0.851  1.00  0.00    -0.264 OA
HETATM    7  O3  UNL     1       0.634  -1.442  -0.319  1.00  0.00    -0.305 OA
HETATM    8  C16 UNL     1       0.843  -0.004  -0.346  1.00  0.00     0.113 C 
HETATM    9  C17 UNL     1       0.289   0.549   1.007  1.00  0.00     0.043 C 
HETATM   10  C18 UNL     1      -1.168   0.099   1.315  1.00  0.00     0.014 C 
HETATM   11  C19 UNL     1      -2.086   0.205   0.069  1.00  0.00    -0.020 C 
HETATM   12  C20 UNL     1      -2.484   1.692  -0.121  1.00  0.00     0.017 C 
HETATM   13  C21 UNL     1      -0.089   0.385  -1.447  1.00  0.00     0.137 A 
HETATM   14  O4  UNL     1      -0.120   1.695  -1.975  1.00  0.00    -0.364 OA
HETATM   15  C22 UNL     1       0.404   0.663  -2.843  1.00  0.00     0.162 A 
HETATM   16  C23 UNL     1       1.868   0.761  -3.114  1.00  0.00     0.041 C 
HETATM   17  C24 UNL     1       2.699  -0.081  -2.116  1.00  0.00     0.009 C 
HETATM   18  C25 UNL     1       4.231  -0.167  -2.512  1.00  0.00    -0.017 C 
HETATM   19  C26 UNL     1       4.778   1.128  -3.157  1.00  0.00     0.018 C 
HETATM   20  C27 UNL     1       4.369  -1.271  -3.602  1.00  0.00     0.018 C 
HETATM   21  C28 UNL     1       5.126  -0.598  -1.305  1.00  0.00     0.133 C 
HETATM   22  C35 UNL     1       4.313  -1.400  -0.291  1.00  0.00     0.034 C 
HETATM   23  C36 UNL     1       3.243  -0.538   0.375  1.00  0.00     0.015 C 
HETATM   24  C37 UNL     1       2.370   0.304  -0.617  1.00  0.00    -0.004 C 
HETATM   25  C38 UNL     1       2.662   1.803  -0.345  1.00  0.00     0.019 C 
ENDROOT
BRANCH  21  26
HETATM   26  O5  UNL     1       5.665   0.561  -0.661  1.00  0.00    -0.352 OA
BRANCH  26  27
HETATM   27  C29 UNL     1       7.030   0.426  -0.250  1.00  0.00     0.292 C 
HETATM   28  O6  UNL     1       7.151  -0.603   0.736  1.00  0.00    -0.348 OA
HETATM   29  C30 UNL     1       8.371  -0.524   1.472  1.00  0.00     0.179 C 
HETATM   30  C32 UNL     1       8.418   0.747   2.354  1.00  0.00     0.180 C 
HETATM   31  C33 UNL     1       7.573   1.891   1.762  1.00  0.00     0.183 C 
HETATM   32  C34 UNL     1       7.528   1.818   0.235  1.00  0.00     0.204 C 
BRANCH  29  33
HETATM   33  C31 UNL     1       8.524  -1.820   2.274  1.00  0.00     0.198 C 
BRANCH  33  34
HETATM   34  O7  UNL     1       9.666  -1.758   3.125  1.00  0.00    -0.398 OA
HETATM   35  H49 UNL     1      10.287  -2.444   2.815  1.00  0.00     0.209 HD
ENDBRANCH  33  34
ENDBRANCH  29  33
BRANCH  30  36
HETATM   36  O8  UNL     1       7.966   0.528   3.702  1.00  0.00    -0.390 OA
HETATM   37  H51 UNL     1       8.580  -0.136   4.082  1.00  0.00     0.210 HD
ENDBRANCH  30  36
BRANCH  31  38
HETATM   38  O9  UNL     1       6.253   1.889   2.315  1.00  0.00    -0.390 OA
HETATM   39  H53 UNL     1       6.348   1.424   3.175  1.00  0.00     0.210 HD
ENDBRANCH  31  38
BRANCH  32  40
HETATM   40  O10 UNL     1       8.860   2.058  -0.269  1.00  0.00    -0.388 OA
HETATM   41  H55 UNL     1       9.002   3.021  -0.223  1.00  0.00     0.210 HD
ENDBRANCH  32  40
ENDBRANCH  26  27
ENDBRANCH  21  26
BRANCH   1  42
HETATM   42  C2  UNL     1      -4.610  -0.290   0.891  1.00  0.00    -0.014 C 
HETATM   43  C1  UNL     1      -4.285  -0.170   2.386  1.00  0.00     0.010 C 
BRANCH  42  44
HETATM   44  C3  UNL     1      -5.775  -1.307   0.721  1.00  0.00     0.007 C 
BRANCH  44  45
HETATM   45  C4  UNL     1      -6.916  -0.852  -0.198  1.00  0.00     0.038 C 
BRANCH  45  46
HETATM   46  C5  UNL     1      -8.042   0.090   0.334  1.00  0.00     0.061 C 
HETATM   47  C6  UNL     1      -7.477   1.457   0.751  1.00  0.00     0.046 C 
BRANCH  46  48
HETATM   48  O1  UNL     1      -8.850   0.352  -0.845  1.00  0.00    -0.389 OA
HETATM   49  H12 UNL     1      -8.293   0.795  -1.507  1.00  0.00     0.210 HD
ENDBRANCH  46  48
BRANCH  46  50
HETATM   50  C7  UNL     1      -9.038  -0.518   1.415  1.00  0.00    -0.021 C 
HETATM   51  C8  UNL     1      -9.459  -1.957   1.040  1.00  0.00     0.017 C 
HETATM   52  C9  UNL     1      -8.480  -0.546   2.852  1.00  0.00     0.017 C 
HETATM   53  C10 UNL     1     -10.347   0.317   1.480  1.00  0.00     0.017 C 
ENDBRANCH  46  50
ENDBRANCH  45  46
ENDBRANCH  44  45
ENDBRANCH  42  44
ENDBRANCH   1  42
TORSDOF 13
