REMARK  10 active torsions:
REMARK  status: ('A' for Active; 'I' for Inactive)
REMARK    1  A    between atoms: C3_3  and  O1_4 
REMARK    2  A    between atoms: N1_14  and  O2_16 
REMARK    3  A    between atoms: O2_16  and  C13_17 
REMARK    4  A    between atoms: C13_17  and  C14_18 
REMARK       I    between atoms: C14_18  and  N2_20 
REMARK    5  A    between atoms: N2_20  and  C15_21 
REMARK    6  A    between atoms: C15_21  and  C16_22 
REMARK    7  A    between atoms: C15_21  and  C19_29 
REMARK       I    between atoms: C16_22  and  N3_24 
REMARK    8  A    between atoms: N3_24  and  C17_25 
REMARK    9  A    between atoms: C17_25  and  C18_26 
REMARK   10  A    between atoms: C18_26  and  O6_28 
ROOT
HETATM    1  C1  UNL     1      -8.982   2.271  -1.609  1.00  0.00     0.015 C 
HETATM    2  C2  UNL     1      -8.331   1.630  -0.832  1.00  0.00    -0.078 C 
HETATM    3  C3  UNL     1      -7.522   0.878   0.140  1.00  0.00     0.128 C 
HETATM    4  C4  UNL     1      -8.310  -0.261   0.793  1.00  0.00     0.052 C 
HETATM    5  C5  UNL     1      -7.218  -1.055   1.502  1.00  0.00     0.010 C 
HETATM    6  C6  UNL     1      -6.069  -1.090   0.486  1.00  0.00     0.002 C 
HETATM    7  C7  UNL     1      -4.651  -1.319   1.057  1.00  0.00    -0.004 C 
HETATM    8  C8  UNL     1      -4.268  -0.516   2.311  1.00  0.00     0.010 C 
HETATM    9  C9  UNL     1      -2.857  -0.850   2.794  1.00  0.00     0.035 C 
HETATM   10  C10 UNL     1      -1.809  -0.802   1.705  1.00  0.00    -0.069 C 
HETATM   11  C11 UNL     1      -0.639  -0.180   1.932  1.00  0.00     0.030 C 
HETATM   12  C12 UNL     1       0.483  -0.241   0.961  1.00  0.00     0.032 C 
HETATM   13  N1  UNL     1       1.547   0.464   1.221  1.00  0.00    -0.271 N 
ATOM     14  H1  UNL     1       1.645   1.080   2.028  1.00  0.00     0.194 HD
HETATM   15  C22 UNL     1       0.334  -1.174  -0.227  1.00  0.00     0.060 C 
HETATM   16  C23 UNL     1      -1.109  -1.187  -0.716  1.00  0.00     0.020 C 
HETATM   17  C24 UNL     1      -2.144  -1.521   0.399  1.00  0.00    -0.016 C 
HETATM   18  C25 UNL     1      -2.072  -3.052   0.649  1.00  0.00     0.020 C 
HETATM   19  C26 UNL     1      -3.599  -1.122  -0.065  1.00  0.00     0.002 C 
HETATM   20  C27 UNL     1      -3.688   0.307  -0.668  1.00  0.00     0.007 C 
HETATM   21  C28 UNL     1      -5.011   1.052  -0.477  1.00  0.00     0.014 C 
HETATM   22  C29 UNL     1      -6.259   0.155  -0.449  1.00  0.00     0.003 C 
HETATM   23  C30 UNL     1      -6.514  -0.365  -1.889  1.00  0.00     0.020 C 
ENDROOT
BRANCH   3  24
HETATM   24  O1  UNL     1      -7.157   1.770   1.198  1.00  0.00    -0.377 OA
HETATM   25  H2  UNL     1      -6.927   2.621   0.787  1.00  0.00     0.211 HD
ENDBRANCH   3  24
BRANCH  13  26
HETATM   26  O2  UNL     1       2.540   0.269   0.253  1.00  0.00    -0.271 OA
BRANCH  26  27
HETATM   27  C13 UNL     1       3.538   1.267   0.409  1.00  0.00     0.303 C 
BRANCH  27  28
HETATM   28  C14 UNL     1       4.584   1.110  -0.688  1.00  0.00     0.244 C 
HETATM   29  O3  UNL     1       4.379   0.531  -1.755  1.00  0.00    -0.271 OA
HETATM   30  N2  UNL     1       5.820   1.653  -0.385  1.00  0.00    -0.346 N 
HETATM   31  H16 UNL     1       6.040   1.775   0.596  1.00  0.00     0.163 HD
BRANCH  30  32
HETATM   32  C15 UNL     1       6.963   1.542  -1.310  1.00  0.00     0.180 C 
BRANCH  32  33
HETATM   33  C16 UNL     1       7.710   0.192  -1.112  1.00  0.00     0.241 C 
HETATM   34  O4  UNL     1       8.932   0.063  -1.183  1.00  0.00    -0.271 OA
HETATM   35  N3  UNL     1       6.872  -0.901  -0.982  1.00  0.00    -0.349 N 
HETATM   36  H18 UNL     1       5.910  -0.789  -1.296  1.00  0.00     0.163 HD
BRANCH  35  37
HETATM   37  C17 UNL     1       7.409  -2.246  -0.878  1.00  0.00     0.232 C 
BRANCH  37  38
HETATM   38  C18 UNL     1       8.017  -2.576   0.484  1.00  0.00     0.158 C 
HETATM   39  O5  UNL     1       8.585  -3.621   0.767  1.00  0.00    -0.649 OA
BRANCH  38  40
HETATM   40  O6  UNL     1       7.835  -1.632   1.434  1.00  0.00    -0.775 OA
HETATM   41  H21 UNL     1       8.298  -2.002   2.213  1.00  0.00     0.167 HD
ENDBRANCH  38  40
ENDBRANCH  37  38
ENDBRANCH  35  37
ENDBRANCH  32  33
BRANCH  32  42
HETATM   42  C19 UNL     1       7.847   2.810  -1.216  1.00  0.00     0.009 C 
HETATM   43  C20 UNL     1       8.846   2.911  -2.373  1.00  0.00     0.012 C 
HETATM   44  C21 UNL     1       8.566   2.973   0.125  1.00  0.00     0.012 C 
ENDBRANCH  32  42
ENDBRANCH  30  32
ENDBRANCH  27  28
ENDBRANCH  26  27
ENDBRANCH  13  26
TORSDOF 10
