REMARK  3 active torsions:
REMARK  status: ('A' for Active; 'I' for Inactive)
REMARK    1  A    between atoms: C7_7  and  C8_8 
REMARK    2  A    between atoms: C8_8  and  O2_10 
REMARK    3  A    between atoms: C21_23  and  O3_24 
ROOT
HETATM    1  C1  UNL     1      -3.814   2.986  -0.136  1.00  0.00     0.011 C 
HETATM    2  C2  UNL     1      -3.936   1.606   0.542  1.00  0.00    -0.005 C 
HETATM    3  C3  UNL     1      -5.425   1.261   0.791  1.00  0.00    -0.014 C 
HETATM    4  C4  UNL     1      -6.137   2.283   1.687  1.00  0.00     0.010 C 
HETATM    5  C5  UNL     1      -5.579  -0.134   1.411  1.00  0.00     0.006 C 
HETATM    6  C6  UNL     1      -4.607  -1.181   0.871  1.00  0.00     0.021 C 
HETATM    7  C7  UNL     1      -3.949  -0.810  -0.474  1.00  0.00     0.053 C 
HETATM    8  C9  UNL     1      -3.102  -2.002  -0.996  1.00  0.00     0.022 C 
HETATM    9  C10 UNL     1      -1.694  -1.605  -1.436  1.00  0.00     0.016 C 
HETATM   10  C11 UNL     1      -0.888  -0.891  -0.321  1.00  0.00    -0.013 C 
HETATM   11  C12 UNL     1      -0.824  -1.857   0.907  1.00  0.00     0.021 C 
HETATM   12  C13 UNL     1      -1.652   0.363   0.139  1.00  0.00    -0.069 C 
HETATM   13  C14 UNL     1      -0.961   1.339   0.769  1.00  0.00    -0.022 C 
HETATM   14  C15 UNL     1       0.528   1.389   0.978  1.00  0.00     0.033 C 
HETATM   15  C16 UNL     1       1.344   0.224   0.374  1.00  0.00     0.007 C 
HETATM   16  C17 UNL     1       2.893   0.522   0.179  1.00  0.00    -0.035 C 
HETATM   17  C18 UNL     1       3.144   1.655  -0.846  1.00  0.00     0.016 C 
HETATM   18  C19 UNL     1       3.488   0.976   1.546  1.00  0.00     0.012 C 
HETATM   19  C20 UNL     1       5.014   1.003   1.585  1.00  0.00     0.033 C 
HETATM   20  C21 UNL     1       5.628  -0.335   1.183  1.00  0.00     0.126 C 
HETATM   21  C22 UNL     1       5.145  -0.857  -0.203  1.00  0.00    -0.017 C 
HETATM   22  C23 UNL     1       5.789  -0.065  -1.358  1.00  0.00     0.018 C 
HETATM   23  C24 UNL     1       5.659  -2.317  -0.347  1.00  0.00     0.018 C 
HETATM   24  C25 UNL     1       3.572  -0.844  -0.217  1.00  0.00     0.004 C 
HETATM   25  C26 UNL     1       2.922  -1.442  -1.482  1.00  0.00     0.007 C 
HETATM   26  C27 UNL     1       1.423  -1.706  -1.278  1.00  0.00     0.011 C 
HETATM   27  C28 UNL     1       0.597  -0.469  -0.828  1.00  0.00    -0.028 C 
HETATM   28  C29 UNL     1       0.473   0.474  -2.061  1.00  0.00     0.016 C 
HETATM   29  C30 UNL     1      -3.140   0.525  -0.299  1.00  0.00     0.038 C 
ENDROOT
BRANCH   7  30
HETATM   30  C8  UNL     1      -5.015  -0.614  -1.566  1.00  0.00     0.149 C 
HETATM   31  O1  UNL     1      -4.968   0.164  -2.505  1.00  0.00    -0.649 OA
BRANCH  30  32
HETATM   32  O2  UNL     1      -6.061  -1.459  -1.463  1.00  0.00    -0.776 OA
HETATM   33  H13 UNL     1      -6.620  -1.234  -2.237  1.00  0.00     0.167 HD
ENDBRANCH  30  32
ENDBRANCH   7  30
BRANCH  20  34
HETATM   34  O3  UNL     1       7.050  -0.211   1.203  1.00  0.00    -0.395 OA
HETATM   35  H33 UNL     1       7.309   0.075   2.096  1.00  0.00     0.210 HD
ENDBRANCH  20  34
TORSDOF 3
