REMARK  18 active torsions:
REMARK  status: ('A' for Active; 'I' for Inactive)
REMARK    1  A    between atoms: C2_2  and  C4_4 
REMARK    2  A    between atoms: C4_4  and  N1_5 
REMARK    3  A    between atoms: C4_4  and  C30_38 
REMARK       I    between atoms: N1_5  and  C5_6 
REMARK    4  A    between atoms: C5_6  and  C6_8 
REMARK    5  A    between atoms: C6_8  and  C7_9 
REMARK    6  A    between atoms: C7_9  and  C8_10 
REMARK    7  A    between atoms: C8_10  and  O3_12 
REMARK    8  A    between atoms: O3_12  and  C9_13 
REMARK    9  A    between atoms: C9_13  and  C10_14 
REMARK   10  A    between atoms: C10_14  and  C11_16 
REMARK   11  A    between atoms: C11_16  and  O5_17 
REMARK   12  A    between atoms: C26_33  and  O7_34 
REMARK       I    between atoms: C30_38  and  N2_40 
REMARK   13  A    between atoms: N2_40  and  C31_41 
REMARK   14  A    between atoms: C31_41  and  C32_42 
REMARK   15  A    between atoms: C32_42  and  C33_43 
REMARK   16  A    between atoms: C32_42  and  C35_47 
REMARK   17  A    between atoms: C33_43  and  C34_44 
REMARK   18  A    between atoms: C34_44  and  O10_46 
ROOT
HETATM    1  C8  UNL     1      -0.329  -0.465   1.065  1.00  0.00     0.259 C 
HETATM    2  O2  UNL     1      -0.790   0.010   2.092  1.00  0.00    -0.265 OA
ENDROOT
BRANCH   1   3
HETATM    3  C7  UNL     1      -1.119  -1.212   0.024  1.00  0.00     0.120 C 
BRANCH   3   4
HETATM    4  C6  UNL     1      -2.605  -1.222   0.359  1.00  0.00     0.112 C 
BRANCH   4   5
HETATM    5  C5  UNL     1      -3.446  -1.627  -0.830  1.00  0.00     0.218 C 
HETATM    6  N1  UNL     1      -4.776  -1.788  -0.510  1.00  0.00    -0.347 N 
HETATM    7  H9  UNL     1      -5.062  -1.580   0.436  1.00  0.00     0.163 HD
HETATM    8  O1  UNL     1      -2.995  -1.784  -1.953  1.00  0.00    -0.274 OA
BRANCH   6   9
HETATM    9  C4  UNL     1      -5.816  -1.968  -1.538  1.00  0.00     0.179 C 
BRANCH   9  10
HETATM   10  C2  UNL     1      -6.826  -3.038  -1.075  1.00  0.00     0.009 C 
HETATM   11  C1  UNL     1      -7.991  -3.215  -2.060  1.00  0.00     0.012 C 
HETATM   12  C3  UNL     1      -6.128  -4.394  -0.897  1.00  0.00     0.012 C 
ENDBRANCH   9  10
BRANCH   9  13
HETATM   13  C30 UNL     1      -6.511  -0.612  -1.827  1.00  0.00     0.240 C 
HETATM   14  O8  UNL     1      -6.996  -0.336  -2.925  1.00  0.00    -0.271 OA
HETATM   15  N2  UNL     1      -6.686   0.197  -0.716  1.00  0.00    -0.359 N 
HETATM   16  H43 UNL     1      -6.579  -0.217   0.195  1.00  0.00     0.162 HD
BRANCH  15  17
HETATM   17  C31 UNL     1      -7.518   1.390  -0.780  1.00  0.00     0.132 C 
BRANCH  17  18
HETATM   18  C32 UNL     1      -9.019   1.057  -0.665  1.00  0.00     0.046 C 
BRANCH  18  19
HETATM   19  C33 UNL     1      -9.928   2.283  -0.886  1.00  0.00     0.120 C 
BRANCH  19  20
HETATM   20  C34 UNL     1      -9.753   3.423   0.075  1.00  0.00     0.140 C 
HETATM   21  O9  UNL     1      -8.769   3.695   0.746  1.00  0.00    -0.650 OA
BRANCH  20  22
HETATM   22  O10 UNL     1     -10.820   4.248   0.082  1.00  0.00    -0.776 OA
HETATM   23  H49 UNL     1     -10.564   4.973   0.694  1.00  0.00     0.167 HD
ENDBRANCH  20  22
ENDBRANCH  19  20
ENDBRANCH  18  19
BRANCH  18  24
HETATM   24  C35 UNL     1      -9.382   0.267   0.585  1.00  0.00    -0.052 A 
HETATM   25  C36 UNL     1      -8.954   0.642   1.864  1.00  0.00     0.007 A 
HETATM   26  C37 UNL     1      -9.282  -0.132   2.982  1.00  0.00     0.001 A 
HETATM   27  C38 UNL     1     -10.041  -1.289   2.831  1.00  0.00     0.000 A 
HETATM   28  C39 UNL     1     -10.487  -1.664   1.568  1.00  0.00     0.001 A 
HETATM   29  C40 UNL     1     -10.169  -0.888   0.457  1.00  0.00     0.007 A 
ENDBRANCH  18  24
ENDBRANCH  17  18
ENDBRANCH  15  17
ENDBRANCH   9  13
ENDBRANCH   6   9
ENDBRANCH   4   5
ENDBRANCH   3   4
ENDBRANCH   1   3
BRANCH   1  30
HETATM   30  O3  UNL     1       0.976  -0.383   0.685  1.00  0.00    -0.314 OA
BRANCH  30  31
HETATM   31  C9  UNL     1       1.786   0.359   1.597  1.00  0.00     0.260 C 
BRANCH  31  32
HETATM   32  C10 UNL     1       3.221   0.338   1.095  1.00  0.00     0.185 C 
HETATM   33  O4  UNL     1       4.076  -0.277   1.735  1.00  0.00    -0.292 OA
BRANCH  32  34
HETATM   34  C11 UNL     1       3.555   1.187  -0.157  1.00  0.00     0.128 C 
HETATM   35  C12 UNL     1       4.112   2.536   0.340  1.00  0.00     0.047 C 
HETATM   36  C13 UNL     1       5.029   3.010  -0.779  1.00  0.00     0.009 C 
HETATM   37  C14 UNL     1       5.751   1.732  -1.235  1.00  0.00     0.002 C 
HETATM   38  C15 UNL     1       7.015   1.486  -0.365  1.00  0.00    -0.002 C 
HETATM   39  C28 UNL     1       4.628   0.651  -1.208  1.00  0.00     0.001 C 
HETATM   40  C16 UNL     1       8.138   2.423  -0.875  1.00  0.00     0.010 C 
HETATM   41  C25 UNL     1       7.527   0.027  -0.356  1.00  0.00     0.031 C 
HETATM   42  C17 UNL     1       9.546   2.094  -0.376  1.00  0.00     0.035 C 
HETATM   43  C18 UNL     1       9.502   1.204   0.825  1.00  0.00    -0.068 C 
HETATM   44  C19 UNL     1      10.041   1.616   1.985  1.00  0.00     0.053 C 
HETATM   45  C23 UNL     1       8.777  -0.135   0.635  1.00  0.00    -0.014 C 
HETATM   46  C20 UNL     1       9.991   0.787   3.210  1.00  0.00     0.149 C 
HETATM   47  O6  UNL     1      10.408   1.243   4.268  1.00  0.00    -0.293 OA
HETATM   48  C21 UNL     1       9.462  -0.619   3.086  1.00  0.00     0.084 C 
HETATM   49  C22 UNL     1       8.354  -0.669   2.038  1.00  0.00     0.022 C 
HETATM   50  C24 UNL     1       9.781  -1.145   0.009  1.00  0.00     0.020 C 
HETATM   51  C26 UNL     1       6.366  -0.938  -0.056  1.00  0.00     0.124 C 
HETATM   52  C27 UNL     1       5.188  -0.768  -1.005  1.00  0.00     0.045 C 
HETATM   53  C29 UNL     1       3.991   0.618  -2.635  1.00  0.00     0.019 C 
BRANCH  34  54
HETATM   54  O5  UNL     1       2.332   1.524  -0.828  1.00  0.00    -0.381 OA
HETATM   55  H16 UNL     1       1.897   0.702  -1.128  1.00  0.00     0.211 HD
ENDBRANCH  34  54
BRANCH  51  56
HETATM   56  O7  UNL     1       6.817  -2.286  -0.176  1.00  0.00    -0.395 OA
HETATM   57  H37 UNL     1       6.102  -2.859   0.176  1.00  0.00     0.210 HD
ENDBRANCH  51  56
ENDBRANCH  32  34
ENDBRANCH  31  32
ENDBRANCH  30  31
ENDBRANCH   1  30
TORSDOF 18
