REMARK  5 active torsions:
REMARK  status: ('A' for Active; 'I' for Inactive)
REMARK    1  A    between atoms: C3_3  and  C4_4 
REMARK    2  A    between atoms: C4_4  and  O1_5 
REMARK    3  A    between atoms: C6_9  and  C7_10 
REMARK    4  A    between atoms: C20_24  and  O5_25 
REMARK    5  A    between atoms: C21_26  and  O6_27 
ROOT
HETATM    1  C7  UNL     1       2.270   0.323  -0.220  1.00  0.00     0.089 C 
HETATM    2  C8  UNL     1       2.946  -0.728  -1.127  1.00  0.00     0.049 C 
HETATM    3  O4  UNL     1       0.856   0.023   0.005  1.00  0.00    -0.365 OA
HETATM    4  C9  UNL     1       0.089   1.201  -0.425  1.00  0.00     0.074 C 
HETATM    5  C10 UNL     1       0.416   2.341   0.571  1.00  0.00     0.040 C 
HETATM    6  C11 UNL     1       1.830   2.769   0.129  1.00  0.00     0.011 C 
HETATM    7  C12 UNL     1       2.165   1.701  -0.944  1.00  0.00     0.034 C 
HETATM    8  C13 UNL     1       0.802   1.615  -1.717  1.00  0.00    -0.006 C 
HETATM    9  C14 UNL     1       0.375   2.969  -2.344  1.00  0.00     0.019 C 
HETATM   10  C15 UNL     1       0.577   0.534  -2.800  1.00  0.00     0.013 C 
HETATM   11  C16 UNL     1      -0.918   0.215  -3.001  1.00  0.00     0.007 C 
HETATM   12  C17 UNL     1      -1.589  -0.260  -1.683  1.00  0.00     0.011 C 
HETATM   13  C18 UNL     1      -1.397   0.848  -0.592  1.00  0.00     0.029 C 
HETATM   14  C19 UNL     1      -2.031   0.446   0.749  1.00  0.00     0.043 C 
HETATM   15  C20 UNL     1      -3.502   0.044   0.610  1.00  0.00     0.154 C 
HETATM   16  C21 UNL     1      -3.677  -1.081  -0.437  1.00  0.00     0.098 C 
HETATM   17  C22 UNL     1      -5.147  -1.545  -0.518  1.00  0.00     0.042 C 
HETATM   18  C23 UNL     1      -5.304  -2.744  -1.455  1.00  0.00     0.010 C 
HETATM   19  C24 UNL     1      -4.676  -2.515  -2.821  1.00  0.00     0.079 C 
HETATM   20  C25 UNL     1      -3.272  -1.941  -2.717  1.00  0.00     0.138 C 
HETATM   21  O7  UNL     1      -2.362  -2.436  -3.382  1.00  0.00    -0.297 OA
HETATM   22  C26 UNL     1      -3.102  -0.678  -1.842  1.00  0.00     0.054 C 
HETATM   23  C27 UNL     1      -3.892   0.448  -2.554  1.00  0.00     0.027 C 
ENDROOT
BRANCH   1  24
HETATM   24  C6  UNL     1       2.975   0.289   1.176  1.00  0.00     0.170 C 
HETATM   25  O3  UNL     1       4.325   0.774   1.054  1.00  0.00    -0.309 OA
HETATM   26  C5  UNL     1       5.151   0.710   2.131  1.00  0.00     0.292 C 
HETATM   27  C3  UNL     1       4.721  -0.136   3.279  1.00  0.00     0.042 C 
HETATM   28  O2  UNL     1       6.219   1.314   2.150  1.00  0.00    -0.260 OA
HETATM   29  C2  UNL     1       3.714  -1.023   3.131  1.00  0.00    -0.067 C 
HETATM   30  C1  UNL     1       3.264  -1.999   4.180  1.00  0.00     0.044 C 
HETATM   31  C28 UNL     1       2.968  -1.100   1.824  1.00  0.00     0.070 C 
BRANCH  27  32
HETATM   32  C4  UNL     1       5.514   0.078   4.533  1.00  0.00     0.209 C 
BRANCH  32  33
HETATM   33  O1  UNL     1       6.584  -0.854   4.588  1.00  0.00    -0.396 OA
HETATM   34  H6  UNL     1       7.320  -0.461   4.081  1.00  0.00     0.209 HD
ENDBRANCH  32  33
ENDBRANCH  27  32
ENDBRANCH   1  24
BRANCH  15  35
HETATM   35  O5  UNL     1      -4.298   1.184   0.296  1.00  0.00    -0.392 OA
HETATM   36  H28 UNL     1      -4.185   1.829   1.017  1.00  0.00     0.210 HD
ENDBRANCH  15  35
BRANCH  16  37
HETATM   37  O6  UNL     1      -2.918  -2.215   0.047  1.00  0.00    -0.386 OA
HETATM   38  H29 UNL     1      -3.291  -2.498   0.900  1.00  0.00     0.210 HD
ENDBRANCH  16  37
TORSDOF 5
