REMARK  4 active torsions:
REMARK  status: ('A' for Active; 'I' for Inactive)
REMARK    1  A    between atoms: C4_4  and  C5_5 
REMARK    2  A    between atoms: C22_22  and  C23_23 
REMARK    3  A    between atoms: C23_23  and  O2_25 
REMARK    4  A    between atoms: C28_30  and  O3_31 
ROOT
HETATM    1  C5  UNL     1      -2.752  -0.129  -0.205  1.00  0.00     0.032 C 
HETATM    2  C6  UNL     1      -1.240  -0.504  -0.268  1.00  0.00     0.014 C 
HETATM    3  C7  UNL     1      -0.601  -0.512  -1.670  1.00  0.00     0.007 C 
HETATM    4  C8  UNL     1       0.880  -0.893  -1.642  1.00  0.00     0.007 C 
HETATM    5  C9  UNL     1       1.690  -0.095  -0.604  1.00  0.00     0.007 C 
HETATM    6  C10 UNL     1       3.232  -0.340  -0.677  1.00  0.00    -0.018 C 
HETATM    7  C11 UNL     1       3.644  -1.816  -0.469  1.00  0.00     0.020 C 
HETATM    8  C12 UNL     1       3.954   0.113  -1.933  1.00  0.00    -0.020 C 
HETATM    9  C13 UNL     1       5.119   0.721  -1.642  1.00  0.00    -0.021 C 
HETATM   10  C14 UNL     1       5.325   0.907  -0.150  1.00  0.00    -0.026 C 
HETATM   11  C15 UNL     1       6.341  -0.071   0.442  1.00  0.00     0.019 C 
HETATM   12  C16 UNL     1       5.786   2.342   0.154  1.00  0.00     0.019 C 
HETATM   13  C17 UNL     1       3.863   0.694   0.296  1.00  0.00     0.009 C 
HETATM   14  C18 UNL     1       3.499   0.425   1.745  1.00  0.00     0.007 C 
HETATM   15  C19 UNL     1       1.971   0.590   1.898  1.00  0.00     0.011 C 
HETATM   16  C20 UNL     1       1.084  -0.208   0.867  1.00  0.00    -0.021 C 
HETATM   17  C21 UNL     1       1.080  -1.679   1.381  1.00  0.00     0.017 C 
HETATM   18  C22 UNL     1      -0.434   0.337   0.807  1.00  0.00     0.057 C 
HETATM   19  C24 UNL     1      -1.198   0.256   2.183  1.00  0.00     0.023 C 
HETATM   20  C25 UNL     1      -2.304  -0.796   2.256  1.00  0.00     0.022 C 
HETATM   21  C26 UNL     1      -3.363  -0.663   1.133  1.00  0.00     0.060 C 
HETATM   22  C27 UNL     1      -4.560   0.187   1.556  1.00  0.00     0.081 C 
HETATM   23  C28 UNL     1      -5.450  -0.807   2.259  1.00  0.00     0.267 C 
HETATM   24  O4  UNL     1      -5.261  -2.036   1.581  1.00  0.00    -0.289 OA
HETATM   25  C29 UNL     1      -4.024  -2.032   1.006  1.00  0.00     0.270 C 
HETATM   26  O5  UNL     1      -3.517  -3.021   0.499  1.00  0.00    -0.264 OA
ENDROOT
BRANCH   1  27
HETATM   27  C4  UNL     1      -3.541  -0.550  -1.432  1.00  0.00    -0.018 C 
HETATM   28  C2  UNL     1      -4.281   0.216  -2.259  1.00  0.00    -0.091 C 
HETATM   29  C1  UNL     1      -4.970  -0.403  -3.450  1.00  0.00     0.042 C 
HETATM   30  C3  UNL     1      -4.502   1.698  -2.134  1.00  0.00     0.042 C 
ENDBRANCH   1  27
BRANCH  23  31
HETATM   31  O3  UNL     1      -6.806  -0.416   2.221  1.00  0.00    -0.371 OA
HETATM   32  H42 UNL     1      -7.043  -0.326   1.283  1.00  0.00     0.212 HD
ENDBRANCH  23  31
BRANCH  18  33
HETATM   33  C23 UNL     1      -0.421   1.864   0.501  1.00  0.00     0.149 C 
HETATM   34  O1  UNL     1      -0.224   2.757   1.313  1.00  0.00    -0.649 OA
BRANCH  33  35
HETATM   35  O2  UNL     1      -0.655   2.214  -0.770  1.00  0.00    -0.776 OA
HETATM   36  H34 UNL     1      -0.575   3.192  -0.768  1.00  0.00     0.167 HD
ENDBRANCH  33  35
ENDBRANCH  18  33
TORSDOF 4
