REMARK  5 active torsions:
REMARK  status: ('A' for Active; 'I' for Inactive)
REMARK    1  A    between atoms: O1_2  and  C2_3 
REMARK    2  A    between atoms: C12_15  and  C13_16 
REMARK    3  A    between atoms: C13_16  and  C15_18 
REMARK    4  A    between atoms: C15_18  and  C16_19 
REMARK    5  A    between atoms: C16_19  and  C17_21 
ROOT
HETATM    1  C2  UNL     1      -3.126   1.564   0.410  1.00  0.00     0.270 C 
HETATM    2  O2  UNL     1      -4.295   0.873   0.859  1.00  0.00    -0.347 OA
HETATM    3  C3  UNL     1      -4.248  -0.491   0.389  1.00  0.00     0.089 C 
HETATM    4  C4  UNL     1      -3.785  -1.337   1.587  1.00  0.00     0.118 C 
HETATM    5  C5  UNL     1      -2.401  -0.991   2.099  1.00  0.00     0.135 C 
HETATM    6  O3  UNL     1      -2.042  -1.428   3.197  1.00  0.00    -0.297 OA
HETATM    7  C6  UNL     1      -1.432  -0.184   1.230  1.00  0.00     0.078 C 
HETATM    8  C7  UNL     1      -2.119   0.469  -0.040  1.00  0.00     0.027 C 
HETATM    9  C8  UNL     1      -1.089   1.113  -1.016  1.00  0.00     0.016 C 
HETATM   10  C9  UNL     1       0.240   0.368  -1.219  1.00  0.00     0.011 C 
HETATM   11  C10 UNL     1       0.867  -0.026   0.127  1.00  0.00    -0.032 C 
HETATM   12  C11 UNL     1       1.207   1.288   0.898  1.00  0.00     0.016 C 
HETATM   13  C12 UNL     1       2.136  -0.924   0.058  1.00  0.00    -0.002 C 
HETATM   14  C21 UNL     1       2.180  -1.562   1.474  1.00  0.00     0.006 C 
HETATM   15  C22 UNL     1       0.757  -1.416   2.073  1.00  0.00     0.011 C 
HETATM   16  C23 UNL     1      -0.132  -0.978   0.887  1.00  0.00    -0.025 C 
HETATM   17  C24 UNL     1      -0.476  -2.300   0.126  1.00  0.00     0.016 C 
HETATM   18  C25 UNL     1      -3.117  -0.529  -0.668  1.00  0.00     0.036 C 
HETATM   19  C26 UNL     1      -3.615  -0.222  -2.083  1.00  0.00     0.016 C 
HETATM   20  C27 UNL     1      -4.659  -1.239  -2.531  1.00  0.00     0.079 C 
HETATM   21  C28 UNL     1      -5.484  -1.779  -1.381  1.00  0.00     0.137 C 
HETATM   22  O5  UNL     1      -5.999  -2.894  -1.468  1.00  0.00    -0.297 OA
HETATM   23  C29 UNL     1      -5.673  -0.879  -0.157  1.00  0.00     0.045 C 
HETATM   24  C30 UNL     1      -6.546  -1.611   0.886  1.00  0.00     0.026 C 
HETATM   25  C31 UNL     1      -6.508   0.345  -0.608  1.00  0.00     0.026 C 
ENDROOT
BRANCH  13  26
HETATM   26  C13 UNL     1       3.459  -0.303  -0.474  1.00  0.00    -0.007 C 
HETATM   27  C14 UNL     1       4.276  -1.396  -1.192  1.00  0.00     0.011 C 
BRANCH  26  28
HETATM   28  C15 UNL     1       4.365   0.362   0.581  1.00  0.00     0.087 C 
BRANCH  28  29
HETATM   29  C16 UNL     1       5.395   1.283  -0.056  1.00  0.00     0.149 C 
HETATM   30  O4  UNL     1       5.099   2.086  -0.936  1.00  0.00    -0.293 OA
BRANCH  29  31
HETATM   31  C17 UNL     1       6.783   1.197   0.487  1.00  0.00     0.052 C 
HETATM   32  C18 UNL     1       7.910   1.374  -0.229  1.00  0.00    -0.084 C 
HETATM   33  C19 UNL     1       9.256   1.299   0.439  1.00  0.00     0.043 C 
HETATM   34  C20 UNL     1       7.967   1.643  -1.709  1.00  0.00     0.043 C 
ENDBRANCH  29  31
ENDBRANCH  28  29
ENDBRANCH  26  28
ENDBRANCH  13  26
BRANCH   1  35
HETATM   35  O1  UNL     1      -2.579   2.390   1.424  1.00  0.00    -0.365 OA
HETATM   36  C1  UNL     1      -3.463   3.435   1.803  1.00  0.00     0.204 C 
ENDBRANCH   1  35
TORSDOF 5
