REMARK  9 active torsions:
REMARK  status: ('A' for Active; 'I' for Inactive)
REMARK       I    between atoms: N1_1  and  C1_2 
REMARK       I    between atoms: C1_2  and  N2_3 
REMARK    1  A    between atoms: N3_4  and  C2_6 
REMARK    2  A    between atoms: C2_6  and  C3_7 
REMARK    3  A    between atoms: C3_7  and  C4_8 
REMARK    4  A    between atoms: C4_8  and  C5_9 
REMARK    5  A    between atoms: C5_9  and  O1_10 
REMARK    6  A    between atoms: C14_20  and  S1_21 
REMARK    7  A    between atoms: C23_33  and  C24_34 
REMARK    8  A    between atoms: C24_34  and  O6_35 
REMARK    9  A    between atoms: C30_41  and  O7_42 
ROOT
HETATM    1  C2  UNL     1       5.403  -0.245   0.527  1.00  0.00     0.170 C 
HETATM    2  O2  UNL     1       5.558  -1.718   0.484  1.00  0.00    -0.316 OA
HETATM    3  C6  UNL     1       4.507  -2.445  -0.002  1.00  0.00     0.072 C 
HETATM    4  C7  UNL     1       4.156  -2.425  -1.347  1.00  0.00     0.037 C 
HETATM    5  C8  UNL     1       2.930  -2.960  -1.738  1.00  0.00     0.010 C 
HETATM    6  C9  UNL     1       2.062  -3.524  -0.792  1.00  0.00    -0.058 C 
HETATM    7  C10 UNL     1       2.503  -3.677   0.528  1.00  0.00     0.010 C 
HETATM    8  C11 UNL     1       3.739  -3.161   0.917  1.00  0.00     0.037 C 
HETATM    9  C12 UNL     1       0.640  -3.862  -1.169  1.00  0.00     0.040 C 
HETATM   10  C13 UNL     1      -0.357  -2.730  -0.845  1.00  0.00     0.029 C 
HETATM   11  C14 UNL     1      -0.200  -1.395  -1.617  1.00  0.00     0.152 C 
HETATM   12  C15 UNL     1      -1.064  -0.217  -1.027  1.00  0.00     0.107 C 
HETATM   13  C16 UNL     1      -2.464  -0.637  -0.615  1.00  0.00     0.001 C 
HETATM   14  C17 UNL     1      -2.883  -0.572   0.662  1.00  0.00    -0.036 C 
HETATM   15  C18 UNL     1      -1.894  -0.324   1.749  1.00  0.00     0.133 C 
HETATM   16  C19 UNL     1      -1.214   0.971   1.373  1.00  0.00     0.015 C 
HETATM   17  C20 UNL     1      -2.238   2.145   1.395  1.00  0.00     0.039 C 
HETATM   18  C21 UNL     1      -3.635   2.044   0.691  1.00  0.00     0.123 C 
HETATM   19  C22 UNL     1      -4.259   3.467   0.842  1.00  0.00     0.039 C 
HETATM   20  C23 UNL     1      -5.723   3.693   0.395  1.00  0.00     0.023 C 
HETATM   21  C25 UNL     1      -5.946   3.388  -1.098  1.00  0.00     0.101 C 
HETATM   22  C26 UNL     1      -6.119   1.947  -1.256  1.00  0.00    -0.101 C 
HETATM   23  C27 UNL     1      -6.173   0.757  -1.124  1.00  0.00    -0.066 C 
HETATM   24  C28 UNL     1      -6.172  -0.621  -0.774  1.00  0.00     0.029 A 
HETATM   25  C29 UNL     1      -7.035  -1.468  -1.484  1.00  0.00     0.057 A 
HETATM   26  C30 UNL     1      -7.064  -2.828  -1.208  1.00  0.00     0.067 A 
HETATM   27  C31 UNL     1      -6.256  -3.364  -0.218  1.00  0.00     0.037 A 
HETATM   28  C32 UNL     1      -5.405  -2.520   0.499  1.00  0.00     0.014 A 
HETATM   29  C33 UNL     1      -5.343  -1.127   0.243  1.00  0.00    -0.006 A 
HETATM   30  C34 UNL     1      -4.314  -0.329   1.056  1.00  0.00     0.186 C 
HETATM   31  O8  UNL     1      -4.539   1.088   1.295  1.00  0.00    -0.371 OA
HETATM   32  C35 UNL     1      -0.411   0.796   0.025  1.00  0.00     0.046 C 
HETATM   33  C36 UNL     1       1.097   0.636   0.234  1.00  0.00    -0.052 A 
HETATM   34  C37 UNL     1       1.659   0.062   1.379  1.00  0.00     0.008 A 
HETATM   35  C38 UNL     1       3.043  -0.112   1.493  1.00  0.00     0.012 A 
HETATM   36  C39 UNL     1       3.913   0.207   0.434  1.00  0.00    -0.003 A 
HETATM   37  C40 UNL     1       3.354   0.837  -0.689  1.00  0.00     0.012 A 
HETATM   38  C41 UNL     1       1.973   1.059  -0.779  1.00  0.00     0.008 A 
HETATM   39 NA1  UNL     1       0.000   0.000   0.000  1.00  0.00    -0.237 Na
ENDROOT
BRANCH   1  40
HETATM   40  N3  UNL     1       6.010   0.278   1.777  1.00  0.00    -0.336 N 
HETATM   41  C1  UNL     1       5.963   1.487   2.172  1.00  0.00     0.124 C 
HETATM   42  N1  UNL     1       6.588   1.817   3.327  1.00  0.00    -0.279 NA
HETATM   43  N2  UNL     1       5.376   2.590   1.665  1.00  0.00    -0.279 NA
HETATM   44  H1  UNL     1       6.878   0.971   3.810  1.00  0.00     0.126 HD
HETATM   45  H2  UNL     1       5.992   2.378   3.924  1.00  0.00     0.126 HD
HETATM   46  H3  UNL     1       4.960   2.493   0.746  1.00  0.00     0.126 HD
HETATM   47  H4  UNL     1       5.957   3.420   1.728  1.00  0.00     0.126 HD
ATOM     48  H3  UNL     1       6.507  -0.388   2.369  1.00  0.00     0.165 HD
ENDBRANCH   1  40
BRANCH   1  49
HETATM   49  C3  UNL     1       6.302   0.273  -0.648  1.00  0.00     0.069 C 
BRANCH  49  50
HETATM   50  C4  UNL     1       7.701  -0.355  -0.775  1.00  0.00     0.031 C 
BRANCH  50  51
HETATM   51  C5  UNL     1       8.609  -0.193   0.434  1.00  0.00     0.164 C 
BRANCH  51  52
HETATM   52  O1  UNL     1       9.922  -0.649   0.102  1.00  0.00    -0.401 OA
HETATM   53  H11 UNL     1       9.834  -1.590  -0.131  1.00  0.00     0.209 HD
ENDBRANCH  51  52
ENDBRANCH  50  51
ENDBRANCH  49  50
ENDBRANCH   1  49
BRANCH  11  54
HETATM   54  S1  UNL     1      -0.576  -1.581  -3.397  1.00  0.00     0.108 S 
HETATM   55  O3  UNL     1       0.423  -2.522  -3.897  1.00  0.00    -0.595 OA
HETATM   56  O4  UNL     1      -0.406  -0.230  -3.932  1.00  0.00    -0.595 OA
HETATM   57  O5  UNL     1      -1.946  -2.087  -3.425  1.00  0.00    -0.595 OA
ENDBRANCH  11  54
BRANCH  20  58
HETATM   58  C24 UNL     1      -6.146   5.138   0.702  1.00  0.00     0.169 C 
BRANCH  58  59
HETATM   59  O6  UNL     1      -5.402   6.067  -0.077  1.00  0.00    -0.400 OA
HETATM   60  H34 UNL     1      -5.672   6.956   0.209  1.00  0.00     0.209 HD
ENDBRANCH  58  59
ENDBRANCH  20  58
BRANCH  26  61
HETATM   61  O7  UNL     1      -7.899  -3.618  -1.942  1.00  0.00    -0.361 OA
HETATM   62  H38 UNL     1      -7.583  -4.534  -1.859  1.00  0.00     0.217 HD
ENDBRANCH  26  61
TORSDOF 9
