REMARK  7 active torsions:
REMARK  status: ('A' for Active; 'I' for Inactive)
REMARK    1  A    between atoms: C2_2  and  C30_33 
REMARK    2  A    between atoms: C3_3  and  C4_4 
REMARK    3  A    between atoms: C4_4  and  C5_5 
REMARK    4  A    between atoms: C5_5  and  C6_6 
REMARK    5  A    between atoms: C6_6  and  C8_8 
REMARK    6  A    between atoms: C15_15  and  O1_16 
REMARK    7  A    between atoms: C30_33  and  O5_35 
ROOT
HETATM    1  C8  UNL     1       2.120   0.327   1.072  1.00  0.00    -0.002 C 
HETATM    2  C9  UNL     1       2.198   1.729   0.426  1.00  0.00     0.007 C 
HETATM    3  C10 UNL     1       0.769   2.070  -0.061  1.00  0.00     0.015 C 
HETATM    4  C11 UNL     1      -0.155   1.045   0.634  1.00  0.00    -0.005 C 
HETATM    5  C12 UNL     1      -0.439   1.588   2.069  1.00  0.00     0.021 C 
HETATM    6  C13 UNL     1      -1.536   0.710   0.082  1.00  0.00     0.002 C 
HETATM    7  C14 UNL     1      -2.078  -0.533   0.240  1.00  0.00    -0.032 C 
HETATM    8  C15 UNL     1      -1.309  -1.637   0.968  1.00  0.00     0.149 C 
HETATM    9  C16 UNL     1       0.142  -1.333   1.408  1.00  0.00     0.047 C 
HETATM   10  C17 UNL     1       0.770  -0.236   0.548  1.00  0.00    -0.026 C 
HETATM   11  C18 UNL     1       0.911  -0.770  -0.908  1.00  0.00     0.016 C 
HETATM   12  C19 UNL     1      -3.437  -0.894  -0.423  1.00  0.00    -0.012 C 
HETATM   13  C20 UNL     1      -3.091  -1.204  -1.905  1.00  0.00     0.021 C 
HETATM   14  C21 UNL     1      -4.185  -2.151   0.117  1.00  0.00     0.021 C 
HETATM   15  C22 UNL     1      -5.193  -1.832   1.210  1.00  0.00     0.080 C 
HETATM   16  C23 UNL     1      -6.293  -0.969   0.626  1.00  0.00     0.135 C 
HETATM   17  O2  UNL     1      -7.469  -1.163   0.936  1.00  0.00    -0.297 OA
HETATM   18  C24 UNL     1      -5.879   0.154  -0.346  1.00  0.00     0.018 C 
HETATM   19  C25 UNL     1      -6.347  -0.234  -1.753  1.00  0.00     0.023 C 
HETATM   20  C26 UNL     1      -6.640   1.429   0.081  1.00  0.00     0.023 C 
HETATM   21  C27 UNL     1      -4.338   0.373  -0.209  1.00  0.00     0.020 C 
HETATM   22  C28 UNL     1      -3.764   1.560  -0.983  1.00  0.00     0.090 C 
HETATM   23  C29 UNL     1      -2.308   1.792  -0.625  1.00  0.00     0.157 C 
HETATM   24  O3  UNL     1      -1.776   2.862  -0.917  1.00  0.00    -0.293 OA
ENDROOT
BRANCH   1  25
HETATM   25  C6  UNL     1       3.411  -0.537   1.103  1.00  0.00    -0.014 C 
HETATM   26  C7  UNL     1       4.476   0.157   1.972  1.00  0.00     0.010 C 
BRANCH  25  27
HETATM   27  C5  UNL     1       4.041  -1.109  -0.190  1.00  0.00     0.008 C 
BRANCH  27  28
HETATM   28  C4  UNL     1       4.536  -0.191  -1.313  1.00  0.00     0.028 C 
BRANCH  28  29
HETATM   29  C3  UNL     1       5.665   0.726  -0.946  1.00  0.00    -0.013 C 
HETATM   30  C2  UNL     1       6.985   0.463  -1.029  1.00  0.00     0.008 C 
HETATM   31  C1  UNL     1       7.592  -0.835  -1.466  1.00  0.00     0.055 C 
BRANCH  30  32
HETATM   32  C30 UNL     1       7.906   1.558  -0.626  1.00  0.00     0.171 C 
HETATM   33  O4  UNL     1       7.594   2.641  -0.164  1.00  0.00    -0.646 OA
BRANCH  32  34
HETATM   34  O5  UNL     1       9.195   1.240  -0.829  1.00  0.00    -0.773 OA
HETATM   35  H44 UNL     1       9.675   2.039  -0.528  1.00  0.00     0.167 HD
ENDBRANCH  32  34
ENDBRANCH  30  32
ENDBRANCH  28  29
ENDBRANCH  27  28
ENDBRANCH  25  27
ENDBRANCH   1  25
BRANCH   8  36
HETATM   36  O1  UNL     1      -2.044  -1.998   2.134  1.00  0.00    -0.391 OA
HETATM   37  H22 UNL     1      -2.050  -1.227   2.726  1.00  0.00     0.210 HD
ENDBRANCH   8  36
TORSDOF 7
