REMARK  9 active torsions:
REMARK  status: ('A' for Active; 'I' for Inactive)
REMARK    1  A    between atoms: C12_14  and  C13_15 
REMARK    2  A    between atoms: C13_15  and  C15_17 
REMARK    3  A    between atoms: C15_17  and  C16_18 
REMARK    4  A    between atoms: C16_18  and  C17_19 
REMARK    5  A    between atoms: C18_20  and  C20_22 
REMARK    6  A    between atoms: C26_29  and  C27_30 
REMARK    7  A    between atoms: C27_30  and  C28_31 
REMARK    8  A    between atoms: C28_31  and  C29_32 
REMARK    9  A    between atoms: C29_32  and  O5_34 
ROOT
HETATM    1  C1  UNL     1      -6.168   0.115   2.401  1.00  0.00     0.025 C 
HETATM    2  C2  UNL     1      -5.116  -0.632   2.047  1.00  0.00     0.015 C 
HETATM    3  C3  UNL     1      -4.481  -1.606   2.966  1.00  0.00     0.289 C 
HETATM    4  O1  UNL     1      -4.633  -1.671   4.171  1.00  0.00    -0.260 OA
HETATM    5  O2  UNL     1      -3.689  -2.421   2.214  1.00  0.00    -0.311 OA
HETATM    6  C4  UNL     1      -3.971  -2.185   0.830  1.00  0.00     0.142 C 
HETATM    7  C5  UNL     1      -2.780  -2.517  -0.054  1.00  0.00     0.039 C 
HETATM    8  C6  UNL     1      -1.560  -1.655   0.287  1.00  0.00     0.006 C 
HETATM    9  C7  UNL     1      -1.900  -0.149   0.145  1.00  0.00    -0.027 A 
HETATM   10  C8  UNL     1      -1.058   0.644  -0.861  1.00  0.00     0.011 C 
HETATM   11  C9  UNL     1       0.446   0.318  -0.934  1.00  0.00     0.011 C 
HETATM   12  C10 UNL     1       0.855  -0.989  -0.239  1.00  0.00    -0.032 C 
HETATM   13  C11 UNL     1       1.092  -0.673   1.264  1.00  0.00     0.016 C 
HETATM   14  C12 UNL     1       2.110  -1.718  -0.823  1.00  0.00    -0.002 C 
HETATM   15  C21 UNL     1       1.875  -3.209  -0.451  1.00  0.00     0.006 C 
HETATM   16  C22 UNL     1       0.410  -3.337   0.006  1.00  0.00     0.011 C 
HETATM   17  C23 UNL     1      -0.276  -2.052  -0.498  1.00  0.00    -0.032 C 
HETATM   18  C24 UNL     1      -0.609  -2.298  -2.006  1.00  0.00     0.016 C 
HETATM   19  C25 UNL     1      -2.261   0.557   1.433  1.00  0.00     0.022 A 
HETATM   20  C26 UNL     1      -3.369   0.319   0.425  1.00  0.00    -0.021 A 
HETATM   21  C30 UNL     1      -4.450  -0.746   0.719  1.00  0.00     0.063 C 
ENDROOT
BRANCH  14  22
HETATM   22  C13 UNL     1       3.571  -1.231  -0.584  1.00  0.00    -0.014 C 
HETATM   23  C14 UNL     1       4.124  -1.364   0.841  1.00  0.00     0.010 C 
BRANCH  22  24
HETATM   24  C15 UNL     1       3.782   0.199  -1.131  1.00  0.00     0.008 C 
BRANCH  24  25
HETATM   25  C16 UNL     1       5.258   0.594  -1.253  1.00  0.00     0.028 C 
BRANCH  25  26
HETATM   26  C17 UNL     1       5.408   1.956  -1.877  1.00  0.00    -0.017 C 
HETATM   27  C18 UNL     1       5.626   3.132  -1.259  1.00  0.00    -0.028 C 
HETATM   28  C19 UNL     1       5.800   4.418  -2.010  1.00  0.00     0.051 C 
BRANCH  27  29
HETATM   29  C20 UNL     1       5.693   3.275   0.227  1.00  0.00     0.265 C 
HETATM   30  O3  UNL     1       5.194   2.491   1.023  1.00  0.00    -0.302 OA
ENDBRANCH  27  29
ENDBRANCH  25  26
ENDBRANCH  24  25
ENDBRANCH  22  24
ENDBRANCH  14  22
BRANCH  20  31
HETATM   31  C27 UNL     1      -3.946   1.509  -0.370  1.00  0.00     0.021 C 
BRANCH  31  32
HETATM   32  C28 UNL     1      -3.648   2.913   0.143  1.00  0.00     0.111 C 
BRANCH  32  33
HETATM   33  C29 UNL     1      -4.294   3.215   1.464  1.00  0.00     0.139 C 
HETATM   34  O4  UNL     1      -3.718   3.458   2.510  1.00  0.00    -0.650 OA
BRANCH  33  35
HETATM   35  O5  UNL     1      -5.639   3.250   1.400  1.00  0.00    -0.776 OA
HETATM   36  H41 UNL     1      -5.899   3.489   2.316  1.00  0.00     0.167 HD
ENDBRANCH  33  35
ENDBRANCH  32  33
ENDBRANCH  31  32
ENDBRANCH  20  31
TORSDOF 9
