REMARK  11 active torsions:
REMARK  status: ('A' for Active; 'I' for Inactive)
REMARK    1  A    between atoms: C6_6  and  C8_8 
REMARK    2  A    between atoms: C8_8  and  O1_9 
REMARK    3  A    between atoms: O1_9  and  C9_10 
REMARK    4  A    between atoms: C10_12  and  C11_13 
REMARK    5  A    between atoms: C11_13  and  O3_14 
REMARK    6  A    between atoms: C12_15  and  O4_16 
REMARK    7  A    between atoms: C13_17  and  O5_18 
REMARK    8  A    between atoms: C14_19  and  O6_20 
REMARK    9  A    between atoms: C20_26  and  C21_27 
REMARK   10  A    between atoms: C21_27  and  C22_28 
REMARK   11  A    between atoms: C26_34  and  O9_35 
ROOT
HETATM    1  C1  UNL     1      -3.442   1.108  -3.102  1.00  0.00     0.015 C 
HETATM    2  C2  UNL     1      -2.948   0.754  -1.902  1.00  0.00    -0.084 C 
HETATM    3  C3  UNL     1      -2.439   1.795  -0.932  1.00  0.00     0.034 C 
HETATM    4  C4  UNL     1      -1.059   1.461  -0.353  1.00  0.00     0.010 C 
HETATM    5  C5  UNL     1      -1.016   0.019   0.194  1.00  0.00     0.005 C 
HETATM    6  C6  UNL     1       0.218  -0.319   1.110  1.00  0.00    -0.018 C 
HETATM    7  C7  UNL     1       0.134   0.554   2.395  1.00  0.00     0.018 C 
HETATM    8  C15 UNL     1       0.173  -1.814   1.569  1.00  0.00     0.012 C 
HETATM    9  C16 UNL     1      -1.061  -2.584   1.102  1.00  0.00     0.002 C 
HETATM   10  C17 UNL     1      -1.230  -2.481  -0.407  1.00  0.00     0.010 C 
HETATM   11  C18 UNL     1      -1.367  -1.024  -0.928  1.00  0.00    -0.032 C 
HETATM   12  C19 UNL     1      -0.411  -0.921  -2.162  1.00  0.00     0.016 C 
HETATM   13  C20 UNL     1      -2.821  -0.718  -1.491  1.00  0.00     0.025 C 
ENDROOT
BRANCH   6  14
HETATM   14  C8  UNL     1       1.585  -0.044   0.431  1.00  0.00     0.180 C 
BRANCH  14  15
HETATM   15  O1  UNL     1       2.646  -0.103   1.392  1.00  0.00    -0.358 OA
BRANCH  15  16
HETATM   16  C9  UNL     1       3.911  -0.412   0.797  1.00  0.00     0.291 C 
HETATM   17  O2  UNL     1       4.174   0.429  -0.324  1.00  0.00    -0.348 OA
HETATM   18  C10 UNL     1       5.427   0.103  -0.951  1.00  0.00     0.179 C 
HETATM   19  C12 UNL     1       6.600   0.376   0.005  1.00  0.00     0.180 C 
HETATM   20  C13 UNL     1       6.391  -0.398   1.318  1.00  0.00     0.183 C 
HETATM   21  C14 UNL     1       4.981  -0.229   1.894  1.00  0.00     0.204 C 
BRANCH  18  22
HETATM   22  C11 UNL     1       5.547   0.897  -2.253  1.00  0.00     0.198 C 
BRANCH  22  23
HETATM   23  O3  UNL     1       6.638   0.404  -3.028  1.00  0.00    -0.398 OA
HETATM   24  H17 UNL     1       6.754   1.018  -3.776  1.00  0.00     0.209 HD
ENDBRANCH  22  23
ENDBRANCH  18  22
BRANCH  19  25
HETATM   25  O4  UNL     1       6.718   1.780   0.276  1.00  0.00    -0.390 OA
HETATM   26  H19 UNL     1       7.351   1.848   1.016  1.00  0.00     0.210 HD
ENDBRANCH  19  25
BRANCH  20  27
HETATM   27  O5  UNL     1       7.357   0.043   2.287  1.00  0.00    -0.390 OA
HETATM   28  H21 UNL     1       6.877   0.707   2.830  1.00  0.00     0.210 HD
ENDBRANCH  20  27
BRANCH  21  29
HETATM   29  O6  UNL     1       4.900   1.074   2.514  1.00  0.00    -0.388 OA
HETATM   30  H23 UNL     1       3.981   1.376   2.359  1.00  0.00     0.210 HD
ENDBRANCH  21  29
ENDBRANCH  15  16
ENDBRANCH  14  15
ENDBRANCH   6  14
BRANCH  13  31
HETATM   31  C21 UNL     1      -4.068  -1.196  -0.689  1.00  0.00     0.037 C 
BRANCH  31  32
HETATM   32  C22 UNL     1      -4.400  -0.552   0.625  1.00  0.00    -0.010 C 
HETATM   33  C23 UNL     1      -5.453   0.242   0.874  1.00  0.00     0.044 C 
HETATM   34  C24 UNL     1      -5.728   0.764   2.234  1.00  0.00     0.291 C 
HETATM   35  C26 UNL     1      -6.566   0.686   0.003  1.00  0.00     0.181 C 
HETATM   36  O7  UNL     1      -4.952   0.760   3.173  1.00  0.00    -0.260 OA
HETATM   37  O8  UNL     1      -7.004   1.240   2.261  1.00  0.00    -0.315 OA
HETATM   38  C25 UNL     1      -7.659   0.911   1.028  1.00  0.00     0.215 C 
BRANCH  35  39
HETATM   39  O9  UNL     1      -6.216   1.908  -0.633  1.00  0.00    -0.389 OA
HETATM   40  H40 UNL     1      -5.400   1.747  -1.139  1.00  0.00     0.210 HD
ENDBRANCH  35  39
ENDBRANCH  31  32
ENDBRANCH  13  31
TORSDOF 11
