REMARK  7 active torsions:
REMARK  status: ('A' for Active; 'I' for Inactive)
REMARK    1  A    between atoms: C2_2  and  C30_32 
REMARK    2  A    between atoms: C3_3  and  C4_4 
REMARK    3  A    between atoms: C4_4  and  O1_5 
REMARK    4  A    between atoms: C4_4  and  C5_6 
REMARK    5  A    between atoms: C5_6  and  C6_7 
REMARK    6  A    between atoms: C6_7  and  C8_9 
REMARK    7  A    between atoms: C30_32  and  O4_34 
ROOT
HETATM    1  C8  UNL     1       1.966   0.289   0.101  1.00  0.00    -0.002 C 
HETATM    2  C9  UNL     1       1.862   1.772  -0.368  1.00  0.00     0.007 C 
HETATM    3  C10 UNL     1       0.369   2.099  -0.551  1.00  0.00     0.015 C 
HETATM    4  C11 UNL     1      -0.374   0.930   0.123  1.00  0.00    -0.013 C 
HETATM    5  C12 UNL     1      -0.424   1.271   1.645  1.00  0.00     0.021 C 
HETATM    6  C13 UNL     1      -1.811   0.655  -0.296  1.00  0.00    -0.070 C 
HETATM    7  C14 UNL     1      -2.611   1.574  -0.866  1.00  0.00    -0.022 C 
HETATM    8  C15 UNL     1      -4.050   1.281  -1.169  1.00  0.00     0.034 C 
HETATM    9  C16 UNL     1      -4.630   0.446  -0.018  1.00  0.00     0.013 C 
HETATM   10  C17 UNL     1      -6.188   0.354   0.008  1.00  0.00     0.018 C 
HETATM   11  C18 UNL     1      -6.781   1.641   0.622  1.00  0.00     0.023 C 
HETATM   12  C19 UNL     1      -6.819   0.173  -1.385  1.00  0.00     0.023 C 
HETATM   13  C20 UNL     1      -6.616  -0.799   0.927  1.00  0.00     0.135 C 
HETATM   14  O2  UNL     1      -7.726  -1.327   0.836  1.00  0.00    -0.297 OA
HETATM   15  C21 UNL     1      -5.667  -1.206   2.035  1.00  0.00     0.080 C 
HETATM   16  C22 UNL     1      -4.211  -1.397   1.595  1.00  0.00     0.017 C 
HETATM   17  C23 UNL     1      -3.884  -0.926   0.153  1.00  0.00    -0.031 C 
HETATM   18  C24 UNL     1      -4.378  -2.021  -0.832  1.00  0.00     0.016 C 
HETATM   19  C25 UNL     1      -2.317  -0.780  -0.127  1.00  0.00     0.024 C 
HETATM   20  C26 UNL     1      -1.410  -1.660   0.766  1.00  0.00     0.010 C 
HETATM   21  C27 UNL     1       0.111  -1.539   0.517  1.00  0.00     0.011 C 
HETATM   22  C28 UNL     1       0.552  -0.281  -0.263  1.00  0.00    -0.029 C 
HETATM   23  C29 UNL     1       0.533  -0.611  -1.790  1.00  0.00     0.016 C 
ENDROOT
BRANCH   1  24
HETATM   24  C6  UNL     1       3.254  -0.409  -0.439  1.00  0.00    -0.011 C 
HETATM   25  C7  UNL     1       3.336  -1.875  -0.000  1.00  0.00     0.010 C 
BRANCH  24  26
HETATM   26  C5  UNL     1       4.522   0.361   0.037  1.00  0.00     0.040 C 
BRANCH  26  27
HETATM   27  C4  UNL     1       5.851  -0.135  -0.561  1.00  0.00     0.142 C 
BRANCH  27  28
HETATM   28  C3  UNL     1       6.991   0.754  -0.151  1.00  0.00     0.018 C 
HETATM   29  C2  UNL     1       8.097   0.420   0.547  1.00  0.00     0.010 C 
HETATM   30  C1  UNL     1       8.444  -0.940   1.070  1.00  0.00     0.055 C 
BRANCH  29  31
HETATM   31  C30 UNL     1       9.059   1.522   0.810  1.00  0.00     0.171 C 
HETATM   32  O3  UNL     1       8.956   2.681   0.449  1.00  0.00    -0.646 OA
BRANCH  31  33
HETATM   33  O4  UNL     1      10.115   1.118   1.533  1.00  0.00    -0.773 OA
HETATM   34  H46 UNL     1      10.654   1.930   1.626  1.00  0.00     0.167 HD
ENDBRANCH  31  33
ENDBRANCH  29  31
ENDBRANCH  27  28
BRANCH  27  35
HETATM   35  O1  UNL     1       5.783  -0.117  -1.982  1.00  0.00    -0.392 OA
HETATM   36  H6  UNL     1       5.636   0.802  -2.263  1.00  0.00     0.210 HD
ENDBRANCH  27  35
ENDBRANCH  26  27
ENDBRANCH  24  26
ENDBRANCH   1  24
TORSDOF 7
