REMARK  4 active torsions:
REMARK  status: ('A' for Active; 'I' for Inactive)
REMARK    1  A    between atoms: C12_13  and  C13_14 
REMARK    2  A    between atoms: C20_21  and  C21_22 
REMARK    3  A    between atoms: C21_22  and  C22_23 
REMARK    4  A    between atoms: C23_24  and  O2_25 
ROOT
HETATM    1  C1  UNL     1       2.776   2.674  -1.041  1.00  0.00     0.015 C 
HETATM    2  C2  UNL     1       1.847   1.899  -0.456  1.00  0.00    -0.084 C 
HETATM    3  C3  UNL     1       0.841   2.462   0.520  1.00  0.00     0.034 C 
HETATM    4  C4  UNL     1      -0.597   2.099   0.141  1.00  0.00     0.010 C 
HETATM    5  C5  UNL     1      -0.765   0.591  -0.159  1.00  0.00     0.006 C 
HETATM    6  C6  UNL     1       0.245   0.096  -1.256  1.00  0.00    -0.032 C 
HETATM    7  C7  UNL     1       0.054   0.834  -2.612  1.00  0.00     0.016 C 
HETATM    8  C8  UNL     1       0.059  -1.425  -1.549  1.00  0.00     0.013 C 
HETATM    9  C9  UNL     1      -1.034  -2.085  -0.713  1.00  0.00     0.039 C 
HETATM   10  C10 UNL     1      -2.381  -1.346  -0.824  1.00  0.00     0.066 C 
HETATM   11  C11 UNL     1      -2.961  -1.539  -2.235  1.00  0.00     0.047 C 
HETATM   12  O1  UNL     1      -3.299  -2.043   0.052  1.00  0.00    -0.371 OA
HETATM   13  C12 UNL     1      -3.842  -1.152   1.029  1.00  0.00     0.146 C 
HETATM   14  C17 UNL     1      -2.916   0.048   1.070  1.00  0.00     0.048 C 
HETATM   15  C18 UNL     1      -2.266   0.133  -0.330  1.00  0.00    -0.006 C 
HETATM   16  C19 UNL     1      -3.094   1.134  -1.166  1.00  0.00     0.019 C 
HETATM   17  C20 UNL     1       1.722   0.406  -0.761  1.00  0.00     0.027 C 
ENDROOT
BRANCH  17  18
HETATM   18  C21 UNL     1       2.207  -0.438   0.459  1.00  0.00     0.057 C 
BRANCH  18  19
HETATM   19  C22 UNL     1       3.688  -0.286   0.738  1.00  0.00     0.052 A 
HETATM   20  C23 UNL     1       4.639  -0.911   0.025  1.00  0.00     0.086 A 
HETATM   21  C24 UNL     1       6.057  -0.751   0.308  1.00  0.00     0.001 A 
HETATM   22  C25 UNL     1       7.056  -1.582  -0.453  1.00  0.00     0.054 C 
HETATM   23  C26 UNL     1       6.404   0.113   1.282  1.00  0.00     0.061 A 
HETATM   24  C27 UNL     1       7.795   0.473   1.708  1.00  0.00     0.077 C 
HETATM   25  O3  UNL     1       5.422   0.800   2.037  1.00  0.00    -0.279 OA
HETATM   26  C28 UNL     1       4.085   0.590   1.864  1.00  0.00     0.297 A 
HETATM   27  O4  UNL     1       3.261   1.111   2.609  1.00  0.00    -0.259 OA
BRANCH  20  28
HETATM   28  O2  UNL     1       4.273  -1.721  -1.035  1.00  0.00    -0.359 OA
HETATM   29  H34 UNL     1       5.020  -1.828  -1.644  1.00  0.00     0.217 HD
ENDBRANCH  20  28
ENDBRANCH  18  19
ENDBRANCH  17  18
BRANCH  13  30
HETATM   30  C13 UNL     1      -5.265  -0.842   0.655  1.00  0.00     0.007 C 
HETATM   31  C14 UNL     1      -6.237  -0.384   1.470  1.00  0.00    -0.089 C 
HETATM   32  C15 UNL     1      -6.048  -0.066   2.927  1.00  0.00     0.042 C 
HETATM   33  C16 UNL     1      -7.631  -0.147   0.952  1.00  0.00     0.042 C 
ENDBRANCH  13  30
TORSDOF 4
