REMARK  10 active torsions:
REMARK  status: ('A' for Active; 'I' for Inactive)
REMARK    1  A    between atoms: O1_1  and  C1_2 
REMARK    2  A    between atoms: C1_2  and  C2_3 
REMARK    3  A    between atoms: C3_5  and  C4_6 
REMARK    4  A    between atoms: C4_6  and  O2_7 
REMARK    5  A    between atoms: C4_6  and  C5_8 
REMARK    6  A    between atoms: C5_8  and  C6_9 
REMARK    7  A    between atoms: C6_9  and  C7_10 
REMARK    8  A    between atoms: C7_10  and  C8_11 
REMARK    9  A    between atoms: C17_22  and  O5_23 
REMARK   10  A    between atoms: C18_24  and  O6_25 
ROOT
HETATM    1  C4  UNL     1       2.153   0.192  -0.962  1.00  0.00     0.154 C 
ENDROOT
BRANCH   1   2
HETATM    2  C3  UNL     1       3.576  -0.417  -0.936  1.00  0.00     0.280 C 
HETATM    3  N1  UNL     1       4.547   0.359  -0.110  1.00  0.00     0.102 N 
HETATM    4  C2  UNL     1       5.542  -0.649   0.377  1.00  0.00     0.275 C 
HETATM    5  H5  UNL     1       4.066   0.719   0.718  1.00  0.00     0.317 HD
HETATM    6  C18 UNL     1       5.171  -2.003  -0.237  1.00  0.00     0.184 C 
HETATM    7  C17 UNL     1       3.667  -1.862  -0.445  1.00  0.00     0.184 C 
BRANCH   4   8
HETATM    8  C1  UNL     1       6.969  -0.221   0.020  1.00  0.00     0.202 C 
BRANCH   8   9
HETATM    9  O1  UNL     1       7.206   1.101   0.503  1.00  0.00    -0.399 OA
HETATM   10  H1  UNL     1       6.436   1.618   0.193  1.00  0.00     0.209 HD
ENDBRANCH   8   9
ENDBRANCH   4   8
BRANCH   6  11
HETATM   11  O6  UNL     1       5.461  -3.089   0.635  1.00  0.00    -0.391 OA
HETATM   12  H33 UNL     1       5.436  -3.901   0.098  1.00  0.00     0.210 HD
ENDBRANCH   6  11
BRANCH   7  13
HETATM   13  O5  UNL     1       3.191  -2.795  -1.406  1.00  0.00    -0.391 OA
HETATM   14  H31 UNL     1       3.125  -3.657  -0.959  1.00  0.00     0.210 HD
ENDBRANCH   7  13
ENDBRANCH   1   2
BRANCH   1  15
HETATM   15  O2  UNL     1       2.261   1.507  -1.531  1.00  0.00    -0.393 OA
HETATM   16  H8  UNL     1       3.122   1.864  -1.241  1.00  0.00     0.210 HD
ENDBRANCH   1  15
BRANCH   1  17
HETATM   17  C5  UNL     1       1.471   0.322   0.410  1.00  0.00     0.034 C 
BRANCH  17  18
HETATM   18  C6  UNL     1      -0.059   0.464   0.339  1.00  0.00     0.005 C 
BRANCH  18  19
HETATM   19  C7  UNL     1      -0.546   1.710  -0.408  1.00  0.00     0.032 C 
BRANCH  19  20
HETATM   20  C8  UNL     1      -2.064   1.936  -0.325  1.00  0.00     0.125 C 
HETATM   21  C9  UNL     1      -2.526   2.360   1.069  1.00  0.00     0.032 C 
HETATM   22  C10 UNL     1      -4.024   2.657   1.069  1.00  0.00     0.008 C 
HETATM   23  C11 UNL     1      -4.765   1.876  -0.018  1.00  0.00     0.068 C 
HETATM   24  C12 UNL     1      -4.062   0.547  -0.339  1.00  0.00     0.164 C 
HETATM   25  C13 UNL     1      -4.810  -0.201  -1.467  1.00  0.00     0.068 C 
HETATM   26  O3  UNL     1      -4.040  -0.220   0.876  1.00  0.00    -0.355 OA
HETATM   27  O4  UNL     1      -2.725   0.761  -0.803  1.00  0.00    -0.350 OA
HETATM   28  C14 UNL     1      -5.843  -1.169  -0.909  1.00  0.00     0.007 C 
HETATM   29  C15 UNL     1      -5.179  -2.170   0.035  1.00  0.00     0.026 C 
HETATM   30  C16 UNL     1      -3.898  -1.616   0.649  1.00  0.00     0.171 C 
ENDBRANCH  19  20
ENDBRANCH  18  19
ENDBRANCH  17  18
ENDBRANCH   1  17
TORSDOF 10
