REMARK  4 active torsions:
REMARK  status: ('A' for Active; 'I' for Inactive)
REMARK    1  A    between atoms: C4_4  and  C5_5 
REMARK    2  A    between atoms: C5_5  and  C6_7 
REMARK    3  A    between atoms: C6_7  and  C7_8 
REMARK    4  A    between atoms: C7_8  and  C9_10 
ROOT
HETATM    1  C9  UNL     1       2.354  -0.443  -0.792  1.00  0.00    -0.001 C 
HETATM    2  C10 UNL     1       2.162  -0.038  -2.285  1.00  0.00     0.007 C 
HETATM    3  C11 UNL     1       0.653   0.205  -2.509  1.00  0.00     0.015 C 
HETATM    4  C12 UNL     1       0.054   0.244  -1.092  1.00  0.00    -0.013 C 
HETATM    5  C13 UNL     1       0.307   1.701  -0.558  1.00  0.00     0.021 C 
HETATM    6  C14 UNL     1      -1.449   0.012  -0.921  1.00  0.00    -0.070 C 
HETATM    7  C15 UNL     1      -2.333   0.594  -1.753  1.00  0.00    -0.022 C 
HETATM    8  C16 UNL     1      -3.790   0.737  -1.445  1.00  0.00     0.034 C 
HETATM    9  C17 UNL     1      -4.031   0.697   0.081  1.00  0.00     0.013 C 
HETATM   10  C18 UNL     1      -5.489   1.112   0.497  1.00  0.00     0.018 C 
HETATM   11  C19 UNL     1      -5.680   2.626   0.214  1.00  0.00     0.023 C 
HETATM   12  C20 UNL     1      -6.625   0.375  -0.231  1.00  0.00     0.023 C 
HETATM   13  C21 UNL     1      -5.671   0.886   2.006  1.00  0.00     0.135 C 
HETATM   14  O2  UNL     1      -6.272   1.686   2.727  1.00  0.00    -0.297 OA
HETATM   15  C22 UNL     1      -5.171  -0.416   2.583  1.00  0.00     0.080 C 
HETATM   16  C23 UNL     1      -3.713  -0.631   2.212  1.00  0.00     0.017 C 
HETATM   17  C24 UNL     1      -3.452  -0.631   0.686  1.00  0.00    -0.031 C 
HETATM   18  C25 UNL     1      -4.116  -1.901   0.079  1.00  0.00     0.016 C 
HETATM   19  C26 UNL     1      -1.892  -0.751   0.339  1.00  0.00     0.024 C 
HETATM   20  C27 UNL     1      -0.892  -0.519   1.496  1.00  0.00     0.010 C 
HETATM   21  C28 UNL     1       0.594  -0.812   1.142  1.00  0.00     0.011 C 
HETATM   22  C29 UNL     1       0.905  -0.863  -0.373  1.00  0.00    -0.029 C 
HETATM   23  C30 UNL     1       0.660  -2.307  -0.915  1.00  0.00     0.016 C 
ENDROOT
BRANCH   1  24
HETATM   24  C7  UNL     1       3.540  -1.430  -0.595  1.00  0.00    -0.007 C 
HETATM   25  C8  UNL     1       3.737  -1.836   0.869  1.00  0.00     0.011 C 
BRANCH  24  26
HETATM   26  C6  UNL     1       4.873  -0.897  -1.173  1.00  0.00     0.087 C 
BRANCH  26  27
HETATM   27  C5  UNL     1       5.400   0.353  -0.486  1.00  0.00     0.149 C 
HETATM   28  O1  UNL     1       4.868   1.451  -0.636  1.00  0.00    -0.293 OA
BRANCH  27  29
HETATM   29  C4  UNL     1       6.614   0.192   0.371  1.00  0.00     0.052 C 
HETATM   30  C2  UNL     1       6.902   0.941   1.451  1.00  0.00    -0.084 C 
HETATM   31  C1  UNL     1       6.020   2.024   2.009  1.00  0.00     0.043 C 
HETATM   32  C3  UNL     1       8.189   0.730   2.204  1.00  0.00     0.043 C 
ENDBRANCH  27  29
ENDBRANCH  26  27
ENDBRANCH  24  26
ENDBRANCH   1  24
TORSDOF 4
