REMARK  12 active torsions:
REMARK  status: ('A' for Active; 'I' for Inactive)
REMARK    1  A    between atoms: C2_2  and  C3_3 
REMARK    2  A    between atoms: C2_2  and  C26_31 
REMARK    3  A    between atoms: C3_3  and  C4_4 
REMARK    4  A    between atoms: C4_4  and  C5_5 
REMARK    5  A    between atoms: C5_5  and  C7_7 
REMARK    6  A    between atoms: C8_8  and  O1_9 
REMARK    7  A    between atoms: C9_10  and  O2_11 
REMARK    8  A    between atoms: C20_22  and  O3_23 
REMARK    9  A    between atoms: C23_26  and  O4_27 
REMARK   10  A    between atoms: C25_29  and  O5_30 
REMARK   11  A    between atoms: C26_31  and  C28_33 
REMARK   12  A    between atoms: C28_33  and  O6_34 
ROOT
HETATM    1  C7  UNL     1      -1.328   0.193   0.241  1.00  0.00     0.029 C 
HETATM    2  C8  UNL     1      -1.249   1.176   1.457  1.00  0.00     0.152 C 
HETATM    3  C9  UNL     1       0.226   1.198   1.929  1.00  0.00     0.155 C 
HETATM    4  C10 UNL     1       0.976   0.488   0.807  1.00  0.00     0.060 C 
HETATM    5  C11 UNL     1      -0.021  -0.661   0.399  1.00  0.00    -0.029 C 
HETATM    6  C12 UNL     1      -0.242  -1.768   1.462  1.00  0.00     0.016 C 
HETATM    7  C13 UNL     1       0.513  -1.317  -0.893  1.00  0.00     0.011 C 
HETATM    8  C14 UNL     1       1.993  -1.750  -0.792  1.00  0.00     0.009 C 
HETATM    9  C15 UNL     1       2.888  -0.570  -0.371  1.00  0.00     0.029 C 
HETATM   10  C16 UNL     1       4.435  -0.792  -0.463  1.00  0.00    -0.031 C 
HETATM   11  C17 UNL     1       4.971  -1.662   0.699  1.00  0.00     0.016 C 
HETATM   12  C18 UNL     1       4.851  -1.480  -1.797  1.00  0.00     0.012 C 
HETATM   13  C19 UNL     1       6.366  -1.481  -2.040  1.00  0.00     0.032 C 
HETATM   14  C20 UNL     1       7.006  -0.102  -1.882  1.00  0.00     0.118 C 
HETATM   15  C21 UNL     1       6.576   0.621  -0.601  1.00  0.00     0.039 C 
HETATM   16  C22 UNL     1       5.047   0.646  -0.490  1.00  0.00     0.025 C 
HETATM   17  C23 UNL     1       4.438   1.636   0.535  1.00  0.00     0.126 C 
HETATM   18  C24 UNL     1       3.438   1.068   1.542  1.00  0.00     0.071 C 
HETATM   19  C25 UNL     1       2.438   0.016   1.011  1.00  0.00     0.071 C 
ENDROOT
BRANCH   1  20
HETATM   20  C5  UNL     1      -2.716  -0.503   0.082  1.00  0.00    -0.011 C 
HETATM   21  C6  UNL     1      -2.736  -1.506  -1.078  1.00  0.00     0.010 C 
BRANCH  20  22
HETATM   22  C4  UNL     1      -3.829   0.563  -0.134  1.00  0.00     0.009 C 
BRANCH  22  23
HETATM   23  C3  UNL     1      -5.253   0.014   0.072  1.00  0.00     0.034 C 
BRANCH  23  24
HETATM   24  C2  UNL     1      -6.408   1.011  -0.022  1.00  0.00    -0.083 C 
HETATM   25  C1  UNL     1      -6.242   2.301  -0.368  1.00  0.00     0.015 C 
BRANCH  24  26
HETATM   26  C26 UNL     1      -7.780   0.411   0.337  1.00  0.00     0.033 C 
HETATM   27  C27 UNL     1      -8.829   1.432   0.802  1.00  0.00     0.017 C 
BRANCH  26  28
HETATM   28  C28 UNL     1      -8.348  -0.446  -0.813  1.00  0.00     0.172 C 
BRANCH  28  29
HETATM   29  O6  UNL     1      -8.692   0.342  -1.949  1.00  0.00    -0.400 OA
HETATM   30  H48 UNL     1      -7.896   0.848  -2.191  1.00  0.00     0.209 HD
ENDBRANCH  28  29
ENDBRANCH  26  28
ENDBRANCH  24  26
ENDBRANCH  23  24
ENDBRANCH  22  23
ENDBRANCH  20  22
ENDBRANCH   1  20
BRANCH   2  31
HETATM   31  O1  UNL     1      -2.080   0.762   2.539  1.00  0.00    -0.393 OA
HETATM   32  H13 UNL     1      -2.158   1.509   3.155  1.00  0.00     0.210 HD
ENDBRANCH   2  31
BRANCH   3  33
HETATM   33  O2  UNL     1       0.666   2.543   2.077  1.00  0.00    -0.392 OA
HETATM   34  H15 UNL     1       0.180   2.934   2.824  1.00  0.00     0.210 HD
ENDBRANCH   3  33
BRANCH  19  35
HETATM   35  O5  UNL     1       2.440  -1.031   1.991  1.00  0.00    -0.389 OA
HETATM   36  H41 UNL     1       2.215  -0.646   2.855  1.00  0.00     0.210 HD
ENDBRANCH  19  35
BRANCH  17  37
HETATM   37  O4  UNL     1       5.454   2.346   1.242  1.00  0.00    -0.395 OA
HETATM   38  H38 UNL     1       5.911   1.713   1.823  1.00  0.00     0.210 HD
ENDBRANCH  17  37
BRANCH  14  39
HETATM   39  O3  UNL     1       8.421  -0.254  -1.894  1.00  0.00    -0.396 OA
HETATM   40  H33 UNL     1       8.811   0.633  -1.802  1.00  0.00     0.210 HD
ENDBRANCH  14  39
TORSDOF 12
