REMARK  19 active torsions:
REMARK  status: ('A' for Active; 'I' for Inactive)
REMARK    1  A    between atoms: O1_2  and  C2_3 
REMARK    2  A    between atoms: C2_3  and  C3_4 
REMARK    3  A    between atoms: C2_3  and  C28_36 
REMARK    4  A    between atoms: C3_4  and  C4_5 
REMARK    5  A    between atoms: C4_5  and  C6_7 
REMARK    6  A    between atoms: C6_7  and  O2_8 
REMARK    7  A    between atoms: C6_7  and  C7_9 
REMARK    8  A    between atoms: C8_10  and  C9_11 
REMARK    9  A    between atoms: C10_12  and  C11_13 
REMARK   10  A    between atoms: C11_13  and  N1_14 
REMARK       I    between atoms: N1_14  and  C12_15 
REMARK   11  A    between atoms: C12_15  and  C13_17 
REMARK   12  A    between atoms: C13_17  and  C16_20 
REMARK   13  A    between atoms: C16_20  and  O4_21 
REMARK   14  A    between atoms: C16_20  and  C17_22 
REMARK   15  A    between atoms: C19_24  and  C20_25 
REMARK   16  A    between atoms: C21_26  and  C22_27 
REMARK   17  A    between atoms: C23_28  and  C24_29 
REMARK   18  A    between atoms: C26_31  and  N2_33 
REMARK   19  A    between atoms: C28_36  and  O7_37 
ROOT
HETATM    1  C9  UNL     1      -0.354  -0.702   1.808  1.00  0.00    -0.003 C 
HETATM    2  C10 UNL     1       0.386  -1.385   2.697  1.00  0.00    -0.007 C 
ENDROOT
BRANCH   1   3
HETATM    3  C8  UNL     1      -1.796  -0.645   1.870  1.00  0.00    -0.002 C 
HETATM    4  C7  UNL     1      -2.527   0.115   1.040  1.00  0.00     0.005 C 
BRANCH   4   5
HETATM    5  C6  UNL     1      -4.023   0.306   1.034  1.00  0.00     0.144 C 
BRANCH   5   6
HETATM    6  C4  UNL     1      -4.898  -0.719   1.790  1.00  0.00     0.016 C 
HETATM    7  C5  UNL     1      -4.834  -2.144   1.228  1.00  0.00     0.013 C 
BRANCH   6   8
HETATM    8  C3  UNL     1      -6.350  -0.255   2.067  1.00  0.00     0.042 C 
BRANCH   8   9
HETATM    9  C2  UNL     1      -7.191   0.622   1.081  1.00  0.00     0.159 C 
BRANCH   9  10
HETATM   10  O1  UNL     1      -8.244   1.152   1.922  1.00  0.00    -0.388 OA
HETATM   11  C1  UNL     1      -7.885   2.361   2.599  1.00  0.00     0.202 C 
ENDBRANCH   9  10
BRANCH   9  12
HETATM   12  C28 UNL     1      -7.925  -0.118  -0.104  1.00  0.00     0.133 C 
HETATM   13  C29 UNL     1      -6.924  -0.556  -1.223  1.00  0.00     0.114 C 
HETATM   14  C30 UNL     1      -7.329  -1.794  -2.020  1.00  0.00     0.023 C 
HETATM   15  C31 UNL     1      -6.862   0.624  -2.156  1.00  0.00     0.227 C 
HETATM   16  O8  UNL     1      -5.935   0.879  -2.906  1.00  0.00    -0.273 OA
HETATM   17  N3  UNL     1      -8.045   1.314  -2.029  1.00  0.00    -0.332 N 
HETATM   18  C32 UNL     1      -8.243   2.598  -2.670  1.00  0.00     0.154 C 
HETATM   19  C33 UNL     1      -8.901   0.817  -0.891  1.00  0.00     0.183 A 
HETATM   20  C34 UNL     1      -9.770   1.921  -0.201  1.00  0.00     0.294 A 
HETATM   21  C35 UNL     1     -10.322   0.332  -1.373  1.00  0.00     0.169 A 
HETATM   22  O9  UNL     1      -9.613   3.001   0.328  1.00  0.00    -0.262 OA
HETATM   23  O10 UNL     1     -10.955   1.378  -0.580  1.00  0.00    -0.311 OA
HETATM   24  C36 UNL     1     -10.980  -0.997  -1.052  1.00  0.00     0.043 C 
BRANCH  12  25
HETATM   25  O7  UNL     1      -8.628  -1.269   0.377  1.00  0.00    -0.383 OA
HETATM   26  H42 UNL     1      -8.040  -1.804   0.937  1.00  0.00     0.210 HD
ENDBRANCH  12  25
ENDBRANCH   9  12
ENDBRANCH   8   9
ENDBRANCH   6   8
ENDBRANCH   5   6
BRANCH   5  27
HETATM   27  O2  UNL     1      -4.263   1.605   1.580  1.00  0.00    -0.391 OA
HETATM   28  H12 UNL     1      -3.682   1.703   2.357  1.00  0.00     0.210 HD
ENDBRANCH   5  27
ENDBRANCH   4   5
ENDBRANCH   1   3
BRANCH   2  29
HETATM   29  C11 UNL     1       1.882  -1.459   2.745  1.00  0.00     0.149 C 
BRANCH  29  30
HETATM   30  N1  UNL     1       2.449  -1.295   1.433  1.00  0.00    -0.357 N 
HETATM   31  C12 UNL     1       3.172  -0.187   1.056  1.00  0.00     0.228 C 
HETATM   32  O3  UNL     1       3.332   0.780   1.800  1.00  0.00    -0.273 OA
HETATM   33  H19 UNL     1       2.479  -2.104   0.814  1.00  0.00     0.162 HD
BRANCH  31  34
HETATM   34  C13 UNL     1       3.725  -0.238  -0.379  1.00  0.00     0.063 C 
HETATM   35  C14 UNL     1       4.541   1.041  -0.655  1.00  0.00     0.028 C 
HETATM   36  C15 UNL     1       2.520  -0.244  -1.347  1.00  0.00     0.028 C 
BRANCH  34  37
HETATM   37  C16 UNL     1       4.610  -1.496  -0.631  1.00  0.00     0.164 C 
BRANCH  37  38
HETATM   38  O4  UNL     1       3.850  -2.703  -0.463  1.00  0.00    -0.390 OA
HETATM   39  H27 UNL     1       4.453  -3.434  -0.686  1.00  0.00     0.210 HD
ENDBRANCH  37  38
BRANCH  37  40
HETATM   40  C17 UNL     1       5.895  -1.620   0.176  1.00  0.00    -0.054 C 
HETATM   41  C18 UNL     1       5.754  -1.966   1.643  1.00  0.00     0.046 C 
HETATM   42  C19 UNL     1       7.139  -1.425  -0.314  1.00  0.00     0.005 C 
BRANCH  42  43
HETATM   43  C20 UNL     1       7.508  -1.102  -1.676  1.00  0.00     0.000 C 
HETATM   44  C21 UNL     1       8.644  -0.505  -2.079  1.00  0.00     0.000 C 
BRANCH  44  45
HETATM   45  C22 UNL     1       9.705   0.012  -1.236  1.00  0.00     0.001 C 
HETATM   46  C23 UNL     1      10.796   0.624  -1.731  1.00  0.00     0.009 C 
BRANCH  46  47
HETATM   47  C24 UNL     1      11.899   1.210  -0.952  1.00  0.00    -0.034 C 
HETATM   48  C25 UNL     1      11.724   1.190   0.558  1.00  0.00     0.050 C 
HETATM   49  C26 UNL     1      12.973   1.752  -1.576  1.00  0.00     0.082 C 
HETATM   50  C27 UNL     1      13.332   1.885  -3.021  1.00  0.00     0.075 C 
BRANCH  49  51
HETATM   51  N2  UNL     1      14.020   2.306  -0.743  1.00  0.00    -0.120 N 
HETATM   52  O5  UNL     1      14.827   1.508  -0.249  1.00  0.00    -0.532 OA
HETATM   53  O6  UNL     1      14.042   3.537  -0.618  1.00  0.00    -0.532 OA
ENDBRANCH  49  51
ENDBRANCH  46  47
ENDBRANCH  44  45
ENDBRANCH  42  43
ENDBRANCH  37  40
ENDBRANCH  34  37
ENDBRANCH  31  34
ENDBRANCH  29  30
ENDBRANCH   2  29
TORSDOF 19
