REMARK  9 active torsions:
REMARK  status: ('A' for Active; 'I' for Inactive)
REMARK    1  A    between atoms: C2_2  and  C3_3 
REMARK    2  A    between atoms: C2_2  and  C9_12 
REMARK    3  A    between atoms: C3_3  and  C4_4 
REMARK    4  A    between atoms: C4_4  and  C5_5 
REMARK    5  A    between atoms: C5_5  and  O1_6 
REMARK    6  A    between atoms: C5_5  and  C6_7 
REMARK    7  A    between atoms: C6_7  and  O2_9 
REMARK    8  A    between atoms: C6_7  and  C8_10 
REMARK    9  A    between atoms: C8_10  and  O3_11 
ROOT
HETATM    1  C9  UNL     1       1.859   1.430   0.480  1.00  0.00    -0.002 C 
HETATM    2  C10 UNL     1       1.413   2.837   0.944  1.00  0.00     0.007 C 
HETATM    3  C11 UNL     1      -0.129   2.793   1.075  1.00  0.00     0.015 C 
HETATM    4  C12 UNL     1      -0.510   1.298   0.986  1.00  0.00    -0.005 C 
HETATM    5  C13 UNL     1      -0.345   0.706   2.420  1.00  0.00     0.021 C 
HETATM    6  C14 UNL     1      -1.902   0.855   0.553  1.00  0.00    -0.000 C 
HETATM    7  C15 UNL     1      -2.094  -0.334  -0.080  1.00  0.00    -0.060 C 
HETATM    8  C16 UNL     1      -0.903  -1.238  -0.438  1.00  0.00     0.036 C 
HETATM    9  C17 UNL     1       0.514  -0.716  -0.127  1.00  0.00     0.015 C 
HETATM   10  C18 UNL     1       0.545   0.814  -0.079  1.00  0.00    -0.028 C 
HETATM   11  C19 UNL     1       0.260   1.349  -1.516  1.00  0.00     0.016 C 
HETATM   12  C20 UNL     1      -3.496  -0.820  -0.541  1.00  0.00    -0.014 C 
HETATM   13  C21 UNL     1      -3.637  -0.350  -2.007  1.00  0.00     0.020 C 
HETATM   14  C22 UNL     1      -3.619  -2.365  -0.479  1.00  0.00     0.021 C 
HETATM   15  C23 UNL     1      -5.014  -2.877  -0.797  1.00  0.00     0.080 C 
HETATM   16  C24 UNL     1      -6.034  -2.278   0.136  1.00  0.00     0.135 C 
HETATM   17  O4  UNL     1      -6.887  -3.001   0.656  1.00  0.00    -0.297 OA
HETATM   18  C25 UNL     1      -6.039  -0.751   0.306  1.00  0.00     0.018 C 
HETATM   19  C26 UNL     1      -6.812  -0.429   1.612  1.00  0.00     0.023 C 
HETATM   20  C27 UNL     1      -6.846  -0.147  -0.853  1.00  0.00     0.023 C 
HETATM   21  C28 UNL     1      -4.565  -0.228   0.440  1.00  0.00     0.020 C 
HETATM   22  C29 UNL     1      -4.456   1.300   0.475  1.00  0.00     0.090 C 
HETATM   23  C30 UNL     1      -3.068   1.740   0.876  1.00  0.00     0.157 C 
HETATM   24  O5  UNL     1      -2.912   2.823   1.438  1.00  0.00    -0.293 OA
ENDROOT
BRANCH   1  25
HETATM   25  C2  UNL     1       3.151   1.348  -0.390  1.00  0.00    -0.014 C 
HETATM   26  C1  UNL     1       3.350   2.504  -1.379  1.00  0.00     0.010 C 
BRANCH  25  27
HETATM   27  C3  UNL     1       4.385   1.252   0.546  1.00  0.00     0.007 C 
BRANCH  27  28
HETATM   28  C4  UNL     1       5.747   0.994  -0.112  1.00  0.00     0.035 C 
BRANCH  28  29
HETATM   29  C5  UNL     1       5.960  -0.287  -0.933  1.00  0.00     0.154 C 
BRANCH  29  30
HETATM   30  O1  UNL     1       5.178  -0.232  -2.135  1.00  0.00    -0.392 OA
HETATM   31  H10 UNL     1       5.207  -1.131  -2.518  1.00  0.00     0.210 HD
ENDBRANCH  29  30
BRANCH  29  32
HETATM   32  C6  UNL     1       5.809  -1.691  -0.272  1.00  0.00     0.101 C 
HETATM   33  C7  UNL     1       4.362  -2.096   0.030  1.00  0.00     0.051 C 
BRANCH  32  34
HETATM   34  O2  UNL     1       6.247  -2.647  -1.279  1.00  0.00    -0.385 OA
HETATM   35  H14 UNL     1       7.169  -2.433  -1.514  1.00  0.00     0.210 HD
ENDBRANCH  32  34
BRANCH  32  36
HETATM   36  C8  UNL     1       6.705  -1.878   0.970  1.00  0.00     0.204 C 
BRANCH  36  37
HETATM   37  O3  UNL     1       6.274  -1.108   2.079  1.00  0.00    -0.398 OA
HETATM   38  H17 UNL     1       6.819  -1.366   2.843  1.00  0.00     0.209 HD
ENDBRANCH  36  37
ENDBRANCH  32  36
ENDBRANCH  29  32
ENDBRANCH  28  29
ENDBRANCH  27  28
ENDBRANCH  25  27
ENDBRANCH   1  25
TORSDOF 9
