REMARK  6 active torsions:
REMARK  status: ('A' for Active; 'I' for Inactive)
REMARK    1  A    between atoms: C2_2  and  C3_4 
REMARK    2  A    between atoms: C4_5  and  C5_6 
REMARK    3  A    between atoms: C6_7  and  C8_9 
REMARK    4  A    between atoms: C8_9  and  O3_11 
REMARK    5  A    between atoms: C9_12  and  C10_13 
REMARK    6  A    between atoms: C30_35  and  O6_36 
ROOT
HETATM    1  C10 UNL     1       1.333   0.667   1.243  1.00  0.00    -0.068 C 
HETATM    2  C11 UNL     1       1.199   0.076   2.633  1.00  0.00     0.044 C 
HETATM    3  C12 UNL     1       0.405   0.453   0.277  1.00  0.00    -0.001 C 
HETATM    4  C13 UNL     1       0.516   0.886  -1.177  1.00  0.00     0.157 C 
HETATM    5  O4  UNL     1       1.499   1.391  -1.696  1.00  0.00    -0.293 OA
HETATM    6  C14 UNL     1      -0.741   0.572  -1.942  1.00  0.00     0.090 C 
HETATM    7  C15 UNL     1      -1.726   0.426  -0.791  1.00  0.00     0.014 C 
HETATM    8  C16 UNL     1      -3.177  -0.071  -1.113  1.00  0.00    -0.034 C 
HETATM    9  C17 UNL     1      -3.937   1.202  -1.579  1.00  0.00     0.016 C 
HETATM   10  C18 UNL     1      -3.262  -1.120  -2.241  1.00  0.00     0.017 C 
HETATM   11  C19 UNL     1      -4.685  -1.641  -2.463  1.00  0.00     0.080 C 
HETATM   12  C20 UNL     1      -5.406  -2.068  -1.194  1.00  0.00     0.135 C 
HETATM   13  O5  UNL     1      -6.149  -3.051  -1.228  1.00  0.00    -0.297 OA
HETATM   14  C21 UNL     1      -5.271  -1.195   0.074  1.00  0.00     0.017 C 
HETATM   15  C22 UNL     1      -5.616  -2.089   1.296  1.00  0.00     0.023 C 
HETATM   16  C23 UNL     1      -6.306  -0.064   0.039  1.00  0.00     0.023 C 
HETATM   17  C24 UNL     1      -3.779  -0.747   0.166  1.00  0.00     0.009 C 
HETATM   18  C25 UNL     1      -3.332   0.006   1.428  1.00  0.00     0.007 C 
HETATM   19  C26 UNL     1      -1.798  -0.096   1.642  1.00  0.00     0.015 C 
HETATM   20  C27 UNL     1      -0.952  -0.288   0.349  1.00  0.00    -0.008 C 
HETATM   21  C28 UNL     1      -0.618  -1.776   0.089  1.00  0.00     0.021 C 
ENDROOT
BRANCH   1  22
HETATM   22  C9  UNL     1       2.642   1.455   1.106  1.00  0.00     0.026 C 
HETATM   23  C4  UNL     1       3.751   0.776   0.267  1.00  0.00     0.031 C 
HETATM   24  C3  UNL     1       4.710   1.943  -0.029  1.00  0.00     0.092 C 
HETATM   25  C30 UNL     1       3.774   3.133  -0.278  1.00  0.00     0.130 C 
HETATM   26  C29 UNL     1       2.540   2.908   0.605  1.00  0.00     0.042 C 
BRANCH  23  27
HETATM   27  C5  UNL     1       4.407  -0.358   1.030  1.00  0.00    -0.007 C 
HETATM   28  C6  UNL     1       4.361  -1.675   0.736  1.00  0.00     0.008 C 
HETATM   29  C7  UNL     1       3.640  -2.299  -0.423  1.00  0.00     0.055 C 
BRANCH  28  30
HETATM   30  C8  UNL     1       5.061  -2.668   1.597  1.00  0.00     0.171 C 
HETATM   31  O2  UNL     1       5.102  -3.870   1.397  1.00  0.00    -0.646 OA
BRANCH  30  32
HETATM   32  O3  UNL     1       5.658  -2.134   2.676  1.00  0.00    -0.773 OA
HETATM   33  H10 UNL     1       6.069  -2.909   3.109  1.00  0.00     0.167 HD
ENDBRANCH  30  32
ENDBRANCH  28  30
ENDBRANCH  23  27
BRANCH  24  34
HETATM   34  C2  UNL     1       5.653   1.677  -1.196  1.00  0.00     0.130 C 
HETATM   35  C1  UNL     1       6.599   2.787  -1.582  1.00  0.00     0.091 C 
HETATM   36  O1  UNL     1       5.722   0.580  -1.754  1.00  0.00    -0.298 OA
ENDBRANCH  24  34
BRANCH  25  37
HETATM   37  O6  UNL     1       3.381   3.236  -1.641  1.00  0.00    -0.395 OA
HETATM   38  H42 UNL     1       2.746   2.506  -1.827  1.00  0.00     0.210 HD
ENDBRANCH  25  37
ENDBRANCH   1  22
TORSDOF 6
