REMARK  11 active torsions:
REMARK  status: ('A' for Active; 'I' for Inactive)
REMARK    1  A    between atoms: C3_4  and  O2_5 
REMARK    2  A    between atoms: O2_5  and  C4_6 
REMARK    3  A    between atoms: C7_9  and  C8_10 
REMARK    4  A    between atoms: N1_11  and  C9_13 
REMARK    5  A    between atoms: C9_13  and  C10_14 
REMARK    6  A    between atoms: C10_14  and  C11_15 
REMARK    7  A    between atoms: C22_26  and  C23_27 
REMARK    8  A    between atoms: C29_35  and  O5_36 
REMARK    9  A    between atoms: C33_40  and  O6_41 
REMARK   10  A    between atoms: C36_44  and  O7_45 
REMARK   11  A    between atoms: C37_46  and  O8_47 
ROOT
HETATM    1  C4  UNL     1       2.849  -1.489   0.000  1.00  0.00     0.127 C 
HETATM    2  C5  UNL     1       2.654   0.026   0.105  1.00  0.00     0.033 C 
HETATM    3  C6  UNL     1       1.197   0.390   0.365  1.00  0.00     0.021 C 
HETATM    4  C7  UNL     1       0.190  -0.136  -0.710  1.00  0.00     0.026 C 
HETATM    5  C17 UNL     1      -1.068  -0.752   0.035  1.00  0.00     0.009 C 
HETATM    6  C18 UNL     1      -1.831   0.253   0.929  1.00  0.00     0.007 C 
HETATM    7  C19 UNL     1      -2.979  -0.403   1.691  1.00  0.00     0.013 C 
HETATM    8  C20 UNL     1      -4.020  -1.079   0.754  1.00  0.00    -0.005 C 
HETATM    9  C21 UNL     1      -4.801   0.022   0.004  1.00  0.00     0.019 C 
HETATM   10  C22 UNL     1      -4.937  -2.006   1.626  1.00  0.00     0.028 C 
HETATM   11  C27 UNL     1      -4.129  -3.320   1.749  1.00  0.00     0.013 C 
HETATM   12  C28 UNL     1      -3.004  -3.278   0.705  1.00  0.00     0.040 C 
HETATM   13  C29 UNL     1      -3.298  -2.071  -0.200  1.00  0.00     0.070 C 
HETATM   14  C30 UNL     1      -2.049  -1.478  -0.918  1.00  0.00     0.026 C 
HETATM   15  C31 UNL     1      -1.311  -2.557  -1.727  1.00  0.00     0.011 C 
HETATM   16  C32 UNL     1      -0.149  -1.971  -2.508  1.00  0.00     0.039 C 
HETATM   17  C33 UNL     1       0.871  -1.206  -1.641  1.00  0.00     0.073 C 
HETATM   18  C34 UNL     1       1.738  -2.181  -0.816  1.00  0.00     0.071 C 
ENDROOT
BRANCH   1  19
HETATM   19  O2  UNL     1       4.107  -1.847  -0.581  1.00  0.00    -0.356 OA
BRANCH  19  20
HETATM   20  C3  UNL     1       5.248  -1.467   0.186  1.00  0.00     0.263 C 
HETATM   21  O1  UNL     1       5.584  -0.103  -0.043  1.00  0.00    -0.354 OA
HETATM   22  C2  UNL     1       6.546   0.380   0.911  1.00  0.00     0.151 C 
HETATM   23  C1  UNL     1       6.939   1.788   0.470  1.00  0.00     0.042 C 
HETATM   24  C37 UNL     1       7.731  -0.607   1.066  1.00  0.00     0.175 C 
HETATM   25  C36 UNL     1       7.761  -1.619  -0.087  1.00  0.00     0.154 C 
HETATM   26  C35 UNL     1       6.428  -2.343  -0.253  1.00  0.00     0.095 C 
BRANCH  24  27
HETATM   27  O8  UNL     1       8.991   0.056   1.155  1.00  0.00    -0.390 OA
HETATM   28  H51 UNL     1       9.299   0.170   0.232  1.00  0.00     0.210 HD
ENDBRANCH  24  27
BRANCH  25  29
HETATM   29  O7  UNL     1       8.099  -0.925  -1.298  1.00  0.00    -0.393 OA
HETATM   30  H49 UNL     1       7.316  -0.379  -1.543  1.00  0.00     0.210 HD
ENDBRANCH  25  29
ENDBRANCH  19  20
ENDBRANCH   1  19
BRANCH  17  31
HETATM   31  O6  UNL     1       1.750  -0.548  -2.570  1.00  0.00    -0.389 OA
HETATM   32  H43 UNL     1       2.111  -1.215  -3.187  1.00  0.00     0.210 HD
ENDBRANCH  17  31
BRANCH   4  33
HETATM   33  C8  UNL     1      -0.240   1.049  -1.596  1.00  0.00     0.068 C 
HETATM   34  N1  UNL     1      -0.681   2.151  -1.089  1.00  0.00    -0.401 N 
ATOM     35  H1  UNL     1      -0.769   2.300  -0.084  1.00  0.00     0.158 HD
BRANCH  34  36
HETATM   36  C9  UNL     1      -1.046   3.173  -2.079  1.00  0.00     0.123 C 
BRANCH  36  37
HETATM   37  C10 UNL     1      -1.899   4.254  -1.403  1.00  0.00     0.058 C 
BRANCH  37  38
HETATM   38  C11 UNL     1      -1.120   5.147  -0.467  1.00  0.00    -0.057 A 
HETATM   39  C12 UNL     1      -0.628   6.384  -0.906  1.00  0.00     0.007 A 
HETATM   40  C13 UNL     1       0.100   7.204  -0.039  1.00  0.00     0.001 A 
HETATM   41  C14 UNL     1       0.345   6.794   1.271  1.00  0.00     0.000 A 
HETATM   42  C15 UNL     1      -0.138   5.566   1.716  1.00  0.00     0.001 A 
HETATM   43  C16 UNL     1      -0.864   4.745   0.852  1.00  0.00     0.007 A 
ENDBRANCH  37  38
ENDBRANCH  36  37
ENDBRANCH  34  36
ENDBRANCH   4  33
BRANCH  13  44
HETATM   44  O5  UNL     1      -4.203  -2.538  -1.209  1.00  0.00    -0.389 OA
HETATM   45  H37 UNL     1      -4.359  -1.819  -1.845  1.00  0.00     0.210 HD
ENDBRANCH  13  44
BRANCH  10  46
HETATM   46  C23 UNL     1      -6.353  -2.221   1.143  1.00  0.00    -0.045 A 
HETATM   47  C24 UNL     1      -6.838  -3.164   0.333  1.00  0.00     0.087 A 
HETATM   48  C25 UNL     1      -8.275  -2.930   0.208  1.00  0.00     0.283 A 
HETATM   49  O3  UNL     1      -9.034  -3.591  -0.476  1.00  0.00    -0.260 OA
HETATM   50  O4  UNL     1      -8.622  -1.860   0.972  1.00  0.00    -0.314 OA
HETATM   51  C26 UNL     1      -7.458  -1.353   1.621  1.00  0.00     0.213 A 
ENDBRANCH  10  46
TORSDOF 11
