MODEL 1
REMARK minimizedAffinity -9.1106863
REMARK  10 active torsions:
REMARK  status: ('A' for Active; 'I' for Inactive)
REMARK    1  A    between atoms: C5_5  and  C6_6 
REMARK    2  A    between atoms: C6_6  and  C8_8 
REMARK    3  A    between atoms: C8_8  and  O1_9 
REMARK    4  A    between atoms: C15_17  and  O3_18 
REMARK    5  A    between atoms: C18_21  and  O4_23 
REMARK    6  A    between atoms: O4_23  and  C20_24 
REMARK    7  A    between atoms: C20_24  and  C21_26 
REMARK    8  A    between atoms: C21_26  and  C22_27 
REMARK    9  A    between atoms: C21_26  and  O6_29 
REMARK   10  A    between atoms: O6_29  and  C24_30 
ROOT
HETATM    1  C1  UNL     1      -6.291   5.993  15.673  1.00  0.00     0.015 C 
HETATM    2  C2  UNL     1      -5.094   6.211  15.102  1.00  0.00    -0.082 C 
HETATM    3  C3  UNL     1      -3.818   6.173  15.887  1.00  0.00     0.034 C 
HETATM    4  C4  UNL     1      -3.195   7.557  15.827  1.00  0.00     0.010 C 
HETATM    5  C5  UNL     1      -2.808   8.042  14.409  1.00  0.00    -0.001 C 
HETATM    6  C9  UNL     1      -3.591   7.329  13.272  1.00  0.00     0.033 C 
HETATM    7  C10 UNL     1      -2.836   6.277  12.414  1.00  0.00     0.162 C 
HETATM    8  O2  UNL     1      -3.517   5.112  12.802  1.00  0.00    -0.376 OA
HETATM    9  C11 UNL     1      -4.898   5.360  12.713  1.00  0.00     0.134 C 
HETATM   10  C12 UNL     1      -5.458   3.963  12.955  1.00  0.00     0.068 C 
HETATM   11  C13 UNL     1      -4.865   2.975  11.902  1.00  0.00    -0.059 C 
HETATM   12  C14 UNL     1      -5.692   2.295  11.086  1.00  0.00     0.017 C 
HETATM   13  C15 UNL     1      -3.314   2.800  11.845  1.00  0.00     0.146 C 
HETATM   14  C16 UNL     1      -2.563   3.736  10.836  1.00  0.00     0.039 C 
HETATM   15  C17 UNL     1      -1.280   4.506  11.337  1.00  0.00     0.044 C 
HETATM   16  C18 UNL     1      -1.391   5.742  12.370  1.00  0.00     0.093 C 
HETATM   17  C19 UNL     1      -0.906   5.193  13.731  1.00  0.00     0.049 C 
HETATM   18  C26 UNL     1      -4.958   6.577  13.645  1.00  0.00     0.050 C 
ENDROOT
BRANCH  16  19
HETATM   19  O4  UNL     1      -0.404   6.760  12.046  1.00  0.00    -0.306 OA
BRANCH  19  20
HETATM   20  C20 UNL     1       0.804   6.421  11.512  1.00  0.00     0.289 C 
HETATM   21  O5  UNL     1       1.783   6.093  12.167  1.00  0.00    -0.262 OA
BRANCH  20  22
HETATM   22  C21 UNL     1       0.774   6.566   9.984  1.00  0.00     0.231 C 
BRANCH  22  23
HETATM   23  C22 UNL     1       1.009   8.016   9.545  1.00  0.00     0.038 C 
HETATM   24  C23 UNL     1      -0.231   8.663   8.943  1.00  0.00     0.008 C 
ENDBRANCH  22  23
BRANCH  22  25
HETATM   25  O6  UNL     1       1.833   5.748   9.442  1.00  0.00    -0.306 OA
BRANCH  25  26
HETATM   26  C24 UNL     1       2.785   6.409   8.733  1.00  0.00     0.255 C 
HETATM   27  C25 UNL     1       2.412   6.447   7.284  1.00  0.00     0.126 C 
HETATM   28  O7  UNL     1       3.814   6.880   9.196  1.00  0.00    -0.266 OA
ENDBRANCH  25  26
ENDBRANCH  22  25
ENDBRANCH  20  22
ENDBRANCH  19  20
ENDBRANCH  16  19
BRANCH   5  29
HETATM   29  C6  UNL     1      -2.923   9.610  14.305  1.00  0.00     0.010 C 
HETATM   30  C7  UNL     1      -4.002  10.192  15.237  1.00  0.00     0.012 C 
BRANCH  29  31
HETATM   31  C8  UNL     1      -1.592  10.337  14.591  1.00  0.00     0.168 C 
BRANCH  31  32
HETATM   32  O1  UNL     1      -1.380  11.430  13.706  1.00  0.00    -0.400 OA
HETATM   33  H14 UNL     1      -2.094  12.077  13.834  1.00  0.00     0.209 HD
ENDBRANCH  31  32
ENDBRANCH  29  31
ENDBRANCH   5  29
BRANCH  13  34
HETATM   34  O3  UNL     1      -3.020   1.448  11.462  1.00  0.00    -0.391 OA
HETATM   35  H23 UNL     1      -3.568   0.882  12.034  1.00  0.00     0.210 HD
ENDBRANCH  13  34
TORSDOF 10
ENDMDL
MODEL 2
REMARK minimizedAffinity -7.95887136
REMARK  10 active torsions:
REMARK  status: ('A' for Active; 'I' for Inactive)
REMARK    1  A    between atoms: C5_5  and  C6_6 
REMARK    2  A    between atoms: C6_6  and  C8_8 
REMARK    3  A    between atoms: C8_8  and  O1_9 
REMARK    4  A    between atoms: C15_17  and  O3_18 
REMARK    5  A    between atoms: C18_21  and  O4_23 
REMARK    6  A    between atoms: O4_23  and  C20_24 
REMARK    7  A    between atoms: C20_24  and  C21_26 
REMARK    8  A    between atoms: C21_26  and  C22_27 
REMARK    9  A    between atoms: C21_26  and  O6_29 
REMARK   10  A    between atoms: O6_29  and  C24_30 
ROOT
HETATM    1  C1  UNL     1       1.862   6.907  12.084  1.00  0.00     0.015 C 
HETATM    2  C2  UNL     1       0.656   6.987  12.670  1.00  0.00    -0.082 C 
HETATM    3  C3  UNL     1      -0.278   8.133  12.420  1.00  0.00     0.034 C 
HETATM    4  C4  UNL     1      -0.485   8.858  13.739  1.00  0.00     0.010 C 
HETATM    5  C5  UNL     1      -1.140   8.012  14.857  1.00  0.00    -0.001 C 
HETATM    6  C9  UNL     1      -0.970   6.480  14.660  1.00  0.00     0.033 C 
HETATM    7  C10 UNL     1      -2.209   5.661  14.207  1.00  0.00     0.162 C 
HETATM    8  O2  UNL     1      -1.788   5.271  12.926  1.00  0.00    -0.376 OA
HETATM    9  C11 UNL     1      -0.489   4.745  13.031  1.00  0.00     0.134 C 
HETATM   10  C12 UNL     1      -0.287   4.191  11.625  1.00  0.00     0.068 C 
HETATM   11  C13 UNL     1      -1.420   3.168  11.300  1.00  0.00    -0.059 C 
HETATM   12  C14 UNL     1      -1.103   1.901  10.980  1.00  0.00     0.017 C 
HETATM   13  C15 UNL     1      -2.900   3.669  11.345  1.00  0.00     0.146 C 
HETATM   14  C16 UNL     1      -3.638   3.480  12.715  1.00  0.00     0.039 C 
HETATM   15  C17 UNL     1      -4.442   4.700  13.309  1.00  0.00     0.044 C 
HETATM   16  C18 UNL     1      -3.687   5.991  13.916  1.00  0.00     0.093 C 
HETATM   17  C19 UNL     1      -3.861   7.110  12.864  1.00  0.00     0.049 C 
HETATM   18  C26 UNL     1       0.185   5.964  13.673  1.00  0.00     0.050 C 
ENDROOT
BRANCH  16  19
HETATM   19  O4  UNL     1      -4.406   6.501  15.073  1.00  0.00    -0.306 OA
BRANCH  19  20
HETATM   20  C20 UNL     1      -5.539   7.245  14.921  1.00  0.00     0.289 C 
HETATM   21  O5  UNL     1      -5.562   8.466  14.861  1.00  0.00    -0.262 OA
BRANCH  20  22
HETATM   22  C21 UNL     1      -6.777   6.337  14.896  1.00  0.00     0.231 C 
BRANCH  22  23
HETATM   23  C22 UNL     1      -7.369   6.145  16.297  1.00  0.00     0.038 C 
HETATM   24  C23 UNL     1      -8.261   7.300  16.730  1.00  0.00     0.008 C 
ENDBRANCH  22  23
BRANCH  22  25
HETATM   25  O6  UNL     1      -7.773   6.971  14.064  1.00  0.00    -0.306 OA
BRANCH  25  26
HETATM   26  C24 UNL     1      -8.675   6.137  13.484  1.00  0.00     0.255 C 
HETATM   27  C25 UNL     1      -7.969   4.974  12.858  1.00  0.00     0.126 C 
HETATM   28  O7  UNL     1      -9.883   6.315  13.447  1.00  0.00    -0.266 OA
ENDBRANCH  25  26
ENDBRANCH  22  25
ENDBRANCH  20  22
ENDBRANCH  19  20
ENDBRANCH  16  19
BRANCH   5  29
HETATM   29  C6  UNL     1      -0.637   8.479  16.276  1.00  0.00     0.010 C 
HETATM   30  C7  UNL     1       0.821   8.974  16.260  1.00  0.00     0.012 C 
BRANCH  29  31
HETATM   31  C8  UNL     1      -1.518   9.584  16.899  1.00  0.00     0.168 C 
BRANCH  31  32
HETATM   32  O1  UNL     1      -2.621   9.046  17.617  1.00  0.00    -0.400 OA
HETATM   33  H14 UNL     1      -2.281   8.503  18.348  1.00  0.00     0.209 HD
ENDBRANCH  31  32
ENDBRANCH  29  31
ENDBRANCH   5  29
BRANCH  13  34
HETATM   34  O3  UNL     1      -3.655   2.948  10.359  1.00  0.00    -0.391 OA
HETATM   35  H23 UNL     1      -3.136   2.993   9.537  1.00  0.00     0.210 HD
ENDBRANCH  13  34
TORSDOF 10
ENDMDL
MODEL 3
REMARK minimizedAffinity -7.83826113
REMARK  10 active torsions:
REMARK  status: ('A' for Active; 'I' for Inactive)
REMARK    1  A    between atoms: C5_5  and  C6_6 
REMARK    2  A    between atoms: C6_6  and  C8_8 
REMARK    3  A    between atoms: C8_8  and  O1_9 
REMARK    4  A    between atoms: C15_17  and  O3_18 
REMARK    5  A    between atoms: C18_21  and  O4_23 
REMARK    6  A    between atoms: O4_23  and  C20_24 
REMARK    7  A    between atoms: C20_24  and  C21_26 
REMARK    8  A    between atoms: C21_26  and  C22_27 
REMARK    9  A    between atoms: C21_26  and  O6_29 
REMARK   10  A    between atoms: O6_29  and  C24_30 
ROOT
HETATM    1  C1  UNL     1       5.435   8.013  10.769  1.00  0.00     0.015 C 
HETATM    2  C2  UNL     1       4.180   7.540  10.861  1.00  0.00    -0.082 C 
HETATM    3  C3  UNL     1       3.855   6.093  10.643  1.00  0.00     0.034 C 
HETATM    4  C4  UNL     1       2.941   6.000   9.433  1.00  0.00     0.010 C 
HETATM    5  C5  UNL     1       1.581   6.723   9.582  1.00  0.00    -0.001 C 
HETATM    6  C9  UNL     1       1.588   7.850  10.652  1.00  0.00     0.033 C 
HETATM    7  C10 UNL     1       0.859   7.583  11.997  1.00  0.00     0.162 C 
HETATM    8  O2  UNL     1       1.957   7.565  12.871  1.00  0.00    -0.376 OA
HETATM    9  C11 UNL     1       2.745   8.700  12.611  1.00  0.00     0.134 C 
HETATM   10  C12 UNL     1       3.741   8.630  13.762  1.00  0.00     0.068 C 
HETATM   11  C13 UNL     1       2.971   8.621  15.119  1.00  0.00    -0.059 C 
HETATM   12  C14 UNL     1       3.210   9.585  16.027  1.00  0.00     0.017 C 
HETATM   13  C15 UNL     1       1.948   7.469  15.379  1.00  0.00     0.146 C 
HETATM   14  C16 UNL     1       0.465   7.774  14.968  1.00  0.00     0.039 C 
HETATM   15  C17 UNL     1      -0.318   6.693  14.127  1.00  0.00     0.044 C 
HETATM   16  C18 UNL     1       0.034   6.416  12.576  1.00  0.00     0.093 C 
HETATM   17  C19 UNL     1       0.792   5.069  12.554  1.00  0.00     0.049 C 
HETATM   18  C26 UNL     1       3.002   8.446  11.120  1.00  0.00     0.050 C 
ENDROOT
BRANCH  16  19
HETATM   19  O4  UNL     1      -1.179   6.134  11.826  1.00  0.00    -0.306 OA
BRANCH  19  20
HETATM   20  C20 UNL     1      -1.651   4.859  11.710  1.00  0.00     0.289 C 
HETATM   21  O5  UNL     1      -1.314   4.072  10.837  1.00  0.00    -0.262 OA
BRANCH  20  22
HETATM   22  C21 UNL     1      -2.702   4.577  12.793  1.00  0.00     0.231 C 
BRANCH  22  23
HETATM   23  C22 UNL     1      -3.786   5.661  12.829  1.00  0.00     0.038 C 
HETATM   24  C23 UNL     1      -3.884   6.358  14.179  1.00  0.00     0.008 C 
ENDBRANCH  22  23
BRANCH  22  25
HETATM   25  O6  UNL     1      -3.330   3.315  12.481  1.00  0.00    -0.306 OA
BRANCH  25  26
HETATM   26  C24 UNL     1      -4.643   3.377  12.139  1.00  0.00     0.255 C 
HETATM   27  C25 UNL     1      -4.791   3.250  10.654  1.00  0.00     0.126 C 
HETATM   28  O7  UNL     1      -5.571   3.543  12.915  1.00  0.00    -0.266 OA
ENDBRANCH  25  26
ENDBRANCH  22  25
ENDBRANCH  20  22
ENDBRANCH  19  20
ENDBRANCH  16  19
BRANCH   5  29
HETATM   29  C6  UNL     1       1.073   7.246   8.185  1.00  0.00     0.010 C 
HETATM   30  C7  UNL     1       0.142   8.466   8.306  1.00  0.00     0.012 C 
BRANCH  29  31
HETATM   31  C8  UNL     1       2.221   7.608   7.217  1.00  0.00     0.168 C 
BRANCH  31  32
HETATM   32  O1  UNL     1       2.848   8.835   7.568  1.00  0.00    -0.400 OA
HETATM   33  H14 UNL     1       3.238   8.743   8.454  1.00  0.00     0.209 HD
ENDBRANCH  31  32
ENDBRANCH  29  31
ENDBRANCH   5  29
BRANCH  13  34
HETATM   34  O3  UNL     1       1.942   7.173  16.784  1.00  0.00    -0.391 OA
HETATM   35  H23 UNL     1       2.875   7.082  17.043  1.00  0.00     0.210 HD
ENDBRANCH  13  34
TORSDOF 10
ENDMDL
MODEL 4
REMARK minimizedAffinity -7.81851435
REMARK  10 active torsions:
REMARK  status: ('A' for Active; 'I' for Inactive)
REMARK    1  A    between atoms: C5_5  and  C6_6 
REMARK    2  A    between atoms: C6_6  and  C8_8 
REMARK    3  A    between atoms: C8_8  and  O1_9 
REMARK    4  A    between atoms: C15_17  and  O3_18 
REMARK    5  A    between atoms: C18_21  and  O4_23 
REMARK    6  A    between atoms: O4_23  and  C20_24 
REMARK    7  A    between atoms: C20_24  and  C21_26 
REMARK    8  A    between atoms: C21_26  and  C22_27 
REMARK    9  A    between atoms: C21_26  and  O6_29 
REMARK   10  A    between atoms: O6_29  and  C24_30 
ROOT
HETATM    1  C1  UNL     1       0.285   7.916  12.335  1.00  0.00     0.015 C 
HETATM    2  C2  UNL     1      -0.935   7.774  12.880  1.00  0.00    -0.082 C 
HETATM    3  C3  UNL     1      -2.036   8.761  12.637  1.00  0.00     0.034 C 
HETATM    4  C4  UNL     1      -2.399   9.389  13.971  1.00  0.00     0.010 C 
HETATM    5  C5  UNL     1      -2.939   8.403  15.035  1.00  0.00    -0.001 C 
HETATM    6  C9  UNL     1      -2.513   6.929  14.792  1.00  0.00     0.033 C 
HETATM    7  C10 UNL     1      -3.586   5.936  14.266  1.00  0.00     0.162 C 
HETATM    8  O2  UNL     1      -3.068   5.672  12.988  1.00  0.00    -0.376 OA
HETATM    9  C11 UNL     1      -1.704   5.362  13.121  1.00  0.00     0.134 C 
HETATM   10  C12 UNL     1      -1.371   4.906  11.706  1.00  0.00     0.068 C 
HETATM   11  C13 UNL     1      -2.310   3.725  11.304  1.00  0.00    -0.059 C 
HETATM   12  C14 UNL     1      -1.778   2.541  10.952  1.00  0.00     0.017 C 
HETATM   13  C15 UNL     1      -3.853   3.974  11.313  1.00  0.00     0.146 C 
HETATM   14  C16 UNL     1      -4.590   3.613  12.649  1.00  0.00     0.039 C 
HETATM   15  C17 UNL     1      -5.602   4.660  13.255  1.00  0.00     0.044 C 
HETATM   16  C18 UNL     1      -5.089   6.032  13.934  1.00  0.00     0.093 C 
HETATM   17  C19 UNL     1      -5.413   7.148  12.915  1.00  0.00     0.049 C 
HETATM   18  C26 UNL     1      -1.260   6.648  13.829  1.00  0.00     0.050 C 
ENDROOT
BRANCH  16  19
HETATM   19  O4  UNL     1      -5.916   6.369  15.081  1.00  0.00    -0.306 OA
BRANCH  19  20
HETATM   20  C20 UNL     1      -7.177   5.864  15.208  1.00  0.00     0.289 C 
HETATM   21  O5  UNL     1      -7.446   4.804  15.754  1.00  0.00    -0.262 OA
BRANCH  20  22
HETATM   22  C21 UNL     1      -8.195   6.785  14.521  1.00  0.00     0.231 C 
BRANCH  22  23
HETATM   23  C22 UNL     1      -9.166   5.997  13.633  1.00  0.00     0.038 C 
HETATM   24  C23 UNL     1      -8.626   5.757  12.230  1.00  0.00     0.008 C 
ENDBRANCH  22  23
BRANCH  22  25
HETATM   25  O6  UNL     1      -8.957   7.449  15.552  1.00  0.00    -0.306 OA
BRANCH  25  26
HETATM   26  C24 UNL     1      -9.296   8.739  15.298  1.00  0.00     0.255 C 
HETATM   27  C25 UNL     1     -10.781   8.858  15.144  1.00  0.00     0.126 C 
HETATM   28  O7  UNL     1      -8.511   9.668  15.179  1.00  0.00    -0.266 OA
ENDBRANCH  25  26
ENDBRANCH  22  25
ENDBRANCH  20  22
ENDBRANCH  19  20
ENDBRANCH  16  19
BRANCH   5  29
HETATM   29  C6  UNL     1      -2.563   8.888  16.486  1.00  0.00     0.010 C 
HETATM   30  C7  UNL     1      -1.078   9.271  16.622  1.00  0.00     0.012 C 
BRANCH  29  31
HETATM   31  C8  UNL     1      -3.417  10.081  16.969  1.00  0.00     0.168 C 
BRANCH  31  32
HETATM   32  O1  UNL     1      -3.652  10.036  18.370  1.00  0.00    -0.400 OA
HETATM   33  H14 UNL     1      -2.798  10.090  18.831  1.00  0.00     0.209 HD
ENDBRANCH  31  32
ENDBRANCH  29  31
ENDBRANCH   5  29
BRANCH  13  34
HETATM   34  O3  UNL     1      -4.449   3.180  10.276  1.00  0.00    -0.391 OA
HETATM   35  H23 UNL     1      -3.920   3.342   9.476  1.00  0.00     0.210 HD
ENDBRANCH  13  34
TORSDOF 10
ENDMDL
MODEL 5
REMARK minimizedAffinity -7.73886061
REMARK  10 active torsions:
REMARK  status: ('A' for Active; 'I' for Inactive)
REMARK    1  A    between atoms: C5_5  and  C6_6 
REMARK    2  A    between atoms: C6_6  and  C8_8 
REMARK    3  A    between atoms: C8_8  and  O1_9 
REMARK    4  A    between atoms: C15_17  and  O3_18 
REMARK    5  A    between atoms: C18_21  and  O4_23 
REMARK    6  A    between atoms: O4_23  and  C20_24 
REMARK    7  A    between atoms: C20_24  and  C21_26 
REMARK    8  A    between atoms: C21_26  and  C22_27 
REMARK    9  A    between atoms: C21_26  and  O6_29 
REMARK   10  A    between atoms: O6_29  and  C24_30 
ROOT
HETATM    1  C1  UNL     1      -6.147   6.059  15.675  1.00  0.00     0.015 C 
HETATM    2  C2  UNL     1      -4.967   6.236  15.057  1.00  0.00    -0.082 C 
HETATM    3  C3  UNL     1      -3.664   6.184  15.796  1.00  0.00     0.034 C 
HETATM    4  C4  UNL     1      -3.012   7.552  15.683  1.00  0.00     0.010 C 
HETATM    5  C5  UNL     1      -2.666   7.996  14.241  1.00  0.00    -0.001 C 
HETATM    6  C9  UNL     1      -3.506   7.278  13.149  1.00  0.00     0.033 C 
HETATM    7  C10 UNL     1      -2.808   6.189  12.289  1.00  0.00     0.162 C 
HETATM    8  O2  UNL     1      -3.501   5.050  12.727  1.00  0.00    -0.376 OA
HETATM    9  C11 UNL     1      -4.878   5.328  12.683  1.00  0.00     0.134 C 
HETATM   10  C12 UNL     1      -5.461   3.951  12.975  1.00  0.00     0.068 C 
HETATM   11  C13 UNL     1      -4.930   2.926  11.925  1.00  0.00    -0.059 C 
HETATM   12  C14 UNL     1      -5.802   2.249  11.155  1.00  0.00     0.017 C 
HETATM   13  C15 UNL     1      -3.386   2.713  11.816  1.00  0.00     0.146 C 
HETATM   14  C16 UNL     1      -2.651   3.609  10.759  1.00  0.00     0.039 C 
HETATM   15  C17 UNL     1      -1.334   4.358  11.196  1.00  0.00     0.044 C 
HETATM   16  C18 UNL     1      -1.378   5.619  12.204  1.00  0.00     0.093 C 
HETATM   17  C19 UNL     1      -0.857   5.088  13.560  1.00  0.00     0.049 C 
HETATM   18  C26 UNL     1      -4.875   6.566  13.588  1.00  0.00     0.050 C 
ENDROOT
BRANCH  16  19
HETATM   19  O4  UNL     1      -0.380   6.606  11.823  1.00  0.00    -0.306 OA
BRANCH  19  20
HETATM   20  C20 UNL     1       0.942   6.406  12.090  1.00  0.00     0.289 C 
HETATM   21  O5  UNL     1       1.581   5.428  11.728  1.00  0.00    -0.262 OA
BRANCH  20  22
HETATM   22  C21 UNL     1       1.493   7.549  12.953  1.00  0.00     0.231 C 
BRANCH  22  23
HETATM   23  C22 UNL     1       1.820   7.081  14.376  1.00  0.00     0.038 C 
HETATM   24  C23 UNL     1       0.883   7.665  15.424  1.00  0.00     0.008 C 
ENDBRANCH  22  23
BRANCH  22  25
HETATM   25  O6  UNL     1       2.712   8.020  12.337  1.00  0.00    -0.306 OA
BRANCH  25  26
HETATM   26  C24 UNL     1       3.483   8.835  13.102  1.00  0.00     0.255 C 
HETATM   27  C25 UNL     1       2.830  10.176  13.242  1.00  0.00     0.126 C 
HETATM   28  O7  UNL     1       4.566   8.539  13.585  1.00  0.00    -0.266 OA
ENDBRANCH  25  26
ENDBRANCH  22  25
ENDBRANCH  20  22
ENDBRANCH  19  20
ENDBRANCH  16  19
BRANCH   5  29
HETATM   29  C6  UNL     1      -2.748   9.563  14.106  1.00  0.00     0.010 C 
HETATM   30  C7  UNL     1      -3.590  10.215  15.218  1.00  0.00     0.012 C 
BRANCH  29  31
HETATM   31  C8  UNL     1      -1.363  10.245  14.084  1.00  0.00     0.168 C 
BRANCH  31  32
HETATM   32  O1  UNL     1      -1.439  11.593  13.639  1.00  0.00    -0.400 OA
HETATM   33  H14 UNL     1      -1.996  12.095  14.259  1.00  0.00     0.209 HD
ENDBRANCH  31  32
ENDBRANCH  29  31
ENDBRANCH   5  29
BRANCH  13  34
HETATM   34  O3  UNL     1      -3.139   1.346  11.453  1.00  0.00    -0.391 OA
HETATM   35  H23 UNL     1      -3.678   0.806  12.057  1.00  0.00     0.210 HD
ENDBRANCH  13  34
TORSDOF 10
ENDMDL
MODEL 6
REMARK minimizedAffinity -7.6821475
REMARK  10 active torsions:
REMARK  status: ('A' for Active; 'I' for Inactive)
REMARK    1  A    between atoms: C5_5  and  C6_6 
REMARK    2  A    between atoms: C6_6  and  C8_8 
REMARK    3  A    between atoms: C8_8  and  O1_9 
REMARK    4  A    between atoms: C15_17  and  O3_18 
REMARK    5  A    between atoms: C18_21  and  O4_23 
REMARK    6  A    between atoms: O4_23  and  C20_24 
REMARK    7  A    between atoms: C20_24  and  C21_26 
REMARK    8  A    between atoms: C21_26  and  C22_27 
REMARK    9  A    between atoms: C21_26  and  O6_29 
REMARK   10  A    between atoms: O6_29  and  C24_30 
ROOT
HETATM    1  C1  UNL     1       6.001   7.527  10.603  1.00  0.00     0.015 C 
HETATM    2  C2  UNL     1       4.674   7.353  10.721  1.00  0.00    -0.082 C 
HETATM    3  C3  UNL     1       4.016   6.034  10.447  1.00  0.00     0.034 C 
HETATM    4  C4  UNL     1       3.072   6.222   9.272  1.00  0.00     0.010 C 
HETATM    5  C5  UNL     1       1.922   7.230   9.508  1.00  0.00    -0.001 C 
HETATM    6  C9  UNL     1       2.220   8.264  10.630  1.00  0.00     0.033 C 
HETATM    7  C10 UNL     1       1.486   8.098  11.989  1.00  0.00     0.162 C 
HETATM    8  O2  UNL     1       2.573   7.777  12.816  1.00  0.00    -0.376 OA
HETATM    9  C11 UNL     1       3.596   8.712  12.580  1.00  0.00     0.134 C 
HETATM   10  C12 UNL     1       4.580   8.350  13.686  1.00  0.00     0.068 C 
HETATM   11  C13 UNL     1       3.866   8.444  15.071  1.00  0.00    -0.059 C 
HETATM   12  C14 UNL     1       4.347   9.274  16.014  1.00  0.00     0.017 C 
HETATM   13  C15 UNL     1       2.611   7.546  15.316  1.00  0.00     0.146 C 
HETATM   14  C16 UNL     1       1.229   8.207  14.979  1.00  0.00     0.039 C 
HETATM   15  C17 UNL     1       0.193   7.385  14.119  1.00  0.00     0.044 C 
HETATM   16  C18 UNL     1       0.428   7.122  12.544  1.00  0.00     0.093 C 
HETATM   17  C19 UNL     1       0.852   5.640  12.427  1.00  0.00     0.049 C 
HETATM   18  C26 UNL     1       3.746   8.490  11.070  1.00  0.00     0.050 C 
ENDROOT
BRANCH  16  19
HETATM   19  O4  UNL     1      -0.837   7.169  11.829  1.00  0.00    -0.306 OA
BRANCH  19  20
HETATM   20  C20 UNL     1      -1.763   8.131  12.107  1.00  0.00     0.289 C 
HETATM   21  O5  UNL     1      -1.734   9.270  11.662  1.00  0.00    -0.262 OA
BRANCH  20  22
HETATM   22  C21 UNL     1      -2.809   7.598  13.096  1.00  0.00     0.231 C 
BRANCH  22  23
HETATM   23  C22 UNL     1      -4.128   8.374  13.003  1.00  0.00     0.038 C 
HETATM   24  C23 UNL     1      -4.427   9.188  14.254  1.00  0.00     0.008 C 
ENDBRANCH  22  23
BRANCH  22  25
HETATM   25  O6  UNL     1      -3.068   6.216  12.764  1.00  0.00    -0.306 OA
BRANCH  25  26
HETATM   26  C24 UNL     1      -3.809   5.521  13.666  1.00  0.00     0.255 C 
HETATM   27  C25 UNL     1      -4.963   4.860  12.979  1.00  0.00     0.126 C 
HETATM   28  O7  UNL     1      -3.591   5.463  14.867  1.00  0.00    -0.266 OA
ENDBRANCH  25  26
ENDBRANCH  22  25
ENDBRANCH  20  22
ENDBRANCH  19  20
ENDBRANCH  16  19
BRANCH   5  29
HETATM   29  C6  UNL     1       1.512   7.934   8.159  1.00  0.00     0.010 C 
HETATM   30  C7  UNL     1       2.030   7.189   6.915  1.00  0.00     0.012 C 
BRANCH  29  31
HETATM   31  C8  UNL     1      -0.014   8.122   8.011  1.00  0.00     0.168 C 
BRANCH  31  32
HETATM   32  O1  UNL     1      -0.499   9.194   8.809  1.00  0.00    -0.400 OA
HETATM   33  H14 UNL     1      -0.079  10.018   8.511  1.00  0.00     0.209 HD
ENDBRANCH  31  32
ENDBRANCH  29  31
ENDBRANCH   5  29
BRANCH  13  34
HETATM   34  O3  UNL     1       2.575   7.181  16.704  1.00  0.00    -0.391 OA
HETATM   35  H23 UNL     1       3.468   6.864  16.921  1.00  0.00     0.210 HD
ENDBRANCH  13  34
TORSDOF 10
ENDMDL
MODEL 7
REMARK minimizedAffinity -7.65940571
REMARK  10 active torsions:
REMARK  status: ('A' for Active; 'I' for Inactive)
REMARK    1  A    between atoms: C5_5  and  C6_6 
REMARK    2  A    between atoms: C6_6  and  C8_8 
REMARK    3  A    between atoms: C8_8  and  O1_9 
REMARK    4  A    between atoms: C15_17  and  O3_18 
REMARK    5  A    between atoms: C18_21  and  O4_23 
REMARK    6  A    between atoms: O4_23  and  C20_24 
REMARK    7  A    between atoms: C20_24  and  C21_26 
REMARK    8  A    between atoms: C21_26  and  C22_27 
REMARK    9  A    between atoms: C21_26  and  O6_29 
REMARK   10  A    between atoms: O6_29  and  C24_30 
ROOT
HETATM    1  C1  UNL     1      -3.414   7.165  16.137  1.00  0.00     0.015 C 
HETATM    2  C2  UNL     1      -2.759   7.063  14.969  1.00  0.00    -0.082 C 
HETATM    3  C3  UNL     1      -3.352   7.540  13.677  1.00  0.00     0.034 C 
HETATM    4  C4  UNL     1      -3.513   6.334  12.768  1.00  0.00     0.010 C 
HETATM    5  C5  UNL     1      -2.195   5.616  12.390  1.00  0.00    -0.001 C 
HETATM    6  C9  UNL     1      -1.038   5.869  13.396  1.00  0.00     0.033 C 
HETATM    7  C10 UNL     1       0.113   6.819  12.962  1.00  0.00     0.162 C 
HETATM    8  O2  UNL     1      -0.099   7.881  13.854  1.00  0.00    -0.376 OA
HETATM    9  C11 UNL     1      -0.238   7.349  15.148  1.00  0.00     0.134 C 
HETATM   10  C12 UNL     1      -0.242   8.622  15.986  1.00  0.00     0.068 C 
HETATM   11  C13 UNL     1       1.063   9.432  15.710  1.00  0.00    -0.059 C 
HETATM   12  C14 UNL     1       1.895   9.721  16.727  1.00  0.00     0.017 C 
HETATM   13  C15 UNL     1       1.348   9.895  14.246  1.00  0.00     0.146 C 
HETATM   14  C16 UNL     1       2.219   8.917  13.383  1.00  0.00     0.039 C 
HETATM   15  C17 UNL     1       1.728   8.560  11.927  1.00  0.00     0.044 C 
HETATM   16  C18 UNL     1       0.450   7.606  11.680  1.00  0.00     0.093 C 
HETATM   17  C19 UNL     1      -0.692   8.547  11.230  1.00  0.00     0.049 C 
HETATM   18  C26 UNL     1      -1.408   6.399  14.864  1.00  0.00     0.050 C 
ENDROOT
BRANCH  16  19
HETATM   19  O4  UNL     1       0.668   6.759  10.519  1.00  0.00    -0.306 OA
BRANCH  19  20
HETATM   20  C20 UNL     1       1.754   5.937  10.445  1.00  0.00     0.289 C 
HETATM   21  O5  UNL     1       1.780   4.785  10.853  1.00  0.00    -0.262 OA
BRANCH  20  22
HETATM   22  C21 UNL     1       2.948   6.682   9.832  1.00  0.00     0.231 C 
BRANCH  22  23
HETATM   23  C22 UNL     1       4.277   5.989  10.155  1.00  0.00     0.038 C 
HETATM   24  C23 UNL     1       5.053   6.681  11.267  1.00  0.00     0.008 C 
ENDBRANCH  22  23
BRANCH  22  25
HETATM   25  O6  UNL     1       2.775   6.691   8.398  1.00  0.00    -0.306 OA
BRANCH  25  26
HETATM   26  C24 UNL     1       2.437   7.888   7.852  1.00  0.00     0.255 C 
HETATM   27  C25 UNL     1       0.979   7.900   7.508  1.00  0.00     0.126 C 
HETATM   28  O7  UNL     1       3.206   8.812   7.639  1.00  0.00    -0.266 OA
ENDBRANCH  25  26
ENDBRANCH  22  25
ENDBRANCH  20  22
ENDBRANCH  19  20
ENDBRANCH  16  19
BRANCH   5  29
HETATM   29  C6  UNL     1      -2.444   4.078  12.160  1.00  0.00     0.010 C 
HETATM   30  C7  UNL     1      -3.938   3.707  12.165  1.00  0.00     0.012 C 
BRANCH  29  31
HETATM   31  C8  UNL     1      -1.818   3.550  10.851  1.00  0.00     0.168 C 
BRANCH  31  32
HETATM   32  O1  UNL     1      -2.413   2.329  10.429  1.00  0.00    -0.400 OA
HETATM   33  H14 UNL     1      -3.356   2.487  10.253  1.00  0.00     0.209 HD
ENDBRANCH  31  32
ENDBRANCH  29  31
ENDBRANCH   5  29
BRANCH  13  34
HETATM   34  O3  UNL     1       2.045  11.150  14.291  1.00  0.00    -0.391 OA
HETATM   35  H23 UNL     1       1.544  11.713  14.906  1.00  0.00     0.210 HD
ENDBRANCH  13  34
TORSDOF 10
ENDMDL
MODEL 8
REMARK minimizedAffinity -7.65680456
REMARK  10 active torsions:
REMARK  status: ('A' for Active; 'I' for Inactive)
REMARK    1  A    between atoms: C5_5  and  C6_6 
REMARK    2  A    between atoms: C6_6  and  C8_8 
REMARK    3  A    between atoms: C8_8  and  O1_9 
REMARK    4  A    between atoms: C15_17  and  O3_18 
REMARK    5  A    between atoms: C18_21  and  O4_23 
REMARK    6  A    between atoms: O4_23  and  C20_24 
REMARK    7  A    between atoms: C20_24  and  C21_26 
REMARK    8  A    between atoms: C21_26  and  C22_27 
REMARK    9  A    between atoms: C21_26  and  O6_29 
REMARK   10  A    between atoms: O6_29  and  C24_30 
ROOT
HETATM    1  C1  UNL     1       6.418   9.943  10.113  1.00  0.00     0.015 C 
HETATM    2  C2  UNL     1       5.476   9.500  10.962  1.00  0.00    -0.082 C 
HETATM    3  C3  UNL     1       4.833  10.396  11.978  1.00  0.00     0.034 C 
HETATM    4  C4  UNL     1       5.181   9.858  13.356  1.00  0.00     0.010 C 
HETATM    5  C5  UNL     1       4.657   8.433  13.654  1.00  0.00    -0.001 C 
HETATM    6  C9  UNL     1       4.372   7.593  12.378  1.00  0.00     0.033 C 
HETATM    7  C10 UNL     1       2.891   7.353  11.979  1.00  0.00     0.162 C 
HETATM    8  O2  UNL     1       2.838   8.089  10.785  1.00  0.00    -0.376 OA
HETATM    9  C11 UNL     1       3.939   7.721   9.992  1.00  0.00     0.134 C 
HETATM   10  C12 UNL     1       3.608   8.436   8.687  1.00  0.00     0.068 C 
HETATM   11  C13 UNL     1       2.207   7.971   8.179  1.00  0.00    -0.059 C 
HETATM   12  C14 UNL     1       2.093   7.403   6.965  1.00  0.00     0.017 C 
HETATM   13  C15 UNL     1       0.972   8.201   9.108  1.00  0.00     0.146 C 
HETATM   14  C16 UNL     1       0.607   7.008  10.058  1.00  0.00     0.039 C 
HETATM   15  C17 UNL     1       0.330   7.317  11.580  1.00  0.00     0.044 C 
HETATM   16  C18 UNL     1       1.524   7.727  12.587  1.00  0.00     0.093 C 
HETATM   17  C19 UNL     1       1.364   9.246  12.827  1.00  0.00     0.049 C 
HETATM   18  C26 UNL     1       5.048   8.054  10.998  1.00  0.00     0.050 C 
ENDROOT
BRANCH  16  19
HETATM   19  O4  UNL     1       1.296   7.151  13.902  1.00  0.00    -0.306 OA
BRANCH  19  20
HETATM   20  C20 UNL     1       0.230   7.535  14.661  1.00  0.00     0.289 C 
HETATM   21  O5  UNL     1       0.316   8.111  15.736  1.00  0.00    -0.262 OA
BRANCH  20  22
HETATM   22  C21 UNL     1      -1.083   7.091  14.001  1.00  0.00     0.231 C 
BRANCH  22  23
HETATM   23  C22 UNL     1      -1.482   5.673  14.426  1.00  0.00     0.038 C 
HETATM   24  C23 UNL     1      -2.845   5.616  15.103  1.00  0.00     0.008 C 
ENDBRANCH  22  23
BRANCH  22  25
HETATM   25  O6  UNL     1      -2.121   8.002  14.425  1.00  0.00    -0.306 OA
BRANCH  25  26
HETATM   26  C24 UNL     1      -2.588   8.850  13.472  1.00  0.00     0.255 C 
HETATM   27  C25 UNL     1      -3.989   8.476  13.096  1.00  0.00     0.126 C 
HETATM   28  O7  UNL     1      -1.956   9.766  12.967  1.00  0.00    -0.266 OA
ENDBRANCH  25  26
ENDBRANCH  22  25
ENDBRANCH  20  22
ENDBRANCH  19  20
ENDBRANCH  16  19
BRANCH   5  29
HETATM   29  C6  UNL     1       5.625   7.681  14.645  1.00  0.00     0.010 C 
HETATM   30  C7  UNL     1       6.730   6.893  13.918  1.00  0.00     0.012 C 
BRANCH  29  31
HETATM   31  C8  UNL     1       6.294   8.620  15.671  1.00  0.00     0.168 C 
BRANCH  31  32
HETATM   32  O1  UNL     1       7.173   7.920  16.542  1.00  0.00    -0.400 OA
HETATM   33  H14 UNL     1       7.884   7.521  16.012  1.00  0.00     0.209 HD
ENDBRANCH  31  32
ENDBRANCH  29  31
ENDBRANCH   5  29
BRANCH  13  34
HETATM   34  O3  UNL     1      -0.178   8.449   8.285  1.00  0.00    -0.391 OA
HETATM   35  H23 UNL     1       0.095   9.123   7.639  1.00  0.00     0.210 HD
ENDBRANCH  13  34
TORSDOF 10
ENDMDL
MODEL 9
REMARK minimizedAffinity -7.58432817
REMARK  10 active torsions:
REMARK  status: ('A' for Active; 'I' for Inactive)
REMARK    1  A    between atoms: C5_5  and  C6_6 
REMARK    2  A    between atoms: C6_6  and  C8_8 
REMARK    3  A    between atoms: C8_8  and  O1_9 
REMARK    4  A    between atoms: C15_17  and  O3_18 
REMARK    5  A    between atoms: C18_21  and  O4_23 
REMARK    6  A    between atoms: O4_23  and  C20_24 
REMARK    7  A    between atoms: C20_24  and  C21_26 
REMARK    8  A    between atoms: C21_26  and  C22_27 
REMARK    9  A    between atoms: C21_26  and  O6_29 
REMARK   10  A    between atoms: O6_29  and  C24_30 
ROOT
HETATM    1  C1  UNL     1      -3.981   6.534  16.046  1.00  0.00     0.015 C 
HETATM    2  C2  UNL     1      -3.274   6.561  14.904  1.00  0.00    -0.082 C 
HETATM    3  C3  UNL     1      -3.874   7.010  13.606  1.00  0.00     0.034 C 
HETATM    4  C4  UNL     1      -3.845   5.830  12.649  1.00  0.00     0.010 C 
HETATM    5  C5  UNL     1      -2.432   5.300  12.304  1.00  0.00    -0.001 C 
HETATM    6  C9  UNL     1      -1.356   5.657  13.367  1.00  0.00     0.033 C 
HETATM    7  C10 UNL     1      -0.321   6.760  13.015  1.00  0.00     0.162 C 
HETATM    8  O2  UNL     1      -0.700   7.752  13.933  1.00  0.00    -0.376 OA
HETATM    9  C11 UNL     1      -0.819   7.156  15.201  1.00  0.00     0.134 C 
HETATM   10  C12 UNL     1      -1.018   8.384  16.081  1.00  0.00     0.068 C 
HETATM   11  C13 UNL     1       0.183   9.362  15.889  1.00  0.00    -0.059 C 
HETATM   12  C14 UNL     1       0.933   9.713  16.950  1.00  0.00     0.017 C 
HETATM   13  C15 UNL     1       0.462   9.915  14.455  1.00  0.00     0.146 C 
HETATM   14  C16 UNL     1       1.483   9.090  13.597  1.00  0.00     0.039 C 
HETATM   15  C17 UNL     1       1.098   8.731  12.110  1.00  0.00     0.044 C 
HETATM   16  C18 UNL     1      -0.038   7.634  11.776  1.00  0.00     0.093 C 
HETATM   17  C19 UNL     1      -1.272   8.440  11.310  1.00  0.00     0.049 C 
HETATM   18  C26 UNL     1      -1.847   6.078  14.835  1.00  0.00     0.050 C 
ENDROOT
BRANCH  16  19
HETATM   19  O4  UNL     1       0.330   6.867  10.597  1.00  0.00    -0.306 OA
BRANCH  19  20
HETATM   20  C20 UNL     1       1.477   6.129  10.571  1.00  0.00     0.289 C 
HETATM   21  O5  UNL     1       1.758   5.259  11.382  1.00  0.00    -0.262 OA
BRANCH  20  22
HETATM   22  C21 UNL     1       2.382   6.586   9.418  1.00  0.00     0.231 C 
BRANCH  22  23
HETATM   23  C22 UNL     1       1.619   7.445   8.402  1.00  0.00     0.038 C 
HETATM   24  C23 UNL     1       1.975   7.115   6.960  1.00  0.00     0.008 C 
ENDBRANCH  22  23
BRANCH  22  25
HETATM   25  O6  UNL     1       3.446   7.384   9.981  1.00  0.00    -0.306 OA
BRANCH  25  26
HETATM   26  C24 UNL     1       4.417   6.695  10.636  1.00  0.00     0.255 C 
HETATM   27  C25 UNL     1       4.861   7.460  11.844  1.00  0.00     0.126 C 
HETATM   28  O7  UNL     1       4.887   5.624  10.284  1.00  0.00    -0.266 OA
ENDBRANCH  25  26
ENDBRANCH  22  25
ENDBRANCH  20  22
ENDBRANCH  19  20
ENDBRANCH  16  19
BRANCH   5  29
HETATM   29  C6  UNL     1      -2.474   3.753  12.011  1.00  0.00     0.010 C 
HETATM   30  C7  UNL     1      -3.821   3.109  12.388  1.00  0.00     0.012 C 
BRANCH  29  31
HETATM   31  C8  UNL     1      -2.166   3.404  10.538  1.00  0.00     0.168 C 
BRANCH  31  32
HETATM   32  O1  UNL     1      -1.194   2.373  10.427  1.00  0.00    -0.400 OA
HETATM   33  H14 UNL     1      -1.545   1.568  10.844  1.00  0.00     0.209 HD
ENDBRANCH  31  32
ENDBRANCH  29  31
ENDBRANCH   5  29
BRANCH  13  34
HETATM   34  O3  UNL     1       0.992  11.245  14.573  1.00  0.00    -0.391 OA
HETATM   35  H23 UNL     1       0.400  11.716  15.185  1.00  0.00     0.210 HD
ENDBRANCH  13  34
TORSDOF 10
ENDMDL
