MODEL 1
REMARK minimizedAffinity -9.59212399
REMARK  6 active torsions:
REMARK  status: ('A' for Active; 'I' for Inactive)
REMARK    1  A    between atoms: C2_2  and  C30_31 
REMARK    2  A    between atoms: C3_3  and  C4_4 
REMARK    3  A    between atoms: C4_4  and  C5_5 
REMARK    4  A    between atoms: C5_5  and  C6_6 
REMARK    5  A    between atoms: C6_6  and  C8_8 
REMARK    6  A    between atoms: C30_31  and  O3_33 
ROOT
HETATM    1  C8  UNL     1      -1.180  51.387 -21.396  1.00  0.00    -0.002 C 
HETATM    2  C9  UNL     1      -0.429  50.107 -20.916  1.00  0.00     0.007 C 
HETATM    3  C10 UNL     1      -1.445  48.950 -20.899  1.00  0.00     0.015 C 
HETATM    4  C11 UNL     1      -2.818  49.636 -21.041  1.00  0.00    -0.013 C 
HETATM    5  C12 UNL     1      -3.213  50.111 -19.605  1.00  0.00     0.021 C 
HETATM    6  C13 UNL     1      -3.991  48.801 -21.548  1.00  0.00    -0.070 C 
HETATM    7  C14 UNL     1      -4.107  47.489 -21.280  1.00  0.00    -0.022 C 
HETATM    8  C15 UNL     1      -5.286  46.646 -21.650  1.00  0.00     0.034 C 
HETATM    9  C16 UNL     1      -6.300  47.324 -22.601  1.00  0.00     0.013 C 
HETATM   10  C17 UNL     1      -7.626  46.493 -22.771  1.00  0.00     0.018 C 
HETATM   11  C18 UNL     1      -8.122  45.794 -21.489  1.00  0.00     0.023 C 
HETATM   12  C19 UNL     1      -7.411  45.392 -23.833  1.00  0.00     0.023 C 
HETATM   13  C20 UNL     1      -8.737  47.403 -23.303  1.00  0.00     0.135 C 
HETATM   14  O1  UNL     1      -9.933  47.167 -23.131  1.00  0.00    -0.297 OA
HETATM   15  C21 UNL     1      -8.301  48.576 -24.135  1.00  0.00     0.080 C 
HETATM   16  C22 UNL     1      -7.426  49.525 -23.330  1.00  0.00     0.017 C 
HETATM   17  C23 UNL     1      -6.493  48.852 -22.270  1.00  0.00    -0.031 C 
HETATM   18  C24 UNL     1      -7.129  49.053 -20.874  1.00  0.00     0.016 C 
HETATM   19  C25 UNL     1      -5.068  49.540 -22.345  1.00  0.00     0.024 C 
HETATM   20  C26 UNL     1      -5.065  51.062 -22.061  1.00  0.00     0.010 C 
HETATM   21  C27 UNL     1      -3.681  51.748 -22.159  1.00  0.00     0.011 C 
HETATM   22  C28 UNL     1      -2.472  50.791 -22.050  1.00  0.00    -0.029 C 
HETATM   23  C29 UNL     1      -2.098  50.279 -23.478  1.00  0.00     0.016 C 
ENDROOT
BRANCH   1  24
HETATM   24  C6  UNL     1      -0.257  52.340 -22.215  1.00  0.00    -0.014 C 
HETATM   25  C7  UNL     1       1.150  52.437 -21.614  1.00  0.00     0.010 C 
BRANCH  24  26
HETATM   26  C5  UNL     1      -0.175  51.866 -23.691  1.00  0.00     0.008 C 
BRANCH  26  27
HETATM   27  C4  UNL     1       0.717  52.742 -24.579  1.00  0.00     0.028 C 
BRANCH  27  28
HETATM   28  C3  UNL     1       0.379  52.562 -26.036  1.00  0.00    -0.013 C 
HETATM   29  C2  UNL     1       1.129  51.988 -26.999  1.00  0.00     0.008 C 
HETATM   30  C1  UNL     1       0.628  51.857 -28.409  1.00  0.00     0.055 C 
BRANCH  29  31
HETATM   31  C30 UNL     1       2.505  51.504 -26.732  1.00  0.00     0.171 C 
HETATM   32  O2  UNL     1       2.847  50.635 -25.952  1.00  0.00    -0.646 OA
BRANCH  31  33
HETATM   33  O3  UNL     1       3.415  52.168 -27.466  1.00  0.00    -0.773 OA
HETATM   34  H46 UNL     1       4.263  51.758 -27.199  1.00  0.00     0.167 HD
ENDBRANCH  31  33
ENDBRANCH  29  31
ENDBRANCH  27  28
ENDBRANCH  26  27
ENDBRANCH  24  26
ENDBRANCH   1  24
TORSDOF 6
ENDMDL
MODEL 2
REMARK minimizedAffinity -9.34049225
REMARK  6 active torsions:
REMARK  status: ('A' for Active; 'I' for Inactive)
REMARK    1  A    between atoms: C2_2  and  C30_31 
REMARK    2  A    between atoms: C3_3  and  C4_4 
REMARK    3  A    between atoms: C4_4  and  C5_5 
REMARK    4  A    between atoms: C5_5  and  C6_6 
REMARK    5  A    between atoms: C6_6  and  C8_8 
REMARK    6  A    between atoms: C30_31  and  O3_33 
ROOT
HETATM    1  C8  UNL     1      -2.336  49.933 -21.435  1.00  0.00    -0.002 C 
HETATM    2  C9  UNL     1      -1.788  51.334 -21.848  1.00  0.00     0.007 C 
HETATM    3  C10 UNL     1      -1.004  51.899 -20.649  1.00  0.00     0.015 C 
HETATM    4  C11 UNL     1      -1.385  50.985 -19.469  1.00  0.00    -0.013 C 
HETATM    5  C12 UNL     1      -2.751  51.522 -18.932  1.00  0.00     0.021 C 
HETATM    6  C13 UNL     1      -0.448  50.934 -18.265  1.00  0.00    -0.070 C 
HETATM    7  C14 UNL     1       0.269  52.000 -17.868  1.00  0.00    -0.022 C 
HETATM    8  C15 UNL     1       1.113  52.045 -16.634  1.00  0.00     0.034 C 
HETATM    9  C16 UNL     1       1.322  50.681 -15.936  1.00  0.00     0.013 C 
HETATM   10  C17 UNL     1       2.014  50.817 -14.529  1.00  0.00     0.018 C 
HETATM   11  C18 UNL     1       1.572  52.043 -13.705  1.00  0.00     0.023 C 
HETATM   12  C19 UNL     1       3.543  50.922 -14.715  1.00  0.00     0.023 C 
HETATM   13  C20 UNL     1       1.759  49.549 -13.708  1.00  0.00     0.135 C 
HETATM   14  O1  UNL     1       1.792  49.532 -12.477  1.00  0.00    -0.297 OA
HETATM   15  C21 UNL     1       1.547  48.280 -14.485  1.00  0.00     0.080 C 
HETATM   16  C22 UNL     1       0.314  48.378 -15.370  1.00  0.00     0.017 C 
HETATM   17  C23 UNL     1       0.023  49.791 -15.973  1.00  0.00    -0.031 C 
HETATM   18  C24 UNL     1      -1.126  50.433 -15.159  1.00  0.00     0.016 C 
HETATM   19  C25 UNL     1      -0.392  49.616 -17.491  1.00  0.00     0.024 C 
HETATM   20  C26 UNL     1      -1.652  48.747 -17.724  1.00  0.00     0.010 C 
HETATM   21  C27 UNL     1      -2.050  48.547 -19.207  1.00  0.00     0.011 C 
HETATM   22  C28 UNL     1      -1.458  49.587 -20.185  1.00  0.00    -0.029 C 
HETATM   23  C29 UNL     1      -0.072  49.075 -20.694  1.00  0.00     0.016 C 
ENDROOT
BRANCH   1  24
HETATM   24  C6  UNL     1      -2.402  48.946 -22.641  1.00  0.00    -0.014 C 
HETATM   25  C7  UNL     1      -3.093  47.630 -22.272  1.00  0.00     0.010 C 
BRANCH  24  26
HETATM   26  C5  UNL     1      -3.132  49.614 -23.838  1.00  0.00     0.008 C 
BRANCH  26  27
HETATM   27  C4  UNL     1      -2.484  49.332 -25.199  1.00  0.00     0.028 C 
BRANCH  27  28
HETATM   28  C3  UNL     1      -3.447  48.638 -26.126  1.00  0.00    -0.013 C 
HETATM   29  C2  UNL     1      -3.761  48.966 -27.396  1.00  0.00     0.008 C 
HETATM   30  C1  UNL     1      -4.725  48.144 -28.203  1.00  0.00     0.055 C 
BRANCH  29  31
HETATM   31  C30 UNL     1      -3.216  50.182 -28.046  1.00  0.00     0.171 C 
HETATM   32  O2  UNL     1      -2.438  50.989 -27.573  1.00  0.00    -0.646 OA
BRANCH  31  33
HETATM   33  O3  UNL     1      -3.703  50.341 -29.290  1.00  0.00    -0.773 OA
HETATM   34  H46 UNL     1      -3.270  51.163 -29.597  1.00  0.00     0.167 HD
ENDBRANCH  31  33
ENDBRANCH  29  31
ENDBRANCH  27  28
ENDBRANCH  26  27
ENDBRANCH  24  26
ENDBRANCH   1  24
TORSDOF 6
ENDMDL
MODEL 3
REMARK minimizedAffinity -9.31987
REMARK  6 active torsions:
REMARK  status: ('A' for Active; 'I' for Inactive)
REMARK    1  A    between atoms: C2_2  and  C30_31 
REMARK    2  A    between atoms: C3_3  and  C4_4 
REMARK    3  A    between atoms: C4_4  and  C5_5 
REMARK    4  A    between atoms: C5_5  and  C6_6 
REMARK    5  A    between atoms: C6_6  and  C8_8 
REMARK    6  A    between atoms: C30_31  and  O3_33 
ROOT
HETATM    1  C8  UNL     1      -1.718  51.482 -23.338  1.00  0.00    -0.002 C 
HETATM    2  C9  UNL     1      -2.704  52.556 -23.892  1.00  0.00     0.007 C 
HETATM    3  C10 UNL     1      -4.136  52.043 -23.649  1.00  0.00     0.015 C 
HETATM    4  C11 UNL     1      -3.959  50.560 -23.270  1.00  0.00    -0.013 C 
HETATM    5  C12 UNL     1      -3.825  49.784 -24.621  1.00  0.00     0.021 C 
HETATM    6  C13 UNL     1      -5.083  49.874 -22.498  1.00  0.00    -0.070 C 
HETATM    7  C14 UNL     1      -6.376  50.201 -22.672  1.00  0.00    -0.022 C 
HETATM    8  C15 UNL     1      -7.526  49.490 -22.033  1.00  0.00     0.034 C 
HETATM    9  C16 UNL     1      -7.136  48.474 -20.934  1.00  0.00     0.013 C 
HETATM   10  C17 UNL     1      -8.350  47.590 -20.462  1.00  0.00     0.018 C 
HETATM   11  C18 UNL     1      -9.324  47.175 -21.582  1.00  0.00     0.023 C 
HETATM   12  C19 UNL     1      -9.172  48.366 -19.410  1.00  0.00     0.023 C 
HETATM   13  C20 UNL     1      -7.827  46.330 -19.766  1.00  0.00     0.135 C 
HETATM   14  O1  UNL     1      -8.483  45.291 -19.684  1.00  0.00    -0.297 OA
HETATM   15  C21 UNL     1      -6.486  46.442 -19.097  1.00  0.00     0.080 C 
HETATM   16  C22 UNL     1      -5.394  46.763 -20.106  1.00  0.00     0.017 C 
HETATM   17  C23 UNL     1      -5.821  47.685 -21.296  1.00  0.00    -0.031 C 
HETATM   18  C24 UNL     1      -6.021  46.795 -22.546  1.00  0.00     0.016 C 
HETATM   19  C25 UNL     1      -4.677  48.752 -21.541  1.00  0.00     0.024 C 
HETATM   20  C26 UNL     1      -3.294  48.153 -21.896  1.00  0.00     0.010 C 
HETATM   21  C27 UNL     1      -2.163  49.188 -22.110  1.00  0.00     0.011 C 
HETATM   22  C28 UNL     1      -2.644  50.625 -22.410  1.00  0.00    -0.029 C 
HETATM   23  C29 UNL     1      -2.821  51.394 -21.061  1.00  0.00     0.016 C 
ENDROOT
BRANCH   1  24
HETATM   24  C6  UNL     1      -0.413  52.118 -22.768  1.00  0.00    -0.014 C 
HETATM   25  C7  UNL     1       0.005  51.482 -21.438  1.00  0.00     0.010 C 
BRANCH  24  26
HETATM   26  C5  UNL     1       0.737  51.995 -23.803  1.00  0.00     0.008 C 
BRANCH  26  27
HETATM   27  C4  UNL     1       0.836  53.181 -24.769  1.00  0.00     0.028 C 
BRANCH  27  28
HETATM   28  C3  UNL     1       0.436  52.782 -26.165  1.00  0.00    -0.013 C 
HETATM   29  C2  UNL     1       1.139  52.054 -27.056  1.00  0.00     0.008 C 
HETATM   30  C1  UNL     1       0.579  51.712 -28.407  1.00  0.00     0.055 C 
BRANCH  29  31
HETATM   31  C30 UNL     1       2.521  51.597 -26.773  1.00  0.00     0.171 C 
HETATM   32  O2  UNL     1       2.866  50.683 -26.047  1.00  0.00    -0.646 OA
BRANCH  31  33
HETATM   33  O3  UNL     1       3.433  52.345 -27.420  1.00  0.00    -0.773 OA
HETATM   34  H46 UNL     1       4.285  51.945 -27.151  1.00  0.00     0.167 HD
ENDBRANCH  31  33
ENDBRANCH  29  31
ENDBRANCH  27  28
ENDBRANCH  26  27
ENDBRANCH  24  26
ENDBRANCH   1  24
TORSDOF 6
ENDMDL
MODEL 4
REMARK minimizedAffinity -9.22905827
REMARK  6 active torsions:
REMARK  status: ('A' for Active; 'I' for Inactive)
REMARK    1  A    between atoms: C2_2  and  C30_31 
REMARK    2  A    between atoms: C3_3  and  C4_4 
REMARK    3  A    between atoms: C4_4  and  C5_5 
REMARK    4  A    between atoms: C5_5  and  C6_6 
REMARK    5  A    between atoms: C6_6  and  C8_8 
REMARK    6  A    between atoms: C30_31  and  O3_33 
ROOT
HETATM    1  C8  UNL     1      -1.204  51.550 -21.471  1.00  0.00    -0.002 C 
HETATM    2  C9  UNL     1      -0.352  50.299 -21.090  1.00  0.00     0.007 C 
HETATM    3  C10 UNL     1      -1.310  49.097 -20.989  1.00  0.00     0.015 C 
HETATM    4  C11 UNL     1      -2.719  49.722 -20.981  1.00  0.00    -0.013 C 
HETATM    5  C12 UNL     1      -2.986  50.162 -19.506  1.00  0.00     0.021 C 
HETATM    6  C13 UNL     1      -3.899  48.840 -21.381  1.00  0.00    -0.070 C 
HETATM    7  C14 UNL     1      -3.930  47.521 -21.123  1.00  0.00    -0.022 C 
HETATM    8  C15 UNL     1      -5.102  46.630 -21.386  1.00  0.00     0.034 C 
HETATM    9  C16 UNL     1      -6.236  47.272 -22.219  1.00  0.00     0.013 C 
HETATM   10  C17 UNL     1      -7.534  46.383 -22.268  1.00  0.00     0.018 C 
HETATM   11  C18 UNL     1      -7.866  45.649 -20.953  1.00  0.00     0.023 C 
HETATM   12  C19 UNL     1      -7.380  45.306 -23.363  1.00  0.00     0.023 C 
HETATM   13  C20 UNL     1      -8.732  47.248 -22.670  1.00  0.00     0.135 C 
HETATM   14  O1  UNL     1      -9.894  46.956 -22.382  1.00  0.00    -0.297 OA
HETATM   15  C21 UNL     1      -8.435  48.449 -23.523  1.00  0.00     0.080 C 
HETATM   16  C22 UNL     1      -7.525  49.427 -22.796  1.00  0.00     0.017 C 
HETATM   17  C23 UNL     1      -6.461  48.786 -21.846  1.00  0.00    -0.031 C 
HETATM   18  C24 UNL     1      -6.961  48.942 -20.390  1.00  0.00     0.016 C 
HETATM   19  C25 UNL     1      -5.083  49.538 -22.053  1.00  0.00     0.024 C 
HETATM   20  C26 UNL     1      -5.118  51.056 -21.747  1.00  0.00     0.010 C 
HETATM   21  C27 UNL     1      -3.783  51.805 -21.973  1.00  0.00     0.011 C 
HETATM   22  C28 UNL     1      -2.528  50.903 -22.001  1.00  0.00    -0.029 C 
HETATM   23  C29 UNL     1      -2.279  50.425 -23.468  1.00  0.00     0.016 C 
ENDROOT
BRANCH   1  24
HETATM   24  C6  UNL     1      -0.411  52.553 -22.364  1.00  0.00    -0.014 C 
HETATM   25  C7  UNL     1       0.858  53.062 -21.672  1.00  0.00     0.010 C 
BRANCH  24  26
HETATM   26  C5  UNL     1      -0.050  51.890 -23.721  1.00  0.00     0.008 C 
BRANCH  26  27
HETATM   27  C4  UNL     1       0.909  52.719 -24.584  1.00  0.00     0.028 C 
BRANCH  27  28
HETATM   28  C3  UNL     1       1.085  52.103 -25.947  1.00  0.00    -0.013 C 
HETATM   29  C2  UNL     1       0.659  52.577 -27.136  1.00  0.00     0.008 C 
HETATM   30  C1  UNL     1       0.947  51.852 -28.418  1.00  0.00     0.055 C 
BRANCH  29  31
HETATM   31  C30 UNL     1      -0.161  53.809 -27.235  1.00  0.00     0.171 C 
HETATM   32  O2  UNL     1       0.063  54.891 -26.727  1.00  0.00    -0.646 OA
BRANCH  31  33
HETATM   33  O3  UNL     1      -1.266  53.610 -27.976  1.00  0.00    -0.773 OA
HETATM   34  H46 UNL     1      -1.707  54.484 -27.961  1.00  0.00     0.167 HD
ENDBRANCH  31  33
ENDBRANCH  29  31
ENDBRANCH  27  28
ENDBRANCH  26  27
ENDBRANCH  24  26
ENDBRANCH   1  24
TORSDOF 6
ENDMDL
MODEL 5
REMARK minimizedAffinity -9.14455795
REMARK  6 active torsions:
REMARK  status: ('A' for Active; 'I' for Inactive)
REMARK    1  A    between atoms: C2_2  and  C30_31 
REMARK    2  A    between atoms: C3_3  and  C4_4 
REMARK    3  A    between atoms: C4_4  and  C5_5 
REMARK    4  A    between atoms: C5_5  and  C6_6 
REMARK    5  A    between atoms: C6_6  and  C8_8 
REMARK    6  A    between atoms: C30_31  and  O3_33 
ROOT
HETATM    1  C8  UNL     1      -1.704  50.728 -21.716  1.00  0.00    -0.002 C 
HETATM    2  C9  UNL     1      -1.185  52.192 -21.867  1.00  0.00     0.007 C 
HETATM    3  C10 UNL     1      -0.543  52.598 -20.527  1.00  0.00     0.015 C 
HETATM    4  C11 UNL     1      -0.990  51.508 -19.534  1.00  0.00    -0.013 C 
HETATM    5  C12 UNL     1      -2.423  51.917 -19.063  1.00  0.00     0.021 C 
HETATM    6  C13 UNL     1      -0.166  51.310 -18.264  1.00  0.00    -0.070 C 
HETATM    7  C14 UNL     1       0.460  52.328 -17.649  1.00  0.00    -0.022 C 
HETATM    8  C15 UNL     1       1.184  52.217 -16.344  1.00  0.00     0.034 C 
HETATM    9  C16 UNL     1       1.389  50.772 -15.832  1.00  0.00     0.013 C 
HETATM   10  C17 UNL     1       1.940  50.720 -14.359  1.00  0.00     0.018 C 
HETATM   11  C18 UNL     1       1.368  51.797 -13.415  1.00  0.00     0.023 C 
HETATM   12  C19 UNL     1       3.473  50.900 -14.376  1.00  0.00     0.023 C 
HETATM   13  C20 UNL     1       1.668  49.338 -13.758  1.00  0.00     0.135 C 
HETATM   14  O1  UNL     1       1.587  49.140 -12.545  1.00  0.00    -0.297 OA
HETATM   15  C21 UNL     1       1.587  48.191 -14.727  1.00  0.00     0.080 C 
HETATM   16  C22 UNL     1       0.439  48.380 -15.706  1.00  0.00     0.017 C 
HETATM   17  C23 UNL     1       0.141  49.857 -16.125  1.00  0.00    -0.031 C 
HETATM   18  C24 UNL     1      -1.107  50.335 -15.344  1.00  0.00     0.016 C 
HETATM   19  C25 UNL     1      -0.123  49.894 -17.686  1.00  0.00     0.024 C 
HETATM   20  C26 UNL     1      -1.315  49.030 -18.165  1.00  0.00     0.010 C 
HETATM   21  C27 UNL     1      -1.564  49.039 -19.693  1.00  0.00     0.011 C 
HETATM   22  C28 UNL     1      -0.932  50.230 -20.448  1.00  0.00    -0.029 C 
HETATM   23  C29 UNL     1       0.517  49.842 -20.886  1.00  0.00     0.016 C 
ENDROOT
BRANCH   1  24
HETATM   24  C6  UNL     1      -1.613  49.929 -23.052  1.00  0.00    -0.014 C 
HETATM   25  C7  UNL     1      -2.772  48.940 -23.212  1.00  0.00     0.010 C 
BRANCH  24  26
HETATM   26  C5  UNL     1      -1.576  50.908 -24.257  1.00  0.00     0.008 C 
BRANCH  26  27
HETATM   27  C4  UNL     1      -0.206  51.557 -24.491  1.00  0.00     0.028 C 
BRANCH  27  28
HETATM   28  C3  UNL     1       0.303  51.268 -25.879  1.00  0.00    -0.013 C 
HETATM   29  C2  UNL     1       0.210  52.046 -26.977  1.00  0.00     0.008 C 
HETATM   30  C1  UNL     1       0.804  51.623 -28.290  1.00  0.00     0.055 C 
BRANCH  29  31
HETATM   31  C30 UNL     1      -0.527  53.333 -26.962  1.00  0.00     0.171 C 
HETATM   32  O2  UNL     1      -1.657  53.543 -27.360  1.00  0.00    -0.646 OA
BRANCH  31  33
HETATM   33  O3  UNL     1       0.221  54.326 -26.450  1.00  0.00    -0.773 OA
HETATM   34  H46 UNL     1      -0.374  55.103 -26.498  1.00  0.00     0.167 HD
ENDBRANCH  31  33
ENDBRANCH  29  31
ENDBRANCH  27  28
ENDBRANCH  26  27
ENDBRANCH  24  26
ENDBRANCH   1  24
TORSDOF 6
ENDMDL
MODEL 6
REMARK minimizedAffinity -9.07353115
REMARK  6 active torsions:
REMARK  status: ('A' for Active; 'I' for Inactive)
REMARK    1  A    between atoms: C2_2  and  C30_31 
REMARK    2  A    between atoms: C3_3  and  C4_4 
REMARK    3  A    between atoms: C4_4  and  C5_5 
REMARK    4  A    between atoms: C5_5  and  C6_6 
REMARK    5  A    between atoms: C6_6  and  C8_8 
REMARK    6  A    between atoms: C30_31  and  O3_33 
ROOT
HETATM    1  C8  UNL     1      -1.556  50.593 -22.521  1.00  0.00    -0.002 C 
HETATM    2  C9  UNL     1      -1.956  50.140 -23.960  1.00  0.00     0.007 C 
HETATM    3  C10 UNL     1      -3.187  49.224 -23.834  1.00  0.00     0.015 C 
HETATM    4  C11 UNL     1      -3.276  48.895 -22.330  1.00  0.00    -0.013 C 
HETATM    5  C12 UNL     1      -2.276  47.719 -22.088  1.00  0.00     0.021 C 
HETATM    6  C13 UNL     1      -4.619  48.431 -21.773  1.00  0.00    -0.070 C 
HETATM    7  C14 UNL     1      -5.486  47.706 -22.501  1.00  0.00    -0.022 C 
HETATM    8  C15 UNL     1      -6.762  47.127 -21.976  1.00  0.00     0.034 C 
HETATM    9  C16 UNL     1      -7.170  47.618 -20.567  1.00  0.00     0.013 C 
HETATM   10  C17 UNL     1      -8.381  46.811 -19.967  1.00  0.00     0.018 C 
HETATM   11  C18 UNL     1      -8.374  45.302 -20.284  1.00  0.00     0.023 C 
HETATM   12  C19 UNL     1      -9.705  47.384 -20.518  1.00  0.00     0.023 C 
HETATM   13  C20 UNL     1      -8.420  46.999 -18.448  1.00  0.00     0.135 C 
HETATM   14  O1  UNL     1      -8.952  46.189 -17.688  1.00  0.00    -0.297 OA
HETATM   15  C21 UNL     1      -7.848  48.284 -17.917  1.00  0.00     0.080 C 
HETATM   16  C22 UNL     1      -6.368  48.403 -18.247  1.00  0.00     0.017 C 
HETATM   17  C23 UNL     1      -5.926  47.787 -19.615  1.00  0.00    -0.031 C 
HETATM   18  C24 UNL     1      -5.242  46.428 -19.331  1.00  0.00     0.016 C 
HETATM   19  C25 UNL     1      -4.920  48.788 -20.316  1.00  0.00     0.024 C 
HETATM   20  C26 UNL     1      -3.634  49.089 -19.510  1.00  0.00     0.010 C 
HETATM   21  C27 UNL     1      -2.657  50.089 -20.175  1.00  0.00     0.011 C 
HETATM   22  C28 UNL     1      -2.849  50.270 -21.698  1.00  0.00    -0.029 C 
HETATM   23  C29 UNL     1      -3.880  51.417 -21.947  1.00  0.00     0.016 C 
ENDROOT
BRANCH   1  24
HETATM   24  C6  UNL     1      -0.956  52.032 -22.501  1.00  0.00    -0.014 C 
HETATM   25  C7  UNL     1       0.425  52.072 -21.839  1.00  0.00     0.010 C 
BRANCH  24  26
HETATM   26  C5  UNL     1      -0.871  52.595 -23.946  1.00  0.00     0.008 C 
BRANCH  26  27
HETATM   27  C4  UNL     1       0.446  52.274 -24.663  1.00  0.00     0.028 C 
BRANCH  27  28
HETATM   28  C3  UNL     1       0.253  52.217 -26.156  1.00  0.00    -0.013 C 
HETATM   29  C2  UNL     1       1.140  51.828 -27.095  1.00  0.00     0.008 C 
HETATM   30  C1  UNL     1       0.776  51.797 -28.552  1.00  0.00     0.055 C 
BRANCH  29  31
HETATM   31  C30 UNL     1       2.534  51.462 -26.747  1.00  0.00     0.171 C 
HETATM   32  O2  UNL     1       2.902  50.634 -25.935  1.00  0.00    -0.646 OA
BRANCH  31  33
HETATM   33  O3  UNL     1       3.426  52.188 -27.445  1.00  0.00    -0.773 OA
HETATM   34  H46 UNL     1       4.288  51.852 -27.126  1.00  0.00     0.167 HD
ENDBRANCH  31  33
ENDBRANCH  29  31
ENDBRANCH  27  28
ENDBRANCH  26  27
ENDBRANCH  24  26
ENDBRANCH   1  24
TORSDOF 6
ENDMDL
MODEL 7
REMARK minimizedAffinity -9.05271244
REMARK  6 active torsions:
REMARK  status: ('A' for Active; 'I' for Inactive)
REMARK    1  A    between atoms: C2_2  and  C30_31 
REMARK    2  A    between atoms: C3_3  and  C4_4 
REMARK    3  A    between atoms: C4_4  and  C5_5 
REMARK    4  A    between atoms: C5_5  and  C6_6 
REMARK    5  A    between atoms: C6_6  and  C8_8 
REMARK    6  A    between atoms: C30_31  and  O3_33 
ROOT
HETATM    1  C8  UNL     1      -2.269  51.286 -24.479  1.00  0.00    -0.002 C 
HETATM    2  C9  UNL     1      -2.497  52.537 -23.576  1.00  0.00     0.007 C 
HETATM    3  C10 UNL     1      -3.625  52.196 -22.584  1.00  0.00     0.015 C 
HETATM    4  C11 UNL     1      -4.250  50.900 -23.137  1.00  0.00    -0.013 C 
HETATM    5  C12 UNL     1      -5.254  51.347 -24.249  1.00  0.00     0.021 C 
HETATM    6  C13 UNL     1      -5.046  50.019 -22.177  1.00  0.00    -0.070 C 
HETATM    7  C14 UNL     1      -5.758  50.529 -21.158  1.00  0.00    -0.022 C 
HETATM    8  C15 UNL     1      -6.647  49.731 -20.257  1.00  0.00     0.034 C 
HETATM    9  C16 UNL     1      -6.520  48.196 -20.408  1.00  0.00     0.013 C 
HETATM   10  C17 UNL     1      -7.631  47.412 -19.617  1.00  0.00     0.018 C 
HETATM   11  C18 UNL     1      -9.024  48.074 -19.628  1.00  0.00     0.023 C 
HETATM   12  C19 UNL     1      -7.207  47.272 -18.138  1.00  0.00     0.023 C 
HETATM   13  C20 UNL     1      -7.752  45.991 -20.175  1.00  0.00     0.135 C 
HETATM   14  O1  UNL     1      -8.776  45.316 -20.067  1.00  0.00    -0.297 OA
HETATM   15  C21 UNL     1      -6.514  45.409 -20.797  1.00  0.00     0.080 C 
HETATM   16  C22 UNL     1      -6.071  46.222 -22.003  1.00  0.00     0.017 C 
HETATM   17  C23 UNL     1      -6.320  47.764 -21.910  1.00  0.00    -0.031 C 
HETATM   18  C24 UNL     1      -7.564  48.102 -22.767  1.00  0.00     0.016 C 
HETATM   19  C25 UNL     1      -5.038  48.515 -22.457  1.00  0.00     0.024 C 
HETATM   20  C26 UNL     1      -4.675  48.196 -23.928  1.00  0.00     0.010 C 
HETATM   21  C27 UNL     1      -3.407  48.904 -24.463  1.00  0.00     0.011 C 
HETATM   22  C28 UNL     1      -2.971  50.151 -23.660  1.00  0.00    -0.029 C 
HETATM   23  C29 UNL     1      -2.000  49.706 -22.519  1.00  0.00     0.016 C 
ENDROOT
BRANCH   1  24
HETATM   24  C6  UNL     1      -0.777  51.132 -24.908  1.00  0.00    -0.014 C 
HETATM   25  C7  UNL     1      -0.641  50.675 -26.364  1.00  0.00     0.010 C 
BRANCH  24  26
HETATM   26  C5  UNL     1      -0.020  52.472 -24.696  1.00  0.00     0.008 C 
BRANCH  26  27
HETATM   27  C4  UNL     1       1.035  52.422 -23.584  1.00  0.00     0.028 C 
BRANCH  27  28
HETATM   28  C3  UNL     1       0.412  52.071 -22.259  1.00  0.00    -0.013 C 
HETATM   29  C2  UNL     1       0.469  52.764 -21.103  1.00  0.00     0.008 C 
HETATM   30  C1  UNL     1      -0.240  52.289 -19.868  1.00  0.00     0.055 C 
BRANCH  29  31
HETATM   31  C30 UNL     1       1.278  54.000 -20.974  1.00  0.00     0.171 C 
HETATM   32  O2  UNL     1       1.603  54.769 -21.860  1.00  0.00    -0.646 OA
BRANCH  31  33
HETATM   33  O3  UNL     1       1.668  54.208 -19.704  1.00  0.00    -0.773 OA
HETATM   34  H46 UNL     1       2.182  55.039 -19.759  1.00  0.00     0.167 HD
ENDBRANCH  31  33
ENDBRANCH  29  31
ENDBRANCH  27  28
ENDBRANCH  26  27
ENDBRANCH  24  26
ENDBRANCH   1  24
TORSDOF 6
ENDMDL
MODEL 8
REMARK minimizedAffinity -9.01900387
REMARK  6 active torsions:
REMARK  status: ('A' for Active; 'I' for Inactive)
REMARK    1  A    between atoms: C2_2  and  C30_31 
REMARK    2  A    between atoms: C3_3  and  C4_4 
REMARK    3  A    between atoms: C4_4  and  C5_5 
REMARK    4  A    between atoms: C5_5  and  C6_6 
REMARK    5  A    between atoms: C6_6  and  C8_8 
REMARK    6  A    between atoms: C30_31  and  O3_33 
ROOT
HETATM    1  C8  UNL     1      -5.407  48.513 -21.633  1.00  0.00    -0.002 C 
HETATM    2  C9  UNL     1      -4.508  48.787 -20.388  1.00  0.00     0.007 C 
HETATM    3  C10 UNL     1      -3.236  49.503 -20.880  1.00  0.00     0.015 C 
HETATM    4  C11 UNL     1      -3.263  49.336 -22.412  1.00  0.00    -0.013 C 
HETATM    5  C12 UNL     1      -2.673  47.918 -22.700  1.00  0.00     0.021 C 
HETATM    6  C13 UNL     1      -2.451  50.313 -23.258  1.00  0.00    -0.070 C 
HETATM    7  C14 UNL     1      -1.293  50.843 -22.828  1.00  0.00    -0.022 C 
HETATM    8  C15 UNL     1      -0.398  51.713 -23.653  1.00  0.00     0.034 C 
HETATM    9  C16 UNL     1      -1.004  52.187 -24.994  1.00  0.00     0.013 C 
HETATM   10  C17 UNL     1       0.051  52.896 -25.922  1.00  0.00     0.018 C 
HETATM   11  C18 UNL     1       1.462  52.276 -25.892  1.00  0.00     0.023 C 
HETATM   12  C19 UNL     1       0.196  54.374 -25.500  1.00  0.00     0.023 C 
HETATM   13  C20 UNL     1      -0.458  52.902 -27.367  1.00  0.00     0.135 C 
HETATM   14  O1  UNL     1       0.292  52.984 -28.340  1.00  0.00    -0.297 OA
HETATM   15  C21 UNL     1      -1.950  52.888 -27.551  1.00  0.00     0.080 C 
HETATM   16  C22 UNL     1      -2.564  51.625 -26.967  1.00  0.00     0.017 C 
HETATM   17  C23 UNL     1      -1.870  51.065 -25.682  1.00  0.00    -0.031 C 
HETATM   18  C24 UNL     1      -1.002  49.853 -26.095  1.00  0.00     0.016 C 
HETATM   19  C25 UNL     1      -2.992  50.630 -24.653  1.00  0.00     0.024 C 
HETATM   20  C26 UNL     1      -3.959  49.536 -25.169  1.00  0.00     0.010 C 
HETATM   21  C27 UNL     1      -5.076  49.124 -24.179  1.00  0.00     0.011 C 
HETATM   22  C28 UNL     1      -4.802  49.484 -22.702  1.00  0.00    -0.029 C 
HETATM   23  C29 UNL     1      -5.353  50.919 -22.418  1.00  0.00     0.016 C 
ENDROOT
BRANCH   1  24
HETATM   24  C6  UNL     1      -6.926  48.577 -21.289  1.00  0.00    -0.014 C 
HETATM   25  C7  UNL     1      -7.223  49.590 -20.178  1.00  0.00     0.010 C 
BRANCH  24  26
HETATM   26  C5  UNL     1      -7.748  48.923 -22.561  1.00  0.00     0.008 C 
BRANCH  26  27
HETATM   27  C4  UNL     1      -8.476  47.724 -23.178  1.00  0.00     0.028 C 
BRANCH  27  28
HETATM   28  C3  UNL     1      -7.965  47.431 -24.564  1.00  0.00    -0.013 C 
HETATM   29  C2  UNL     1      -8.446  47.881 -25.741  1.00  0.00     0.008 C 
HETATM   30  C1  UNL     1      -7.795  47.519 -27.045  1.00  0.00     0.055 C 
BRANCH  29  31
HETATM   31  C30 UNL     1      -9.672  48.712 -25.815  1.00  0.00     0.171 C 
HETATM   32  O2  UNL     1     -10.827  48.329 -25.818  1.00  0.00    -0.646 OA
BRANCH  31  33
HETATM   33  O3  UNL     1      -9.379  50.022 -25.904  1.00  0.00    -0.773 OA
HETATM   34  H46 UNL     1     -10.260  50.447 -25.945  1.00  0.00     0.167 HD
ENDBRANCH  31  33
ENDBRANCH  29  31
ENDBRANCH  27  28
ENDBRANCH  26  27
ENDBRANCH  24  26
ENDBRANCH   1  24
TORSDOF 6
ENDMDL
MODEL 9
REMARK minimizedAffinity -8.93821812
REMARK  6 active torsions:
REMARK  status: ('A' for Active; 'I' for Inactive)
REMARK    1  A    between atoms: C2_2  and  C30_31 
REMARK    2  A    between atoms: C3_3  and  C4_4 
REMARK    3  A    between atoms: C4_4  and  C5_5 
REMARK    4  A    between atoms: C5_5  and  C6_6 
REMARK    5  A    between atoms: C6_6  and  C8_8 
REMARK    6  A    between atoms: C30_31  and  O3_33 
ROOT
HETATM    1  C8  UNL     1      -3.317  48.948 -18.893  1.00  0.00    -0.002 C 
HETATM    2  C9  UNL     1      -3.951  47.764 -19.687  1.00  0.00     0.007 C 
HETATM    3  C10 UNL     1      -3.733  48.040 -21.186  1.00  0.00     0.015 C 
HETATM    4  C11 UNL     1      -3.285  49.514 -21.250  1.00  0.00    -0.013 C 
HETATM    5  C12 UNL     1      -4.595  50.364 -21.201  1.00  0.00     0.021 C 
HETATM    6  C13 UNL     1      -2.522  49.981 -22.487  1.00  0.00    -0.070 C 
HETATM    7  C14 UNL     1      -2.753  49.470 -23.708  1.00  0.00    -0.022 C 
HETATM    8  C15 UNL     1      -2.122  49.965 -24.971  1.00  0.00     0.034 C 
HETATM    9  C16 UNL     1      -0.968  50.975 -24.771  1.00  0.00     0.013 C 
HETATM   10  C17 UNL     1      -0.499  51.638 -26.119  1.00  0.00     0.018 C 
HETATM   11  C18 UNL     1      -1.632  51.953 -27.116  1.00  0.00     0.023 C 
HETATM   12  C19 UNL     1       0.490  50.696 -26.840  1.00  0.00     0.023 C 
HETATM   13  C20 UNL     1       0.269  52.929 -25.815  1.00  0.00     0.135 C 
HETATM   14  O1  UNL     1       0.374  53.850 -26.626  1.00  0.00    -0.297 OA
HETATM   15  C21 UNL     1       0.976  52.991 -24.491  1.00  0.00     0.080 C 
HETATM   16  C22 UNL     1      -0.009  52.889 -23.337  1.00  0.00     0.017 C 
HETATM   17  C23 UNL     1      -1.251  51.971 -23.584  1.00  0.00    -0.031 C 
HETATM   18  C24 UNL     1      -2.467  52.880 -23.886  1.00  0.00     0.016 C 
HETATM   19  C25 UNL     1      -1.504  51.105 -22.284  1.00  0.00     0.024 C 
HETATM   20  C26 UNL     1      -1.786  51.924 -21.001  1.00  0.00     0.010 C 
HETATM   21  C27 UNL     1      -2.007  51.086 -19.718  1.00  0.00     0.011 C 
HETATM   22  C28 UNL     1      -2.385  49.608 -19.964  1.00  0.00    -0.029 C 
HETATM   23  C29 UNL     1      -1.077  48.758 -20.056  1.00  0.00     0.016 C 
ENDROOT
BRANCH   1  24
HETATM   24  C6  UNL     1      -2.732  48.493 -17.521  1.00  0.00    -0.014 C 
HETATM   25  C7  UNL     1      -2.683  46.966 -17.394  1.00  0.00     0.010 C 
BRANCH  24  26
HETATM   26  C5  UNL     1      -1.313  49.090 -17.321  1.00  0.00     0.008 C 
BRANCH  26  27
HETATM   27  C4  UNL     1      -1.236  50.160 -16.225  1.00  0.00     0.028 C 
BRANCH  27  28
HETATM   28  C3  UNL     1       0.097  50.126 -15.524  1.00  0.00    -0.013 C 
HETATM   29  C2  UNL     1       1.127  50.987 -15.653  1.00  0.00     0.008 C 
HETATM   30  C1  UNL     1       2.386  50.829 -14.850  1.00  0.00     0.055 C 
BRANCH  29  31
HETATM   31  C30 UNL     1       1.094  52.102 -16.630  1.00  0.00     0.171 C 
HETATM   32  O2  UNL     1       0.858  52.036 -17.822  1.00  0.00    -0.646 OA
BRANCH  31  33
HETATM   33  O3  UNL     1       1.384  53.279 -16.048  1.00  0.00    -0.773 OA
HETATM   34  H46 UNL     1       1.328  53.916 -16.790  1.00  0.00     0.167 HD
ENDBRANCH  31  33
ENDBRANCH  29  31
ENDBRANCH  27  28
ENDBRANCH  26  27
ENDBRANCH  24  26
ENDBRANCH   1  24
TORSDOF 6
ENDMDL
