MODEL 1
REMARK minimizedAffinity -9.86083031
REMARK  4 active torsions:
REMARK  status: ('A' for Active; 'I' for Inactive)
REMARK    1  A    between atoms: C2_2  and  C3_3 
REMARK    2  A    between atoms: C2_2  and  C9_9 
REMARK    3  A    between atoms: C4_4  and  C5_5 
REMARK    4  A    between atoms: C23_23  and  O1_24 
ROOT
HETATM    1  C9  UNL     1      -0.607  49.997 -19.361  1.00  0.00     0.001 C 
HETATM    2  C10 UNL     1      -1.943  49.241 -19.638  1.00  0.00     0.006 C 
HETATM    3  C11 UNL     1      -2.332  49.522 -21.095  1.00  0.00     0.009 C 
HETATM    4  C12 UNL     1      -1.131  50.273 -21.653  1.00  0.00     0.036 C 
HETATM    5  C13 UNL     1      -0.602  51.111 -20.460  1.00  0.00    -0.033 C 
HETATM    6  C14 UNL     1      -1.513  52.287 -20.045  1.00  0.00     0.016 C 
HETATM    7  C15 UNL     1       0.788  51.637 -20.871  1.00  0.00     0.010 C 
HETATM    8  C16 UNL     1       0.742  52.442 -22.184  1.00  0.00     0.010 C 
HETATM    9  C17 UNL     1       0.109  51.663 -23.354  1.00  0.00     0.039 C 
HETATM   10  C18 UNL     1      -1.265  51.005 -22.994  1.00  0.00     0.123 C 
HETATM   11  C19 UNL     1      -2.427  51.951 -23.151  1.00  0.00     0.014 C 
HETATM   12  C20 UNL     1      -2.535  52.463 -24.385  1.00  0.00     0.014 C 
HETATM   13  C21 UNL     1      -1.418  52.044 -25.322  1.00  0.00     0.124 C 
HETATM   14  C22 UNL     1      -1.649  52.556 -26.749  1.00  0.00     0.078 C 
HETATM   15  C23 UNL     1      -0.430  52.398 -27.664  1.00  0.00     0.121 C 
HETATM   16  C24 UNL     1       0.705  51.573 -27.067  1.00  0.00     0.033 C 
HETATM   17  C25 UNL     1       1.144  52.074 -25.688  1.00  0.00     0.015 C 
HETATM   18  C26 UNL     1      -0.028  52.458 -24.724  1.00  0.00     0.001 C 
HETATM   19  C27 UNL     1       0.035  53.998 -24.523  1.00  0.00     0.019 C 
HETATM   20  O2  UNL     1      -1.442  50.588 -25.377  1.00  0.00    -0.223 OA
HETATM   21  O3  UNL     1      -1.499  49.990 -24.009  1.00  0.00    -0.224 OA
ENDROOT
BRANCH   1  22
HETATM   22  C2  UNL     1      -0.452  50.391 -17.865  1.00  0.00     0.008 C 
HETATM   23  C1  UNL     1      -1.759  50.885 -17.236  1.00  0.00     0.014 C 
BRANCH  22  24
HETATM   24  C3  UNL     1       0.682  51.393 -17.702  1.00  0.00    -0.026 C 
HETATM   25  C4  UNL     1       1.395  51.649 -16.592  1.00  0.00    -0.025 C 
BRANCH  25  26
HETATM   26  C5  UNL     1       2.479  52.630 -16.488  1.00  0.00     0.012 A 
HETATM   27  C6  UNL     1       3.904  52.182 -16.709  1.00  0.00     0.013 A 
HETATM   28  C7  UNL     1       3.452  52.581 -15.331  1.00  0.00    -0.010 A 
HETATM   29  C8  UNL     1       3.380  51.557 -14.249  1.00  0.00     0.010 C 
ENDBRANCH  25  26
ENDBRANCH  22  24
ENDBRANCH   1  22
BRANCH  15  30
HETATM   30  O1  UNL     1       0.063  53.703 -27.981  1.00  0.00    -0.395 OA
HETATM   31  H33 UNL     1       0.774  53.595 -28.637  1.00  0.00     0.210 HD
ENDBRANCH  15  30
TORSDOF 4
ENDMDL
MODEL 2
REMARK minimizedAffinity -9.59371281
REMARK  4 active torsions:
REMARK  status: ('A' for Active; 'I' for Inactive)
REMARK    1  A    between atoms: C2_2  and  C3_3 
REMARK    2  A    between atoms: C2_2  and  C9_9 
REMARK    3  A    between atoms: C4_4  and  C5_5 
REMARK    4  A    between atoms: C23_23  and  O1_24 
ROOT
HETATM    1  C9  UNL     1      -0.066  50.831 -19.049  1.00  0.00     0.001 C 
HETATM    2  C10 UNL     1      -1.426  50.068 -19.022  1.00  0.00     0.006 C 
HETATM    3  C11 UNL     1      -2.000  50.108 -20.445  1.00  0.00     0.009 C 
HETATM    4  C12 UNL     1      -0.881  50.729 -21.270  1.00  0.00     0.036 C 
HETATM    5  C13 UNL     1      -0.203  51.744 -20.313  1.00  0.00    -0.033 C 
HETATM    6  C14 UNL     1      -1.054  52.992 -19.991  1.00  0.00     0.016 C 
HETATM    7  C15 UNL     1       1.122  52.164 -20.981  1.00  0.00     0.010 C 
HETATM    8  C16 UNL     1       0.907  52.737 -22.394  1.00  0.00     0.010 C 
HETATM    9  C17 UNL     1       0.129  51.787 -23.326  1.00  0.00     0.039 C 
HETATM   10  C18 UNL     1      -1.187  51.228 -22.687  1.00  0.00     0.123 C 
HETATM   11  C19 UNL     1      -2.360  52.159 -22.853  1.00  0.00     0.014 C 
HETATM   12  C20 UNL     1      -2.626  52.458 -24.132  1.00  0.00     0.014 C 
HETATM   13  C21 UNL     1      -1.639  51.864 -25.119  1.00  0.00     0.124 C 
HETATM   14  C22 UNL     1      -2.053  52.134 -26.571  1.00  0.00     0.078 C 
HETATM   15  C23 UNL     1      -0.962  51.798 -27.593  1.00  0.00     0.121 C 
HETATM   16  C24 UNL     1       0.241  51.061 -27.015  1.00  0.00     0.033 C 
HETATM   17  C25 UNL     1       0.854  51.777 -25.807  1.00  0.00     0.015 C 
HETATM   18  C26 UNL     1      -0.185  52.343 -24.782  1.00  0.00     0.001 C 
HETATM   19  C27 UNL     1      -0.097  53.893 -24.854  1.00  0.00     0.019 C 
HETATM   20  O2  UNL     1      -1.670  50.421 -24.923  1.00  0.00    -0.223 OA
HETATM   21  O3  UNL     1      -1.549  50.062 -23.478  1.00  0.00    -0.224 OA
ENDROOT
BRANCH   1  22
HETATM   22  C2  UNL     1       0.281  51.467 -17.674  1.00  0.00     0.008 C 
HETATM   23  C1  UNL     1       1.445  52.461 -17.748  1.00  0.00     0.014 C 
BRANCH  22  24
HETATM   24  C3  UNL     1       0.517  50.378 -16.639  1.00  0.00    -0.026 C 
HETATM   25  C4  UNL     1       1.119  50.501 -15.443  1.00  0.00    -0.025 C 
BRANCH  25  26
HETATM   26  C5  UNL     1       1.325  49.414 -14.481  1.00  0.00     0.012 A 
HETATM   27  C6  UNL     1       1.381  49.735 -13.006  1.00  0.00     0.013 A 
HETATM   28  C7  UNL     1       2.628  49.295 -13.723  1.00  0.00    -0.010 A 
HETATM   29  C8  UNL     1       3.760  50.252 -13.894  1.00  0.00     0.010 C 
ENDBRANCH  25  26
ENDBRANCH  22  24
ENDBRANCH   1  22
BRANCH  15  30
HETATM   30  O1  UNL     1      -0.514  53.021 -28.187  1.00  0.00    -0.395 OA
HETATM   31  H33 UNL     1       0.106  52.789 -28.900  1.00  0.00     0.210 HD
ENDBRANCH  15  30
TORSDOF 4
ENDMDL
MODEL 3
REMARK minimizedAffinity -9.3625164
REMARK  4 active torsions:
REMARK  status: ('A' for Active; 'I' for Inactive)
REMARK    1  A    between atoms: C2_2  and  C3_3 
REMARK    2  A    between atoms: C2_2  and  C9_9 
REMARK    3  A    between atoms: C4_4  and  C5_5 
REMARK    4  A    between atoms: C23_23  and  O1_24 
ROOT
HETATM    1  C9  UNL     1      -0.148  51.572 -20.736  1.00  0.00     0.001 C 
HETATM    2  C10 UNL     1      -0.657  52.318 -19.465  1.00  0.00     0.006 C 
HETATM    3  C11 UNL     1      -2.010  51.700 -19.084  1.00  0.00     0.009 C 
HETATM    4  C12 UNL     1      -2.145  50.514 -20.030  1.00  0.00     0.036 C 
HETATM    5  C13 UNL     1      -1.462  50.979 -21.343  1.00  0.00    -0.033 C 
HETATM    6  C14 UNL     1      -2.238  52.064 -22.122  1.00  0.00     0.016 C 
HETATM    7  C15 UNL     1      -1.286  49.721 -22.218  1.00  0.00     0.010 C 
HETATM    8  C16 UNL     1      -2.621  48.995 -22.471  1.00  0.00     0.010 C 
HETATM    9  C17 UNL     1      -3.372  48.630 -21.175  1.00  0.00     0.039 C 
HETATM   10  C18 UNL     1      -3.508  49.828 -20.176  1.00  0.00     0.123 C 
HETATM   11  C19 UNL     1      -4.695  50.707 -20.475  1.00  0.00     0.014 C 
HETATM   12  C20 UNL     1      -5.861  50.046 -20.477  1.00  0.00     0.014 C 
HETATM   13  C21 UNL     1      -5.719  48.552 -20.263  1.00  0.00     0.124 C 
HETATM   14  C22 UNL     1      -7.083  47.859 -20.154  1.00  0.00     0.078 C 
HETATM   15  C23 UNL     1      -7.002  46.330 -20.211  1.00  0.00     0.121 C 
HETATM   16  C24 UNL     1      -5.586  45.769 -20.146  1.00  0.00     0.033 C 
HETATM   17  C25 UNL     1      -4.653  46.385 -21.193  1.00  0.00     0.015 C 
HETATM   18  C26 UNL     1      -4.789  47.935 -21.364  1.00  0.00     0.001 C 
HETATM   19  C27 UNL     1      -5.386  48.186 -22.777  1.00  0.00     0.019 C 
HETATM   20  O2  UNL     1      -5.042  48.375 -18.985  1.00  0.00    -0.223 OA
HETATM   21  O3  UNL     1      -3.826  49.237 -18.886  1.00  0.00    -0.224 OA
ENDROOT
BRANCH   1  22
HETATM   22  C2  UNL     1       0.772  52.466 -21.615  1.00  0.00     0.008 C 
HETATM   23  C1  UNL     1       1.007  53.856 -21.016  1.00  0.00     0.014 C 
BRANCH  22  24
HETATM   24  C3  UNL     1       0.232  52.533 -23.036  1.00  0.00    -0.026 C 
HETATM   25  C4  UNL     1       0.867  52.191 -24.170  1.00  0.00    -0.025 C 
BRANCH  25  26
HETATM   26  C5  UNL     1       0.300  52.279 -25.519  1.00  0.00     0.012 A 
HETATM   27  C6  UNL     1       0.010  51.008 -26.283  1.00  0.00     0.013 A 
HETATM   28  C7  UNL     1       1.131  51.908 -26.728  1.00  0.00    -0.010 A 
HETATM   29  C8  UNL     1       2.542  51.436 -26.632  1.00  0.00     0.010 C 
ENDBRANCH  25  26
ENDBRANCH  22  24
ENDBRANCH   1  22
BRANCH  15  30
HETATM   30  O1  UNL     1      -7.617  45.895 -21.428  1.00  0.00    -0.395 OA
HETATM   31  H33 UNL     1      -7.647  44.922 -21.409  1.00  0.00     0.210 HD
ENDBRANCH  15  30
TORSDOF 4
ENDMDL
MODEL 4
REMARK minimizedAffinity -9.30400181
REMARK  4 active torsions:
REMARK  status: ('A' for Active; 'I' for Inactive)
REMARK    1  A    between atoms: C2_2  and  C3_3 
REMARK    2  A    between atoms: C2_2  and  C9_9 
REMARK    3  A    between atoms: C4_4  and  C5_5 
REMARK    4  A    between atoms: C23_23  and  O1_24 
ROOT
HETATM    1  C9  UNL     1      -2.458  48.510 -20.610  1.00  0.00     0.001 C 
HETATM    2  C10 UNL     1      -3.766  47.968 -21.264  1.00  0.00     0.006 C 
HETATM    3  C11 UNL     1      -3.862  48.582 -22.667  1.00  0.00     0.009 C 
HETATM    4  C12 UNL     1      -2.532  49.304 -22.838  1.00  0.00     0.036 C 
HETATM    5  C13 UNL     1      -2.179  49.819 -21.419  1.00  0.00    -0.033 C 
HETATM    6  C14 UNL     1      -3.074  50.972 -20.911  1.00  0.00     0.016 C 
HETATM    7  C15 UNL     1      -0.706  50.274 -21.467  1.00  0.00     0.010 C 
HETATM    8  C16 UNL     1      -0.458  51.332 -22.559  1.00  0.00     0.010 C 
HETATM    9  C17 UNL     1      -0.914  50.881 -23.961  1.00  0.00     0.039 C 
HETATM   10  C18 UNL     1      -2.370  50.307 -23.987  1.00  0.00     0.123 C 
HETATM   11  C19 UNL     1      -3.420  51.379 -24.122  1.00  0.00     0.014 C 
HETATM   12  C20 UNL     1      -3.266  52.143 -25.213  1.00  0.00     0.014 C 
HETATM   13  C21 UNL     1      -2.025  51.814 -26.021  1.00  0.00     0.124 C 
HETATM   14  C22 UNL     1      -1.957  52.630 -27.317  1.00  0.00     0.078 C 
HETATM   15  C23 UNL     1      -0.603  52.540 -28.030  1.00  0.00     0.121 C 
HETATM   16  C24 UNL     1       0.348  51.498 -27.450  1.00  0.00     0.033 C 
HETATM   17  C25 UNL     1       0.556  51.656 -25.941  1.00  0.00     0.015 C 
HETATM   18  C26 UNL     1      -0.746  51.951 -25.124  1.00  0.00     0.001 C 
HETATM   19  C27 UNL     1      -0.622  53.401 -24.580  1.00  0.00     0.019 C 
HETATM   20  O2  UNL     1      -2.133  50.411 -26.399  1.00  0.00    -0.223 OA
HETATM   21  O3  UNL     1      -2.478  49.553 -25.226  1.00  0.00    -0.224 OA
ENDROOT
BRANCH   1  22
HETATM   22  C2  UNL     1      -2.555  48.568 -19.059  1.00  0.00     0.008 C 
HETATM   23  C1  UNL     1      -3.708  49.449 -18.563  1.00  0.00     0.014 C 
BRANCH  22  24
HETATM   24  C3  UNL     1      -1.217  48.982 -18.466  1.00  0.00    -0.026 C 
HETATM   25  C4  UNL     1      -0.966  50.033 -17.666  1.00  0.00    -0.025 C 
BRANCH  25  26
HETATM   26  C5  UNL     1       0.348  50.390 -17.122  1.00  0.00     0.012 A 
HETATM   27  C6  UNL     1       0.454  51.522 -16.129  1.00  0.00     0.013 A 
HETATM   28  C7  UNL     1       1.015  51.690 -17.514  1.00  0.00    -0.010 A 
HETATM   29  C8  UNL     1       0.397  52.672 -18.450  1.00  0.00     0.010 C 
ENDBRANCH  25  26
ENDBRANCH  22  24
ENDBRANCH   1  22
BRANCH  15  30
HETATM   30  O1  UNL     1       0.023  53.825 -27.964  1.00  0.00    -0.395 OA
HETATM   31  H33 UNL     1       0.834  53.782 -28.501  1.00  0.00     0.210 HD
ENDBRANCH  15  30
TORSDOF 4
ENDMDL
MODEL 5
REMARK minimizedAffinity -9.25670719
REMARK  4 active torsions:
REMARK  status: ('A' for Active; 'I' for Inactive)
REMARK    1  A    between atoms: C2_2  and  C3_3 
REMARK    2  A    between atoms: C2_2  and  C9_9 
REMARK    3  A    between atoms: C4_4  and  C5_5 
REMARK    4  A    between atoms: C23_23  and  O1_24 
ROOT
HETATM    1  C9  UNL     1      -3.126  50.913 -24.444  1.00  0.00     0.001 C 
HETATM    2  C10 UNL     1      -4.428  51.715 -24.135  1.00  0.00     0.006 C 
HETATM    3  C11 UNL     1      -4.593  51.748 -22.610  1.00  0.00     0.009 C 
HETATM    4  C12 UNL     1      -3.301  51.128 -22.093  1.00  0.00     0.036 C 
HETATM    5  C13 UNL     1      -2.929  50.056 -23.150  1.00  0.00    -0.033 C 
HETATM    6  C14 UNL     1      -3.857  48.822 -23.170  1.00  0.00     0.016 C 
HETATM    7  C15 UNL     1      -1.479  49.624 -22.850  1.00  0.00     0.010 C 
HETATM    8  C16 UNL     1      -1.310  49.114 -21.407  1.00  0.00     0.010 C 
HETATM    9  C17 UNL     1      -1.787  50.123 -20.343  1.00  0.00     0.039 C 
HETATM   10  C18 UNL     1      -3.217  50.695 -20.625  1.00  0.00     0.123 C 
HETATM   11  C19 UNL     1      -4.316  49.806 -20.102  1.00  0.00     0.014 C 
HETATM   12  C20 UNL     1      -4.228  49.566 -18.787  1.00  0.00     0.014 C 
HETATM   13  C21 UNL     1      -2.999  50.170 -18.135  1.00  0.00     0.124 C 
HETATM   14  C22 UNL     1      -3.005  49.969 -16.614  1.00  0.00     0.078 C 
HETATM   15  C23 UNL     1      -1.670  50.313 -15.944  1.00  0.00     0.121 C 
HETATM   16  C24 UNL     1      -0.658  50.991 -16.862  1.00  0.00     0.033 C 
HETATM   17  C25 UNL     1      -0.411  50.210 -18.156  1.00  0.00     0.015 C 
HETATM   18  C26 UNL     1      -1.700  49.635 -18.833  1.00  0.00     0.001 C 
HETATM   19  C27 UNL     1      -1.623  48.087 -18.716  1.00  0.00     0.019 C 
HETATM   20  O2  UNL     1      -3.056  51.604 -18.381  1.00  0.00    -0.223 OA
HETATM   21  O3  UNL     1      -3.329  51.901 -19.820  1.00  0.00    -0.224 OA
ENDROOT
BRANCH   1  22
HETATM   22  C2  UNL     1      -3.180  50.213 -25.831  1.00  0.00     0.008 C 
HETATM   23  C1  UNL     1      -3.888  48.855 -25.791  1.00  0.00     0.014 C 
BRANCH  22  24
HETATM   24  C3  UNL     1      -1.782  50.118 -26.424  1.00  0.00    -0.026 C 
HETATM   25  C4  UNL     1      -0.715  50.882 -26.132  1.00  0.00    -0.025 C 
BRANCH  25  26
HETATM   26  C5  UNL     1       0.614  50.749 -26.736  1.00  0.00     0.012 A 
HETATM   27  C6  UNL     1       1.676  51.773 -26.416  1.00  0.00     0.013 A 
HETATM   28  C7  UNL     1       1.077  51.725 -27.795  1.00  0.00    -0.010 A 
HETATM   29  C8  UNL     1       0.240  52.861 -28.279  1.00  0.00     0.010 C 
ENDBRANCH  25  26
ENDBRANCH  22  24
ENDBRANCH   1  22
BRANCH  15  30
HETATM   30  O1  UNL     1      -1.098  49.102 -15.438  1.00  0.00    -0.395 OA
HETATM   31  H33 UNL     1      -0.302  49.344 -14.933  1.00  0.00     0.210 HD
ENDBRANCH  15  30
TORSDOF 4
ENDMDL
MODEL 6
REMARK minimizedAffinity -9.03100586
REMARK  4 active torsions:
REMARK  status: ('A' for Active; 'I' for Inactive)
REMARK    1  A    between atoms: C2_2  and  C3_3 
REMARK    2  A    between atoms: C2_2  and  C9_9 
REMARK    3  A    between atoms: C4_4  and  C5_5 
REMARK    4  A    between atoms: C23_23  and  O1_24 
ROOT
HETATM    1  C9  UNL     1      -3.665  50.503 -25.302  1.00  0.00     0.001 C 
HETATM    2  C10 UNL     1      -4.122  49.012 -25.271  1.00  0.00     0.006 C 
HETATM    3  C11 UNL     1      -3.831  48.475 -23.863  1.00  0.00     0.009 C 
HETATM    4  C12 UNL     1      -3.389  49.709 -23.089  1.00  0.00     0.036 C 
HETATM    5  C13 UNL     1      -2.632  50.575 -24.129  1.00  0.00    -0.033 C 
HETATM    6  C14 UNL     1      -1.267  50.005 -24.571  1.00  0.00     0.016 C 
HETATM    7  C15 UNL     1      -2.443  51.967 -23.492  1.00  0.00     0.010 C 
HETATM    8  C16 UNL     1      -1.711  51.894 -22.139  1.00  0.00     0.010 C 
HETATM    9  C17 UNL     1      -2.385  50.943 -21.130  1.00  0.00     0.039 C 
HETATM   10  C18 UNL     1      -2.709  49.532 -21.726  1.00  0.00     0.123 C 
HETATM   11  C19 UNL     1      -1.539  48.584 -21.656  1.00  0.00     0.014 C 
HETATM   12  C20 UNL     1      -1.074  48.401 -20.412  1.00  0.00     0.014 C 
HETATM   13  C21 UNL     1      -1.771  49.251 -19.367  1.00  0.00     0.124 C 
HETATM   14  C22 UNL     1      -1.288  48.920 -17.949  1.00  0.00     0.078 C 
HETATM   15  C23 UNL     1      -1.753  49.927 -16.891  1.00  0.00     0.121 C 
HETATM   16  C24 UNL     1      -2.777  50.940 -17.389  1.00  0.00     0.033 C 
HETATM   17  C25 UNL     1      -2.321  51.677 -18.652  1.00  0.00     0.015 C 
HETATM   18  C26 UNL     1      -1.644  50.770 -19.734  1.00  0.00     0.001 C 
HETATM   19  C27 UNL     1      -0.148  51.185 -19.804  1.00  0.00     0.019 C 
HETATM   20  O2  UNL     1      -3.187  48.913 -19.430  1.00  0.00    -0.223 OA
HETATM   21  O3  UNL     1      -3.694  48.939 -20.835  1.00  0.00    -0.224 OA
ENDROOT
BRANCH   1  22
HETATM   22  C2  UNL     1      -3.245  50.960 -26.727  1.00  0.00     0.008 C 
HETATM   23  C1  UNL     1      -3.570  49.926 -27.810  1.00  0.00     0.014 C 
BRANCH  22  24
HETATM   24  C3  UNL     1      -1.779  51.364 -26.737  1.00  0.00    -0.026 C 
HETATM   25  C4  UNL     1      -0.951  51.418 -27.795  1.00  0.00    -0.025 C 
BRANCH  25  26
HETATM   26  C5  UNL     1       0.461  51.812 -27.748  1.00  0.00     0.012 A 
HETATM   27  C6  UNL     1       1.309  51.383 -26.575  1.00  0.00     0.013 A 
HETATM   28  C7  UNL     1       0.940  52.832 -26.739  1.00  0.00    -0.010 A 
HETATM   29  C8  UNL     1       0.037  53.483 -25.746  1.00  0.00     0.010 C 
ENDBRANCH  25  26
ENDBRANCH  22  24
ENDBRANCH   1  22
BRANCH  15  30
HETATM   30  O1  UNL     1      -0.603  50.630 -16.408  1.00  0.00    -0.395 OA
HETATM   31  H33 UNL     1      -0.895  51.195 -15.671  1.00  0.00     0.210 HD
ENDBRANCH  15  30
TORSDOF 4
ENDMDL
MODEL 7
REMARK minimizedAffinity -8.99368858
REMARK  4 active torsions:
REMARK  status: ('A' for Active; 'I' for Inactive)
REMARK    1  A    between atoms: C2_2  and  C3_3 
REMARK    2  A    between atoms: C2_2  and  C9_9 
REMARK    3  A    between atoms: C4_4  and  C5_5 
REMARK    4  A    between atoms: C23_23  and  O1_24 
ROOT
HETATM    1  C9  UNL     1      -4.824  48.908 -21.868  1.00  0.00     0.001 C 
HETATM    2  C10 UNL     1      -4.560  49.991 -20.777  1.00  0.00     0.006 C 
HETATM    3  C11 UNL     1      -3.632  51.045 -21.395  1.00  0.00     0.009 C 
HETATM    4  C12 UNL     1      -3.541  50.634 -22.858  1.00  0.00     0.036 C 
HETATM    5  C13 UNL     1      -3.608  49.085 -22.836  1.00  0.00    -0.033 C 
HETATM    6  C14 UNL     1      -2.352  48.394 -22.261  1.00  0.00     0.016 C 
HETATM    7  C15 UNL     1      -3.842  48.632 -24.292  1.00  0.00     0.010 C 
HETATM    8  C16 UNL     1      -2.758  49.163 -25.249  1.00  0.00     0.010 C 
HETATM    9  C17 UNL     1      -2.595  50.695 -25.197  1.00  0.00     0.039 C 
HETATM   10  C18 UNL     1      -2.454  51.257 -23.742  1.00  0.00     0.123 C 
HETATM   11  C19 UNL     1      -1.037  51.209 -23.231  1.00  0.00     0.014 C 
HETATM   12  C20 UNL     1      -0.167  51.871 -24.007  1.00  0.00     0.014 C 
HETATM   13  C21 UNL     1      -0.786  52.447 -25.267  1.00  0.00     0.124 C 
HETATM   14  C22 UNL     1       0.219  53.293 -26.059  1.00  0.00     0.078 C 
HETATM   15  C23 UNL     1      -0.267  53.668 -27.464  1.00  0.00     0.121 C 
HETATM   16  C24 UNL     1      -1.727  53.327 -27.740  1.00  0.00     0.033 C 
HETATM   17  C25 UNL     1      -2.062  51.862 -27.441  1.00  0.00     0.015 C 
HETATM   18  C26 UNL     1      -1.449  51.305 -26.113  1.00  0.00     0.001 C 
HETATM   19  C27 UNL     1      -0.386  50.244 -26.514  1.00  0.00     0.019 C 
HETATM   20  O2  UNL     1      -1.856  53.337 -24.838  1.00  0.00    -0.223 OA
HETATM   21  O3  UNL     1      -2.745  52.679 -23.834  1.00  0.00    -0.224 OA
ENDROOT
BRANCH   1  22
HETATM   22  C2  UNL     1      -5.124  47.512 -21.254  1.00  0.00     0.008 C 
HETATM   23  C1  UNL     1      -3.880  46.623 -21.151  1.00  0.00     0.014 C 
BRANCH  22  24
HETATM   24  C3  UNL     1      -6.254  46.837 -22.015  1.00  0.00    -0.026 C 
HETATM   25  C4  UNL     1      -7.096  47.399 -22.901  1.00  0.00    -0.025 C 
BRANCH  25  26
HETATM   26  C5  UNL     1      -8.174  46.701 -23.607  1.00  0.00     0.012 A 
HETATM   27  C6  UNL     1      -7.868  45.414 -24.335  1.00  0.00     0.013 A 
HETATM   28  C7  UNL     1      -8.198  46.654 -25.119  1.00  0.00    -0.010 A 
HETATM   29  C8  UNL     1      -7.154  47.293 -25.970  1.00  0.00     0.010 C 
ENDBRANCH  25  26
ENDBRANCH  22  24
ENDBRANCH   1  22
BRANCH  15  30
HETATM   30  O1  UNL     1       0.557  52.989 -28.417  1.00  0.00    -0.395 OA
HETATM   31  H33 UNL     1       0.304  53.309 -29.301  1.00  0.00     0.210 HD
ENDBRANCH  15  30
TORSDOF 4
ENDMDL
MODEL 8
REMARK minimizedAffinity -8.92850208
REMARK  4 active torsions:
REMARK  status: ('A' for Active; 'I' for Inactive)
REMARK    1  A    between atoms: C2_2  and  C3_3 
REMARK    2  A    between atoms: C2_2  and  C9_9 
REMARK    3  A    between atoms: C4_4  and  C5_5 
REMARK    4  A    between atoms: C23_23  and  O1_24 
ROOT
HETATM    1  C9  UNL     1      -1.048  52.024 -25.755  1.00  0.00     0.001 C 
HETATM    2  C10 UNL     1      -0.819  50.773 -26.658  1.00  0.00     0.006 C 
HETATM    3  C11 UNL     1      -1.838  49.708 -26.228  1.00  0.00     0.009 C 
HETATM    4  C12 UNL     1      -2.725  50.438 -25.228  1.00  0.00     0.036 C 
HETATM    5  C13 UNL     1      -1.771  51.424 -24.504  1.00  0.00    -0.033 C 
HETATM    6  C14 UNL     1      -0.752  50.756 -23.556  1.00  0.00     0.016 C 
HETATM    7  C15 UNL     1      -2.665  52.404 -23.716  1.00  0.00     0.010 C 
HETATM    8  C16 UNL     1      -3.612  51.676 -22.743  1.00  0.00     0.010 C 
HETATM    9  C17 UNL     1      -4.485  50.606 -23.428  1.00  0.00     0.039 C 
HETATM   10  C18 UNL     1      -3.670  49.625 -24.336  1.00  0.00     0.123 C 
HETATM   11  C19 UNL     1      -3.073  48.474 -23.566  1.00  0.00     0.014 C 
HETATM   12  C20 UNL     1      -3.983  47.749 -22.901  1.00  0.00     0.014 C 
HETATM   13  C21 UNL     1      -5.395  48.296 -23.001  1.00  0.00     0.124 C 
HETATM   14  C22 UNL     1      -6.413  47.369 -22.325  1.00  0.00     0.078 C 
HETATM   15  C23 UNL     1      -7.801  47.999 -22.158  1.00  0.00     0.121 C 
HETATM   16  C24 UNL     1      -7.981  49.331 -22.878  1.00  0.00     0.033 C 
HETATM   17  C25 UNL     1      -6.894  50.351 -22.525  1.00  0.00     0.015 C 
HETATM   18  C26 UNL     1      -5.441  49.771 -22.471  1.00  0.00     0.001 C 
HETATM   19  C27 UNL     1      -4.984  49.826 -20.987  1.00  0.00     0.019 C 
HETATM   20  O2  UNL     1      -5.726  48.340 -24.419  1.00  0.00    -0.223 OA
HETATM   21  O3  UNL     1      -4.642  48.993 -25.213  1.00  0.00    -0.224 OA
ENDROOT
BRANCH   1  22
HETATM   22  C2  UNL     1       0.250  52.860 -25.567  1.00  0.00     0.008 C 
HETATM   23  C1  UNL     1       1.527  52.029 -25.729  1.00  0.00     0.014 C 
BRANCH  22  24
HETATM   24  C3  UNL     1       0.207  53.600 -24.238  1.00  0.00    -0.026 C 
HETATM   25  C4  UNL     1       0.979  53.388 -23.158  1.00  0.00    -0.025 C 
BRANCH  25  26
HETATM   26  C5  UNL     1       0.895  54.130 -21.897  1.00  0.00     0.012 A 
HETATM   27  C6  UNL     1       1.868  53.814 -20.787  1.00  0.00     0.013 A 
HETATM   28  C7  UNL     1       0.417  53.449 -20.634  1.00  0.00    -0.010 A 
HETATM   29  C8  UNL     1       0.015  52.013 -20.585  1.00  0.00     0.010 C 
ENDBRANCH  25  26
ENDBRANCH  22  24
ENDBRANCH   1  22
BRANCH  15  30
HETATM   30  O1  UNL     1      -8.039  48.192 -20.760  1.00  0.00    -0.395 OA
HETATM   31  H33 UNL     1      -8.956  48.501 -20.661  1.00  0.00     0.210 HD
ENDBRANCH  15  30
TORSDOF 4
ENDMDL
MODEL 9
REMARK minimizedAffinity -8.8937273
REMARK  4 active torsions:
REMARK  status: ('A' for Active; 'I' for Inactive)
REMARK    1  A    between atoms: C2_2  and  C3_3 
REMARK    2  A    between atoms: C2_2  and  C9_9 
REMARK    3  A    between atoms: C4_4  and  C5_5 
REMARK    4  A    between atoms: C23_23  and  O1_24 
ROOT
HETATM    1  C9  UNL     1      -1.555  52.098 -23.332  1.00  0.00     0.001 C 
HETATM    2  C10 UNL     1      -2.331  52.517 -24.619  1.00  0.00     0.006 C 
HETATM    3  C11 UNL     1      -3.717  51.862 -24.549  1.00  0.00     0.009 C 
HETATM    4  C12 UNL     1      -3.757  51.245 -23.158  1.00  0.00     0.036 C 
HETATM    5  C13 UNL     1      -2.298  50.795 -22.886  1.00  0.00    -0.033 C 
HETATM    6  C14 UNL     1      -1.829  49.588 -23.727  1.00  0.00     0.016 C 
HETATM    7  C15 UNL     1      -2.212  50.459 -21.383  1.00  0.00     0.010 C 
HETATM    8  C16 UNL     1      -3.245  49.397 -20.963  1.00  0.00     0.010 C 
HETATM    9  C17 UNL     1      -4.693  49.776 -21.333  1.00  0.00     0.039 C 
HETATM   10  C18 UNL     1      -4.857  50.231 -22.822  1.00  0.00     0.123 C 
HETATM   11  C19 UNL     1      -5.043  49.075 -23.771  1.00  0.00     0.014 C 
HETATM   12  C20 UNL     1      -6.093  48.299 -23.467  1.00  0.00     0.014 C 
HETATM   13  C21 UNL     1      -6.807  48.707 -22.192  1.00  0.00     0.124 C 
HETATM   14  C22 UNL     1      -8.067  47.866 -21.952  1.00  0.00     0.078 C 
HETATM   15  C23 UNL     1      -8.670  48.048 -20.554  1.00  0.00     0.121 C 
HETATM   16  C24 UNL     1      -8.048  49.177 -19.740  1.00  0.00     0.033 C 
HETATM   17  C25 UNL     1      -6.522  49.073 -19.646  1.00  0.00     0.015 C 
HETATM   18  C26 UNL     1      -5.806  48.694 -20.985  1.00  0.00     0.001 C 
HETATM   19  C27 UNL     1      -5.208  47.273 -20.795  1.00  0.00     0.019 C 
HETATM   20  O2  UNL     1      -7.237  50.086 -22.377  1.00  0.00    -0.223 OA
HETATM   21  O3  UNL     1      -6.123  50.943 -22.885  1.00  0.00    -0.224 OA
ENDROOT
BRANCH   1  22
HETATM   22  C2  UNL     1      -0.017  52.070 -23.555  1.00  0.00     0.008 C 
HETATM   23  C1  UNL     1       0.720  53.176 -22.792  1.00  0.00     0.014 C 
BRANCH  22  24
HETATM   24  C3  UNL     1       0.297  52.087 -25.043  1.00  0.00    -0.026 C 
HETATM   25  C4  UNL     1       0.175  51.074 -25.918  1.00  0.00    -0.025 C 
BRANCH  25  26
HETATM   26  C5  UNL     1       0.495  51.143 -27.347  1.00  0.00     0.012 A 
HETATM   27  C6  UNL     1       1.627  52.030 -27.808  1.00  0.00     0.013 A 
HETATM   28  C7  UNL     1       0.207  52.400 -28.138  1.00  0.00    -0.010 A 
HETATM   29  C8  UNL     1      -0.400  53.622 -27.535  1.00  0.00     0.010 C 
ENDBRANCH  25  26
ENDBRANCH  22  24
ENDBRANCH   1  22
BRANCH  15  30
HETATM   30  O1  UNL     1      -8.513  46.819 -19.838  1.00  0.00    -0.395 OA
HETATM   31  H33 UNL     1      -8.983  46.913 -18.990  1.00  0.00     0.210 HD
ENDBRANCH  15  30
TORSDOF 4
ENDMDL
