MODEL 1
REMARK minimizedAffinity -7.84666729
REMARK CNNscore 0.70522666
REMARK CNNaffinity 7.65164757
REMARK  13 active torsions:
REMARK  status: ('A' for Active; 'I' for Inactive)
REMARK    1  A    between atoms: C2_2  and  C3_3 
REMARK    2  A    between atoms: C2_2  and  C11_12 
REMARK    3  A    between atoms: C3_3  and  C4_4 
REMARK    4  A    between atoms: C4_4  and  C5_5 
REMARK    5  A    between atoms: C5_5  and  O1_7 
REMARK    6  A    between atoms: C5_5  and  C7_8 
REMARK    7  A    between atoms: C28_32  and  O5_33 
REMARK    8  A    between atoms: O5_33  and  C29_34 
REMARK    9  A    between atoms: C30_36  and  C31_37 
REMARK   10  A    between atoms: C31_37  and  O7_38 
REMARK   11  A    between atoms: C32_39  and  O8_40 
REMARK   12  A    between atoms: C33_41  and  O9_42 
REMARK   13  A    between atoms: C34_43  and  O10_44 
ROOT
HETATM    1  C11 UNL     1      -1.959  52.497 -10.300  1.00  0.00    -0.001 C 
HETATM    2  C12 UNL     1      -1.515  51.061  -9.899  1.00  0.00     0.007 C 
HETATM    3  C13 UNL     1      -0.058  51.141  -9.429  1.00  0.00     0.024 C 
HETATM    4  C14 UNL     1       0.285  52.619  -9.456  1.00  0.00     0.092 C 
HETATM    5  C15 UNL     1       0.007  53.323  -8.086  1.00  0.00     0.272 C 
HETATM    6  O2  UNL     1      -0.863  53.059  -7.275  1.00  0.00    -0.264 OA
HETATM    7  O3  UNL     1       0.915  54.363  -7.932  1.00  0.00    -0.305 OA
HETATM    8  C16 UNL     1       1.686  54.476  -9.145  1.00  0.00     0.113 C 
HETATM    9  C17 UNL     1       0.789  55.301 -10.144  1.00  0.00     0.043 C 
HETATM   10  C18 UNL     1      -0.626  54.743 -10.402  1.00  0.00     0.014 C 
HETATM   11  C19 UNL     1      -0.603  53.213 -10.581  1.00  0.00    -0.020 C 
HETATM   12  C20 UNL     1      -0.053  52.863 -11.990  1.00  0.00     0.017 C 
HETATM   13  C21 UNL     1       1.721  53.032  -9.599  1.00  0.00     0.137 A 
HETATM   14  O4  UNL     1       2.444  52.092  -8.739  1.00  0.00    -0.364 OA
HETATM   15  C22 UNL     1       3.035  52.362  -9.988  1.00  0.00     0.162 A 
HETATM   16  C23 UNL     1       4.350  53.061  -9.776  1.00  0.00     0.041 C 
HETATM   17  C24 UNL     1       4.245  54.098  -8.611  1.00  0.00     0.009 C 
HETATM   18  C25 UNL     1       5.637  54.634  -8.082  1.00  0.00    -0.017 C 
HETATM   19  C26 UNL     1       6.596  55.162  -9.174  1.00  0.00     0.018 C 
HETATM   20  C27 UNL     1       6.393  53.452  -7.406  1.00  0.00     0.018 C 
HETATM   21  C28 UNL     1       5.398  55.711  -6.967  1.00  0.00     0.133 C 
HETATM   22  C35 UNL     1       4.386  56.781  -7.383  1.00  0.00     0.034 C 
HETATM   23  C36 UNL     1       3.044  56.170  -7.762  1.00  0.00     0.015 C 
HETATM   24  C37 UNL     1       3.128  55.167  -8.941  1.00  0.00    -0.004 C 
HETATM   25  C38 UNL     1       3.522  55.954 -10.225  1.00  0.00     0.019 C 
ENDROOT
BRANCH  21  26
HETATM   26  O5  UNL     1       6.657  56.316  -6.618  1.00  0.00    -0.352 OA
BRANCH  26  27
HETATM   27  C29 UNL     1       6.548  57.369  -5.660  1.00  0.00     0.292 C 
HETATM   28  O6  UNL     1       7.788  58.037  -5.413  1.00  0.00    -0.348 OA
HETATM   29  C30 UNL     1       8.816  57.259  -4.774  1.00  0.00     0.179 C 
HETATM   30  C32 UNL     1       8.329  56.560  -3.486  1.00  0.00     0.180 C 
HETATM   31  C33 UNL     1       6.966  55.874  -3.667  1.00  0.00     0.183 C 
HETATM   32  C34 UNL     1       5.964  56.810  -4.348  1.00  0.00     0.204 C 
BRANCH  29  33
HETATM   33  C31 UNL     1       9.573  56.348  -5.755  1.00  0.00     0.198 C 
BRANCH  33  34
HETATM   34  O7  UNL     1      10.967  56.288  -5.454  1.00  0.00    -0.398 OA
HETATM   35  H49 UNL     1      11.036  56.163  -4.486  1.00  0.00     0.209 HD
ENDBRANCH  33  34
ENDBRANCH  29  33
BRANCH  30  36
HETATM   36  O8  UNL     1       9.294  55.610  -3.006  1.00  0.00    -0.390 OA
HETATM   37  H51 UNL     1       8.882  54.727  -3.144  1.00  0.00     0.210 HD
ENDBRANCH  30  36
BRANCH  31  38
HETATM   38  O9  UNL     1       7.173  54.635  -4.360  1.00  0.00    -0.390 OA
HETATM   39  H53 UNL     1       6.786  54.707  -5.263  1.00  0.00     0.210 HD
ENDBRANCH  31  38
BRANCH  32  40
HETATM   40  O10 UNL     1       5.613  57.879  -3.455  1.00  0.00    -0.388 OA
HETATM   41  H55 UNL     1       6.283  58.584  -3.548  1.00  0.00     0.210 HD
ENDBRANCH  32  40
ENDBRANCH  26  27
ENDBRANCH  21  26
BRANCH   1  42
HETATM   42  C2  UNL     1      -3.070  52.488 -11.396  1.00  0.00    -0.014 C 
HETATM   43  C1  UNL     1      -4.189  53.490 -11.078  1.00  0.00     0.010 C 
BRANCH  42  44
HETATM   44  C3  UNL     1      -3.666  51.062 -11.541  1.00  0.00     0.007 C 
BRANCH  44  45
HETATM   45  C4  UNL     1      -4.796  50.754 -10.538  1.00  0.00     0.038 C 
BRANCH  45  46
HETATM   46  C5  UNL     1      -4.897  49.264 -10.087  1.00  0.00     0.061 C 
HETATM   47  C6  UNL     1      -3.999  48.366 -10.961  1.00  0.00     0.046 C 
BRANCH  46  48
HETATM   48  O1  UNL     1      -4.394  49.194  -8.740  1.00  0.00    -0.389 OA
HETATM   49  H12 UNL     1      -3.427  49.296  -8.764  1.00  0.00     0.210 HD
ENDBRANCH  46  48
BRANCH  46  50
HETATM   50  C7  UNL     1      -6.401  48.748 -10.037  1.00  0.00    -0.021 C 
HETATM   51  C8  UNL     1      -6.799  48.057 -11.367  1.00  0.00     0.017 C 
HETATM   52  C9  UNL     1      -6.606  47.694  -8.922  1.00  0.00     0.017 C 
HETATM   53  C10 UNL     1      -7.402  49.896  -9.792  1.00  0.00     0.017 C 
ENDBRANCH  46  50
ENDBRANCH  45  46
ENDBRANCH  44  45
ENDBRANCH  42  44
ENDBRANCH   1  42
TORSDOF 13
ENDMDL
MODEL 2
REMARK minimizedAffinity -7.50862455
REMARK CNNscore 0.450348973
REMARK CNNaffinity 6.88459253
REMARK  13 active torsions:
REMARK  status: ('A' for Active; 'I' for Inactive)
REMARK    1  A    between atoms: C2_2  and  C3_3 
REMARK    2  A    between atoms: C2_2  and  C11_12 
REMARK    3  A    between atoms: C3_3  and  C4_4 
REMARK    4  A    between atoms: C4_4  and  C5_5 
REMARK    5  A    between atoms: C5_5  and  O1_7 
REMARK    6  A    between atoms: C5_5  and  C7_8 
REMARK    7  A    between atoms: C28_32  and  O5_33 
REMARK    8  A    between atoms: O5_33  and  C29_34 
REMARK    9  A    between atoms: C30_36  and  C31_37 
REMARK   10  A    between atoms: C31_37  and  O7_38 
REMARK   11  A    between atoms: C32_39  and  O8_40 
REMARK   12  A    between atoms: C33_41  and  O9_42 
REMARK   13  A    between atoms: C34_43  and  O10_44 
ROOT
HETATM    1  C11 UNL     1       6.642  55.819  -5.115  1.00  0.00    -0.001 C 
HETATM    2  C12 UNL     1       5.701  55.628  -3.891  1.00  0.00     0.007 C 
HETATM    3  C13 UNL     1       4.311  55.264  -4.427  1.00  0.00     0.024 C 
HETATM    4  C14 UNL     1       4.487  55.140  -5.929  1.00  0.00     0.092 C 
HETATM    5  C15 UNL     1       4.828  53.679  -6.374  1.00  0.00     0.272 C 
HETATM    6  O2  UNL     1       5.463  52.841  -5.758  1.00  0.00    -0.264 OA
HETATM    7  O3  UNL     1       4.309  53.472  -7.645  1.00  0.00    -0.305 OA
HETATM    8  C16 UNL     1       3.761  54.718  -8.120  1.00  0.00     0.113 C 
HETATM    9  C17 UNL     1       4.989  55.540  -8.669  1.00  0.00     0.043 C 
HETATM   10  C18 UNL     1       6.156  55.754  -7.684  1.00  0.00     0.014 C 
HETATM   11  C19 UNL     1       5.643  56.116  -6.277  1.00  0.00    -0.020 C 
HETATM   12  C20 UNL     1       5.170  57.594  -6.259  1.00  0.00     0.017 C 
HETATM   13  C21 UNL     1       3.297  55.342  -6.821  1.00  0.00     0.137 A 
HETATM   14  O4  UNL     1       2.210  54.659  -6.117  1.00  0.00    -0.364 OA
HETATM   15  C22 UNL     1       1.888  55.908  -6.680  1.00  0.00     0.162 A 
HETATM   16  C23 UNL     1       0.866  55.715  -7.769  1.00  0.00     0.041 C 
HETATM   17  C24 UNL     1       1.180  54.430  -8.602  1.00  0.00     0.009 C 
HETATM   18  C25 UNL     1      -0.003  53.948  -9.536  1.00  0.00    -0.017 C 
HETATM   19  C26 UNL     1      -0.602  55.040 -10.454  1.00  0.00     0.018 C 
HETATM   20  C27 UNL     1      -1.181  53.478  -8.632  1.00  0.00     0.018 C 
HETATM   21  C28 UNL     1       0.455  52.698 -10.365  1.00  0.00     0.133 C 
HETATM   22  C35 UNL     1       1.806  52.905 -11.052  1.00  0.00     0.034 C 
HETATM   23  C36 UNL     1       2.901  53.251 -10.052  1.00  0.00     0.015 C 
HETATM   24  C37 UNL     1       2.619  54.543  -9.245  1.00  0.00    -0.004 C 
HETATM   25  C38 UNL     1       2.658  55.751 -10.227  1.00  0.00     0.019 C 
ENDROOT
BRANCH  21  26
HETATM   26  O5  UNL     1      -0.561  52.377 -11.333  1.00  0.00    -0.352 OA
BRANCH  26  27
HETATM   27  C29 UNL     1      -0.060  51.737 -12.507  1.00  0.00     0.292 C 
HETATM   28  O6  UNL     1      -0.779  52.089 -13.692  1.00  0.00    -0.348 OA
HETATM   29  C30 UNL     1      -2.147  51.649 -13.763  1.00  0.00     0.179 C 
HETATM   30  C32 UNL     1      -2.310  50.141 -13.479  1.00  0.00     0.180 C 
HETATM   31  C33 UNL     1      -1.508  49.682 -12.251  1.00  0.00     0.183 C 
HETATM   32  C34 UNL     1      -0.071  50.210 -12.303  1.00  0.00     0.204 C 
BRANCH  29  33
HETATM   33  C31 UNL     1      -3.109  52.560 -12.983  1.00  0.00     0.198 C 
BRANCH  33  34
HETATM   34  O7  UNL     1      -3.967  53.295 -13.855  1.00  0.00    -0.398 OA
HETATM   35  H49 UNL     1      -4.297  52.659 -14.521  1.00  0.00     0.209 HD
ENDBRANCH  33  34
ENDBRANCH  29  33
BRANCH  30  36
HETATM   36  O8  UNL     1      -3.692  49.781 -13.322  1.00  0.00    -0.390 OA
HETATM   37  H51 UNL     1      -3.794  49.547 -12.372  1.00  0.00     0.210 HD
ENDBRANCH  30  36
BRANCH  31  38
HETATM   38  O9  UNL     1      -2.230  50.066 -11.071  1.00  0.00    -0.390 OA
HETATM   39  H53 UNL     1      -1.729  50.779 -10.611  1.00  0.00     0.210 HD
ENDBRANCH  31  38
BRANCH  32  40
HETATM   40  O10 UNL     1       0.649  49.552 -13.357  1.00  0.00    -0.388 OA
HETATM   41  H55 UNL     1       0.478  50.036 -14.188  1.00  0.00     0.210 HD
ENDBRANCH  32  40
ENDBRANCH  26  27
ENDBRANCH  21  26
BRANCH   1  42
HETATM   42  C2  UNL     1       7.802  56.820  -4.820  1.00  0.00    -0.014 C 
HETATM   43  C1  UNL     1       7.405  58.264  -5.158  1.00  0.00     0.010 C 
BRANCH  42  44
HETATM   44  C3  UNL     1       9.069  56.421  -5.624  1.00  0.00     0.007 C 
BRANCH  44  45
HETATM   45  C4  UNL     1      10.341  57.182  -5.199  1.00  0.00     0.038 C 
BRANCH  45  46
HETATM   46  C5  UNL     1      11.388  56.338  -4.407  1.00  0.00     0.061 C 
HETATM   47  C6  UNL     1      11.078  54.832  -4.526  1.00  0.00     0.046 C 
BRANCH  46  48
HETATM   48  O1  UNL     1      12.668  56.564  -5.026  1.00  0.00    -0.389 OA
HETATM   49  H12 UNL     1      12.687  56.097  -5.879  1.00  0.00     0.210 HD
ENDBRANCH  46  48
BRANCH  46  50
HETATM   50  C7  UNL     1      11.525  56.809  -2.894  1.00  0.00    -0.021 C 
HETATM   51  C8  UNL     1      10.801  55.829  -1.936  1.00  0.00     0.017 C 
HETATM   52  C9  UNL     1      13.004  56.847  -2.441  1.00  0.00     0.017 C 
HETATM   53  C10 UNL     1      10.925  58.211  -2.665  1.00  0.00     0.017 C 
ENDBRANCH  46  50
ENDBRANCH  45  46
ENDBRANCH  44  45
ENDBRANCH  42  44
ENDBRANCH   1  42
TORSDOF 13
ENDMDL
MODEL 3
REMARK minimizedAffinity -7.60224009
REMARK CNNscore 0.326583594
REMARK CNNaffinity 6.34104204
REMARK  13 active torsions:
REMARK  status: ('A' for Active; 'I' for Inactive)
REMARK    1  A    between atoms: C2_2  and  C3_3 
REMARK    2  A    between atoms: C2_2  and  C11_12 
REMARK    3  A    between atoms: C3_3  and  C4_4 
REMARK    4  A    between atoms: C4_4  and  C5_5 
REMARK    5  A    between atoms: C5_5  and  O1_7 
REMARK    6  A    between atoms: C5_5  and  C7_8 
REMARK    7  A    between atoms: C28_32  and  O5_33 
REMARK    8  A    between atoms: O5_33  and  C29_34 
REMARK    9  A    between atoms: C30_36  and  C31_37 
REMARK   10  A    between atoms: C31_37  and  O7_38 
REMARK   11  A    between atoms: C32_39  and  O8_40 
REMARK   12  A    between atoms: C33_41  and  O9_42 
REMARK   13  A    between atoms: C34_43  and  O10_44 
ROOT
HETATM    1  C11 UNL     1     -19.210  42.600 -26.180  1.00  0.00    -0.001 C 
HETATM    2  C12 UNL     1     -19.255  43.291 -24.787  1.00  0.00     0.007 C 
HETATM    3  C13 UNL     1     -17.917  44.012 -24.584  1.00  0.00     0.024 C 
HETATM    4  C14 UNL     1     -17.167  43.828 -25.891  1.00  0.00     0.092 C 
HETATM    5  C15 UNL     1     -17.425  44.998 -26.899  1.00  0.00     0.272 C 
HETATM    6  O2  UNL     1     -18.441  45.658 -27.031  1.00  0.00    -0.264 OA
HETATM    7  O3  UNL     1     -16.291  45.163 -27.683  1.00  0.00    -0.305 OA
HETATM    8  C16 UNL     1     -15.355  44.117 -27.353  1.00  0.00     0.113 C 
HETATM    9  C17 UNL     1     -15.829  42.851 -28.166  1.00  0.00     0.043 C 
HETATM   10  C18 UNL     1     -17.292  42.416 -27.947  1.00  0.00     0.014 C 
HETATM   11  C19 UNL     1     -17.680  42.478 -26.457  1.00  0.00    -0.020 C 
HETATM   12  C20 UNL     1     -17.059  41.269 -25.708  1.00  0.00     0.017 C 
HETATM   13  C21 UNL     1     -15.669  43.901 -25.888  1.00  0.00     0.137 A 
HETATM   14  O4  UNL     1     -15.372  45.015 -24.984  1.00  0.00    -0.364 OA
HETATM   15  C22 UNL     1     -14.558  43.875 -24.842  1.00  0.00     0.162 A 
HETATM   16  C23 UNL     1     -13.142  44.227 -25.212  1.00  0.00     0.041 C 
HETATM   17  C24 UNL     1     -13.112  45.180 -26.450  1.00  0.00     0.009 C 
HETATM   18  C25 UNL     1     -11.715  45.877 -26.708  1.00  0.00    -0.017 C 
HETATM   19  C26 UNL     1     -10.500  44.921 -26.748  1.00  0.00     0.018 C 
HETATM   20  C27 UNL     1     -11.431  46.856 -25.529  1.00  0.00     0.018 C 
HETATM   21  C28 UNL     1     -11.794  46.750 -28.009  1.00  0.00     0.133 C 
HETATM   22  C35 UNL     1     -12.390  45.992 -29.197  1.00  0.00     0.034 C 
HETATM   23  C36 UNL     1     -13.782  45.461 -28.885  1.00  0.00     0.015 C 
HETATM   24  C37 UNL     1     -13.820  44.485 -27.681  1.00  0.00    -0.004 C 
HETATM   25  C38 UNL     1     -13.040  43.196 -28.072  1.00  0.00     0.019 C 
ENDROOT
BRANCH  21  26
HETATM   26  O5  UNL     1     -10.477  47.237 -28.329  1.00  0.00    -0.352 OA
BRANCH  26  27
HETATM   27  C29 UNL     1     -10.011  46.839 -29.619  1.00  0.00     0.292 C 
HETATM   28  O6  UNL     1      -8.849  46.006 -29.565  1.00  0.00    -0.348 OA
HETATM   29  C30 UNL     1      -7.646  46.621 -29.072  1.00  0.00     0.179 C 
HETATM   30  C32 UNL     1      -7.309  47.947 -29.787  1.00  0.00     0.180 C 
HETATM   31  C33 UNL     1      -8.533  48.863 -29.935  1.00  0.00     0.183 C 
HETATM   32  C34 UNL     1      -9.739  48.090 -30.475  1.00  0.00     0.204 C 
BRANCH  29  33
HETATM   33  C31 UNL     1      -7.594  46.685 -27.536  1.00  0.00     0.198 C 
BRANCH  33  34
HETATM   34  O7  UNL     1      -7.861  48.001 -27.052  1.00  0.00    -0.398 OA
HETATM   35  H49 UNL     1      -8.638  48.328 -27.549  1.00  0.00     0.209 HD
ENDBRANCH  33  34
ENDBRANCH  29  33
BRANCH  30  36
HETATM   36  O8  UNL     1      -6.249  48.651 -29.120  1.00  0.00    -0.390 OA
HETATM   37  H51 UNL     1      -6.672  49.450 -28.731  1.00  0.00     0.210 HD
ENDBRANCH  30  36
BRANCH  31  38
HETATM   38  O9  UNL     1      -8.770  49.508 -28.674  1.00  0.00    -0.390 OA
HETATM   39  H53 UNL     1      -9.604  49.155 -28.288  1.00  0.00     0.210 HD
ENDBRANCH  31  38
BRANCH  32  40
HETATM   40  O10 UNL     1      -9.508  47.726 -31.845  1.00  0.00    -0.388 OA
HETATM   41  H55 UNL     1      -9.008  46.886 -31.855  1.00  0.00     0.210 HD
ENDBRANCH  32  40
ENDBRANCH  26  27
ENDBRANCH  21  26
BRANCH   1  42
HETATM   42  C2  UNL     1     -20.110  41.326 -26.238  1.00  0.00    -0.014 C 
HETATM   43  C1  UNL     1     -19.372  40.086 -25.714  1.00  0.00     0.010 C 
BRANCH  42  44
HETATM   44  C3  UNL     1     -20.589  41.077 -27.694  1.00  0.00     0.007 C 
BRANCH  44  45
HETATM   45  C4  UNL     1     -20.797  42.369 -28.511  1.00  0.00     0.038 C 
BRANCH  45  46
HETATM   46  C5  UNL     1     -21.438  42.169 -29.919  1.00  0.00     0.061 C 
HETATM   47  C6  UNL     1     -22.144  40.801 -30.009  1.00  0.00     0.046 C 
BRANCH  46  48
HETATM   48  O1  UNL     1     -22.447  43.184 -30.073  1.00  0.00    -0.389 OA
HETATM   49  H12 UNL     1     -23.205  42.956 -29.510  1.00  0.00     0.210 HD
ENDBRANCH  46  48
BRANCH  46  50
HETATM   50  C7  UNL     1     -20.390  42.386 -31.097  1.00  0.00    -0.021 C 
HETATM   51  C8  UNL     1     -19.210  41.388 -30.986  1.00  0.00     0.017 C 
HETATM   52  C9  UNL     1     -21.034  42.146 -32.484  1.00  0.00     0.017 C 
HETATM   53  C10 UNL     1     -19.797  43.810 -31.091  1.00  0.00     0.017 C 
ENDBRANCH  46  50
ENDBRANCH  45  46
ENDBRANCH  44  45
ENDBRANCH  42  44
ENDBRANCH   1  42
TORSDOF 13
ENDMDL
MODEL 4
REMARK minimizedAffinity -7.93682861
REMARK CNNscore 0.293711483
REMARK CNNaffinity 5.93037939
REMARK  13 active torsions:
REMARK  status: ('A' for Active; 'I' for Inactive)
REMARK    1  A    between atoms: C2_2  and  C3_3 
REMARK    2  A    between atoms: C2_2  and  C11_12 
REMARK    3  A    between atoms: C3_3  and  C4_4 
REMARK    4  A    between atoms: C4_4  and  C5_5 
REMARK    5  A    between atoms: C5_5  and  O1_7 
REMARK    6  A    between atoms: C5_5  and  C7_8 
REMARK    7  A    between atoms: C28_32  and  O5_33 
REMARK    8  A    between atoms: O5_33  and  C29_34 
REMARK    9  A    between atoms: C30_36  and  C31_37 
REMARK   10  A    between atoms: C31_37  and  O7_38 
REMARK   11  A    between atoms: C32_39  and  O8_40 
REMARK   12  A    between atoms: C33_41  and  O9_42 
REMARK   13  A    between atoms: C34_43  and  O10_44 
ROOT
HETATM    1  C11 UNL     1     -16.011  46.136 -21.340  1.00  0.00    -0.001 C 
HETATM    2  C12 UNL     1     -15.030  45.140 -20.658  1.00  0.00     0.007 C 
HETATM    3  C13 UNL     1     -13.972  44.749 -21.697  1.00  0.00     0.024 C 
HETATM    4  C14 UNL     1     -14.283  45.597 -22.917  1.00  0.00     0.092 C 
HETATM    5  C15 UNL     1     -13.502  46.953 -22.917  1.00  0.00     0.272 C 
HETATM    6  O2  UNL     1     -13.169  47.622 -21.955  1.00  0.00    -0.264 OA
HETATM    7  O3  UNL     1     -13.261  47.323 -24.234  1.00  0.00    -0.305 OA
HETATM    8  C16 UNL     1     -13.927  46.381 -25.100  1.00  0.00     0.113 C 
HETATM    9  C17 UNL     1     -15.431  46.849 -25.160  1.00  0.00     0.043 C 
HETATM   10  C18 UNL     1     -16.148  47.002 -23.803  1.00  0.00     0.014 C 
HETATM   11  C19 UNL     1     -15.815  45.832 -22.857  1.00  0.00    -0.020 C 
HETATM   12  C20 UNL     1     -16.607  44.570 -23.294  1.00  0.00     0.017 C 
HETATM   13  C21 UNL     1     -13.842  45.118 -24.269  1.00  0.00     0.137 A 
HETATM   14  O4  UNL     1     -12.501  44.579 -24.031  1.00  0.00    -0.364 OA
HETATM   15  C22 UNL     1     -13.331  43.814 -24.872  1.00  0.00     0.162 A 
HETATM   16  C23 UNL     1     -12.743  43.782 -26.257  1.00  0.00     0.041 C 
HETATM   17  C24 UNL     1     -12.151  45.177 -26.640  1.00  0.00     0.009 C 
HETATM   18  C25 UNL     1     -11.215  45.166 -27.916  1.00  0.00    -0.017 C 
HETATM   19  C26 UNL     1     -11.819  44.487 -29.168  1.00  0.00     0.018 C 
HETATM   20  C27 UNL     1      -9.935  44.344 -27.578  1.00  0.00     0.018 C 
HETATM   21  C28 UNL     1     -10.741  46.626 -28.235  1.00  0.00     0.133 C 
HETATM   22  C35 UNL     1     -11.893  47.632 -28.263  1.00  0.00     0.034 C 
HETATM   23  C36 UNL     1     -12.659  47.648 -26.947  1.00  0.00     0.015 C 
HETATM   24  C37 UNL     1     -13.282  46.279 -26.574  1.00  0.00    -0.004 C 
HETATM   25  C38 UNL     1     -14.394  45.949 -27.613  1.00  0.00     0.019 C 
ENDROOT
BRANCH  21  26
HETATM   26  O5  UNL     1     -10.037  46.629 -29.492  1.00  0.00    -0.352 OA
BRANCH  26  27
HETATM   27  C29 UNL     1      -9.977  47.910 -30.119  1.00  0.00     0.292 C 
HETATM   28  O6  UNL     1      -9.949  47.839 -31.546  1.00  0.00    -0.348 OA
HETATM   29  C30 UNL     1      -8.777  47.247 -32.134  1.00  0.00     0.179 C 
HETATM   30  C32 UNL     1      -7.463  47.869 -31.613  1.00  0.00     0.180 C 
HETATM   31  C33 UNL     1      -7.454  48.034 -30.086  1.00  0.00     0.183 C 
HETATM   32  C34 UNL     1      -8.751  48.681 -29.593  1.00  0.00     0.204 C 
BRANCH  29  33
HETATM   33  C31 UNL     1      -8.812  45.709 -32.119  1.00  0.00     0.198 C 
BRANCH  33  34
HETATM   34  O7  UNL     1      -8.203  45.155 -33.284  1.00  0.00    -0.398 OA
HETATM   35  H49 UNL     1      -7.366  45.643 -33.420  1.00  0.00     0.209 HD
ENDBRANCH  33  34
ENDBRANCH  29  33
BRANCH  30  36
HETATM   36  O8  UNL     1      -6.319  47.108 -32.030  1.00  0.00    -0.390 OA
HETATM   37  H51 UNL     1      -5.964  46.700 -31.207  1.00  0.00     0.210 HD
ENDBRANCH  30  36
BRANCH  31  38
HETATM   38  O9  UNL     1      -7.178  46.755 -29.496  1.00  0.00    -0.390 OA
HETATM   39  H53 UNL     1      -7.989  46.435 -29.037  1.00  0.00     0.210 HD
ENDBRANCH  31  38
BRANCH  32  40
HETATM   40  O10 UNL     1      -8.798  50.054 -30.012  1.00  0.00    -0.388 OA
HETATM   41  H55 UNL     1      -9.168  50.082 -30.916  1.00  0.00     0.210 HD
ENDBRANCH  32  40
ENDBRANCH  26  27
ENDBRANCH  21  26
BRANCH   1  42
HETATM   42  C2  UNL     1     -17.442  46.075 -20.719  1.00  0.00    -0.014 C 
HETATM   43  C1  UNL     1     -17.649  47.171 -19.663  1.00  0.00     0.010 C 
BRANCH  42  44
HETATM   44  C3  UNL     1     -17.689  44.680 -20.084  1.00  0.00     0.007 C 
BRANCH  44  45
HETATM   45  C4  UNL     1     -19.132  44.163 -20.259  1.00  0.00     0.038 C 
BRANCH  45  46
HETATM   46  C5  UNL     1     -19.834  43.695 -18.947  1.00  0.00     0.061 C 
HETATM   47  C6  UNL     1     -18.794  43.373 -17.855  1.00  0.00     0.046 C 
BRANCH  46  48
HETATM   48  O1  UNL     1     -20.626  44.800 -18.474  1.00  0.00    -0.389 OA
HETATM   49  H12 UNL     1     -20.029  45.477 -18.112  1.00  0.00     0.210 HD
ENDBRANCH  46  48
BRANCH  46  50
HETATM   50  C7  UNL     1     -20.840  42.488 -19.197  1.00  0.00    -0.021 C 
HETATM   51  C8  UNL     1     -21.254  42.405 -20.688  1.00  0.00     0.017 C 
HETATM   52  C9  UNL     1     -20.193  41.125 -18.848  1.00  0.00     0.017 C 
HETATM   53  C10 UNL     1     -22.130  42.625 -18.363  1.00  0.00     0.017 C 
ENDBRANCH  46  50
ENDBRANCH  45  46
ENDBRANCH  44  45
ENDBRANCH  42  44
ENDBRANCH   1  42
TORSDOF 13
ENDMDL
MODEL 5
REMARK minimizedAffinity -8.2168684
REMARK CNNscore 0.256181926
REMARK CNNaffinity 6.79730797
REMARK  13 active torsions:
REMARK  status: ('A' for Active; 'I' for Inactive)
REMARK    1  A    between atoms: C2_2  and  C3_3 
REMARK    2  A    between atoms: C2_2  and  C11_12 
REMARK    3  A    between atoms: C3_3  and  C4_4 
REMARK    4  A    between atoms: C4_4  and  C5_5 
REMARK    5  A    between atoms: C5_5  and  O1_7 
REMARK    6  A    between atoms: C5_5  and  C7_8 
REMARK    7  A    between atoms: C28_32  and  O5_33 
REMARK    8  A    between atoms: O5_33  and  C29_34 
REMARK    9  A    between atoms: C30_36  and  C31_37 
REMARK   10  A    between atoms: C31_37  and  O7_38 
REMARK   11  A    between atoms: C32_39  and  O8_40 
REMARK   12  A    between atoms: C33_41  and  O9_42 
REMARK   13  A    between atoms: C34_43  and  O10_44 
ROOT
HETATM    1  C11 UNL     1       4.601  50.435 -10.224  1.00  0.00    -0.001 C 
HETATM    2  C12 UNL     1       4.454  48.890 -10.120  1.00  0.00     0.007 C 
HETATM    3  C13 UNL     1       3.437  48.448 -11.179  1.00  0.00     0.024 C 
HETATM    4  C14 UNL     1       3.096  49.711 -11.950  1.00  0.00     0.092 C 
HETATM    5  C15 UNL     1       4.017  49.918 -13.198  1.00  0.00     0.272 C 
HETATM    6  O2  UNL     1       5.185  49.593 -13.326  1.00  0.00    -0.264 OA
HETATM    7  O3  UNL     1       3.292  50.586 -14.176  1.00  0.00    -0.305 OA
HETATM    8  C16 UNL     1       2.008  50.943 -13.624  1.00  0.00     0.113 C 
HETATM    9  C17 UNL     1       2.254  52.260 -12.793  1.00  0.00     0.043 C 
HETATM   10  C18 UNL     1       3.352  52.184 -11.713  1.00  0.00     0.014 C 
HETATM   11  C19 UNL     1       3.274  50.862 -10.925  1.00  0.00    -0.020 C 
HETATM   12  C20 UNL     1       2.093  50.925  -9.921  1.00  0.00     0.017 C 
HETATM   13  C21 UNL     1       1.779  49.795 -12.663  1.00  0.00     0.137 A 
HETATM   14  O4  UNL     1       1.615  48.467 -13.257  1.00  0.00    -0.364 OA
HETATM   15  C22 UNL     1       0.465  49.021 -12.664  1.00  0.00     0.162 A 
HETATM   16  C23 UNL     1      -0.574  49.265 -13.725  1.00  0.00     0.041 C 
HETATM   17  C24 UNL     1       0.086  49.806 -15.034  1.00  0.00     0.009 C 
HETATM   18  C25 UNL     1      -0.854  49.770 -16.307  1.00  0.00    -0.017 C 
HETATM   19  C26 UNL     1      -2.247  50.413 -16.113  1.00  0.00     0.018 C 
HETATM   20  C27 UNL     1      -1.134  48.281 -16.667  1.00  0.00     0.018 C 
HETATM   21  C28 UNL     1      -0.104  50.396 -17.534  1.00  0.00     0.133 C 
HETATM   22  C35 UNL     1       0.532  51.750 -17.212  1.00  0.00     0.034 C 
HETATM   23  C36 UNL     1       1.507  51.653 -16.047  1.00  0.00     0.015 C 
HETATM   24  C37 UNL     1       0.856  51.152 -14.732  1.00  0.00    -0.004 C 
HETATM   25  C38 UNL     1      -0.153  52.233 -14.245  1.00  0.00     0.019 C 
ENDROOT
BRANCH  21  26
HETATM   26  O5  UNL     1      -1.024  50.518 -18.635  1.00  0.00    -0.352 OA
BRANCH  26  27
HETATM   27  C29 UNL     1      -0.770  49.606 -19.704  1.00  0.00     0.292 C 
HETATM   28  O6  UNL     1       0.136  50.123 -20.682  1.00  0.00    -0.348 OA
HETATM   29  C30 UNL     1      -0.327  51.246 -21.452  1.00  0.00     0.179 C 
HETATM   30  C32 UNL     1      -1.712  51.009 -22.092  1.00  0.00     0.180 C 
HETATM   31  C33 UNL     1      -2.718  50.393 -21.108  1.00  0.00     0.183 C 
HETATM   32  C34 UNL     1      -2.104  49.204 -20.363  1.00  0.00     0.204 C 
BRANCH  29  33
HETATM   33  C31 UNL     1      -0.184  52.583 -20.704  1.00  0.00     0.198 C 
BRANCH  33  34
HETATM   34  O7  UNL     1       0.899  53.361 -21.213  1.00  0.00    -0.398 OA
HETATM   35  H49 UNL     1       0.830  53.329 -22.188  1.00  0.00     0.209 HD
ENDBRANCH  33  34
ENDBRANCH  29  33
BRANCH  30  36
HETATM   36  O8  UNL     1      -2.250  52.218 -22.648  1.00  0.00    -0.390 OA
HETATM   37  H51 UNL     1      -3.017  52.450 -22.076  1.00  0.00     0.210 HD
ENDBRANCH  30  36
BRANCH  31  38
HETATM   38  O9  UNL     1      -3.204  51.434 -20.248  1.00  0.00    -0.390 OA
HETATM   39  H53 UNL     1      -2.858  51.282 -19.338  1.00  0.00     0.210 HD
ENDBRANCH  31  38
BRANCH  32  40
HETATM   40  O10 UNL     1      -1.910  48.109 -21.272  1.00  0.00    -0.388 OA
HETATM   41  H55 UNL     1      -1.048  48.233 -21.715  1.00  0.00     0.210 HD
ENDBRANCH  32  40
ENDBRANCH  26  27
ENDBRANCH  21  26
BRANCH   1  42
HETATM   42  C2  UNL     1       4.999  51.084  -8.862  1.00  0.00    -0.014 C 
HETATM   43  C1  UNL     1       3.792  51.219  -7.923  1.00  0.00     0.010 C 
BRANCH  42  44
HETATM   44  C3  UNL     1       5.636  52.480  -9.103  1.00  0.00     0.007 C 
BRANCH  44  45
HETATM   45  C4  UNL     1       5.046  53.595  -8.216  1.00  0.00     0.038 C 
BRANCH  45  46
HETATM   46  C5  UNL     1       5.292  55.049  -8.726  1.00  0.00     0.061 C 
HETATM   47  C6  UNL     1       5.886  55.928  -7.606  1.00  0.00     0.046 C 
BRANCH  46  48
HETATM   48  O1  UNL     1       6.274  54.969  -9.776  1.00  0.00    -0.389 OA
HETATM   49  H12 UNL     1       7.141  54.783  -9.377  1.00  0.00     0.210 HD
ENDBRANCH  46  48
BRANCH  46  50
HETATM   50  C7  UNL     1       3.988  55.693  -9.370  1.00  0.00    -0.021 C 
HETATM   51  C8  UNL     1       2.738  54.820  -9.092  1.00  0.00     0.017 C 
HETATM   52  C9  UNL     1       3.685  57.088  -8.773  1.00  0.00     0.017 C 
HETATM   53  C10 UNL     1       4.113  55.851 -10.900  1.00  0.00     0.017 C 
ENDBRANCH  46  50
ENDBRANCH  45  46
ENDBRANCH  44  45
ENDBRANCH  42  44
ENDBRANCH   1  42
TORSDOF 13
ENDMDL
MODEL 6
REMARK minimizedAffinity -9.44048119
REMARK CNNscore 0.187496141
REMARK CNNaffinity 7.18876076
REMARK  13 active torsions:
REMARK  status: ('A' for Active; 'I' for Inactive)
REMARK    1  A    between atoms: C2_2  and  C3_3 
REMARK    2  A    between atoms: C2_2  and  C11_12 
REMARK    3  A    between atoms: C3_3  and  C4_4 
REMARK    4  A    between atoms: C4_4  and  C5_5 
REMARK    5  A    between atoms: C5_5  and  O1_7 
REMARK    6  A    between atoms: C5_5  and  C7_8 
REMARK    7  A    between atoms: C28_32  and  O5_33 
REMARK    8  A    between atoms: O5_33  and  C29_34 
REMARK    9  A    between atoms: C30_36  and  C31_37 
REMARK   10  A    between atoms: C31_37  and  O7_38 
REMARK   11  A    between atoms: C32_39  and  O8_40 
REMARK   12  A    between atoms: C33_41  and  O9_42 
REMARK   13  A    between atoms: C34_43  and  O10_44 
ROOT
HETATM    1  C11 UNL     1      -0.400  51.334 -20.940  1.00  0.00    -0.001 C 
HETATM    2  C12 UNL     1      -0.904  52.039 -19.647  1.00  0.00     0.007 C 
HETATM    3  C13 UNL     1      -2.284  51.461 -19.313  1.00  0.00     0.024 C 
HETATM    4  C14 UNL     1      -2.512  50.364 -20.337  1.00  0.00     0.092 C 
HETATM    5  C15 UNL     1      -2.020  48.966 -19.836  1.00  0.00     0.272 C 
HETATM    6  O2  UNL     1      -1.082  48.726 -19.095  1.00  0.00    -0.264 OA
HETATM    7  O3  UNL     1      -2.819  47.985 -20.408  1.00  0.00    -0.305 OA
HETATM    8  C16 UNL     1      -3.719  48.619 -21.340  1.00  0.00     0.113 C 
HETATM    9  C17 UNL     1      -2.885  48.824 -22.663  1.00  0.00     0.043 C 
HETATM   10  C18 UNL     1      -1.558  49.597 -22.514  1.00  0.00     0.014 C 
HETATM   11  C19 UNL     1      -1.721  50.820 -21.591  1.00  0.00    -0.020 C 
HETATM   12  C20 UNL     1      -2.460  51.952 -22.354  1.00  0.00     0.017 C 
HETATM   13  C21 UNL     1      -3.918  49.965 -20.676  1.00  0.00     0.137 A 
HETATM   14  O4  UNL     1      -4.605  49.961 -19.382  1.00  0.00    -0.364 OA
HETATM   15  C22 UNL     1      -5.317  50.531 -20.454  1.00  0.00     0.162 A 
HETATM   16  C23 UNL     1      -6.540  49.701 -20.737  1.00  0.00     0.041 C 
HETATM   17  C24 UNL     1      -6.217  48.177 -20.608  1.00  0.00     0.009 C 
HETATM   18  C25 UNL     1      -7.490  47.239 -20.546  1.00  0.00    -0.017 C 
HETATM   19  C26 UNL     1      -8.529  47.465 -21.669  1.00  0.00     0.018 C 
HETATM   20  C27 UNL     1      -8.250  47.531 -19.217  1.00  0.00     0.018 C 
HETATM   21  C28 UNL     1      -7.037  45.738 -20.486  1.00  0.00     0.133 C 
HETATM   22  C35 UNL     1      -6.002  45.387 -21.556  1.00  0.00     0.034 C 
HETATM   23  C36 UNL     1      -4.766  46.271 -21.456  1.00  0.00     0.015 C 
HETATM   24  C37 UNL     1      -5.068  47.783 -21.619  1.00  0.00    -0.004 C 
HETATM   25  C38 UNL     1      -5.549  48.030 -23.079  1.00  0.00     0.019 C 
ENDROOT
BRANCH  21  26
HETATM   26  O5  UNL     1      -8.196  44.892 -20.606  1.00  0.00    -0.352 OA
BRANCH  26  27
HETATM   27  C29 UNL     1      -7.998  43.757 -21.450  1.00  0.00     0.292 C 
HETATM   28  O6  UNL     1      -8.955  43.669 -22.509  1.00  0.00    -0.348 OA
HETATM   29  C30 UNL     1     -10.318  43.424 -22.120  1.00  0.00     0.179 C 
HETATM   30  C32 UNL     1     -10.466  42.211 -21.177  1.00  0.00     0.180 C 
HETATM   31  C33 UNL     1      -9.422  42.211 -20.049  1.00  0.00     0.183 C 
HETATM   32  C34 UNL     1      -8.017  42.474 -20.598  1.00  0.00     0.204 C 
BRANCH  29  33
HETATM   33  C31 UNL     1     -11.044  44.697 -21.653  1.00  0.00     0.198 C 
BRANCH  33  34
HETATM   34  O7  UNL     1     -11.362  45.557 -22.746  1.00  0.00    -0.398 OA
HETATM   35  H49 UNL     1     -11.734  44.988 -23.449  1.00  0.00     0.209 HD
ENDBRANCH  33  34
ENDBRANCH  29  33
BRANCH  30  36
HETATM   36  O8  UNL     1     -11.787  42.135 -20.620  1.00  0.00    -0.390 OA
HETATM   37  H51 UNL     1     -11.679  42.339 -19.663  1.00  0.00     0.210 HD
ENDBRANCH  30  36
BRANCH  31  38
HETATM   38  O9  UNL     1      -9.843  43.147 -19.045  1.00  0.00    -0.390 OA
HETATM   39  H53 UNL     1      -9.225  43.914 -19.048  1.00  0.00     0.210 HD
ENDBRANCH  31  38
BRANCH  32  40
HETATM   40  O10 UNL     1      -7.579  41.345 -21.371  1.00  0.00    -0.388 OA
HETATM   41  H55 UNL     1      -7.917  41.453 -22.281  1.00  0.00     0.210 HD
ENDBRANCH  32  40
ENDBRANCH  26  27
ENDBRANCH  21  26
BRANCH   1  42
HETATM   42  C2  UNL     1       0.568  52.237 -21.766  1.00  0.00    -0.014 C 
HETATM   43  C1  UNL     1       0.994  53.483 -20.978  1.00  0.00     0.010 C 
BRANCH  42  44
HETATM   44  C3  UNL     1      -0.107  52.663 -23.099  1.00  0.00     0.007 C 
BRANCH  44  45
HETATM   45  C4  UNL     1       0.878  52.808 -24.277  1.00  0.00     0.038 C 
BRANCH  45  46
HETATM   46  C5  UNL     1       0.221  52.841 -25.692  1.00  0.00     0.061 C 
HETATM   47  C6  UNL     1      -1.316  52.792 -25.582  1.00  0.00     0.046 C 
BRANCH  46  48
HETATM   48  O1  UNL     1       0.570  54.104 -26.290  1.00  0.00    -0.389 OA
HETATM   49  H12 UNL     1       0.059  54.806 -25.852  1.00  0.00     0.210 HD
ENDBRANCH  46  48
BRANCH  46  50
HETATM   50  C7  UNL     1       0.795  51.710 -26.651  1.00  0.00    -0.021 C 
HETATM   51  C8  UNL     1       0.747  52.158 -28.134  1.00  0.00     0.017 C 
HETATM   52  C9  UNL     1       2.278  51.395 -26.340  1.00  0.00     0.017 C 
HETATM   53  C10 UNL     1      -0.001  50.393 -26.537  1.00  0.00     0.017 C 
ENDBRANCH  46  50
ENDBRANCH  45  46
ENDBRANCH  44  45
ENDBRANCH  42  44
ENDBRANCH   1  42
TORSDOF 13
ENDMDL
MODEL 7
REMARK minimizedAffinity -8.2873373
REMARK CNNscore 0.187487364
REMARK CNNaffinity 5.95084715
REMARK  13 active torsions:
REMARK  status: ('A' for Active; 'I' for Inactive)
REMARK    1  A    between atoms: C2_2  and  C3_3 
REMARK    2  A    between atoms: C2_2  and  C11_12 
REMARK    3  A    between atoms: C3_3  and  C4_4 
REMARK    4  A    between atoms: C4_4  and  C5_5 
REMARK    5  A    between atoms: C5_5  and  O1_7 
REMARK    6  A    between atoms: C5_5  and  C7_8 
REMARK    7  A    between atoms: C28_32  and  O5_33 
REMARK    8  A    between atoms: O5_33  and  C29_34 
REMARK    9  A    between atoms: C30_36  and  C31_37 
REMARK   10  A    between atoms: C31_37  and  O7_38 
REMARK   11  A    between atoms: C32_39  and  O8_40 
REMARK   12  A    between atoms: C33_41  and  O9_42 
REMARK   13  A    between atoms: C34_43  and  O10_44 
ROOT
HETATM    1  C11 UNL     1     -17.111  45.186 -24.345  1.00  0.00    -0.001 C 
HETATM    2  C12 UNL     1     -16.402  45.001 -22.973  1.00  0.00     0.007 C 
HETATM    3  C13 UNL     1     -14.892  45.111 -23.213  1.00  0.00     0.024 C 
HETATM    4  C14 UNL     1     -14.750  45.465 -24.683  1.00  0.00     0.092 C 
HETATM    5  C15 UNL     1     -14.706  47.011 -24.925  1.00  0.00     0.272 C 
HETATM    6  O2  UNL     1     -15.269  47.882 -24.286  1.00  0.00    -0.264 OA
HETATM    7  O3  UNL     1     -13.924  47.260 -26.045  1.00  0.00    -0.305 OA
HETATM    8  C16 UNL     1     -13.552  45.995 -26.629  1.00  0.00     0.113 C 
HETATM    9  C17 UNL     1     -14.790  45.546 -27.496  1.00  0.00     0.043 C 
HETATM   10  C18 UNL     1     -16.142  45.473 -26.757  1.00  0.00     0.014 C 
HETATM   11  C19 UNL     1     -15.988  44.826 -25.367  1.00  0.00    -0.020 C 
HETATM   12  C20 UNL     1     -15.828  43.290 -25.522  1.00  0.00     0.017 C 
HETATM   13  C21 UNL     1     -13.476  45.120 -25.396  1.00  0.00     0.137 A 
HETATM   14  O4  UNL     1     -12.430  45.446 -24.425  1.00  0.00    -0.364 OA
HETATM   15  C22 UNL     1     -12.259  44.240 -25.131  1.00  0.00     0.162 A 
HETATM   16  C23 UNL     1     -11.031  44.339 -25.996  1.00  0.00     0.041 C 
HETATM   17  C24 UNL     1     -10.921  45.759 -26.641  1.00  0.00     0.009 C 
HETATM   18  C25 UNL     1      -9.511  46.081 -27.283  1.00  0.00    -0.017 C 
HETATM   19  C26 UNL     1      -8.975  45.011 -28.263  1.00  0.00     0.018 C 
HETATM   20  C27 UNL     1      -8.457  46.154 -26.138  1.00  0.00     0.018 C 
HETATM   21  C28 UNL     1      -9.548  47.498 -27.953  1.00  0.00     0.133 C 
HETATM   22  C35 UNL     1     -10.757  47.690 -28.870  1.00  0.00     0.034 C 
HETATM   23  C36 UNL     1     -12.068  47.471 -28.128  1.00  0.00     0.015 C 
HETATM   24  C37 UNL     1     -12.205  46.054 -27.514  1.00  0.00    -0.004 C 
HETATM   25  C38 UNL     1     -12.294  45.024 -28.678  1.00  0.00     0.019 C 
ENDROOT
BRANCH  21  26
HETATM   26  O5  UNL     1      -8.323  47.707 -28.681  1.00  0.00    -0.352 OA
BRANCH  26  27
HETATM   27  C29 UNL     1      -8.047  46.696 -29.651  1.00  0.00     0.292 C 
HETATM   28  O6  UNL     1      -6.726  46.159 -29.545  1.00  0.00    -0.348 OA
HETATM   29  C30 UNL     1      -5.644  47.059 -29.845  1.00  0.00     0.179 C 
HETATM   30  C32 UNL     1      -5.814  47.772 -31.204  1.00  0.00     0.180 C 
HETATM   31  C33 UNL     1      -7.236  48.318 -31.409  1.00  0.00     0.183 C 
HETATM   32  C34 UNL     1      -8.288  47.261 -31.063  1.00  0.00     0.204 C 
BRANCH  29  33
HETATM   33  C31 UNL     1      -5.295  47.988 -28.670  1.00  0.00     0.198 C 
BRANCH  33  34
HETATM   34  O7  UNL     1      -3.929  48.399 -28.709  1.00  0.00    -0.398 OA
HETATM   35  H49 UNL     1      -3.743  48.658 -29.634  1.00  0.00     0.209 HD
ENDBRANCH  33  34
ENDBRANCH  29  33
BRANCH  30  36
HETATM   36  O8  UNL     1      -4.856  48.829 -31.368  1.00  0.00    -0.390 OA
HETATM   37  H51 UNL     1      -5.380  49.662 -31.336  1.00  0.00     0.210 HD
ENDBRANCH  30  36
BRANCH  31  38
HETATM   38  O9  UNL     1      -7.363  49.537 -30.661  1.00  0.00    -0.390 OA
HETATM   39  H53 UNL     1      -7.981  49.385 -29.910  1.00  0.00     0.210 HD
ENDBRANCH  31  38
BRANCH  32  40
HETATM   40  O10 UNL     1      -8.259  46.209 -32.041  1.00  0.00    -0.388 OA
HETATM   41  H55 UNL     1      -7.575  45.566 -31.774  1.00  0.00     0.210 HD
ENDBRANCH  32  40
ENDBRANCH  26  27
ENDBRANCH  21  26
BRANCH   1  42
HETATM   42  C2  UNL     1     -18.480  44.439 -24.409  1.00  0.00    -0.014 C 
HETATM   43  C1  UNL     1     -19.655  45.418 -24.545  1.00  0.00     0.010 C 
BRANCH  42  44
HETATM   44  C3  UNL     1     -18.669  43.563 -23.141  1.00  0.00     0.007 C 
BRANCH  44  45
HETATM   45  C4  UNL     1     -19.635  44.170 -22.103  1.00  0.00     0.038 C 
BRANCH  45  46
HETATM   46  C5  UNL     1     -19.228  43.958 -20.612  1.00  0.00     0.061 C 
HETATM   47  C6  UNL     1     -20.351  43.242 -19.834  1.00  0.00     0.046 C 
BRANCH  46  48
HETATM   48  O1  UNL     1     -18.080  43.089 -20.606  1.00  0.00    -0.389 OA
HETATM   49  H12 UNL     1     -18.371  42.188 -20.830  1.00  0.00     0.210 HD
ENDBRANCH  46  48
BRANCH  46  50
HETATM   50  C7  UNL     1     -18.776  45.312 -19.910  1.00  0.00    -0.021 C 
HETATM   51  C8  UNL     1     -19.667  45.629 -18.682  1.00  0.00     0.017 C 
HETATM   52  C9  UNL     1     -17.324  45.224 -19.382  1.00  0.00     0.017 C 
HETATM   53  C10 UNL     1     -18.858  46.518 -20.868  1.00  0.00     0.017 C 
ENDBRANCH  46  50
ENDBRANCH  45  46
ENDBRANCH  44  45
ENDBRANCH  42  44
ENDBRANCH   1  42
TORSDOF 13
ENDMDL
MODEL 8
REMARK minimizedAffinity -8.5451107
REMARK CNNscore 0.165073887
REMARK CNNaffinity 6.88798332
REMARK  13 active torsions:
REMARK  status: ('A' for Active; 'I' for Inactive)
REMARK    1  A    between atoms: C2_2  and  C3_3 
REMARK    2  A    between atoms: C2_2  and  C11_12 
REMARK    3  A    between atoms: C3_3  and  C4_4 
REMARK    4  A    between atoms: C4_4  and  C5_5 
REMARK    5  A    between atoms: C5_5  and  O1_7 
REMARK    6  A    between atoms: C5_5  and  C7_8 
REMARK    7  A    between atoms: C28_32  and  O5_33 
REMARK    8  A    between atoms: O5_33  and  C29_34 
REMARK    9  A    between atoms: C30_36  and  C31_37 
REMARK   10  A    between atoms: C31_37  and  O7_38 
REMARK   11  A    between atoms: C32_39  and  O8_40 
REMARK   12  A    between atoms: C33_41  and  O9_42 
REMARK   13  A    between atoms: C34_43  and  O10_44 
ROOT
HETATM    1  C11 UNL     1      -3.568  51.089 -24.871  1.00  0.00    -0.001 C 
HETATM    2  C12 UNL     1      -4.749  51.999 -24.428  1.00  0.00     0.007 C 
HETATM    3  C13 UNL     1      -5.347  51.393 -23.152  1.00  0.00     0.024 C 
HETATM    4  C14 UNL     1      -4.447  50.219 -22.813  1.00  0.00     0.092 C 
HETATM    5  C15 UNL     1      -3.282  50.617 -21.847  1.00  0.00     0.272 C 
HETATM    6  O2  UNL     1      -2.702  51.686 -21.779  1.00  0.00    -0.264 OA
HETATM    7  O3  UNL     1      -2.965  49.517 -21.061  1.00  0.00    -0.305 OA
HETATM    8  C16 UNL     1      -3.744  48.393 -21.519  1.00  0.00     0.113 C 
HETATM    9  C17 UNL     1      -2.973  47.822 -22.770  1.00  0.00     0.043 C 
HETATM   10  C18 UNL     1      -2.681  48.829 -23.902  1.00  0.00     0.014 C 
HETATM   11  C19 UNL     1      -3.899  49.730 -24.180  1.00  0.00    -0.020 C 
HETATM   12  C20 UNL     1      -4.967  48.931 -24.973  1.00  0.00     0.017 C 
HETATM   13  C21 UNL     1      -5.001  49.089 -21.996  1.00  0.00     0.137 A 
HETATM   14  O4  UNL     1      -5.807  49.757 -20.972  1.00  0.00    -0.364 OA
HETATM   15  C22 UNL     1      -6.380  48.610 -21.554  1.00  0.00     0.162 A 
HETATM   16  C23 UNL     1      -6.526  47.541 -20.505  1.00  0.00     0.041 C 
HETATM   17  C24 UNL     1      -5.282  47.519 -19.558  1.00  0.00     0.009 C 
HETATM   18  C25 UNL     1      -5.482  46.680 -18.231  1.00  0.00    -0.017 C 
HETATM   19  C26 UNL     1      -6.015  45.243 -18.436  1.00  0.00     0.018 C 
HETATM   20  C27 UNL     1      -6.554  47.396 -17.355  1.00  0.00     0.018 C 
HETATM   21  C28 UNL     1      -4.151  46.679 -17.402  1.00  0.00     0.133 C 
HETATM   22  C35 UNL     1      -2.927  46.313 -18.245  1.00  0.00     0.034 C 
HETATM   23  C36 UNL     1      -2.759  47.252 -19.432  1.00  0.00     0.015 C 
HETATM   24  C37 UNL     1      -3.970  47.256 -20.399  1.00  0.00    -0.004 C 
HETATM   25  C38 UNL     1      -4.058  45.857 -21.077  1.00  0.00     0.019 C 
ENDROOT
BRANCH  21  26
HETATM   26  O5  UNL     1      -4.288  45.774 -16.291  1.00  0.00    -0.352 OA
BRANCH  26  27
HETATM   27  C29 UNL     1      -3.046  45.268 -15.800  1.00  0.00     0.292 C 
HETATM   28  O6  UNL     1      -3.200  44.142 -14.932  1.00  0.00    -0.348 OA
HETATM   29  C30 UNL     1      -3.854  44.388 -13.675  1.00  0.00     0.179 C 
HETATM   30  C32 UNL     1      -3.238  45.570 -12.897  1.00  0.00     0.180 C 
HETATM   31  C33 UNL     1      -2.986  46.796 -13.789  1.00  0.00     0.183 C 
HETATM   32  C34 UNL     1      -2.278  46.397 -15.087  1.00  0.00     0.204 C 
BRANCH  29  33
HETATM   33  C31 UNL     1      -5.388  44.426 -13.797  1.00  0.00     0.198 C 
BRANCH  33  34
HETATM   34  O7  UNL     1      -5.888  45.763 -13.766  1.00  0.00    -0.398 OA
HETATM   35  H49 UNL     1      -5.317  46.287 -14.363  1.00  0.00     0.209 HD
ENDBRANCH  33  34
ENDBRANCH  29  33
BRANCH  30  36
HETATM   36  O8  UNL     1      -4.050  45.943 -11.773  1.00  0.00    -0.390 OA
HETATM   37  H51 UNL     1      -4.420  46.826 -12.000  1.00  0.00     0.210 HD
ENDBRANCH  30  36
BRANCH  31  38
HETATM   38  O9  UNL     1      -4.236  47.473 -13.989  1.00  0.00    -0.390 OA
HETATM   39  H53 UNL     1      -4.508  47.367 -14.929  1.00  0.00     0.210 HD
ENDBRANCH  31  38
BRANCH  32  40
HETATM   40  O10 UNL     1      -0.931  45.991 -14.800  1.00  0.00    -0.388 OA
HETATM   41  H55 UNL     1      -0.945  45.045 -14.558  1.00  0.00     0.210 HD
ENDBRANCH  32  40
ENDBRANCH  26  27
ENDBRANCH  21  26
BRANCH   1  42
HETATM   42  C2  UNL     1      -3.333  51.134 -26.413  1.00  0.00    -0.014 C 
HETATM   43  C1  UNL     1      -2.706  49.831 -26.930  1.00  0.00     0.010 C 
BRANCH  42  44
HETATM   44  C3  UNL     1      -2.423  52.337 -26.780  1.00  0.00     0.007 C 
BRANCH  44  45
HETATM   45  C4  UNL     1      -1.277  52.580 -25.778  1.00  0.00     0.038 C 
BRANCH  45  46
HETATM   46  C5  UNL     1       0.080  53.018 -26.413  1.00  0.00     0.061 C 
HETATM   47  C6  UNL     1      -0.146  54.090 -27.498  1.00  0.00     0.046 C 
BRANCH  46  48
HETATM   48  O1  UNL     1       0.860  53.624 -25.365  1.00  0.00    -0.389 OA
HETATM   49  H12 UNL     1       0.481  54.496 -25.160  1.00  0.00     0.210 HD
ENDBRANCH  46  48
BRANCH  46  50
HETATM   50  C7  UNL     1       0.923  51.782 -26.952  1.00  0.00    -0.021 C 
HETATM   51  C8  UNL     1       2.431  51.956 -26.641  1.00  0.00     0.017 C 
HETATM   52  C9  UNL     1       0.490  50.458 -26.275  1.00  0.00     0.017 C 
HETATM   53  C10 UNL     1       0.779  51.601 -28.477  1.00  0.00     0.017 C 
ENDBRANCH  46  50
ENDBRANCH  45  46
ENDBRANCH  44  45
ENDBRANCH  42  44
ENDBRANCH   1  42
TORSDOF 13
ENDMDL
MODEL 9
REMARK minimizedAffinity -10.1335697
REMARK CNNscore 0.161639363
REMARK CNNaffinity 7.03975868
REMARK  13 active torsions:
REMARK  status: ('A' for Active; 'I' for Inactive)
REMARK    1  A    between atoms: C2_2  and  C3_3 
REMARK    2  A    between atoms: C2_2  and  C11_12 
REMARK    3  A    between atoms: C3_3  and  C4_4 
REMARK    4  A    between atoms: C4_4  and  C5_5 
REMARK    5  A    between atoms: C5_5  and  O1_7 
REMARK    6  A    between atoms: C5_5  and  C7_8 
REMARK    7  A    between atoms: C28_32  and  O5_33 
REMARK    8  A    between atoms: O5_33  and  C29_34 
REMARK    9  A    between atoms: C30_36  and  C31_37 
REMARK   10  A    between atoms: C31_37  and  O7_38 
REMARK   11  A    between atoms: C32_39  and  O8_40 
REMARK   12  A    between atoms: C33_41  and  O9_42 
REMARK   13  A    between atoms: C34_43  and  O10_44 
ROOT
HETATM    1  C11 UNL     1      -3.297  50.720 -24.716  1.00  0.00    -0.001 C 
HETATM    2  C12 UNL     1      -4.429  51.729 -24.369  1.00  0.00     0.007 C 
HETATM    3  C13 UNL     1      -4.531  51.804 -22.841  1.00  0.00     0.024 C 
HETATM    4  C14 UNL     1      -3.398  50.934 -22.327  1.00  0.00     0.092 C 
HETATM    5  C15 UNL     1      -2.082  51.746 -22.085  1.00  0.00     0.272 C 
HETATM    6  O2  UNL     1      -1.682  52.719 -22.701  1.00  0.00    -0.264 OA
HETATM    7  O3  UNL     1      -1.383  51.153 -21.042  1.00  0.00    -0.305 OA
HETATM    8  C16 UNL     1      -2.073  49.946 -20.661  1.00  0.00     0.113 C 
HETATM    9  C17 UNL     1      -1.616  48.849 -21.697  1.00  0.00     0.043 C 
HETATM   10  C18 UNL     1      -1.824  49.196 -23.186  1.00  0.00     0.014 C 
HETATM   11  C19 UNL     1      -3.197  49.854 -23.422  1.00  0.00    -0.020 C 
HETATM   12  C20 UNL     1      -4.308  48.772 -23.372  1.00  0.00     0.017 C 
HETATM   13  C21 UNL     1      -3.508  50.330 -20.958  1.00  0.00     0.137 A 
HETATM   14  O4  UNL     1      -4.080  51.404 -20.143  1.00  0.00    -0.364 OA
HETATM   15  C22 UNL     1      -4.608  50.118 -19.923  1.00  0.00     0.162 A 
HETATM   16  C23 UNL     1      -4.275  49.677 -18.523  1.00  0.00     0.041 C 
HETATM   17  C24 UNL     1      -2.825  50.111 -18.135  1.00  0.00     0.009 C 
HETATM   18  C25 UNL     1      -2.499  50.005 -16.589  1.00  0.00    -0.017 C 
HETATM   19  C26 UNL     1      -2.835  48.642 -15.939  1.00  0.00     0.018 C 
HETATM   20  C27 UNL     1      -3.371  51.050 -15.832  1.00  0.00     0.018 C 
HETATM   21  C28 UNL     1      -1.002  50.400 -16.338  1.00  0.00     0.133 C 
HETATM   22  C35 UNL     1      -0.032  49.678 -17.275  1.00  0.00     0.034 C 
HETATM   23  C36 UNL     1      -0.363  49.939 -18.738  1.00  0.00     0.015 C 
HETATM   24  C37 UNL     1      -1.786  49.480 -19.145  1.00  0.00    -0.004 C 
HETATM   25  C38 UNL     1      -1.844  47.927 -19.051  1.00  0.00     0.019 C 
ENDROOT
BRANCH  21  26
HETATM   26  O5  UNL     1      -0.670  50.134 -14.962  1.00  0.00    -0.352 OA
BRANCH  26  27
HETATM   27  C29 UNL     1       0.674  50.470 -14.616  1.00  0.00     0.292 C 
HETATM   28  O6  UNL     1       1.141  49.793 -13.446  1.00  0.00    -0.348 OA
HETATM   29  C30 UNL     1       0.498  50.142 -12.208  1.00  0.00     0.179 C 
HETATM   30  C32 UNL     1       0.461  51.665 -11.955  1.00  0.00     0.180 C 
HETATM   31  C33 UNL     1       0.028  52.457 -13.198  1.00  0.00     0.183 C 
HETATM   32  C34 UNL     1       0.793  51.996 -14.441  1.00  0.00     0.204 C 
BRANCH  29  33
HETATM   33  C31 UNL     1      -0.848  49.424 -12.011  1.00  0.00     0.198 C 
BRANCH  33  34
HETATM   34  O7  UNL     1      -1.820  50.277 -11.407  1.00  0.00    -0.398 OA
HETATM   35  H49 UNL     1      -1.765  51.135 -11.873  1.00  0.00     0.209 HD
ENDBRANCH  33  34
ENDBRANCH  29  33
BRANCH  30  36
HETATM   36  O8  UNL     1      -0.387  51.994 -10.844  1.00  0.00    -0.390 OA
HETATM   37  H51 UNL     1      -1.160  52.461 -11.237  1.00  0.00     0.210 HD
ENDBRANCH  30  36
BRANCH  31  38
HETATM   38  O9  UNL     1      -1.399  52.361 -13.320  1.00  0.00    -0.390 OA
HETATM   39  H53 UNL     1      -1.614  51.814 -14.110  1.00  0.00     0.210 HD
ENDBRANCH  31  38
BRANCH  32  40
HETATM   40  O10 UNL     1       2.170  52.388 -14.337  1.00  0.00    -0.388 OA
HETATM   41  H55 UNL     1       2.644  51.699 -13.832  1.00  0.00     0.210 HD
ENDBRANCH  32  40
ENDBRANCH  26  27
ENDBRANCH  21  26
BRANCH   1  42
HETATM   42  C2  UNL     1      -3.527  50.025 -26.094  1.00  0.00    -0.014 C 
HETATM   43  C1  UNL     1      -3.635  48.500 -25.950  1.00  0.00     0.010 C 
BRANCH  42  44
HETATM   44  C3  UNL     1      -2.373  50.381 -27.070  1.00  0.00     0.007 C 
BRANCH  44  45
HETATM   45  C4  UNL     1      -2.353  51.862 -27.498  1.00  0.00     0.038 C 
BRANCH  45  46
HETATM   46  C5  UNL     1      -1.099  52.670 -27.040  1.00  0.00     0.061 C 
HETATM   47  C6  UNL     1      -0.874  53.893 -27.950  1.00  0.00     0.046 C 
BRANCH  46  48
HETATM   48  O1  UNL     1      -1.376  53.164 -25.716  1.00  0.00    -0.389 OA
HETATM   49  H12 UNL     1      -2.024  53.885 -25.783  1.00  0.00     0.210 HD
ENDBRANCH  46  48
BRANCH  46  50
HETATM   50  C7  UNL     1       0.199  51.757 -26.923  1.00  0.00    -0.021 C 
HETATM   51  C8  UNL     1       0.905  51.612 -28.294  1.00  0.00     0.017 C 
HETATM   52  C9  UNL     1       1.242  52.371 -25.959  1.00  0.00     0.017 C 
HETATM   53  C10 UNL     1      -0.133  50.338 -26.418  1.00  0.00     0.017 C 
ENDBRANCH  46  50
ENDBRANCH  45  46
ENDBRANCH  44  45
ENDBRANCH  42  44
ENDBRANCH   1  42
TORSDOF 13
ENDMDL
