MODEL 1
REMARK minimizedAffinity -11.2043161
REMARK CNNscore 0.730901659
REMARK CNNaffinity 7.94021225
REMARK  9 active torsions:
REMARK  status: ('A' for Active; 'I' for Inactive)
REMARK    1  A    between atoms: C2_2  and  O1_3 
REMARK    2  A    between atoms: O1_3  and  C3_4 
REMARK    3  A    between atoms: C3_4  and  C4_6 
REMARK    4  A    between atoms: C7_9  and  C8_10 
REMARK    5  A    between atoms: C8_10  and  N1_11 
REMARK    6  A    between atoms: C9_12  and  N2_13 
REMARK    7  A    between atoms: C13_22  and  N5_23 
REMARK    8  A    between atoms: C26_40  and  O5_42 
REMARK    9  A    between atoms: C29_44  and  O6_45 
ROOT
HETATM    1  C4  UNL     1      -2.053  50.254 -26.502  1.00  0.00     0.151 C 
HETATM    2  C5  UNL     1      -2.290  50.046 -25.194  1.00  0.00     0.055 C 
HETATM    3  C6  UNL     1      -3.278  49.057 -24.806  1.00  0.00    -0.020 C 
HETATM    4  C7  UNL     1      -3.234  48.419 -23.617  1.00  0.00     0.006 C 
HETATM    5  C17 UNL     1      -4.265  48.653 -25.852  1.00  0.00     0.042 C 
HETATM    6  C18 UNL     1      -3.848  48.859 -27.192  1.00  0.00     0.092 C 
HETATM    7  C19 UNL     1      -4.589  48.376 -28.270  1.00  0.00     0.075 C 
HETATM    8  C20 UNL     1      -5.761  47.713 -27.989  1.00  0.00     0.081 C 
HETATM    9  O4  UNL     1      -6.561  47.152 -28.945  1.00  0.00    -0.341 OA
HETATM   10  C21 UNL     1      -7.461  46.286 -28.186  1.00  0.00     0.171 C 
HETATM   11  C22 UNL     1      -7.585  46.896 -26.767  1.00  0.00     0.057 C 
HETATM   12  C23 UNL     1      -8.786  47.844 -26.619  1.00  0.00     0.012 C 
HETATM   13  C24 UNL     1      -9.205  48.507 -27.928  1.00  0.00     0.004 C 
HETATM   14  C25 UNL     1      -9.509  47.517 -29.058  1.00  0.00     0.040 C 
HETATM   15  C26 UNL     1      -8.808  46.152 -28.927  1.00  0.00     0.081 C 
HETATM   16  C27 UNL     1      -9.708  45.109 -28.249  1.00  0.00     0.049 C 
HETATM   17  C28 UNL     1      -6.263  47.590 -26.703  1.00  0.00     0.016 C 
HETATM   18  C29 UNL     1      -5.541  48.092 -25.625  1.00  0.00     0.091 C 
HETATM   19  O7  UNL     1      -2.703  49.562 -27.516  1.00  0.00    -0.303 OA
ENDROOT
BRANCH   4  20
HETATM   20  C8  UNL     1      -2.244  48.582 -22.511  1.00  0.00     0.175 C 
BRANCH  20  21
HETATM   21  N1  UNL     1      -2.866  49.413 -21.469  1.00  0.00    -0.188 N 
HETATM   22  C9  UNL     1      -2.537  50.662 -21.052  1.00  0.00     0.693 A 
HETATM   23  N7  UNL     1      -3.430  50.948 -20.084  1.00  0.00    -0.200 N 
HETATM   24  C15 UNL     1      -4.318  49.923 -19.865  1.00  0.00     0.124 A 
HETATM   25  H13 UNL     1      -3.463  51.823 -19.556  1.00  0.00     0.183 HD
HETATM   26  C16 UNL     1      -3.971  48.944 -20.740  1.00  0.00     0.127 A 
BRANCH  22  27
HETATM   27  N2  UNL     1      -1.500  51.596 -21.455  1.00  0.00    -0.125 N 
HETATM   28  C10 UNL     1      -1.180  52.046 -22.614  1.00  0.00     0.209 A 
HETATM   29  N3  UNL     1      -0.091  52.920 -22.649  1.00  0.00    -0.344 N 
HETATM   30  C11 UNL     1       0.342  53.050 -21.426  1.00  0.00     0.148 A 
ATOM     31  H3  UNL     1       0.294  53.374 -23.477  1.00  0.00     0.167 HD
HETATM   32  C12 UNL     1       1.419  53.797 -20.767  1.00  0.00     0.290 A 
HETATM   33  C14 UNL     1      -0.478  52.248 -20.541  1.00  0.00     0.177 A 
HETATM   34  O3  UNL     1       2.108  54.522 -21.463  1.00  0.00    -0.265 OA
HETATM   35  N4  UNL     1       1.550  53.614 -19.414  1.00  0.00    -0.154 N 
HETATM   36  C13 UNL     1       0.741  52.852 -18.744  1.00  0.00     0.680 A 
ATOM     37  H4  UNL     1       2.304  54.090 -18.921  1.00  0.00     0.187 HD
HETATM   38  N6  UNL     1      -0.325  52.153 -19.274  1.00  0.00    -0.173 N 
ATOM     39  H6  UNL     1      -0.951  51.596 -18.693  1.00  0.00     0.186 HD
BRANCH  36  40
HETATM   40  N5  UNL     1       0.960  52.707 -17.422  1.00  0.00    -0.234 N 
HETATM   41  H11 UNL     1       0.174  52.543 -16.807  1.00  0.00     0.174 HD
HETATM   42  H12 UNL     1       1.633  53.365 -17.030  1.00  0.00     0.174 HD
ENDBRANCH  36  40
ENDBRANCH  22  27
ENDBRANCH  20  21
ENDBRANCH   4  20
BRANCH   1  43
HETATM   43  C3  UNL     1      -0.996  51.242 -26.859  1.00  0.00     0.317 C 
HETATM   44  O2  UNL     1      -1.241  52.338 -27.348  1.00  0.00    -0.257 OA
BRANCH  43  45
HETATM   45  O1  UNL     1       0.227  50.743 -26.569  1.00  0.00    -0.316 OA
BRANCH  45  46
HETATM   46  C2  UNL     1       1.148  51.696 -26.022  1.00  0.00     0.175 C 
HETATM   47  C1  UNL     1       2.500  51.472 -26.672  1.00  0.00     0.034 C 
ENDBRANCH  45  46
ENDBRANCH  43  45
ENDBRANCH   1  43
BRANCH  18  48
HETATM   48  O6  UNL     1      -6.094  48.024 -24.370  1.00  0.00    -0.354 OA
HETATM   49  C30 UNL     1      -6.722  49.274 -24.054  1.00  0.00     0.210 C 
ENDBRANCH  18  48
BRANCH  15  50
HETATM   50  O5  UNL     1      -8.554  45.639 -30.243  1.00  0.00    -0.388 OA
HETATM   51  H28 UNL     1      -9.377  45.692 -30.762  1.00  0.00     0.210 HD
ENDBRANCH  15  50
TORSDOF 9
ENDMDL
MODEL 2
REMARK minimizedAffinity -10.1754007
REMARK CNNscore 0.489352643
REMARK CNNaffinity 7.6570878
REMARK  9 active torsions:
REMARK  status: ('A' for Active; 'I' for Inactive)
REMARK    1  A    between atoms: C2_2  and  O1_3 
REMARK    2  A    between atoms: O1_3  and  C3_4 
REMARK    3  A    between atoms: C3_4  and  C4_6 
REMARK    4  A    between atoms: C7_9  and  C8_10 
REMARK    5  A    between atoms: C8_10  and  N1_11 
REMARK    6  A    between atoms: C9_12  and  N2_13 
REMARK    7  A    between atoms: C13_22  and  N5_23 
REMARK    8  A    between atoms: C26_40  and  O5_42 
REMARK    9  A    between atoms: C29_44  and  O6_45 
ROOT
HETATM    1  C4  UNL     1      -3.000  50.515 -27.024  1.00  0.00     0.151 C 
HETATM    2  C5  UNL     1      -3.280  50.246 -25.736  1.00  0.00     0.055 C 
HETATM    3  C6  UNL     1      -4.085  49.081 -25.419  1.00  0.00    -0.020 C 
HETATM    4  C7  UNL     1      -4.000  48.445 -24.231  1.00  0.00     0.006 C 
HETATM    5  C17 UNL     1      -4.905  48.513 -26.530  1.00  0.00     0.042 C 
HETATM    6  C18 UNL     1      -4.447  48.815 -27.838  1.00  0.00     0.092 C 
HETATM    7  C19 UNL     1      -5.009  48.217 -28.965  1.00  0.00     0.075 C 
HETATM    8  C20 UNL     1      -6.050  47.339 -28.767  1.00  0.00     0.081 C 
HETATM    9  O4  UNL     1      -6.663  46.652 -29.777  1.00  0.00    -0.341 OA
HETATM   10  C21 UNL     1      -7.430  45.618 -29.083  1.00  0.00     0.171 C 
HETATM   11  C22 UNL     1      -7.762  46.172 -27.674  1.00  0.00     0.057 C 
HETATM   12  C23 UNL     1      -9.129  46.872 -27.606  1.00  0.00     0.012 C 
HETATM   13  C24 UNL     1      -9.578  47.464 -28.939  1.00  0.00     0.004 C 
HETATM   14  C25 UNL     1      -9.612  46.452 -30.089  1.00  0.00     0.040 C 
HETATM   15  C26 UNL     1      -8.674  45.243 -29.914  1.00  0.00     0.081 C 
HETATM   16  C27 UNL     1      -9.402  44.038 -29.302  1.00  0.00     0.049 C 
HETATM   17  C28 UNL     1      -6.603  47.103 -27.518  1.00  0.00     0.016 C 
HETATM   18  C29 UNL     1      -6.063  47.716 -26.393  1.00  0.00     0.091 C 
HETATM   19  O7  UNL     1      -3.438  49.728 -28.082  1.00  0.00    -0.303 OA
ENDROOT
BRANCH   4  20
HETATM   20  C8  UNL     1      -3.134  48.776 -23.060  1.00  0.00     0.175 C 
BRANCH  20  21
HETATM   21  N1  UNL     1      -3.953  49.522 -22.091  1.00  0.00    -0.188 N 
HETATM   22  C9  UNL     1      -3.569  50.420 -21.150  1.00  0.00     0.693 A 
HETATM   23  N7  UNL     1      -4.715  50.799 -20.549  1.00  0.00    -0.200 N 
HETATM   24  C15 UNL     1      -5.818  50.170 -21.072  1.00  0.00     0.124 A 
HETATM   25  H13 UNL     1      -4.780  51.476 -19.785  1.00  0.00     0.183 HD
HETATM   26  C16 UNL     1      -5.348  49.359 -22.053  1.00  0.00     0.127 A 
BRANCH  22  27
HETATM   27  N2  UNL     1      -2.274  50.952 -20.763  1.00  0.00    -0.125 N 
HETATM   28  C10 UNL     1      -1.672  50.954 -19.629  1.00  0.00     0.209 A 
HETATM   29  N3  UNL     1      -0.430  51.592 -19.599  1.00  0.00    -0.344 N 
HETATM   30  C11 UNL     1      -0.199  52.050 -20.798  1.00  0.00     0.148 A 
ATOM     31  H3  UNL     1       0.184  51.682 -18.790  1.00  0.00     0.167 HD
HETATM   32  C12 UNL     1       0.886  52.792 -21.448  1.00  0.00     0.290 A 
HETATM   33  C14 UNL     1      -1.311  51.707 -21.662  1.00  0.00     0.177 A 
HETATM   34  O3  UNL     1       1.864  53.063 -20.774  1.00  0.00    -0.265 OA
HETATM   35  N4  UNL     1       0.701  53.112 -22.768  1.00  0.00    -0.154 N 
HETATM   36  C13 UNL     1      -0.357  52.744 -23.421  1.00  0.00     0.680 A 
ATOM     37  H4  UNL     1       1.417  53.655 -23.251  1.00  0.00     0.187 HD
HETATM   38  N6  UNL     1      -1.401  52.004 -22.903  1.00  0.00    -0.173 N 
ATOM     39  H6  UNL     1      -2.194  51.711 -23.474  1.00  0.00     0.186 HD
BRANCH  36  40
HETATM   40  N5  UNL     1      -0.470  53.126 -24.709  1.00  0.00    -0.234 N 
HETATM   41  H11 UNL     1      -0.972  52.533 -25.358  1.00  0.00     0.174 HD
HETATM   42  H12 UNL     1       0.384  53.512 -25.112  1.00  0.00     0.174 HD
ENDBRANCH  36  40
ENDBRANCH  22  27
ENDBRANCH  20  21
ENDBRANCH   4  20
BRANCH   1  43
HETATM   43  C3  UNL     1      -2.129  51.691 -27.306  1.00  0.00     0.317 C 
HETATM   44  O2  UNL     1      -2.473  52.846 -27.088  1.00  0.00    -0.257 OA
BRANCH  43  45
HETATM   45  O1  UNL     1      -0.948  51.284 -27.824  1.00  0.00    -0.316 OA
BRANCH  45  46
HETATM   46  C2  UNL     1      -0.026  52.342 -28.116  1.00  0.00     0.175 C 
HETATM   47  C1  UNL     1       1.379  51.776 -28.048  1.00  0.00     0.034 C 
ENDBRANCH  45  46
ENDBRANCH  43  45
ENDBRANCH   1  43
BRANCH  18  48
HETATM   48  O6  UNL     1      -6.675  47.526 -25.178  1.00  0.00    -0.354 OA
HETATM   49  C30 UNL     1      -7.615  48.582 -24.943  1.00  0.00     0.210 C 
ENDBRANCH  18  48
BRANCH  15  50
HETATM   50  O5  UNL     1      -8.240  44.808 -31.211  1.00  0.00    -0.388 OA
HETATM   51  H28 UNL     1      -9.022  44.712 -31.785  1.00  0.00     0.210 HD
ENDBRANCH  15  50
TORSDOF 9
ENDMDL
MODEL 3
REMARK minimizedAffinity -10.0295677
REMARK CNNscore 0.368557662
REMARK CNNaffinity 7.23949242
REMARK  9 active torsions:
REMARK  status: ('A' for Active; 'I' for Inactive)
REMARK    1  A    between atoms: C2_2  and  O1_3 
REMARK    2  A    between atoms: O1_3  and  C3_4 
REMARK    3  A    between atoms: C3_4  and  C4_6 
REMARK    4  A    between atoms: C7_9  and  C8_10 
REMARK    5  A    between atoms: C8_10  and  N1_11 
REMARK    6  A    between atoms: C9_12  and  N2_13 
REMARK    7  A    between atoms: C13_22  and  N5_23 
REMARK    8  A    between atoms: C26_40  and  O5_42 
REMARK    9  A    between atoms: C29_44  and  O6_45 
ROOT
HETATM    1  C4  UNL     1      -5.160  48.806 -22.652  1.00  0.00     0.151 C 
HETATM    2  C5  UNL     1      -4.291  48.492 -23.631  1.00  0.00     0.055 C 
HETATM    3  C6  UNL     1      -4.769  48.413 -24.998  1.00  0.00    -0.020 C 
HETATM    4  C7  UNL     1      -3.960  48.615 -26.060  1.00  0.00     0.006 C 
HETATM    5  C17 UNL     1      -6.242  48.250 -25.182  1.00  0.00     0.042 C 
HETATM    6  C18 UNL     1      -7.041  48.696 -24.099  1.00  0.00     0.092 C 
HETATM    7  C19 UNL     1      -8.431  48.765 -24.196  1.00  0.00     0.075 C 
HETATM    8  C20 UNL     1      -9.007  48.356 -25.377  1.00  0.00     0.081 C 
HETATM    9  O4  UNL     1     -10.350  48.411 -25.622  1.00  0.00    -0.341 OA
HETATM   10  C21 UNL     1     -10.451  48.222 -27.068  1.00  0.00     0.171 C 
HETATM   11  C22 UNL     1      -9.214  47.395 -27.503  1.00  0.00     0.057 C 
HETATM   12  C23 UNL     1      -9.483  45.882 -27.544  1.00  0.00     0.012 C 
HETATM   13  C24 UNL     1     -10.581  45.431 -26.584  1.00  0.00     0.004 C 
HETATM   14  C25 UNL     1     -11.914  46.162 -26.777  1.00  0.00     0.040 C 
HETATM   15  C26 UNL     1     -11.799  47.559 -27.417  1.00  0.00     0.081 C 
HETATM   16  C27 UNL     1     -12.012  47.510 -28.937  1.00  0.00     0.049 C 
HETATM   17  C28 UNL     1      -8.273  47.808 -26.417  1.00  0.00     0.016 C 
HETATM   18  C29 UNL     1      -6.890  47.713 -26.316  1.00  0.00     0.091 C 
HETATM   19  O7  UNL     1      -6.505  49.068 -22.880  1.00  0.00    -0.303 OA
ENDROOT
BRANCH   4  20
HETATM   20  C8  UNL     1      -2.501  48.933 -26.069  1.00  0.00     0.175 C 
BRANCH  20  21
HETATM   21  N1  UNL     1      -2.354  50.363 -26.379  1.00  0.00    -0.188 N 
HETATM   22  C9  UNL     1      -1.802  51.353 -25.634  1.00  0.00     0.693 A 
HETATM   23  N7  UNL     1      -1.923  52.462 -26.391  1.00  0.00    -0.200 N 
HETATM   24  C15 UNL     1      -2.537  52.214 -27.595  1.00  0.00     0.124 A 
HETATM   25  H13 UNL     1      -1.603  53.396 -26.121  1.00  0.00     0.183 HD
HETATM   26  C16 UNL     1      -2.812  50.886 -27.599  1.00  0.00     0.127 A 
BRANCH  22  27
HETATM   27  N2  UNL     1      -1.186  51.373 -24.318  1.00  0.00    -0.125 N 
HETATM   28  C10 UNL     1      -1.298  50.565 -23.327  1.00  0.00     0.209 A 
HETATM   29  N3  UNL     1      -0.579  50.907 -22.179  1.00  0.00    -0.344 N 
HETATM   30  C11 UNL     1       0.046  52.024 -22.429  1.00  0.00     0.148 A 
ATOM     31  H3  UNL     1      -0.547  50.380 -21.306  1.00  0.00     0.167 HD
HETATM   32  C12 UNL     1       0.951  52.909 -21.689  1.00  0.00     0.290 A 
HETATM   33  C14 UNL     1      -0.253  52.445 -23.782  1.00  0.00     0.177 A 
HETATM   34  O3  UNL     1       1.269  52.573 -20.562  1.00  0.00    -0.265 OA
HETATM   35  N4  UNL     1       1.365  54.042 -22.341  1.00  0.00    -0.154 N 
HETATM   36  C13 UNL     1       1.009  54.299 -23.562  1.00  0.00     0.680 A 
ATOM     37  H4  UNL     1       1.971  54.701 -21.853  1.00  0.00     0.187 HD
HETATM   38  N6  UNL     1       0.202  53.500 -24.346  1.00  0.00    -0.173 N 
ATOM     39  H6  UNL     1      -0.017  53.734 -25.315  1.00  0.00     0.186 HD
BRANCH  36  40
HETATM   40  N5  UNL     1       1.440  55.450 -24.117  1.00  0.00    -0.234 N 
HETATM   41  H11 UNL     1       1.596  55.488 -25.115  1.00  0.00     0.174 HD
HETATM   42  H12 UNL     1       2.169  55.927 -23.588  1.00  0.00     0.174 HD
ENDBRANCH  36  40
ENDBRANCH  22  27
ENDBRANCH  20  21
ENDBRANCH   4  20
BRANCH   1  43
HETATM   43  C3  UNL     1      -4.620  48.928 -21.268  1.00  0.00     0.317 C 
HETATM   44  O2  UNL     1      -4.874  48.126 -20.378  1.00  0.00    -0.257 OA
BRANCH  43  45
HETATM   45  O1  UNL     1      -3.841  50.029 -21.166  1.00  0.00    -0.316 OA
BRANCH  45  46
HETATM   46  C2  UNL     1      -4.560  51.262 -21.043  1.00  0.00     0.175 C 
HETATM   47  C1  UNL     1      -4.267  52.104 -22.270  1.00  0.00     0.034 C 
ENDBRANCH  45  46
ENDBRANCH  43  45
ENDBRANCH   1  43
BRANCH  18  48
HETATM   48  O6  UNL     1      -6.194  47.097 -27.328  1.00  0.00    -0.354 OA
HETATM   49  C30 UNL     1      -6.233  47.915 -28.505  1.00  0.00     0.210 C 
ENDBRANCH  18  48
BRANCH  15  50
HETATM   50  O5  UNL     1     -12.858  48.384 -26.910  1.00  0.00    -0.388 OA
HETATM   51  H28 UNL     1     -13.698  47.900 -26.996  1.00  0.00     0.210 HD
ENDBRANCH  15  50
TORSDOF 9
ENDMDL
MODEL 4
REMARK minimizedAffinity -9.59716511
REMARK CNNscore 0.244673342
REMARK CNNaffinity 7.39293909
REMARK  9 active torsions:
REMARK  status: ('A' for Active; 'I' for Inactive)
REMARK    1  A    between atoms: C2_2  and  O1_3 
REMARK    2  A    between atoms: O1_3  and  C3_4 
REMARK    3  A    between atoms: C3_4  and  C4_6 
REMARK    4  A    between atoms: C7_9  and  C8_10 
REMARK    5  A    between atoms: C8_10  and  N1_11 
REMARK    6  A    between atoms: C9_12  and  N2_13 
REMARK    7  A    between atoms: C13_22  and  N5_23 
REMARK    8  A    between atoms: C26_40  and  O5_42 
REMARK    9  A    between atoms: C29_44  and  O6_45 
ROOT
HETATM    1  C4  UNL     1      -5.802  47.696 -23.411  1.00  0.00     0.151 C 
HETATM    2  C5  UNL     1      -4.604  48.241 -23.689  1.00  0.00     0.055 C 
HETATM    3  C6  UNL     1      -4.357  48.759 -25.021  1.00  0.00    -0.020 C 
HETATM    4  C7  UNL     1      -3.458  49.737 -25.262  1.00  0.00     0.006 C 
HETATM    5  C17 UNL     1      -5.262  48.272 -26.105  1.00  0.00     0.042 C 
HETATM    6  C18 UNL     1      -6.526  47.796 -25.672  1.00  0.00     0.092 C 
HETATM    7  C19 UNL     1      -7.533  47.470 -26.579  1.00  0.00     0.075 C 
HETATM    8  C20 UNL     1      -7.249  47.599 -27.919  1.00  0.00     0.081 C 
HETATM    9  O4  UNL     1      -8.156  47.355 -28.912  1.00  0.00    -0.341 OA
HETATM   10  C21 UNL     1      -7.543  47.947 -30.100  1.00  0.00     0.171 C 
HETATM   11  C22 UNL     1      -6.009  47.912 -29.882  1.00  0.00     0.057 C 
HETATM   12  C23 UNL     1      -5.342  46.661 -30.474  1.00  0.00     0.012 C 
HETATM   13  C24 UNL     1      -6.272  45.453 -30.552  1.00  0.00     0.004 C 
HETATM   14  C25 UNL     1      -7.570  45.716 -31.322  1.00  0.00     0.040 C 
HETATM   15  C26 UNL     1      -8.011  47.191 -31.361  1.00  0.00     0.081 C 
HETATM   16  C27 UNL     1      -7.528  47.898 -32.637  1.00  0.00     0.049 C 
HETATM   17  C28 UNL     1      -5.993  47.951 -28.387  1.00  0.00     0.016 C 
HETATM   18  C29 UNL     1      -4.976  48.252 -27.488  1.00  0.00     0.091 C 
HETATM   19  O7  UNL     1      -6.833  47.605 -24.338  1.00  0.00    -0.303 OA
ENDROOT
BRANCH   4  20
HETATM   20  C8  UNL     1      -2.573  50.445 -24.290  1.00  0.00     0.175 C 
BRANCH  20  21
HETATM   21  N1  UNL     1      -1.325  50.793 -24.989  1.00  0.00    -0.188 N 
HETATM   22  C9  UNL     1      -0.247  51.480 -24.535  1.00  0.00     0.693 A 
HETATM   23  N7  UNL     1       0.607  51.507 -25.577  1.00  0.00    -0.200 N 
HETATM   24  C15 UNL     1       0.111  50.862 -26.683  1.00  0.00     0.124 A 
HETATM   25  H13 UNL     1       1.529  51.952 -25.570  1.00  0.00     0.183 HD
HETATM   26  C16 UNL     1      -1.114  50.403 -26.321  1.00  0.00     0.127 A 
BRANCH  22  27
HETATM   27  N2  UNL     1       0.063  52.100 -23.258  1.00  0.00    -0.125 N 
HETATM   28  C10 UNL     1       0.596  53.236 -22.984  1.00  0.00     0.209 A 
HETATM   29  N3  UNL     1       0.784  53.508 -21.627  1.00  0.00    -0.344 N 
HETATM   30  C11 UNL     1       0.352  52.475 -20.959  1.00  0.00     0.148 A 
ATOM     31  H3  UNL     1       1.186  54.358 -21.231  1.00  0.00     0.167 HD
HETATM   32  C12 UNL     1       0.250  52.107 -19.543  1.00  0.00     0.290 A 
HETATM   33  C14 UNL     1      -0.148  51.481 -21.888  1.00  0.00     0.177 A 
HETATM   34  O3  UNL     1       0.615  52.929 -18.721  1.00  0.00    -0.265 OA
HETATM   35  N4  UNL     1      -0.256  50.862 -19.270  1.00  0.00    -0.154 N 
HETATM   36  C13 UNL     1      -0.661  50.066 -20.211  1.00  0.00     0.680 A 
ATOM     37  H4  UNL     1      -0.315  50.553 -18.300  1.00  0.00     0.187 HD
HETATM   38  N6  UNL     1      -0.648  50.349 -21.561  1.00  0.00    -0.173 N 
ATOM     39  H6  UNL     1      -1.014  49.698 -22.256  1.00  0.00     0.186 HD
BRANCH  36  40
HETATM   40  N5  UNL     1      -1.119  48.849 -19.855  1.00  0.00    -0.234 N 
HETATM   41  H11 UNL     1      -1.832  48.405 -20.419  1.00  0.00     0.174 HD
HETATM   42  H12 UNL     1      -1.284  48.735 -18.854  1.00  0.00     0.174 HD
ENDBRANCH  36  40
ENDBRANCH  22  27
ENDBRANCH  20  21
ENDBRANCH   4  20
BRANCH   1  43
HETATM   43  C3  UNL     1      -6.034  47.222 -22.018  1.00  0.00     0.317 C 
HETATM   44  O2  UNL     1      -6.824  46.329 -21.737  1.00  0.00    -0.257 OA
BRANCH  43  45
HETATM   45  O1  UNL     1      -5.261  47.917 -21.153  1.00  0.00    -0.316 OA
BRANCH  45  46
HETATM   46  C2  UNL     1      -5.979  48.816 -20.297  1.00  0.00     0.175 C 
HETATM   47  C1  UNL     1      -5.433  50.213 -20.516  1.00  0.00     0.034 C 
ENDBRANCH  45  46
ENDBRANCH  43  45
ENDBRANCH   1  43
BRANCH  18  48
HETATM   48  O6  UNL     1      -3.722  48.524 -27.976  1.00  0.00    -0.354 OA
HETATM   49  C30 UNL     1      -3.709  49.829 -28.571  1.00  0.00     0.210 C 
ENDBRANCH  18  48
BRANCH  15  50
HETATM   50  O5  UNL     1      -9.443  47.241 -31.417  1.00  0.00    -0.388 OA
HETATM   51  H28 UNL     1      -9.748  46.645 -32.125  1.00  0.00     0.210 HD
ENDBRANCH  15  50
TORSDOF 9
ENDMDL
MODEL 5
REMARK minimizedAffinity -10.0652981
REMARK CNNscore 0.232111529
REMARK CNNaffinity 7.16180372
REMARK  9 active torsions:
REMARK  status: ('A' for Active; 'I' for Inactive)
REMARK    1  A    between atoms: C2_2  and  O1_3 
REMARK    2  A    between atoms: O1_3  and  C3_4 
REMARK    3  A    between atoms: C3_4  and  C4_6 
REMARK    4  A    between atoms: C7_9  and  C8_10 
REMARK    5  A    between atoms: C8_10  and  N1_11 
REMARK    6  A    between atoms: C9_12  and  N2_13 
REMARK    7  A    between atoms: C13_22  and  N5_23 
REMARK    8  A    between atoms: C26_40  and  O5_42 
REMARK    9  A    between atoms: C29_44  and  O6_45 
ROOT
HETATM    1  C4  UNL     1      -2.408  49.763 -26.177  1.00  0.00     0.151 C 
HETATM    2  C5  UNL     1      -3.035  49.617 -24.995  1.00  0.00     0.055 C 
HETATM    3  C6  UNL     1      -4.189  48.743 -24.913  1.00  0.00    -0.020 C 
HETATM    4  C7  UNL     1      -4.559  48.139 -23.764  1.00  0.00     0.006 C 
HETATM    5  C17 UNL     1      -4.868  48.411 -26.201  1.00  0.00     0.042 C 
HETATM    6  C18 UNL     1      -4.062  48.535 -27.361  1.00  0.00     0.092 C 
HETATM    7  C19 UNL     1      -4.505  48.098 -28.609  1.00  0.00     0.075 C 
HETATM    8  C20 UNL     1      -5.771  47.564 -28.683  1.00  0.00     0.081 C 
HETATM    9  O4  UNL     1      -6.314  47.059 -29.832  1.00  0.00    -0.341 OA
HETATM   10  C21 UNL     1      -7.480  46.310 -29.369  1.00  0.00     0.171 C 
HETATM   11  C22 UNL     1      -7.946  46.970 -28.046  1.00  0.00     0.057 C 
HETATM   12  C23 UNL     1      -9.032  48.037 -28.252  1.00  0.00     0.012 C 
HETATM   13  C24 UNL     1      -8.983  48.701 -29.625  1.00  0.00     0.004 C 
HETATM   14  C25 UNL     1      -9.048  47.714 -30.796  1.00  0.00     0.040 C 
HETATM   15  C26 UNL     1      -8.561  46.290 -30.470  1.00  0.00     0.081 C 
HETATM   16  C27 UNL     1      -9.723  45.363 -30.085  1.00  0.00     0.049 C 
HETATM   17  C28 UNL     1      -6.633  47.529 -27.598  1.00  0.00     0.016 C 
HETATM   18  C29 UNL     1      -6.206  47.986 -26.357  1.00  0.00     0.091 C 
HETATM   19  O7  UNL     1      -2.805  49.111 -27.338  1.00  0.00    -0.303 OA
ENDROOT
BRANCH   4  20
HETATM   20  C8  UNL     1      -3.919  48.233 -22.417  1.00  0.00     0.175 C 
BRANCH  20  21
HETATM   21  N1  UNL     1      -4.622  49.280 -21.658  1.00  0.00    -0.188 N 
HETATM   22  C9  UNL     1      -4.182  50.502 -21.267  1.00  0.00     0.693 A 
HETATM   23  N7  UNL     1      -5.225  51.049 -20.611  1.00  0.00    -0.200 N 
HETATM   24  C15 UNL     1      -6.317  50.216 -20.568  1.00  0.00     0.124 A 
HETATM   25  H13 UNL     1      -5.228  51.978 -20.184  1.00  0.00     0.183 HD
HETATM   26  C16 UNL     1      -5.946  49.091 -21.231  1.00  0.00     0.127 A 
BRANCH  22  27
HETATM   27  N2  UNL     1      -2.919  51.198 -21.437  1.00  0.00    -0.125 N 
HETATM   28  C10 UNL     1      -2.386  51.728 -22.479  1.00  0.00     0.209 A 
HETATM   29  N3  UNL     1      -1.124  52.297 -22.294  1.00  0.00    -0.344 N 
HETATM   30  C11 UNL     1      -0.797  52.122 -21.045  1.00  0.00     0.148 A 
ATOM     31  H3  UNL     1      -0.562  52.763 -23.006  1.00  0.00     0.167 HD
HETATM   32  C12 UNL     1       0.354  52.465 -20.202  1.00  0.00     0.290 A 
HETATM   33  C14 UNL     1      -1.868  51.423 -20.364  1.00  0.00     0.177 A 
HETATM   34  O3  UNL     1       1.261  53.094 -20.718  1.00  0.00    -0.265 OA
HETATM   35  N4  UNL     1       0.301  52.046 -18.898  1.00  0.00    -0.154 N 
HETATM   36  C13 UNL     1      -0.727  51.416 -18.420  1.00  0.00     0.680 A 
ATOM     37  H4  UNL     1       1.094  52.236 -18.285  1.00  0.00     0.187 HD
HETATM   38  N6  UNL     1      -1.870  51.097 -19.127  1.00  0.00    -0.173 N 
ATOM     39  H6  UNL     1      -2.665  50.632 -18.690  1.00  0.00     0.186 HD
BRANCH  36  40
HETATM   40  N5  UNL     1      -0.683  51.017 -17.133  1.00  0.00    -0.234 N 
HETATM   41  H11 UNL     1      -1.543  50.961 -16.604  1.00  0.00     0.174 HD
HETATM   42  H12 UNL     1       0.084  51.417 -16.593  1.00  0.00     0.174 HD
ENDBRANCH  36  40
ENDBRANCH  22  27
ENDBRANCH  20  21
ENDBRANCH   4  20
BRANCH   1  43
HETATM   43  C3  UNL     1      -1.196  50.629 -26.210  1.00  0.00     0.317 C 
HETATM   44  O2  UNL     1      -0.536  50.894 -25.213  1.00  0.00    -0.257 OA
BRANCH  43  45
HETATM   45  O1  UNL     1      -0.962  51.058 -27.471  1.00  0.00    -0.316 OA
BRANCH  45  46
HETATM   46  C2  UNL     1      -0.133  52.224 -27.563  1.00  0.00     0.175 C 
HETATM   47  C1  UNL     1       1.185  51.817 -28.192  1.00  0.00     0.034 C 
ENDBRANCH  45  46
ENDBRANCH  43  45
ENDBRANCH   1  43
BRANCH  18  48
HETATM   48  O6  UNL     1      -7.103  48.011 -25.317  1.00  0.00    -0.354 OA
HETATM   49  C30 UNL     1      -7.510  46.672 -25.002  1.00  0.00     0.210 C 
ENDBRANCH  18  48
BRANCH  15  50
HETATM   50  O5  UNL     1      -7.992  45.717 -31.656  1.00  0.00    -0.388 OA
HETATM   51  H28 UNL     1      -8.619  45.837 -32.391  1.00  0.00     0.210 HD
ENDBRANCH  15  50
TORSDOF 9
ENDMDL
MODEL 6
REMARK minimizedAffinity -9.13593578
REMARK CNNscore 0.223642275
REMARK CNNaffinity 6.41614676
REMARK  9 active torsions:
REMARK  status: ('A' for Active; 'I' for Inactive)
REMARK    1  A    between atoms: C2_2  and  O1_3 
REMARK    2  A    between atoms: O1_3  and  C3_4 
REMARK    3  A    between atoms: C3_4  and  C4_6 
REMARK    4  A    between atoms: C7_9  and  C8_10 
REMARK    5  A    between atoms: C8_10  and  N1_11 
REMARK    6  A    between atoms: C9_12  and  N2_13 
REMARK    7  A    between atoms: C13_22  and  N5_23 
REMARK    8  A    between atoms: C26_40  and  O5_42 
REMARK    9  A    between atoms: C29_44  and  O6_45 
ROOT
HETATM    1  C4  UNL     1      -5.389  47.406 -29.493  1.00  0.00     0.151 C 
HETATM    2  C5  UNL     1      -6.580  47.076 -28.961  1.00  0.00     0.055 C 
HETATM    3  C6  UNL     1      -6.932  47.589 -27.650  1.00  0.00    -0.020 C 
HETATM    4  C7  UNL     1      -8.213  47.758 -27.260  1.00  0.00     0.006 C 
HETATM    5  C17 UNL     1      -5.805  48.073 -26.798  1.00  0.00     0.042 C 
HETATM    6  C18 UNL     1      -4.636  48.461 -27.502  1.00  0.00     0.092 C 
HETATM    7  C19 UNL     1      -3.571  49.090 -26.859  1.00  0.00     0.075 C 
HETATM    8  C20 UNL     1      -3.680  49.299 -25.503  1.00  0.00     0.081 C 
HETATM    9  O4  UNL     1      -2.732  49.941 -24.757  1.00  0.00    -0.341 OA
HETATM   10  C21 UNL     1      -3.415  50.233 -23.498  1.00  0.00     0.171 C 
HETATM   11  C22 UNL     1      -4.513  49.154 -23.318  1.00  0.00     0.057 C 
HETATM   12  C23 UNL     1      -4.045  47.948 -22.488  1.00  0.00     0.012 C 
HETATM   13  C24 UNL     1      -2.540  47.703 -22.562  1.00  0.00     0.004 C 
HETATM   14  C25 UNL     1      -1.693  48.917 -22.167  1.00  0.00     0.040 C 
HETATM   15  C26 UNL     1      -2.391  50.279 -22.345  1.00  0.00     0.081 C 
HETATM   16  C27 UNL     1      -3.048  50.759 -21.043  1.00  0.00     0.049 C 
HETATM   17  C28 UNL     1      -4.754  48.835 -24.758  1.00  0.00     0.016 C 
HETATM   18  C29 UNL     1      -5.807  48.184 -25.390  1.00  0.00     0.091 C 
HETATM   19  O7  UNL     1      -4.466  48.224 -28.854  1.00  0.00    -0.303 OA
ENDROOT
BRANCH   4  20
HETATM   20  C8  UNL     1      -9.463  47.470 -28.024  1.00  0.00     0.175 C 
BRANCH  20  21
HETATM   21  N1  UNL     1      -9.584  46.010 -28.155  1.00  0.00    -0.188 N 
HETATM   22  C9  UNL     1      -9.897  45.266 -29.246  1.00  0.00     0.693 A 
HETATM   23  N7  UNL     1      -9.862  43.990 -28.813  1.00  0.00    -0.200 N 
HETATM   24  C15 UNL     1      -9.539  43.893 -27.482  1.00  0.00     0.124 A 
HETATM   25  H13 UNL     1     -10.052  43.168 -29.392  1.00  0.00     0.183 HD
HETATM   26  C16 UNL     1      -9.358  45.168 -27.054  1.00  0.00     0.127 A 
BRANCH  22  27
HETATM   27  N2  UNL     1     -10.218  45.614 -30.619  1.00  0.00    -0.125 N 
HETATM   28  C10 UNL     1     -11.254  46.182 -31.121  1.00  0.00     0.209 A 
HETATM   29  N3  UNL     1     -11.251  46.338 -32.509  1.00  0.00    -0.344 N 
HETATM   30  C11 UNL     1     -10.136  45.828 -32.955  1.00  0.00     0.148 A 
ATOM     31  H3  UNL     1     -11.984  46.770 -33.071  1.00  0.00     0.167 HD
HETATM   32  C12 UNL     1      -9.508  45.666 -34.271  1.00  0.00     0.290 A 
HETATM   33  C14 UNL     1      -9.363  45.321 -31.840  1.00  0.00     0.177 A 
HETATM   34  O3  UNL     1     -10.099  46.118 -35.236  1.00  0.00    -0.265 OA
HETATM   35  N4  UNL     1      -8.299  45.019 -34.294  1.00  0.00    -0.154 N 
HETATM   36  C13 UNL     1      -7.721  44.607 -33.208  1.00  0.00     0.680 A 
ATOM     37  H4  UNL     1      -7.842  44.857 -35.191  1.00  0.00     0.187 HD
HETATM   38  N6  UNL     1      -8.216  44.762 -31.929  1.00  0.00    -0.173 N 
ATOM     39  H6  UNL     1      -7.700  44.449 -31.106  1.00  0.00     0.186 HD
BRANCH  36  40
HETATM   40  N5  UNL     1      -6.546  43.956 -33.325  1.00  0.00    -0.234 N 
HETATM   41  H11 UNL     1      -5.866  44.028 -32.581  1.00  0.00     0.174 HD
HETATM   42  H12 UNL     1      -6.121  44.014 -34.251  1.00  0.00     0.174 HD
ENDBRANCH  36  40
ENDBRANCH  22  27
ENDBRANCH  20  21
ENDBRANCH   4  20
BRANCH   1  43
HETATM   43  C3  UNL     1      -5.086  46.902 -30.862  1.00  0.00     0.317 C 
HETATM   44  O2  UNL     1      -5.294  45.747 -31.211  1.00  0.00    -0.257 OA
BRANCH  43  45
HETATM   45  O1  UNL     1      -4.560  47.892 -31.619  1.00  0.00    -0.316 OA
BRANCH  45  46
HETATM   46  C2  UNL     1      -4.838  47.785 -33.021  1.00  0.00     0.175 C 
HETATM   47  C1  UNL     1      -3.515  47.734 -33.761  1.00  0.00     0.034 C 
ENDBRANCH  45  46
ENDBRANCH  43  45
ENDBRANCH   1  43
BRANCH  18  48
HETATM   48  O6  UNL     1      -6.821  47.668 -24.622  1.00  0.00    -0.354 OA
HETATM   49  C30 UNL     1      -7.626  48.737 -24.107  1.00  0.00     0.210 C 
ENDBRANCH  18  48
BRANCH  15  50
HETATM   50  O5  UNL     1      -1.397  51.266 -22.657  1.00  0.00    -0.388 OA
HETATM   51  H28 UNL     1      -0.673  51.195 -22.009  1.00  0.00     0.210 HD
ENDBRANCH  15  50
TORSDOF 9
ENDMDL
MODEL 7
REMARK minimizedAffinity -8.13234138
REMARK CNNscore 0.195571005
REMARK CNNaffinity 6.67602682
REMARK  9 active torsions:
REMARK  status: ('A' for Active; 'I' for Inactive)
REMARK    1  A    between atoms: C2_2  and  O1_3 
REMARK    2  A    between atoms: O1_3  and  C3_4 
REMARK    3  A    between atoms: C3_4  and  C4_6 
REMARK    4  A    between atoms: C7_9  and  C8_10 
REMARK    5  A    between atoms: C8_10  and  N1_11 
REMARK    6  A    between atoms: C9_12  and  N2_13 
REMARK    7  A    between atoms: C13_22  and  N5_23 
REMARK    8  A    between atoms: C26_40  and  O5_42 
REMARK    9  A    between atoms: C29_44  and  O6_45 
ROOT
HETATM    1  C4  UNL     1      -2.676  50.021 -24.812  1.00  0.00     0.151 C 
HETATM    2  C5  UNL     1      -3.434  49.660 -23.761  1.00  0.00     0.055 C 
HETATM    3  C6  UNL     1      -4.477  48.670 -23.951  1.00  0.00    -0.020 C 
HETATM    4  C7  UNL     1      -4.923  47.887 -22.946  1.00  0.00     0.006 C 
HETATM    5  C17 UNL     1      -4.931  48.440 -25.355  1.00  0.00     0.042 C 
HETATM    6  C18 UNL     1      -3.996  48.795 -26.361  1.00  0.00     0.092 C 
HETATM    7  C19 UNL     1      -4.211  48.481 -27.702  1.00  0.00     0.075 C 
HETATM    8  C20 UNL     1      -5.383  47.834 -28.024  1.00  0.00     0.081 C 
HETATM    9  O4  UNL     1      -5.701  47.430 -29.290  1.00  0.00    -0.341 OA
HETATM   10  C21 UNL     1      -6.821  46.511 -29.094  1.00  0.00     0.171 C 
HETATM   11  C22 UNL     1      -7.536  46.943 -27.789  1.00  0.00     0.057 C 
HETATM   12  C23 UNL     1      -8.705  47.912 -28.031  1.00  0.00     0.012 C 
HETATM   13  C24 UNL     1      -8.550  48.750 -29.297  1.00  0.00     0.004 C 
HETATM   14  C25 UNL     1      -8.339  47.922 -30.569  1.00  0.00     0.040 C 
HETATM   15  C26 UNL     1      -7.733  46.525 -30.338  1.00  0.00     0.081 C 
HETATM   16  C27 UNL     1      -8.817  45.441 -30.238  1.00  0.00     0.049 C 
HETATM   17  C28 UNL     1      -6.373  47.571 -27.090  1.00  0.00     0.016 C 
HETATM   18  C29 UNL     1      -6.175  47.905 -25.755  1.00  0.00     0.091 C 
HETATM   19  O7  UNL     1      -2.832  49.488 -26.085  1.00  0.00    -0.303 OA
ENDROOT
BRANCH   4  20
HETATM   20  C8  UNL     1      -4.487  47.871 -21.518  1.00  0.00     0.175 C 
BRANCH  20  21
HETATM   21  N1  UNL     1      -4.823  46.551 -20.959  1.00  0.00    -0.188 N 
HETATM   22  C9  UNL     1      -6.036  45.963 -20.811  1.00  0.00     0.693 A 
HETATM   23  N7  UNL     1      -5.770  44.763 -20.256  1.00  0.00    -0.200 N 
HETATM   24  C15 UNL     1      -4.428  44.566 -20.042  1.00  0.00     0.124 A 
HETATM   25  H13 UNL     1      -6.473  44.061 -20.011  1.00  0.00     0.183 HD
HETATM   26  C16 UNL     1      -3.817  45.694 -20.486  1.00  0.00     0.127 A 
BRANCH  22  27
HETATM   27  N2  UNL     1      -7.387  46.392 -21.127  1.00  0.00    -0.125 N 
HETATM   28  C10 UNL     1      -8.192  47.168 -20.494  1.00  0.00     0.209 A 
HETATM   29  N3  UNL     1      -9.450  47.343 -21.073  1.00  0.00    -0.344 N 
HETATM   30  C11 UNL     1      -9.482  46.626 -22.161  1.00  0.00     0.148 A 
ATOM     31  H3  UNL     1     -10.206  47.925 -20.711  1.00  0.00     0.167 HD
HETATM   32  C12 UNL     1     -10.465  46.362 -23.217  1.00  0.00     0.290 A 
HETATM   33  C14 UNL     1      -8.209  45.953 -22.326  1.00  0.00     0.177 A 
HETATM   34  O3  UNL     1     -11.534  46.941 -23.147  1.00  0.00    -0.265 OA
HETATM   35  N4  UNL     1     -10.085  45.483 -24.199  1.00  0.00    -0.154 N 
HETATM   36  C13 UNL     1      -8.905  44.944 -24.217  1.00  0.00     0.680 A 
ATOM     37  H4  UNL     1     -10.749  45.247 -24.936  1.00  0.00     0.187 HD
HETATM   38  N6  UNL     1      -7.905  45.173 -23.294  1.00  0.00    -0.173 N 
ATOM     39  H6  UNL     1      -6.981  44.749 -23.378  1.00  0.00     0.186 HD
BRANCH  36  40
HETATM   40  N5  UNL     1      -8.625  44.070 -25.205  1.00  0.00    -0.234 N 
HETATM   41  H11 UNL     1      -7.673  43.989 -25.537  1.00  0.00     0.174 HD
HETATM   42  H12 UNL     1      -9.307  44.056 -25.963  1.00  0.00     0.174 HD
ENDBRANCH  36  40
ENDBRANCH  22  27
ENDBRANCH  20  21
ENDBRANCH   4  20
BRANCH   1  43
HETATM   43  C3  UNL     1      -1.583  51.004 -24.565  1.00  0.00     0.317 C 
HETATM   44  O2  UNL     1      -1.076  51.178 -23.464  1.00  0.00    -0.257 OA
BRANCH  43  45
HETATM   45  O1  UNL     1      -1.264  51.645 -25.712  1.00  0.00    -0.316 OA
BRANCH  45  46
HETATM   46  C2  UNL     1       0.117  52.015 -25.827  1.00  0.00     0.175 C 
HETATM   47  C1  UNL     1       0.854  50.877 -26.506  1.00  0.00     0.034 C 
ENDBRANCH  45  46
ENDBRANCH  43  45
ENDBRANCH   1  43
BRANCH  18  48
HETATM   48  O6  UNL     1      -7.200  47.702 -24.864  1.00  0.00    -0.354 OA
HETATM   49  C30 UNL     1      -7.939  48.920 -24.696  1.00  0.00     0.210 C 
ENDBRANCH  18  48
BRANCH  15  50
HETATM   50  O5  UNL     1      -6.945  46.171 -31.484  1.00  0.00    -0.388 OA
HETATM   51  H28 UNL     1      -7.477  46.321 -32.286  1.00  0.00     0.210 HD
ENDBRANCH  15  50
TORSDOF 9
ENDMDL
MODEL 8
REMARK minimizedAffinity -8.68145847
REMARK CNNscore 0.166972727
REMARK CNNaffinity 6.31306219
REMARK  9 active torsions:
REMARK  status: ('A' for Active; 'I' for Inactive)
REMARK    1  A    between atoms: C2_2  and  O1_3 
REMARK    2  A    between atoms: O1_3  and  C3_4 
REMARK    3  A    between atoms: C3_4  and  C4_6 
REMARK    4  A    between atoms: C7_9  and  C8_10 
REMARK    5  A    between atoms: C8_10  and  N1_11 
REMARK    6  A    between atoms: C9_12  and  N2_13 
REMARK    7  A    between atoms: C13_22  and  N5_23 
REMARK    8  A    between atoms: C26_40  and  O5_42 
REMARK    9  A    between atoms: C29_44  and  O6_45 
ROOT
HETATM    1  C4  UNL     1      -5.345  47.146 -29.887  1.00  0.00     0.151 C 
HETATM    2  C5  UNL     1      -6.514  46.726 -29.367  1.00  0.00     0.055 C 
HETATM    3  C6  UNL     1      -6.947  47.259 -28.089  1.00  0.00    -0.020 C 
HETATM    4  C7  UNL     1      -8.249  47.321 -27.736  1.00  0.00     0.006 C 
HETATM    5  C17 UNL     1      -5.895  47.886 -27.236  1.00  0.00     0.042 C 
HETATM    6  C18 UNL     1      -4.750  48.354 -27.930  1.00  0.00     0.092 C 
HETATM    7  C19 UNL     1      -3.767  49.109 -27.292  1.00  0.00     0.075 C 
HETATM    8  C20 UNL     1      -3.932  49.365 -25.950  1.00  0.00     0.081 C 
HETATM    9  O4  UNL     1      -3.069  50.128 -25.213  1.00  0.00    -0.341 OA
HETATM   10  C21 UNL     1      -3.810  50.408 -23.985  1.00  0.00     0.171 C 
HETATM   11  C22 UNL     1      -4.805  49.237 -23.780  1.00  0.00     0.057 C 
HETATM   12  C23 UNL     1      -4.247  48.118 -22.886  1.00  0.00     0.012 C 
HETATM   13  C24 UNL     1      -2.724  48.016 -22.915  1.00  0.00     0.004 C 
HETATM   14  C25 UNL     1      -2.007  49.322 -22.556  1.00  0.00     0.040 C 
HETATM   15  C26 UNL     1      -2.826  50.601 -22.813  1.00  0.00     0.081 C 
HETATM   16  C27 UNL     1      -3.561  51.072 -21.549  1.00  0.00     0.049 C 
HETATM   17  C28 UNL     1      -4.976  48.833 -25.210  1.00  0.00     0.016 C 
HETATM   18  C29 UNL     1      -5.945  48.057 -25.834  1.00  0.00     0.091 C 
HETATM   19  O7  UNL     1      -4.522  48.076 -29.265  1.00  0.00    -0.303 OA
ENDROOT
BRANCH   4  20
HETATM   20  C8  UNL     1      -9.445  46.881 -28.514  1.00  0.00     0.175 C 
BRANCH  20  21
HETATM   21  N1  UNL     1     -10.580  46.791 -27.582  1.00  0.00    -0.188 N 
HETATM   22  C9  UNL     1     -10.911  45.796 -26.723  1.00  0.00     0.693 A 
HETATM   23  N7  UNL     1     -12.032  46.228 -26.111  1.00  0.00    -0.200 N 
HETATM   24  C15 UNL     1     -12.430  47.466 -26.552  1.00  0.00     0.124 A 
HETATM   25  H13 UNL     1     -12.547  45.711 -25.395  1.00  0.00     0.183 HD
HETATM   26  C16 UNL     1     -11.515  47.835 -27.485  1.00  0.00     0.127 A 
BRANCH  22  27
HETATM   27  N2  UNL     1     -10.305  44.511 -26.418  1.00  0.00    -0.125 N 
HETATM   28  C10 UNL     1     -10.507  43.347 -26.920  1.00  0.00     0.209 A 
HETATM   29  N3  UNL     1      -9.763  42.305 -26.361  1.00  0.00    -0.344 N 
HETATM   30  C11 UNL     1      -9.023  42.818 -25.418  1.00  0.00     0.148 A 
ATOM     31  H3  UNL     1      -9.793  41.324 -26.639  1.00  0.00     0.167 HD
HETATM   32  C12 UNL     1      -8.034  42.305 -24.463  1.00  0.00     0.290 A 
HETATM   33  C14 UNL     1      -9.267  44.244 -25.341  1.00  0.00     0.177 A 
HETATM   34  O3  UNL     1      -7.760  41.120 -24.520  1.00  0.00    -0.265 OA
HETATM   35  N4  UNL     1      -7.499  43.218 -23.590  1.00  0.00    -0.154 N 
HETATM   36  C13 UNL     1      -7.819  44.474 -23.630  1.00  0.00     0.680 A 
ATOM     37  H4  UNL     1      -6.831  42.899 -22.889  1.00  0.00     0.187 HD
HETATM   38  N6  UNL     1      -8.700  45.048 -24.524  1.00  0.00    -0.173 N 
ATOM     39  H6  UNL     1      -8.887  46.051 -24.533  1.00  0.00     0.186 HD
BRANCH  36  40
HETATM   40  N5  UNL     1      -7.266  45.296 -22.716  1.00  0.00    -0.234 N 
HETATM   41  H11 UNL     1      -7.100  46.264 -22.959  1.00  0.00     0.174 HD
HETATM   42  H12 UNL     1      -6.493  44.887 -22.191  1.00  0.00     0.174 HD
ENDBRANCH  36  40
ENDBRANCH  22  27
ENDBRANCH  20  21
ENDBRANCH   4  20
BRANCH   1  43
HETATM   43  C3  UNL     1      -4.959  46.614 -31.225  1.00  0.00     0.317 C 
HETATM   44  O2  UNL     1      -5.263  45.493 -31.612  1.00  0.00    -0.257 OA
BRANCH  43  45
HETATM   45  O1  UNL     1      -4.244  47.538 -31.906  1.00  0.00    -0.316 OA
BRANCH  45  46
HETATM   46  C2  UNL     1      -3.970  47.196 -33.270  1.00  0.00     0.175 C 
HETATM   47  C1  UNL     1      -4.824  48.079 -34.159  1.00  0.00     0.034 C 
ENDBRANCH  45  46
ENDBRANCH  43  45
ENDBRANCH   1  43
BRANCH  18  48
HETATM   48  O6  UNL     1      -6.926  47.479 -25.066  1.00  0.00    -0.354 OA
HETATM   49  C30 UNL     1      -7.835  48.489 -24.608  1.00  0.00     0.210 C 
ENDBRANCH  18  48
BRANCH  15  50
HETATM   50  O5  UNL     1      -1.923  51.665 -23.147  1.00  0.00    -0.388 OA
HETATM   51  H28 UNL     1      -1.213  51.692 -22.481  1.00  0.00     0.210 HD
ENDBRANCH  15  50
TORSDOF 9
ENDMDL
MODEL 9
REMARK minimizedAffinity -8.5576849
REMARK CNNscore 0.146444961
REMARK CNNaffinity 6.90032721
REMARK  9 active torsions:
REMARK  status: ('A' for Active; 'I' for Inactive)
REMARK    1  A    between atoms: C2_2  and  O1_3 
REMARK    2  A    between atoms: O1_3  and  C3_4 
REMARK    3  A    between atoms: C3_4  and  C4_6 
REMARK    4  A    between atoms: C7_9  and  C8_10 
REMARK    5  A    between atoms: C8_10  and  N1_11 
REMARK    6  A    between atoms: C9_12  and  N2_13 
REMARK    7  A    between atoms: C13_22  and  N5_23 
REMARK    8  A    between atoms: C26_40  and  O5_42 
REMARK    9  A    between atoms: C29_44  and  O6_45 
ROOT
HETATM    1  C4  UNL     1      -0.509  51.413 -21.830  1.00  0.00     0.151 C 
HETATM    2  C5  UNL     1      -0.707  51.311 -20.503  1.00  0.00     0.055 C 
HETATM    3  C6  UNL     1      -1.704  50.380 -20.009  1.00  0.00    -0.020 C 
HETATM    4  C7  UNL     1      -1.635  49.834 -18.776  1.00  0.00     0.006 C 
HETATM    5  C17 UNL     1      -2.734  49.923 -20.989  1.00  0.00     0.042 C 
HETATM    6  C18 UNL     1      -2.358  50.015 -22.353  1.00  0.00     0.092 C 
HETATM    7  C19 UNL     1      -3.145  49.471 -23.366  1.00  0.00     0.075 C 
HETATM    8  C20 UNL     1      -4.323  48.861 -22.999  1.00  0.00     0.081 C 
HETATM    9  O4  UNL     1      -5.167  48.249 -23.883  1.00  0.00    -0.341 OA
HETATM   10  C21 UNL     1      -6.061  47.467 -23.032  1.00  0.00     0.171 C 
HETATM   11  C22 UNL     1      -6.123  48.187 -21.661  1.00  0.00     0.057 C 
HETATM   12  C23 UNL     1      -7.296  49.173 -21.548  1.00  0.00     0.012 C 
HETATM   13  C24 UNL     1      -7.743  49.745 -22.891  1.00  0.00     0.004 C 
HETATM   14  C25 UNL     1      -8.108  48.680 -23.930  1.00  0.00     0.040 C 
HETATM   15  C26 UNL     1      -7.434  47.311 -23.717  1.00  0.00     0.081 C 
HETATM   16  C27 UNL     1      -8.335  46.346 -22.933  1.00  0.00     0.049 C 
HETATM   17  C28 UNL     1      -4.783  48.849 -21.692  1.00  0.00     0.016 C 
HETATM   18  C29 UNL     1      -4.015  49.413 -20.680  1.00  0.00     0.091 C 
HETATM   19  O7  UNL     1      -1.208  50.662 -22.767  1.00  0.00    -0.303 OA
ENDROOT
BRANCH   4  20
HETATM   20  C8  UNL     1      -0.605  50.055 -17.718  1.00  0.00     0.175 C 
BRANCH  20  21
HETATM   21  N1  UNL     1      -1.308  50.355 -16.461  1.00  0.00    -0.188 N 
HETATM   22  C9  UNL     1      -0.866  50.255 -15.183  1.00  0.00     0.693 A 
HETATM   23  N7  UNL     1      -1.907  50.658 -14.427  1.00  0.00    -0.200 N 
HETATM   24  C15 UNL     1      -3.001  51.010 -15.179  1.00  0.00     0.124 A 
HETATM   25  H13 UNL     1      -1.908  50.704 -13.405  1.00  0.00     0.183 HD
HETATM   26  C16 UNL     1      -2.632  50.824 -16.472  1.00  0.00     0.127 A 
BRANCH  22  27
HETATM   27  N2  UNL     1       0.398  49.833 -14.605  1.00  0.00    -0.125 N 
HETATM   28  C10 UNL     1       0.679  48.850 -13.827  1.00  0.00     0.209 A 
HETATM   29  N3  UNL     1       2.014  48.753 -13.427  1.00  0.00    -0.344 N 
HETATM   30  C11 UNL     1       2.657  49.747 -13.974  1.00  0.00     0.148 A 
ATOM     31  H3  UNL     1       2.412  48.037 -12.820  1.00  0.00     0.167 HD
HETATM   32  C12 UNL     1       4.044  50.226 -13.976  1.00  0.00     0.290 A 
HETATM   33  C14 UNL     1       1.736  50.532 -14.769  1.00  0.00     0.177 A 
HETATM   34  O3  UNL     1       4.866  49.572 -13.359  1.00  0.00    -0.265 OA
HETATM   35  N4  UNL     1       4.291  51.374 -14.684  1.00  0.00    -0.154 N 
HETATM   36  C13 UNL     1       3.359  51.984 -15.350  1.00  0.00     0.680 A 
ATOM     37  H4  UNL     1       5.235  51.760 -14.687  1.00  0.00     0.187 HD
HETATM   38  N6  UNL     1       2.044  51.576 -15.442  1.00  0.00    -0.173 N 
ATOM     39  H6  UNL     1       1.360  52.076 -16.010  1.00  0.00     0.186 HD
BRANCH  36  40
HETATM   40  N5  UNL     1       3.685  53.122 -15.995  1.00  0.00    -0.234 N 
HETATM   41  H11 UNL     1       3.192  53.366 -16.844  1.00  0.00     0.174 HD
HETATM   42  H12 UNL     1       4.687  53.300 -16.059  1.00  0.00     0.174 HD
ENDBRANCH  36  40
ENDBRANCH  22  27
ENDBRANCH  20  21
ENDBRANCH   4  20
BRANCH   1  43
HETATM   43  C3  UNL     1       0.558  52.343 -22.296  1.00  0.00     0.317 C 
HETATM   44  O2  UNL     1       1.226  53.031 -21.533  1.00  0.00    -0.257 OA
BRANCH  43  45
HETATM   45  O1  UNL     1       0.656  52.305 -23.644  1.00  0.00    -0.316 OA
BRANCH  45  46
HETATM   46  C2  UNL     1      -0.065  53.338 -24.327  1.00  0.00     0.175 C 
HETATM   47  C1  UNL     1       0.867  54.519 -24.515  1.00  0.00     0.034 C 
ENDBRANCH  45  46
ENDBRANCH  43  45
ENDBRANCH   1  43
BRANCH  18  48
HETATM   48  O6  UNL     1      -4.527  49.456 -19.406  1.00  0.00    -0.354 OA
HETATM   49  C30 UNL     1      -4.515  48.139 -18.839  1.00  0.00     0.210 C 
ENDBRANCH  18  48
BRANCH  15  50
HETATM   50  O5  UNL     1      -7.237  46.693 -24.997  1.00  0.00    -0.388 OA
HETATM   51  H28 UNL     1      -8.075  46.727 -25.492  1.00  0.00     0.210 HD
ENDBRANCH  15  50
TORSDOF 9
ENDMDL
