MODEL 1
REMARK minimizedAffinity -5.99737501
REMARK CNNscore 0.770487547
REMARK CNNaffinity 6.4122467
REMARK  5 active torsions:
REMARK  status: ('A' for Active; 'I' for Inactive)
REMARK    1  A    between atoms: C2_2  and  C4_4 
REMARK    2  A    between atoms: C10_10  and  C11_11 
REMARK    3  A    between atoms: C11_11  and  O2_13 
REMARK    4  A    between atoms: C20_22  and  C22_24 
REMARK    5  A    between atoms: C22_24  and  O3_25 
ROOT
HETATM    1  C4  UNL     1     -18.503   1.432  16.023  1.00  0.00     0.025 C 
HETATM    2  C5  UNL     1     -19.860   1.835  16.640  1.00  0.00     0.037 C 
HETATM    3  C6  UNL     1     -20.357   0.561  17.239  1.00  0.00    -0.023 C 
HETATM    4  C7  UNL     1     -19.393  -0.362  17.318  1.00  0.00    -0.078 C 
HETATM    5  C8  UNL     1     -19.503  -1.738  17.877  1.00  0.00     0.036 C 
HETATM    6  C9  UNL     1     -18.819  -2.757  16.955  1.00  0.00     0.026 C 
HETATM    7  C10 UNL     1     -17.351  -2.361  16.557  1.00  0.00     0.057 C 
HETATM    8  C12 UNL     1     -17.440  -0.952  15.846  1.00  0.00     0.014 C 
HETATM    9  C13 UNL     1     -16.119  -0.469  15.219  1.00  0.00     0.007 C 
HETATM   10  C14 UNL     1     -15.416  -1.525  14.370  1.00  0.00     0.007 C 
HETATM   11  C15 UNL     1     -15.263  -2.864  15.107  1.00  0.00     0.007 C 
HETATM   12  C16 UNL     1     -14.346  -3.898  14.375  1.00  0.00    -0.018 C 
HETATM   13  C17 UNL     1     -14.799  -4.241  12.936  1.00  0.00     0.020 C 
HETATM   14  C18 UNL     1     -12.869  -3.565  14.269  1.00  0.00    -0.020 C 
HETATM   15  C19 UNL     1     -12.099  -4.640  14.523  1.00  0.00    -0.018 C 
HETATM   16  C20 UNL     1     -12.905  -5.848  14.981  1.00  0.00    -0.001 C 
HETATM   17  C21 UNL     1     -12.261  -6.462  16.236  1.00  0.00     0.022 C 
HETATM   18  C23 UNL     1     -14.203  -5.096  15.355  1.00  0.00     0.012 C 
HETATM   19  C24 UNL     1     -15.518  -5.824  15.579  1.00  0.00     0.007 C 
HETATM   20  C25 UNL     1     -16.492  -4.846  16.273  1.00  0.00     0.011 C 
HETATM   21  C26 UNL     1     -16.669  -3.446  15.573  1.00  0.00    -0.021 C 
HETATM   22  C27 UNL     1     -17.610  -3.711  14.359  1.00  0.00     0.017 C 
HETATM   23  C28 UNL     1     -18.081   0.126  16.763  1.00  0.00     0.028 C 
ENDROOT
BRANCH   7  24
HETATM   24  C11 UNL     1     -16.575  -2.306  17.897  1.00  0.00     0.149 C 
HETATM   25  O1  UNL     1     -16.115  -1.302  18.421  1.00  0.00    -0.649 OA
BRANCH  24  26
HETATM   26  O2  UNL     1     -16.430  -3.479  18.533  1.00  0.00    -0.776 OA
HETATM   27  H14 UNL     1     -15.939  -3.244  19.349  1.00  0.00     0.167 HD
ENDBRANCH  24  26
ENDBRANCH   7  24
BRANCH   1  28
HETATM   28  C2  UNL     1     -17.496   2.575  16.040  1.00  0.00    -0.088 C 
HETATM   29  C1  UNL     1     -16.692   2.804  14.987  1.00  0.00     0.014 C 
HETATM   30  C3  UNL     1     -17.428   3.458  17.257  1.00  0.00     0.043 C 
ENDBRANCH   1  28
BRANCH  16  31
HETATM   31  C22 UNL     1     -13.074  -6.920  13.885  1.00  0.00     0.177 C 
BRANCH  31  32
HETATM   32  O3  UNL     1     -11.908  -7.055  13.073  1.00  0.00    -0.400 OA
HETATM   33  H31 UNL     1     -11.230  -7.508  13.601  1.00  0.00     0.209 HD
ENDBRANCH  31  32
ENDBRANCH  16  31
TORSDOF 5
ENDMDL
MODEL 2
REMARK minimizedAffinity -7.04574966
REMARK CNNscore 0.44671911
REMARK CNNaffinity 6.02257872
REMARK  5 active torsions:
REMARK  status: ('A' for Active; 'I' for Inactive)
REMARK    1  A    between atoms: C2_2  and  C4_4 
REMARK    2  A    between atoms: C10_10  and  C11_11 
REMARK    3  A    between atoms: C11_11  and  O2_13 
REMARK    4  A    between atoms: C20_22  and  C22_24 
REMARK    5  A    between atoms: C22_24  and  O3_25 
ROOT
HETATM    1  C4  UNL     1      -5.948 -10.670   2.663  1.00  0.00     0.025 C 
HETATM    2  C5  UNL     1      -4.855 -10.315   1.632  1.00  0.00     0.037 C 
HETATM    3  C6  UNL     1      -3.711  -9.874   2.483  1.00  0.00    -0.023 C 
HETATM    4  C7  UNL     1      -3.884 -10.210   3.765  1.00  0.00    -0.078 C 
HETATM    5  C8  UNL     1      -2.951  -9.961   4.899  1.00  0.00     0.036 C 
HETATM    6  C9  UNL     1      -3.710  -9.435   6.125  1.00  0.00     0.026 C 
HETATM    7  C10 UNL     1      -4.952 -10.313   6.520  1.00  0.00     0.057 C 
HETATM    8  C12 UNL     1      -5.904 -10.345   5.259  1.00  0.00     0.014 C 
HETATM    9  C13 UNL     1      -7.270 -11.012   5.506  1.00  0.00     0.007 C 
HETATM   10  C14 UNL     1      -7.972 -10.531   6.774  1.00  0.00     0.007 C 
HETATM   11  C15 UNL     1      -7.058 -10.585   8.007  1.00  0.00     0.007 C 
HETATM   12  C16 UNL     1      -7.794 -10.330   9.362  1.00  0.00    -0.018 C 
HETATM   13  C17 UNL     1      -8.544  -8.979   9.433  1.00  0.00     0.020 C 
HETATM   14  C18 UNL     1      -8.797 -11.375   9.817  1.00  0.00    -0.020 C 
HETATM   15  C19 UNL     1      -8.679 -11.635  11.133  1.00  0.00    -0.018 C 
HETATM   16  C20 UNL     1      -7.496 -10.924  11.771  1.00  0.00    -0.001 C 
HETATM   17  C21 UNL     1      -6.685 -11.916  12.625  1.00  0.00     0.022 C 
HETATM   18  C23 UNL     1      -6.733 -10.587  10.469  1.00  0.00     0.012 C 
HETATM   19  C24 UNL     1      -5.603  -9.573  10.437  1.00  0.00     0.007 C 
HETATM   20  C25 UNL     1      -4.847  -9.744   9.101  1.00  0.00     0.011 C 
HETATM   21  C26 UNL     1      -5.738  -9.720   7.802  1.00  0.00    -0.021 C 
HETATM   22  C27 UNL     1      -6.069  -8.217   7.560  1.00  0.00     0.017 C 
HETATM   23  C28 UNL     1      -5.191 -10.919   4.004  1.00  0.00     0.028 C 
ENDROOT
BRANCH   7  24
HETATM   24  C11 UNL     1      -4.365 -11.705   6.861  1.00  0.00     0.149 C 
HETATM   25  O1  UNL     1      -4.892 -12.784   6.630  1.00  0.00    -0.649 OA
BRANCH  24  26
HETATM   26  O2  UNL     1      -3.155 -11.700   7.441  1.00  0.00    -0.776 OA
HETATM   27  H14 UNL     1      -2.948 -12.650   7.563  1.00  0.00     0.167 HD
ENDBRANCH  24  26
ENDBRANCH   7  24
BRANCH   1  28
HETATM   28  C2  UNL     1      -6.856 -11.794   2.181  1.00  0.00    -0.088 C 
HETATM   29  C1  UNL     1      -8.138 -11.554   1.852  1.00  0.00     0.014 C 
HETATM   30  C3  UNL     1      -6.286 -13.183   2.064  1.00  0.00     0.043 C 
ENDBRANCH   1  28
BRANCH  16  31
HETATM   31  C22 UNL     1      -7.902  -9.698  12.614  1.00  0.00     0.177 C 
BRANCH  31  32
HETATM   32  O3  UNL     1      -6.847  -9.249  13.464  1.00  0.00    -0.400 OA
HETATM   33  H31 UNL     1      -6.181  -8.815  12.907  1.00  0.00     0.209 HD
ENDBRANCH  31  32
ENDBRANCH  16  31
TORSDOF 5
ENDMDL
MODEL 3
REMARK minimizedAffinity -9.67157459
REMARK CNNscore 0.432244986
REMARK CNNaffinity 6.5869689
REMARK  5 active torsions:
REMARK  status: ('A' for Active; 'I' for Inactive)
REMARK    1  A    between atoms: C2_2  and  C4_4 
REMARK    2  A    between atoms: C10_10  and  C11_11 
REMARK    3  A    between atoms: C11_11  and  O2_13 
REMARK    4  A    between atoms: C20_22  and  C22_24 
REMARK    5  A    between atoms: C22_24  and  O3_25 
ROOT
HETATM    1  C4  UNL     1      -7.022   5.151  14.716  1.00  0.00     0.025 C 
HETATM    2  C5  UNL     1      -8.079   5.696  15.701  1.00  0.00     0.037 C 
HETATM    3  C6  UNL     1      -7.453   6.948  16.218  1.00  0.00    -0.023 C 
HETATM    4  C7  UNL     1      -6.406   7.324  15.477  1.00  0.00    -0.078 C 
HETATM    5  C8  UNL     1      -5.551   8.529  15.668  1.00  0.00     0.036 C 
HETATM    6  C9  UNL     1      -4.065   8.170  15.523  1.00  0.00     0.026 C 
HETATM    7  C10 UNL     1      -3.735   7.371  14.210  1.00  0.00     0.057 C 
HETATM    8  C12 UNL     1      -4.614   6.058  14.246  1.00  0.00     0.014 C 
HETATM    9  C13 UNL     1      -4.301   5.049  13.126  1.00  0.00     0.007 C 
HETATM   10  C14 UNL     1      -2.811   4.767  12.948  1.00  0.00     0.007 C 
HETATM   11  C15 UNL     1      -1.980   6.054  12.831  1.00  0.00     0.007 C 
HETATM   12  C16 UNL     1      -0.492   5.820  12.413  1.00  0.00    -0.018 C 
HETATM   13  C17 UNL     1       0.292   4.878  13.356  1.00  0.00     0.020 C 
HETATM   14  C18 UNL     1      -0.237   5.296  11.011  1.00  0.00    -0.020 C 
HETATM   15  C19 UNL     1       0.794   5.933  10.424  1.00  0.00    -0.018 C 
HETATM   16  C20 UNL     1       1.327   7.087  11.259  1.00  0.00    -0.001 C 
HETATM   17  C21 UNL     1       1.484   8.342  10.381  1.00  0.00     0.022 C 
HETATM   18  C23 UNL     1       0.109   7.238  12.200  1.00  0.00     0.012 C 
HETATM   19  C24 UNL     1       0.183   8.037  13.490  1.00  0.00     0.007 C 
HETATM   20  C25 UNL     1      -1.261   8.278  13.984  1.00  0.00     0.011 C 
HETATM   21  C26 UNL     1      -2.167   6.995  14.100  1.00  0.00    -0.021 C 
HETATM   22  C27 UNL     1      -1.708   6.287  15.411  1.00  0.00     0.017 C 
HETATM   23  C28 UNL     1      -6.132   6.374  14.341  1.00  0.00     0.028 C 
ENDROOT
BRANCH   7  24
HETATM   24  C11 UNL     1      -4.129   8.323  13.054  1.00  0.00     0.149 C 
HETATM   25  O1  UNL     1      -5.259   8.503  12.624  1.00  0.00    -0.649 OA
BRANCH  24  26
HETATM   26  O2  UNL     1      -3.122   9.021  12.507  1.00  0.00    -0.776 OA
HETATM   27  H14 UNL     1      -3.560   9.567  11.819  1.00  0.00     0.167 HD
ENDBRANCH  24  26
ENDBRANCH   7  24
BRANCH   1  28
HETATM   28  C2  UNL     1      -7.650   4.391  13.554  1.00  0.00    -0.088 C 
HETATM   29  C1  UNL     1      -7.567   3.050  13.479  1.00  0.00     0.014 C 
HETATM   30  C3  UNL     1      -8.383   5.169  12.494  1.00  0.00     0.043 C 
ENDBRANCH   1  28
BRANCH  16  31
HETATM   31  C22 UNL     1       2.656   6.762  11.972  1.00  0.00     0.177 C 
BRANCH  31  32
HETATM   32  O3  UNL     1       3.436   5.806  11.256  1.00  0.00    -0.400 OA
HETATM   33  H31 UNL     1       3.807   6.249  10.476  1.00  0.00     0.209 HD
ENDBRANCH  31  32
ENDBRANCH  16  31
TORSDOF 5
ENDMDL
MODEL 4
REMARK minimizedAffinity -5.9337101
REMARK CNNscore 0.411923587
REMARK CNNaffinity 5.67385674
REMARK  5 active torsions:
REMARK  status: ('A' for Active; 'I' for Inactive)
REMARK    1  A    between atoms: C2_2  and  C4_4 
REMARK    2  A    between atoms: C10_10  and  C11_11 
REMARK    3  A    between atoms: C11_11  and  O2_13 
REMARK    4  A    between atoms: C20_22  and  C22_24 
REMARK    5  A    between atoms: C22_24  and  O3_25 
ROOT
HETATM    1  C4  UNL     1     -17.942   3.619  14.575  1.00  0.00     0.025 C 
HETATM    2  C5  UNL     1     -18.844   4.277  15.642  1.00  0.00     0.037 C 
HETATM    3  C6  UNL     1     -19.156   3.151  16.570  1.00  0.00    -0.023 C 
HETATM    4  C7  UNL     1     -18.354   2.100  16.366  1.00  0.00    -0.078 C 
HETATM    5  C8  UNL     1     -18.350   0.810  17.110  1.00  0.00     0.036 C 
HETATM    6  C9  UNL     1     -18.245  -0.376  16.141  1.00  0.00     0.026 C 
HETATM    7  C10 UNL     1     -17.067  -0.246  15.110  1.00  0.00     0.057 C 
HETATM    8  C12 UNL     1     -17.313   1.094  14.309  1.00  0.00     0.014 C 
HETATM    9  C13 UNL     1     -16.358   1.313  13.122  1.00  0.00     0.007 C 
HETATM   10  C14 UNL     1     -16.208   0.093  12.215  1.00  0.00     0.007 C 
HETATM   11  C15 UNL     1     -15.886  -1.186  13.003  1.00  0.00     0.007 C 
HETATM   12  C16 UNL     1     -15.493  -2.407  12.109  1.00  0.00    -0.018 C 
HETATM   13  C17 UNL     1     -16.561  -2.796  11.060  1.00  0.00     0.020 C 
HETATM   14  C18 UNL     1     -14.185  -2.316  11.343  1.00  0.00    -0.020 C 
HETATM   15  C19 UNL     1     -13.496  -3.472  11.400  1.00  0.00    -0.018 C 
HETATM   16  C20 UNL     1     -14.139  -4.497  12.321  1.00  0.00    -0.001 C 
HETATM   17  C21 UNL     1     -13.078  -5.095  13.263  1.00  0.00     0.022 C 
HETATM   18  C23 UNL     1     -15.059  -3.526  13.097  1.00  0.00     0.012 C 
HETATM   19  C24 UNL     1     -16.210  -4.021  13.956  1.00  0.00     0.007 C 
HETATM   20  C25 UNL     1     -16.678  -2.849  14.848  1.00  0.00     0.011 C 
HETATM   21  C26 UNL     1     -16.999  -1.503  14.096  1.00  0.00    -0.021 C 
HETATM   22  C27 UNL     1     -18.398  -1.722  13.444  1.00  0.00     0.017 C 
HETATM   23  C28 UNL     1     -17.375   2.331  15.246  1.00  0.00     0.028 C 
ENDROOT
BRANCH   7  24
HETATM   24  C11 UNL     1     -15.783  -0.199  15.974  1.00  0.00     0.149 C 
HETATM   25  O1  UNL     1     -15.686  -0.561  17.138  1.00  0.00    -0.649 OA
BRANCH  24  26
HETATM   26  O2  UNL     1     -14.684   0.263  15.358  1.00  0.00    -0.776 OA
HETATM   27  H14 UNL     1     -13.987   0.203  16.045  1.00  0.00     0.167 HD
ENDBRANCH  24  26
ENDBRANCH   7  24
BRANCH   1  28
HETATM   28  C2  UNL     1     -16.917   4.591  14.003  1.00  0.00    -0.088 C 
HETATM   29  C1  UNL     1     -17.186   5.306  12.896  1.00  0.00     0.014 C 
HETATM   30  C3  UNL     1     -15.599   4.750  14.712  1.00  0.00     0.043 C 
ENDBRANCH   1  28
BRANCH  16  31
HETATM   31  C22 UNL     1     -14.879  -5.619  11.565  1.00  0.00     0.177 C 
BRANCH  31  32
HETATM   32  O3  UNL     1     -14.509  -5.681  10.188  1.00  0.00    -0.400 OA
HETATM   33  H31 UNL     1     -13.613  -6.052  10.137  1.00  0.00     0.209 HD
ENDBRANCH  31  32
ENDBRANCH  16  31
TORSDOF 5
ENDMDL
MODEL 5
REMARK minimizedAffinity -5.63767529
REMARK CNNscore 0.384769261
REMARK CNNaffinity 6.00190973
REMARK  5 active torsions:
REMARK  status: ('A' for Active; 'I' for Inactive)
REMARK    1  A    between atoms: C2_2  and  C4_4 
REMARK    2  A    between atoms: C10_10  and  C11_11 
REMARK    3  A    between atoms: C11_11  and  O2_13 
REMARK    4  A    between atoms: C20_22  and  C22_24 
REMARK    5  A    between atoms: C22_24  and  O3_25 
ROOT
HETATM    1  C4  UNL     1      -2.019  11.849  16.909  1.00  0.00     0.025 C 
HETATM    2  C5  UNL     1      -2.336  11.296  15.502  1.00  0.00     0.037 C 
HETATM    3  C6  UNL     1      -0.987  10.992  14.941  1.00  0.00    -0.023 C 
HETATM    4  C7  UNL     1      -0.041  10.997  15.886  1.00  0.00    -0.078 C 
HETATM    5  C8  UNL     1       1.411  10.716  15.712  1.00  0.00     0.036 C 
HETATM    6  C9  UNL     1       2.260  11.744  16.473  1.00  0.00     0.026 C 
HETATM    7  C10 UNL     1       1.835  11.924  17.975  1.00  0.00     0.057 C 
HETATM    8  C12 UNL     1       0.317  12.366  17.966  1.00  0.00     0.014 C 
HETATM    9  C13 UNL     1      -0.239  12.768  19.344  1.00  0.00     0.007 C 
HETATM   10  C14 UNL     1       0.660  13.730  20.117  1.00  0.00     0.007 C 
HETATM   11  C15 UNL     1       2.115  13.243  20.188  1.00  0.00     0.007 C 
HETATM   12  C16 UNL     1       3.020  14.067  21.163  1.00  0.00    -0.018 C 
HETATM   13  C17 UNL     1       3.080  15.579  20.847  1.00  0.00     0.020 C 
HETATM   14  C18 UNL     1       2.710  13.972  22.646  1.00  0.00    -0.020 C 
HETATM   15  C19 UNL     1       3.833  13.852  23.379  1.00  0.00    -0.018 C 
HETATM   16  C20 UNL     1       5.083  13.703  22.525  1.00  0.00    -0.001 C 
HETATM   17  C21 UNL     1       5.935  12.529  23.041  1.00  0.00     0.022 C 
HETATM   18  C23 UNL     1       4.381  13.317  21.202  1.00  0.00     0.012 C 
HETATM   19  C24 UNL     1       5.104  13.354  19.867  1.00  0.00     0.007 C 
HETATM   20  C25 UNL     1       4.246  12.584  18.839  1.00  0.00     0.011 C 
HETATM   21  C26 UNL     1       2.737  13.025  18.740  1.00  0.00    -0.021 C 
HETATM   22  C27 UNL     1       2.751  14.349  17.917  1.00  0.00     0.017 C 
HETATM   23  C28 UNL     1      -0.589  11.329  17.249  1.00  0.00     0.028 C 
ENDROOT
BRANCH   7  24
HETATM   24  C11 UNL     1       2.048  10.532  18.620  1.00  0.00     0.149 C 
HETATM   25  O1  UNL     1       1.725  10.208  19.754  1.00  0.00    -0.649 OA
BRANCH  24  26
HETATM   26  O2  UNL     1       2.617   9.607  17.833  1.00  0.00    -0.776 OA
HETATM   27  H14 UNL     1       2.653   8.806  18.398  1.00  0.00     0.167 HD
ENDBRANCH  24  26
ENDBRANCH   7  24
BRANCH   1  28
HETATM   28  C2  UNL     1      -3.113  11.526  17.919  1.00  0.00    -0.088 C 
HETATM   29  C1  UNL     1      -4.110  12.397  18.159  1.00  0.00     0.014 C 
HETATM   30  C3  UNL     1      -3.068  10.203  18.634  1.00  0.00     0.043 C 
ENDBRANCH   1  28
BRANCH  16  31
HETATM   31  C22 UNL     1       5.931  14.990  22.452  1.00  0.00     0.177 C 
BRANCH  31  32
HETATM   32  O3  UNL     1       7.331  14.717  22.442  1.00  0.00    -0.400 OA
HETATM   33  H31 UNL     1       7.557  14.357  21.568  1.00  0.00     0.209 HD
ENDBRANCH  31  32
ENDBRANCH  16  31
TORSDOF 5
ENDMDL
MODEL 6
REMARK minimizedAffinity -6.36702156
REMARK CNNscore 0.377053529
REMARK CNNaffinity 6.18117905
REMARK  5 active torsions:
REMARK  status: ('A' for Active; 'I' for Inactive)
REMARK    1  A    between atoms: C2_2  and  C4_4 
REMARK    2  A    between atoms: C10_10  and  C11_11 
REMARK    3  A    between atoms: C11_11  and  O2_13 
REMARK    4  A    between atoms: C20_22  and  C22_24 
REMARK    5  A    between atoms: C22_24  and  O3_25 
ROOT
HETATM    1  C4  UNL     1      -4.538  12.669  16.833  1.00  0.00     0.025 C 
HETATM    2  C5  UNL     1      -4.864  13.163  18.259  1.00  0.00     0.037 C 
HETATM    3  C6  UNL     1      -3.970  12.336  19.122  1.00  0.00    -0.023 C 
HETATM    4  C7  UNL     1      -3.025  11.715  18.409  1.00  0.00    -0.078 C 
HETATM    5  C8  UNL     1      -1.944  10.829  18.922  1.00  0.00     0.036 C 
HETATM    6  C9  UNL     1      -1.810   9.572  18.050  1.00  0.00     0.026 C 
HETATM    7  C10 UNL     1      -1.689   9.881  16.514  1.00  0.00     0.057 C 
HETATM    8  C12 UNL     1      -2.984  10.692  16.111  1.00  0.00     0.014 C 
HETATM    9  C13 UNL     1      -3.140  10.937  14.600  1.00  0.00     0.007 C 
HETATM   10  C14 UNL     1      -2.925   9.689  13.746  1.00  0.00     0.007 C 
HETATM   11  C15 UNL     1      -1.620   8.959  14.093  1.00  0.00     0.007 C 
HETATM   12  C16 UNL     1      -1.239   7.817  13.095  1.00  0.00    -0.018 C 
HETATM   13  C17 UNL     1      -2.322   6.724  12.937  1.00  0.00     0.020 C 
HETATM   14  C18 UNL     1      -0.864   8.225  11.681  1.00  0.00    -0.020 C 
HETATM   15  C19 UNL     1       0.209   7.543  11.237  1.00  0.00    -0.018 C 
HETATM   16  C20 UNL     1       0.832   6.660  12.308  1.00  0.00    -0.001 C 
HETATM   17  C21 UNL     1       2.356   6.872  12.340  1.00  0.00     0.022 C 
HETATM   18  C23 UNL     1       0.170   7.331  13.535  1.00  0.00     0.012 C 
HETATM   19  C24 UNL     1       0.156   6.670  14.902  1.00  0.00     0.007 C 
HETATM   20  C25 UNL     1      -0.248   7.737  15.943  1.00  0.00     0.011 C 
HETATM   21  C26 UNL     1      -1.568   8.536  15.626  1.00  0.00    -0.021 C 
HETATM   22  C27 UNL     1      -2.732   7.565  15.992  1.00  0.00     0.017 C 
HETATM   23  C28 UNL     1      -3.133  12.001  16.935  1.00  0.00     0.028 C 
ENDROOT
BRANCH   7  24
HETATM   24  C11 UNL     1      -0.393  10.718  16.377  1.00  0.00     0.149 C 
HETATM   25  O1  UNL     1       0.577  10.670  17.120  1.00  0.00    -0.649 OA
BRANCH  24  26
HETATM   26  O2  UNL     1      -0.345  11.547  15.323  1.00  0.00    -0.776 OA
HETATM   27  H14 UNL     1       0.537  11.969  15.395  1.00  0.00     0.167 HD
ENDBRANCH  24  26
ENDBRANCH   7  24
BRANCH   1  28
HETATM   28  C2  UNL     1      -4.690  13.768  15.789  1.00  0.00    -0.088 C 
HETATM   29  C1  UNL     1      -3.625  14.224  15.106  1.00  0.00     0.014 C 
HETATM   30  C3  UNL     1      -6.063  14.326  15.523  1.00  0.00     0.043 C 
ENDBRANCH   1  28
BRANCH  16  31
HETATM   31  C22 UNL     1       0.501   5.164  12.136  1.00  0.00     0.177 C 
BRANCH  31  32
HETATM   32  O3  UNL     1       0.950   4.650  10.882  1.00  0.00    -0.400 OA
HETATM   33  H31 UNL     1       1.917   4.571  10.922  1.00  0.00     0.209 HD
ENDBRANCH  31  32
ENDBRANCH  16  31
TORSDOF 5
ENDMDL
MODEL 7
REMARK minimizedAffinity -7.40981627
REMARK CNNscore 0.362024784
REMARK CNNaffinity 6.13824224
REMARK  5 active torsions:
REMARK  status: ('A' for Active; 'I' for Inactive)
REMARK    1  A    between atoms: C2_2  and  C4_4 
REMARK    2  A    between atoms: C10_10  and  C11_11 
REMARK    3  A    between atoms: C11_11  and  O2_13 
REMARK    4  A    between atoms: C20_22  and  C22_24 
REMARK    5  A    between atoms: C22_24  and  O3_25 
ROOT
HETATM    1  C4  UNL     1      -2.096  11.068  16.858  1.00  0.00     0.025 C 
HETATM    2  C5  UNL     1      -1.920  11.349  18.366  1.00  0.00     0.037 C 
HETATM    3  C6  UNL     1      -0.555  10.821  18.657  1.00  0.00    -0.023 C 
HETATM    4  C7  UNL     1       0.138  10.588  17.538  1.00  0.00    -0.078 C 
HETATM    5  C8  UNL     1       1.535  10.084  17.429  1.00  0.00     0.036 C 
HETATM    6  C9  UNL     1       1.639   8.992  16.355  1.00  0.00     0.026 C 
HETATM    7  C10 UNL     1       1.015   9.405  14.974  1.00  0.00     0.057 C 
HETATM    8  C12 UNL     1      -0.500   9.761  15.249  1.00  0.00     0.014 C 
HETATM    9  C13 UNL     1      -1.335  10.021  13.982  1.00  0.00     0.007 C 
HETATM   10  C14 UNL     1      -1.157   8.963  12.896  1.00  0.00     0.007 C 
HETATM   11  C15 UNL     1       0.322   8.690  12.581  1.00  0.00     0.007 C 
HETATM   12  C16 UNL     1       0.554   7.795  11.320  1.00  0.00    -0.018 C 
HETATM   13  C17 UNL     1      -0.141   6.415  11.385  1.00  0.00     0.020 C 
HETATM   14  C18 UNL     1       0.172   8.379   9.972  1.00  0.00    -0.020 C 
HETATM   15  C19 UNL     1       1.105   8.117   9.037  1.00  0.00    -0.018 C 
HETATM   16  C20 UNL     1       2.339   7.435   9.609  1.00  0.00    -0.001 C 
HETATM   17  C21 UNL     1       3.610   8.139   9.100  1.00  0.00     0.022 C 
HETATM   18  C23 UNL     1       2.092   7.781  11.096  1.00  0.00     0.012 C 
HETATM   19  C24 UNL     1       2.837   7.081  12.219  1.00  0.00     0.007 C 
HETATM   20  C25 UNL     1       2.623   7.896  13.514  1.00  0.00     0.011 C 
HETATM   21  C26 UNL     1       1.126   8.226  13.874  1.00  0.00    -0.021 C 
HETATM   22  C27 UNL     1       0.546   6.906  14.467  1.00  0.00     0.017 C 
HETATM   23  C28 UNL     1      -0.652  10.900  16.294  1.00  0.00     0.028 C 
ENDROOT
BRANCH   7  24
HETATM   24  C11 UNL     1       1.842  10.632  14.513  1.00  0.00     0.149 C 
HETATM   25  O1  UNL     1       3.052  10.658  14.337  1.00  0.00    -0.649 OA
BRANCH  24  26
HETATM   26  O2  UNL     1       1.140  11.748  14.269  1.00  0.00    -0.776 OA
HETATM   27  H14 UNL     1       1.818  12.395  13.980  1.00  0.00     0.167 HD
ENDBRANCH  24  26
ENDBRANCH   7  24
BRANCH   1  28
HETATM   28  C2  UNL     1      -2.972  12.109  16.173  1.00  0.00    -0.088 C 
HETATM   29  C1  UNL     1      -2.427  13.161  15.536  1.00  0.00     0.014 C 
HETATM   30  C3  UNL     1      -4.466  11.930  16.206  1.00  0.00     0.043 C 
ENDBRANCH   1  28
BRANCH  16  31
HETATM   31  C22 UNL     1       2.401   5.925   9.300  1.00  0.00     0.177 C 
BRANCH  31  32
HETATM   32  O3  UNL     1       3.194   5.639   8.149  1.00  0.00    -0.400 OA
HETATM   33  H31 UNL     1       4.126   5.766   8.391  1.00  0.00     0.209 HD
ENDBRANCH  31  32
ENDBRANCH  16  31
TORSDOF 5
ENDMDL
MODEL 8
REMARK minimizedAffinity -6.26737499
REMARK CNNscore 0.311982572
REMARK CNNaffinity 5.85771608
REMARK  5 active torsions:
REMARK  status: ('A' for Active; 'I' for Inactive)
REMARK    1  A    between atoms: C2_2  and  C4_4 
REMARK    2  A    between atoms: C10_10  and  C11_11 
REMARK    3  A    between atoms: C11_11  and  O2_13 
REMARK    4  A    between atoms: C20_22  and  C22_24 
REMARK    5  A    between atoms: C22_24  and  O3_25 
ROOT
HETATM    1  C4  UNL     1      12.793 -12.040   0.684  1.00  0.00     0.025 C 
HETATM    2  C5  UNL     1      13.330 -13.437   0.304  1.00  0.00     0.037 C 
HETATM    3  C6  UNL     1      14.056 -13.872   1.533  1.00  0.00    -0.023 C 
HETATM    4  C7  UNL     1      13.754 -13.107   2.587  1.00  0.00    -0.078 C 
HETATM    5  C8  UNL     1      14.261 -13.249   3.980  1.00  0.00     0.036 C 
HETATM    6  C9  UNL     1      14.665 -11.884   4.555  1.00  0.00     0.026 C 
HETATM    7  C10 UNL     1      13.554 -10.783   4.403  1.00  0.00     0.057 C 
HETATM    8  C12 UNL     1      13.248 -10.658   2.858  1.00  0.00     0.014 C 
HETATM    9  C13 UNL     1      12.308  -9.497   2.485  1.00  0.00     0.007 C 
HETATM   10  C14 UNL     1      12.683  -8.165   3.130  1.00  0.00     0.007 C 
HETATM   11  C15 UNL     1      12.895  -8.288   4.647  1.00  0.00     0.007 C 
HETATM   12  C16 UNL     1      13.047  -6.918   5.386  1.00  0.00    -0.018 C 
HETATM   13  C17 UNL     1      14.200  -6.035   4.853  1.00  0.00     0.020 C 
HETATM   14  C18 UNL     1      11.829  -6.014   5.432  1.00  0.00    -0.020 C 
HETATM   15  C19 UNL     1      11.668  -5.462   6.650  1.00  0.00    -0.018 C 
HETATM   16  C20 UNL     1      12.656  -5.997   7.675  1.00  0.00    -0.001 C 
HETATM   17  C21 UNL     1      11.913  -6.386   8.966  1.00  0.00     0.022 C 
HETATM   18  C23 UNL     1      13.088  -7.264   6.900  1.00  0.00     0.012 C 
HETATM   19  C24 UNL     1      14.325  -8.058   7.283  1.00  0.00     0.007 C 
HETATM   20  C25 UNL     1      14.260  -9.420   6.557  1.00  0.00     0.011 C 
HETATM   21  C26 UNL     1      14.020  -9.356   5.002  1.00  0.00    -0.021 C 
HETATM   22  C27 UNL     1      15.399  -8.960   4.391  1.00  0.00     0.017 C 
HETATM   23  C28 UNL     1      12.785 -12.007   2.243  1.00  0.00     0.028 C 
ENDROOT
BRANCH   7  24
HETATM   24  C11 UNL     1      12.346 -11.321   5.210  1.00  0.00     0.149 C 
HETATM   25  O1  UNL     1      12.403 -11.949   6.257  1.00  0.00    -0.649 OA
BRANCH  24  26
HETATM   26  O2  UNL     1      11.136 -11.036   4.704  1.00  0.00    -0.776 OA
HETATM   27  H14 UNL     1      10.513 -11.436   5.347  1.00  0.00     0.167 HD
ENDBRANCH  24  26
ENDBRANCH   7  24
BRANCH   1  28
HETATM   28  C2  UNL     1      11.472 -11.720  -0.005  1.00  0.00    -0.088 C 
HETATM   29  C1  UNL     1      10.300 -12.082   0.545  1.00  0.00     0.014 C 
HETATM   30  C3  UNL     1      11.502 -10.971  -1.311  1.00  0.00     0.043 C 
ENDBRANCH   1  28
BRANCH  16  31
HETATM   31  C22 UNL     1      13.801  -5.013   7.992  1.00  0.00     0.177 C 
BRANCH  31  32
HETATM   32  O3  UNL     1      13.472  -4.121   9.055  1.00  0.00    -0.400 OA
HETATM   33  H31 UNL     1      13.495  -4.626   9.885  1.00  0.00     0.209 HD
ENDBRANCH  31  32
ENDBRANCH  16  31
TORSDOF 5
ENDMDL
MODEL 9
REMARK minimizedAffinity -6.71178007
REMARK CNNscore 0.294743508
REMARK CNNaffinity 5.91104364
REMARK  5 active torsions:
REMARK  status: ('A' for Active; 'I' for Inactive)
REMARK    1  A    between atoms: C2_2  and  C4_4 
REMARK    2  A    between atoms: C10_10  and  C11_11 
REMARK    3  A    between atoms: C11_11  and  O2_13 
REMARK    4  A    between atoms: C20_22  and  C22_24 
REMARK    5  A    between atoms: C22_24  and  O3_25 
ROOT
HETATM    1  C4  UNL     1     -12.401  11.109  20.758  1.00  0.00     0.025 C 
HETATM    2  C5  UNL     1     -12.195  12.620  21.001  1.00  0.00     0.037 C 
HETATM    3  C6  UNL     1     -12.332  12.751  22.481  1.00  0.00    -0.023 C 
HETATM    4  C7  UNL     1     -12.273  11.565  23.095  1.00  0.00    -0.078 C 
HETATM    5  C8  UNL     1     -12.348  11.301  24.558  1.00  0.00     0.036 C 
HETATM    6  C9  UNL     1     -13.282  10.118  24.851  1.00  0.00     0.026 C 
HETATM    7  C10 UNL     1     -12.962   8.836  24.001  1.00  0.00     0.057 C 
HETATM    8  C12 UNL     1     -13.075   9.260  22.482  1.00  0.00     0.014 C 
HETATM    9  C13 UNL     1     -12.971   8.093  21.484  1.00  0.00     0.007 C 
HETATM   10  C14 UNL     1     -13.850   6.896  21.838  1.00  0.00     0.007 C 
HETATM   11  C15 UNL     1     -13.665   6.444  23.294  1.00  0.00     0.007 C 
HETATM   12  C16 UNL     1     -14.361   5.086  23.637  1.00  0.00    -0.018 C 
HETATM   13  C17 UNL     1     -15.882   5.065  23.361  1.00  0.00     0.020 C 
HETATM   14  C18 UNL     1     -13.810   3.836  22.973  1.00  0.00    -0.020 C 
HETATM   15  C19 UNL     1     -13.726   2.811  23.842  1.00  0.00    -0.018 C 
HETATM   16  C20 UNL     1     -14.068   3.216  25.268  1.00  0.00    -0.001 C 
HETATM   17  C21 UNL     1     -12.995   2.685  26.236  1.00  0.00     0.022 C 
HETATM   18  C23 UNL     1     -13.918   4.745  25.087  1.00  0.00     0.012 C 
HETATM   19  C24 UNL     1     -14.459   5.732  26.107  1.00  0.00     0.007 C 
HETATM   20  C25 UNL     1     -13.838   7.114  25.807  1.00  0.00     0.011 C 
HETATM   21  C26 UNL     1     -13.975   7.619  24.322  1.00  0.00    -0.021 C 
HETATM   22  C27 UNL     1     -15.446   8.119  24.194  1.00  0.00     0.017 C 
HETATM   23  C28 UNL     1     -12.108  10.423  22.127  1.00  0.00     0.028 C 
ENDROOT
BRANCH   7  24
HETATM   24  C11 UNL     1     -11.520   8.439  24.404  1.00  0.00     0.149 C 
HETATM   25  O1  UNL     1     -10.765   7.724  23.762  1.00  0.00    -0.649 OA
BRANCH  24  26
HETATM   26  O2  UNL     1     -11.074   8.962  25.557  1.00  0.00    -0.776 OA
HETATM   27  H14 UNL     1     -10.159   8.618  25.633  1.00  0.00     0.167 HD
ENDBRANCH  24  26
ENDBRANCH   7  24
BRANCH   1  28
HETATM   28  C2  UNL     1     -11.605  10.600  19.563  1.00  0.00    -0.088 C 
HETATM   29  C1  UNL     1     -11.285   9.298  19.449  1.00  0.00     0.014 C 
HETATM   30  C3  UNL     1     -11.195  11.581  18.498  1.00  0.00     0.043 C 
ENDBRANCH   1  28
BRANCH  16  31
HETATM   31  C22 UNL     1     -15.470   2.754  25.715  1.00  0.00     0.177 C 
BRANCH  31  32
HETATM   32  O3  UNL     1     -15.988   1.714  24.887  1.00  0.00    -0.400 OA
HETATM   33  H31 UNL     1     -15.504   0.898  25.097  1.00  0.00     0.209 HD
ENDBRANCH  31  32
ENDBRANCH  16  31
TORSDOF 5
ENDMDL
