MODEL 1
REMARK minimizedAffinity -9.79928398
REMARK CNNscore 0.677394986
REMARK CNNaffinity 7.81841326
REMARK  10 active torsions:
REMARK  status: ('A' for Active; 'I' for Inactive)
REMARK    1  A    between atoms: O1_2  and  C2_3 
REMARK    2  A    between atoms: C4_5  and  O2_6 
REMARK    3  A    between atoms: O2_6  and  C5_7 
REMARK    4  A    between atoms: C19_21  and  C20_22 
REMARK    5  A    between atoms: C24_28  and  O5_29 
REMARK    6  A    between atoms: O5_29  and  C25_30 
REMARK    7  A    between atoms: C25_30  and  C26_32 
REMARK    8  A    between atoms: C26_32  and  C27_33 
REMARK    9  A    between atoms: C31_37  and  O7_38 
REMARK   10  A    between atoms: C35_43  and  O9_44 
ROOT
HETATM    1  C5  UNL     1      -6.999   6.985  14.924  1.00  0.00     0.125 C 
HETATM    2  C6  UNL     1      -6.608   7.331  13.502  1.00  0.00     0.033 C 
HETATM    3  C7  UNL     1      -5.341   8.178  13.470  1.00  0.00     0.012 C 
HETATM    4  C8  UNL     1      -4.215   7.765  14.480  1.00  0.00    -0.036 C 
HETATM    5  C9  UNL     1      -4.215   8.786  15.655  1.00  0.00     0.016 C 
HETATM    6  C10 UNL     1      -4.472   6.369  15.131  1.00  0.00    -0.004 C 
HETATM    7  C11 UNL     1      -3.963   5.254  14.220  1.00  0.00     0.006 C 
HETATM    8  C12 UNL     1      -2.441   5.300  14.101  1.00  0.00     0.008 C 
HETATM    9  C13 UNL     1      -1.827   6.722  14.179  1.00  0.00     0.026 C 
HETATM   10  C14 UNL     1      -2.836   7.779  13.683  1.00  0.00     0.001 C 
HETATM   11  C15 UNL     1      -2.196   9.175  13.646  1.00  0.00     0.007 C 
HETATM   12  C16 UNL     1      -0.951   9.193  12.779  1.00  0.00     0.013 C 
HETATM   13  C17 UNL     1       0.157   8.226  13.270  1.00  0.00    -0.003 C 
HETATM   14  C18 UNL     1       0.769   8.755  14.580  1.00  0.00     0.019 C 
HETATM   15  C19 UNL     1       1.180   8.069  12.060  1.00  0.00     0.058 C 
HETATM   16  C24 UNL     1       1.095   6.574  11.665  1.00  0.00     0.144 C 
HETATM   17  C30 UNL     1      -0.306   6.153  12.109  1.00  0.00     0.072 C 
HETATM   18  C31 UNL     1      -0.422   6.782  13.494  1.00  0.00     0.072 C 
HETATM   19  C32 UNL     1      -5.926   6.117  15.585  1.00  0.00     0.037 C 
ENDROOT
BRANCH   1  20
HETATM   20  O2  UNL     1      -8.220   6.238  14.888  1.00  0.00    -0.356 OA
BRANCH  20  21
HETATM   21  C4  UNL     1      -9.381   7.046  15.075  1.00  0.00     0.263 C 
HETATM   22  C3  UNL     1      -8.918   8.495  15.184  1.00  0.00     0.095 C 
HETATM   23  C2  UNL     1     -10.096   9.466  15.312  1.00  0.00     0.156 C 
HETATM   24  C35 UNL     1     -11.448   8.744  15.190  1.00  0.00     0.175 C 
HETATM   25  C33 UNL     1     -11.435   7.735  14.027  1.00  0.00     0.151 C 
HETATM   26  O8  UNL     1     -10.269   6.907  13.973  1.00  0.00    -0.354 OA
HETATM   27  C34 UNL     1     -11.558   8.393  12.652  1.00  0.00     0.042 C 
BRANCH  23  28
HETATM   28  O1  UNL     1     -10.051  10.099  16.605  1.00  0.00    -0.388 OA
HETATM   29  C1  UNL     1     -10.760   9.366  17.598  1.00  0.00     0.202 C 
ENDBRANCH  23  28
BRANCH  24  30
HETATM   30  O9  UNL     1     -12.507   9.695  15.041  1.00  0.00    -0.390 OA
HETATM   31  H54 UNL     1     -13.277   9.350  15.527  1.00  0.00     0.210 HD
ENDBRANCH  24  30
ENDBRANCH  20  21
ENDBRANCH   1  20
BRANCH  18  32
HETATM   32  O7  UNL     1       0.486   6.049  14.339  1.00  0.00    -0.389 OA
HETATM   33  H46 UNL     1       0.174   5.128  14.414  1.00  0.00     0.210 HD
ENDBRANCH  18  32
BRANCH  15  34
HETATM   34  C20 UNL     1       2.579   8.637  12.143  1.00  0.00    -0.043 A 
HETATM   35  C21 UNL     1       3.728   8.022  11.858  1.00  0.00     0.087 A 
HETATM   36  C22 UNL     1       4.816   8.938  12.205  1.00  0.00     0.283 A 
HETATM   37  O3  UNL     1       6.000   8.696  12.061  1.00  0.00    -0.260 OA
HETATM   38  O4  UNL     1       4.290  10.079  12.726  1.00  0.00    -0.314 OA
HETATM   39  C23 UNL     1       2.866   9.976  12.728  1.00  0.00     0.214 A 
ENDBRANCH  15  34
BRANCH  16  40
HETATM   40  O5  UNL     1       1.235   6.436  10.241  1.00  0.00    -0.315 OA
BRANCH  40  41
HETATM   41  C25 UNL     1       2.214   5.582   9.829  1.00  0.00     0.259 C 
HETATM   42  O6  UNL     1       2.461   4.494  10.332  1.00  0.00    -0.265 OA
BRANCH  41  43
HETATM   43  C26 UNL     1       2.959   6.156   8.649  1.00  0.00     0.115 C 
BRANCH  43  44
HETATM   44  C27 UNL     1       2.249   7.335   7.966  1.00  0.00    -0.013 C 
HETATM   45  C28 UNL     1       1.870   7.032   6.514  1.00  0.00     0.010 C 
HETATM   46  C29 UNL     1       3.065   8.629   8.051  1.00  0.00     0.010 C 
ENDBRANCH  43  44
ENDBRANCH  41  43
ENDBRANCH  40  41
ENDBRANCH  16  40
TORSDOF 10
ENDMDL
MODEL 2
REMARK minimizedAffinity -9.85101986
REMARK CNNscore 0.480937809
REMARK CNNaffinity 7.41452408
REMARK  10 active torsions:
REMARK  status: ('A' for Active; 'I' for Inactive)
REMARK    1  A    between atoms: O1_2  and  C2_3 
REMARK    2  A    between atoms: C4_5  and  O2_6 
REMARK    3  A    between atoms: O2_6  and  C5_7 
REMARK    4  A    between atoms: C19_21  and  C20_22 
REMARK    5  A    between atoms: C24_28  and  O5_29 
REMARK    6  A    between atoms: O5_29  and  C25_30 
REMARK    7  A    between atoms: C25_30  and  C26_32 
REMARK    8  A    between atoms: C26_32  and  C27_33 
REMARK    9  A    between atoms: C31_37  and  O7_38 
REMARK   10  A    between atoms: C35_43  and  O9_44 
ROOT
HETATM    1  C5  UNL     1      -6.582   7.338  14.864  1.00  0.00     0.125 C 
HETATM    2  C6  UNL     1      -6.194   7.668  13.437  1.00  0.00     0.033 C 
HETATM    3  C7  UNL     1      -4.833   8.350  13.380  1.00  0.00     0.012 C 
HETATM    4  C8  UNL     1      -3.737   7.774  14.342  1.00  0.00    -0.036 C 
HETATM    5  C9  UNL     1      -3.572   8.757  15.538  1.00  0.00     0.016 C 
HETATM    6  C10 UNL     1      -4.148   6.406  14.972  1.00  0.00    -0.004 C 
HETATM    7  C11 UNL     1      -3.812   5.258  14.022  1.00  0.00     0.006 C 
HETATM    8  C12 UNL     1      -2.301   5.115  13.853  1.00  0.00     0.008 C 
HETATM    9  C13 UNL     1      -1.510   6.447  13.939  1.00  0.00     0.026 C 
HETATM   10  C14 UNL     1      -2.392   7.634  13.500  1.00  0.00     0.001 C 
HETATM   11  C15 UNL     1      -1.583   8.940  13.470  1.00  0.00     0.007 C 
HETATM   12  C16 UNL     1      -0.373   8.823  12.563  1.00  0.00     0.013 C 
HETATM   13  C17 UNL     1       0.619   7.712  12.996  1.00  0.00    -0.003 C 
HETATM   14  C18 UNL     1       1.333   8.128  14.296  1.00  0.00     0.019 C 
HETATM   15  C19 UNL     1       1.576   7.458  11.749  1.00  0.00     0.058 C 
HETATM   16  C24 UNL     1       1.291   5.996  11.326  1.00  0.00     0.144 C 
HETATM   17  C30 UNL     1      -0.138   5.744  11.808  1.00  0.00     0.072 C 
HETATM   18  C31 UNL     1      -0.131   6.347  13.209  1.00  0.00     0.072 C 
HETATM   19  C32 UNL     1      -5.607   6.327  15.470  1.00  0.00     0.037 C 
ENDROOT
BRANCH   1  20
HETATM   20  O2  UNL     1      -7.888   6.752  14.854  1.00  0.00    -0.356 OA
BRANCH  20  21
HETATM   21  C4  UNL     1      -8.917   7.673  14.496  1.00  0.00     0.263 C 
HETATM   22  C3  UNL     1     -10.252   6.956  14.670  1.00  0.00     0.095 C 
HETATM   23  C2  UNL     1     -11.441   7.880  14.385  1.00  0.00     0.156 C 
HETATM   24  C35 UNL     1     -10.989   9.322  14.099  1.00  0.00     0.175 C 
HETATM   25  C33 UNL     1      -9.915   9.776  15.106  1.00  0.00     0.151 C 
HETATM   26  O8  UNL     1      -8.875   8.821  15.335  1.00  0.00    -0.354 OA
HETATM   27  C34 UNL     1     -10.485  10.128  16.481  1.00  0.00     0.042 C 
BRANCH  23  28
HETATM   28  O1  UNL     1     -12.144   7.402  13.221  1.00  0.00    -0.388 OA
HETATM   29  C1  UNL     1     -13.332   6.693  13.553  1.00  0.00     0.202 C 
ENDBRANCH  23  28
BRANCH  24  30
HETATM   30  O9  UNL     1     -12.114  10.206  14.107  1.00  0.00    -0.390 OA
HETATM   31  H54 UNL     1     -11.963  10.875  13.417  1.00  0.00     0.210 HD
ENDBRANCH  24  30
ENDBRANCH  20  21
ENDBRANCH   1  20
BRANCH  18  32
HETATM   32  O7  UNL     1       0.703   5.485  14.008  1.00  0.00    -0.389 OA
HETATM   33  H46 UNL     1       0.280   4.609  14.074  1.00  0.00     0.210 HD
ENDBRANCH  18  32
BRANCH  15  34
HETATM   34  C20 UNL     1       3.038   7.844  11.797  1.00  0.00    -0.043 A 
HETATM   35  C21 UNL     1       4.085   7.048  12.017  1.00  0.00     0.087 A 
HETATM   36  C22 UNL     1       5.277   7.896  12.086  1.00  0.00     0.283 A 
HETATM   37  O3  UNL     1       6.409   7.489  12.267  1.00  0.00    -0.260 OA
HETATM   38  O4  UNL     1       4.908   9.197  11.938  1.00  0.00    -0.314 OA
HETATM   39  C23 UNL     1       3.494   9.261  11.750  1.00  0.00     0.214 A 
ENDBRANCH  15  34
BRANCH  16  40
HETATM   40  O5  UNL     1       1.369   5.877   9.896  1.00  0.00    -0.315 OA
BRANCH  40  41
HETATM   41  C25 UNL     1       2.482   5.254   9.420  1.00  0.00     0.259 C 
HETATM   42  O6  UNL     1       2.955   4.215   9.862  1.00  0.00    -0.265 OA
BRANCH  41  43
HETATM   43  C26 UNL     1       3.062   6.016   8.253  1.00  0.00     0.115 C 
BRANCH  43  44
HETATM   44  C27 UNL     1       2.249   7.253   7.841  1.00  0.00    -0.013 C 
HETATM   45  C28 UNL     1       1.727   7.161   6.404  1.00  0.00     0.010 C 
HETATM   46  C29 UNL     1       3.032   8.553   8.047  1.00  0.00     0.010 C 
ENDBRANCH  43  44
ENDBRANCH  41  43
ENDBRANCH  40  41
ENDBRANCH  16  40
TORSDOF 10
ENDMDL
MODEL 3
REMARK minimizedAffinity -8.40791893
REMARK CNNscore 0.424093127
REMARK CNNaffinity 6.98372221
REMARK  10 active torsions:
REMARK  status: ('A' for Active; 'I' for Inactive)
REMARK    1  A    between atoms: O1_2  and  C2_3 
REMARK    2  A    between atoms: C4_5  and  O2_6 
REMARK    3  A    between atoms: O2_6  and  C5_7 
REMARK    4  A    between atoms: C19_21  and  C20_22 
REMARK    5  A    between atoms: C24_28  and  O5_29 
REMARK    6  A    between atoms: O5_29  and  C25_30 
REMARK    7  A    between atoms: C25_30  and  C26_32 
REMARK    8  A    between atoms: C26_32  and  C27_33 
REMARK    9  A    between atoms: C31_37  and  O7_38 
REMARK   10  A    between atoms: C35_43  and  O9_44 
ROOT
HETATM    1  C5  UNL     1      -3.332   7.020  13.943  1.00  0.00     0.125 C 
HETATM    2  C6  UNL     1      -2.599   6.472  15.149  1.00  0.00     0.033 C 
HETATM    3  C7  UNL     1      -1.211   7.089  15.276  1.00  0.00     0.012 C 
HETATM    4  C8  UNL     1      -1.112   8.623  14.969  1.00  0.00    -0.036 C 
HETATM    5  C9  UNL     1      -0.466   8.800  13.564  1.00  0.00     0.016 C 
HETATM    6  C10 UNL     1      -2.511   9.311  14.882  1.00  0.00    -0.004 C 
HETATM    7  C11 UNL     1      -3.005   9.695  16.275  1.00  0.00     0.006 C 
HETATM    8  C12 UNL     1      -2.127  10.787  16.882  1.00  0.00     0.008 C 
HETATM    9  C13 UNL     1      -0.634  10.726  16.463  1.00  0.00     0.026 C 
HETATM   10  C14 UNL     1      -0.224   9.280  16.117  1.00  0.00     0.001 C 
HETATM   11  C15 UNL     1       1.280   9.192  15.814  1.00  0.00     0.007 C 
HETATM   12  C16 UNL     1       2.111   9.709  16.974  1.00  0.00     0.013 C 
HETATM   13  C17 UNL     1       1.829  11.194  17.322  1.00  0.00    -0.003 C 
HETATM   14  C18 UNL     1       2.377  12.104  16.208  1.00  0.00     0.019 C 
HETATM   15  C19 UNL     1       2.453  11.438  18.766  1.00  0.00     0.058 C 
HETATM   16  C24 UNL     1       1.240  11.776  19.667  1.00  0.00     0.144 C 
HETATM   17  C30 UNL     1       0.063  11.090  18.973  1.00  0.00     0.072 C 
HETATM   18  C31 UNL     1       0.288  11.440  17.505  1.00  0.00     0.072 C 
HETATM   19  C32 UNL     1      -3.580   8.522  14.095  1.00  0.00     0.037 C 
ENDROOT
BRANCH   1  20
HETATM   20  O2  UNL     1      -4.601   6.363  13.848  1.00  0.00    -0.356 OA
BRANCH  20  21
HETATM   21  C4  UNL     1      -4.514   5.036  13.333  1.00  0.00     0.263 C 
HETATM   22  C3  UNL     1      -5.835   4.729  12.636  1.00  0.00     0.095 C 
HETATM   23  C2  UNL     1      -5.826   3.347  11.974  1.00  0.00     0.156 C 
HETATM   24  C35 UNL     1      -4.452   2.666  12.088  1.00  0.00     0.175 C 
HETATM   25  C33 UNL     1      -3.316   3.655  11.768  1.00  0.00     0.151 C 
HETATM   26  O8  UNL     1      -3.444   4.931  12.401  1.00  0.00    -0.354 OA
HETATM   27  C34 UNL     1      -3.157   3.932  10.272  1.00  0.00     0.042 C 
BRANCH  23  28
HETATM   28  O1  UNL     1      -6.791   2.501  12.629  1.00  0.00    -0.388 OA
HETATM   29  C1  UNL     1      -7.879   3.236  13.179  1.00  0.00     0.202 C 
ENDBRANCH  23  28
BRANCH  24  30
HETATM   30  O9  UNL     1      -4.395   1.517  11.238  1.00  0.00    -0.390 OA
HETATM   31  H54 UNL     1      -3.875   0.838  11.702  1.00  0.00     0.210 HD
ENDBRANCH  24  30
ENDBRANCH  20  21
ENDBRANCH   1  20
BRANCH  18  32
HETATM   32  O7  UNL     1       0.032  12.853  17.391  1.00  0.00    -0.389 OA
HETATM   33  H46 UNL     1      -0.909  13.021  17.586  1.00  0.00     0.210 HD
ENDBRANCH  18  32
BRANCH  15  34
HETATM   34  C20 UNL     1       3.664  12.327  18.952  1.00  0.00    -0.043 A 
HETATM   35  C21 UNL     1       4.947  11.962  18.981  1.00  0.00     0.087 A 
HETATM   36  C22 UNL     1       5.736  13.152  19.303  1.00  0.00     0.283 A 
HETATM   37  O3  UNL     1       6.949  13.177  19.399  1.00  0.00    -0.260 OA
HETATM   38  O4  UNL     1       4.897  14.206  19.493  1.00  0.00    -0.314 OA
HETATM   39  C23 UNL     1       3.551  13.772  19.292  1.00  0.00     0.214 A 
ENDBRANCH  15  34
BRANCH  16  40
HETATM   40  O5  UNL     1       1.439  11.229  20.981  1.00  0.00    -0.315 OA
BRANCH  40  41
HETATM   41  C25 UNL     1       2.303  10.179  21.053  1.00  0.00     0.259 C 
HETATM   42  O6  UNL     1       2.728   9.545  20.096  1.00  0.00    -0.265 OA
BRANCH  41  43
HETATM   43  C26 UNL     1       2.682   9.899  22.487  1.00  0.00     0.115 C 
BRANCH  43  44
HETATM   44  C27 UNL     1       3.712  10.879  23.071  1.00  0.00    -0.013 C 
HETATM   45  C28 UNL     1       3.182  12.313  23.144  1.00  0.00     0.010 C 
HETATM   46  C29 UNL     1       5.043  10.835  22.314  1.00  0.00     0.010 C 
ENDBRANCH  43  44
ENDBRANCH  41  43
ENDBRANCH  40  41
ENDBRANCH  16  40
TORSDOF 10
ENDMDL
MODEL 4
REMARK minimizedAffinity -8.18558502
REMARK CNNscore 0.371130139
REMARK CNNaffinity 7.7358079
REMARK  10 active torsions:
REMARK  status: ('A' for Active; 'I' for Inactive)
REMARK    1  A    between atoms: O1_2  and  C2_3 
REMARK    2  A    between atoms: C4_5  and  O2_6 
REMARK    3  A    between atoms: O2_6  and  C5_7 
REMARK    4  A    between atoms: C19_21  and  C20_22 
REMARK    5  A    between atoms: C24_28  and  O5_29 
REMARK    6  A    between atoms: O5_29  and  C25_30 
REMARK    7  A    between atoms: C25_30  and  C26_32 
REMARK    8  A    between atoms: C26_32  and  C27_33 
REMARK    9  A    between atoms: C31_37  and  O7_38 
REMARK   10  A    between atoms: C35_43  and  O9_44 
ROOT
HETATM    1  C5  UNL     1      -5.454   6.390  14.759  1.00  0.00     0.125 C 
HETATM    2  C6  UNL     1      -6.367   5.815  15.822  1.00  0.00     0.033 C 
HETATM    3  C7  UNL     1      -7.412   6.835  16.259  1.00  0.00     0.012 C 
HETATM    4  C8  UNL     1      -8.043   7.703  15.116  1.00  0.00    -0.036 C 
HETATM    5  C9  UNL     1      -7.418   9.127  15.183  1.00  0.00     0.016 C 
HETATM    6  C10 UNL     1      -7.707   7.159  13.692  1.00  0.00    -0.004 C 
HETATM    7  C11 UNL     1      -8.688   6.056  13.296  1.00  0.00     0.006 C 
HETATM    8  C12 UNL     1     -10.097   6.618  13.122  1.00  0.00     0.008 C 
HETATM    9  C13 UNL     1     -10.441   7.809  14.055  1.00  0.00     0.026 C 
HETATM   10  C14 UNL     1      -9.618   7.735  15.358  1.00  0.00     0.001 C 
HETATM   11  C15 UNL     1     -10.035   8.843  16.337  1.00  0.00     0.007 C 
HETATM   12  C16 UNL     1     -11.519   8.776  16.651  1.00  0.00     0.013 C 
HETATM   13  C17 UNL     1     -12.422   8.943  15.401  1.00  0.00    -0.003 C 
HETATM   14  C18 UNL     1     -12.348  10.396  14.894  1.00  0.00     0.019 C 
HETATM   15  C19 UNL     1     -13.873   8.449  15.831  1.00  0.00     0.058 C 
HETATM   16  C24 UNL     1     -14.148   7.215  14.939  1.00  0.00     0.144 C 
HETATM   17  C30 UNL     1     -12.755   6.683  14.603  1.00  0.00     0.072 C 
HETATM   18  C31 UNL     1     -11.984   7.955  14.260  1.00  0.00     0.072 C 
HETATM   19  C32 UNL     1      -6.241   6.718  13.489  1.00  0.00     0.037 C 
ENDROOT
BRANCH   1  20
HETATM   20  O2  UNL     1      -4.466   5.407  14.432  1.00  0.00    -0.356 OA
BRANCH  20  21
HETATM   21  C4  UNL     1      -4.748   4.702  13.225  1.00  0.00     0.263 C 
HETATM   22  C3  UNL     1      -3.738   3.564  13.114  1.00  0.00     0.095 C 
HETATM   23  C2  UNL     1      -3.995   2.687  11.884  1.00  0.00     0.156 C 
HETATM   24  C35 UNL     1      -5.268   3.113  11.133  1.00  0.00     0.175 C 
HETATM   25  C33 UNL     1      -6.425   3.381  12.114  1.00  0.00     0.151 C 
HETATM   26  O8  UNL     1      -6.067   4.172  13.252  1.00  0.00    -0.354 OA
HETATM   27  C34 UNL     1      -7.063   2.104  12.663  1.00  0.00     0.042 C 
BRANCH  23  28
HETATM   28  O1  UNL     1      -2.886   2.812  10.972  1.00  0.00    -0.388 OA
HETATM   29  C1  UNL     1      -2.667   4.156  10.558  1.00  0.00     0.202 C 
ENDBRANCH  23  28
BRANCH  24  30
HETATM   30  O9  UNL     1      -5.628   2.122  10.166  1.00  0.00    -0.390 OA
HETATM   31  H54 UNL     1      -5.981   2.591   9.388  1.00  0.00     0.210 HD
ENDBRANCH  24  30
ENDBRANCH  20  21
ENDBRANCH   1  20
BRANCH  18  32
HETATM   32  O7  UNL     1     -12.528   8.424  13.012  1.00  0.00    -0.389 OA
HETATM   33  H46 UNL     1     -12.330   7.771  12.315  1.00  0.00     0.210 HD
ENDBRANCH  18  32
BRANCH  15  34
HETATM   34  C20 UNL     1     -15.023   9.424  15.959  1.00  0.00    -0.043 A 
HETATM   35  C21 UNL     1     -15.899   9.779  15.018  1.00  0.00     0.087 A 
HETATM   36  C22 UNL     1     -16.746  10.833  15.581  1.00  0.00     0.283 A 
HETATM   37  O3  UNL     1     -17.660  11.378  14.991  1.00  0.00    -0.260 OA
HETATM   38  O4  UNL     1     -16.331  11.111  16.846  1.00  0.00    -0.314 OA
HETATM   39  C23 UNL     1     -15.231  10.261  17.173  1.00  0.00     0.214 A 
ENDBRANCH  15  34
BRANCH  16  40
HETATM   40  O5  UNL     1     -14.896   6.234  15.677  1.00  0.00    -0.315 OA
BRANCH  40  41
HETATM   41  C25 UNL     1     -16.003   5.748  15.048  1.00  0.00     0.259 C 
HETATM   42  O6  UNL     1     -16.668   6.353  14.218  1.00  0.00    -0.265 OA
BRANCH  41  43
HETATM   43  C26 UNL     1     -16.302   4.342  15.508  1.00  0.00     0.115 C 
BRANCH  43  44
HETATM   44  C27 UNL     1     -15.928   3.252  14.491  1.00  0.00    -0.013 C 
HETATM   45  C28 UNL     1     -17.110   2.840  13.609  1.00  0.00     0.010 C 
HETATM   46  C29 UNL     1     -15.305   2.025  15.164  1.00  0.00     0.010 C 
ENDBRANCH  43  44
ENDBRANCH  41  43
ENDBRANCH  40  41
ENDBRANCH  16  40
TORSDOF 10
ENDMDL
MODEL 5
REMARK minimizedAffinity -8.01143646
REMARK CNNscore 0.313469052
REMARK CNNaffinity 7.28532553
REMARK  10 active torsions:
REMARK  status: ('A' for Active; 'I' for Inactive)
REMARK    1  A    between atoms: O1_2  and  C2_3 
REMARK    2  A    between atoms: C4_5  and  O2_6 
REMARK    3  A    between atoms: O2_6  and  C5_7 
REMARK    4  A    between atoms: C19_21  and  C20_22 
REMARK    5  A    between atoms: C24_28  and  O5_29 
REMARK    6  A    between atoms: O5_29  and  C25_30 
REMARK    7  A    between atoms: C25_30  and  C26_32 
REMARK    8  A    between atoms: C26_32  and  C27_33 
REMARK    9  A    between atoms: C31_37  and  O7_38 
REMARK   10  A    between atoms: C35_43  and  O9_44 
ROOT
HETATM    1  C5  UNL     1      -5.158   6.226  15.068  1.00  0.00     0.125 C 
HETATM    2  C6  UNL     1      -6.149   5.752  16.110  1.00  0.00     0.033 C 
HETATM    3  C7  UNL     1      -7.225   6.801  16.364  1.00  0.00     0.012 C 
HETATM    4  C8  UNL     1      -7.767   7.547  15.096  1.00  0.00    -0.036 C 
HETATM    5  C9  UNL     1      -7.150   8.976  15.069  1.00  0.00     0.016 C 
HETATM    6  C10 UNL     1      -7.323   6.868  13.762  1.00  0.00    -0.004 C 
HETATM    7  C11 UNL     1      -8.270   5.724  13.404  1.00  0.00     0.006 C 
HETATM    8  C12 UNL     1      -9.662   6.255  13.069  1.00  0.00     0.008 C 
HETATM    9  C13 UNL     1     -10.077   7.528  13.851  1.00  0.00     0.026 C 
HETATM   10  C14 UNL     1      -9.355   7.590  15.214  1.00  0.00     0.001 C 
HETATM   11  C15 UNL     1      -9.847   8.785  16.044  1.00  0.00     0.007 C 
HETATM   12  C16 UNL     1     -11.350   8.738  16.249  1.00  0.00     0.013 C 
HETATM   13  C17 UNL     1     -12.156   8.774  14.924  1.00  0.00    -0.003 C 
HETATM   14  C18 UNL     1     -12.044  10.170  14.283  1.00  0.00     0.019 C 
HETATM   15  C19 UNL     1     -13.635   8.312  15.290  1.00  0.00     0.058 C 
HETATM   16  C24 UNL     1     -13.841   6.994  14.505  1.00  0.00     0.144 C 
HETATM   17  C30 UNL     1     -12.425   6.443  14.330  1.00  0.00     0.072 C 
HETATM   18  C31 UNL     1     -11.631   7.681  13.923  1.00  0.00     0.072 C 
HETATM   19  C32 UNL     1      -5.845   6.422  13.715  1.00  0.00     0.037 C 
ENDROOT
BRANCH   1  20
HETATM   20  O2  UNL     1      -4.147   5.224  14.916  1.00  0.00    -0.356 OA
BRANCH  20  21
HETATM   21  C4  UNL     1      -3.173   5.549  13.925  1.00  0.00     0.263 C 
HETATM   22  C3  UNL     1      -1.820   5.633  14.624  1.00  0.00     0.095 C 
HETATM   23  C2  UNL     1      -0.680   5.904  13.636  1.00  0.00     0.156 C 
HETATM   24  C35 UNL     1      -1.175   5.916  12.180  1.00  0.00     0.175 C 
HETATM   25  C33 UNL     1      -2.133   4.740  11.911  1.00  0.00     0.151 C 
HETATM   26  O8  UNL     1      -3.131   4.546  12.917  1.00  0.00    -0.354 OA
HETATM   27  C34 UNL     1      -1.416   3.398  11.755  1.00  0.00     0.042 C 
BRANCH  23  28
HETATM   28  O1  UNL     1      -0.108   7.197  13.915  1.00  0.00    -0.388 OA
HETATM   29  C1  UNL     1       1.240   7.113  14.363  1.00  0.00     0.202 C 
ENDBRANCH  23  28
BRANCH  24  30
HETATM   30  O9  UNL     1      -0.065   5.897  11.278  1.00  0.00    -0.390 OA
HETATM   31  H54 UNL     1      -0.300   6.457  10.517  1.00  0.00     0.210 HD
ENDBRANCH  24  30
ENDBRANCH  20  21
ENDBRANCH   1  20
BRANCH  18  32
HETATM   32  O7  UNL     1     -12.079   8.022  12.597  1.00  0.00    -0.389 OA
HETATM   33  H46 UNL     1     -11.828   7.305  11.985  1.00  0.00     0.210 HD
ENDBRANCH  18  32
BRANCH  15  34
HETATM   34  C20 UNL     1     -14.792   9.286  15.233  1.00  0.00    -0.043 A 
HETATM   35  C21 UNL     1     -15.637   9.490  14.221  1.00  0.00     0.087 A 
HETATM   36  C22 UNL     1     -16.505  10.609  14.592  1.00  0.00     0.283 A 
HETATM   37  O3  UNL     1     -17.401  11.053  13.898  1.00  0.00    -0.260 OA
HETATM   38  O4  UNL     1     -16.135  11.075  15.815  1.00  0.00    -0.314 OA
HETATM   39  C23 UNL     1     -15.045  10.292  16.301  1.00  0.00     0.214 A 
ENDBRANCH  15  34
BRANCH  16  40
HETATM   40  O5  UNL     1     -14.642   6.084  15.277  1.00  0.00    -0.315 OA
BRANCH  40  41
HETATM   41  C25 UNL     1     -15.677   5.504  14.608  1.00  0.00     0.259 C 
HETATM   42  O6  UNL     1     -16.142   5.897  13.546  1.00  0.00    -0.265 OA
BRANCH  41  43
HETATM   43  C26 UNL     1     -16.178   4.290  15.352  1.00  0.00     0.115 C 
BRANCH  43  44
HETATM   44  C27 UNL     1     -16.175   2.996  14.523  1.00  0.00    -0.013 C 
HETATM   45  C28 UNL     1     -17.454   2.175  14.711  1.00  0.00     0.010 C 
HETATM   46  C29 UNL     1     -14.938   2.137  14.799  1.00  0.00     0.010 C 
ENDBRANCH  43  44
ENDBRANCH  41  43
ENDBRANCH  40  41
ENDBRANCH  16  40
TORSDOF 10
ENDMDL
MODEL 6
REMARK minimizedAffinity -10.1033545
REMARK CNNscore 0.308383495
REMARK CNNaffinity 7.47051382
REMARK  10 active torsions:
REMARK  status: ('A' for Active; 'I' for Inactive)
REMARK    1  A    between atoms: O1_2  and  C2_3 
REMARK    2  A    between atoms: C4_5  and  O2_6 
REMARK    3  A    between atoms: O2_6  and  C5_7 
REMARK    4  A    between atoms: C19_21  and  C20_22 
REMARK    5  A    between atoms: C24_28  and  O5_29 
REMARK    6  A    between atoms: O5_29  and  C25_30 
REMARK    7  A    between atoms: C25_30  and  C26_32 
REMARK    8  A    between atoms: C26_32  and  C27_33 
REMARK    9  A    between atoms: C31_37  and  O7_38 
REMARK   10  A    between atoms: C35_43  and  O9_44 
ROOT
HETATM    1  C5  UNL     1      -5.177   8.356  15.067  1.00  0.00     0.125 C 
HETATM    2  C6  UNL     1      -4.911   8.185  13.586  1.00  0.00     0.033 C 
HETATM    3  C7  UNL     1      -3.553   8.760  13.201  1.00  0.00     0.012 C 
HETATM    4  C8  UNL     1      -2.384   8.492  14.211  1.00  0.00    -0.036 C 
HETATM    5  C9  UNL     1      -2.108   9.806  14.999  1.00  0.00     0.016 C 
HETATM    6  C10 UNL     1      -2.752   7.422  15.287  1.00  0.00    -0.004 C 
HETATM    7  C11 UNL     1      -2.509   6.015  14.745  1.00  0.00     0.006 C 
HETATM    8  C12 UNL     1      -1.020   5.769  14.516  1.00  0.00     0.008 C 
HETATM    9  C13 UNL     1      -0.212   7.024  14.096  1.00  0.00     0.026 C 
HETATM   10  C14 UNL     1      -1.118   8.034  13.360  1.00  0.00     0.001 C 
HETATM   11  C15 UNL     1      -0.302   9.227  12.838  1.00  0.00     0.007 C 
HETATM   12  C16 UNL     1       0.824   8.774  11.928  1.00  0.00     0.013 C 
HETATM   13  C17 UNL     1       1.840   7.830  12.624  1.00  0.00    -0.003 C 
HETATM   14  C18 UNL     1       2.666   8.623  13.654  1.00  0.00     0.019 C 
HETATM   15  C19 UNL     1       2.683   7.147  11.460  1.00  0.00     0.058 C 
HETATM   16  C24 UNL     1       2.350   5.639  11.567  1.00  0.00     0.144 C 
HETATM   17  C30 UNL     1       0.966   5.611  12.215  1.00  0.00     0.072 C 
HETATM   18  C31 UNL     1       1.098   6.640  13.334  1.00  0.00     0.072 C 
HETATM   19  C32 UNL     1      -4.164   7.564  15.895  1.00  0.00     0.037 C 
ENDROOT
BRANCH   1  20
HETATM   20  O2  UNL     1      -6.485   7.848  15.353  1.00  0.00    -0.356 OA
BRANCH  20  21
HETATM   21  C4  UNL     1      -6.743   6.582  14.749  1.00  0.00     0.263 C 
HETATM   22  C3  UNL     1      -7.570   6.835  13.493  1.00  0.00     0.095 C 
HETATM   23  C2  UNL     1      -7.844   5.543  12.717  1.00  0.00     0.156 C 
HETATM   24  C35 UNL     1      -7.127   4.335  13.344  1.00  0.00     0.175 C 
HETATM   25  C33 UNL     1      -5.675   4.687  13.719  1.00  0.00     0.151 C 
HETATM   26  O8  UNL     1      -5.525   5.936  14.400  1.00  0.00    -0.354 OA
HETATM   27  C34 UNL     1      -4.734   4.740  12.515  1.00  0.00     0.042 C 
BRANCH  23  28
HETATM   28  O1  UNL     1      -9.259   5.270  12.734  1.00  0.00    -0.388 OA
HETATM   29  C1  UNL     1     -10.024   6.378  13.194  1.00  0.00     0.202 C 
ENDBRANCH  23  28
BRANCH  24  30
HETATM   30  O9  UNL     1      -7.176   3.214  12.457  1.00  0.00    -0.390 OA
HETATM   31  H54 UNL     1      -7.281   2.415  13.005  1.00  0.00     0.210 HD
ENDBRANCH  24  30
ENDBRANCH  20  21
ENDBRANCH   1  20
BRANCH  18  32
HETATM   32  O7  UNL     1       1.990   6.057  14.304  1.00  0.00    -0.389 OA
HETATM   33  H46 UNL     1       1.566   5.267  14.689  1.00  0.00     0.210 HD
ENDBRANCH  18  32
BRANCH  15  34
HETATM   34  C20 UNL     1       4.148   7.473  11.263  1.00  0.00    -0.043 A 
HETATM   35  C21 UNL     1       5.202   6.746  11.637  1.00  0.00     0.087 A 
HETATM   36  C22 UNL     1       6.403   7.528  11.337  1.00  0.00     0.283 A 
HETATM   37  O3  UNL     1       7.544   7.156  11.543  1.00  0.00    -0.260 OA
HETATM   38  O4  UNL     1       6.036   8.730  10.817  1.00  0.00    -0.314 OA
HETATM   39  C23 UNL     1       4.611   8.785  10.735  1.00  0.00     0.214 A 
ENDBRANCH  15  34
BRANCH  16  40
HETATM   40  O5  UNL     1       2.303   5.054  10.254  1.00  0.00    -0.315 OA
BRANCH  40  41
HETATM   41  C25 UNL     1       2.609   5.895   9.228  1.00  0.00     0.259 C 
HETATM   42  O6  UNL     1       3.657   5.888   8.596  1.00  0.00    -0.265 OA
BRANCH  41  43
HETATM   43  C26 UNL     1       1.467   6.845   8.958  1.00  0.00     0.115 C 
BRANCH  43  44
HETATM   44  C27 UNL     1       1.663   7.731   7.719  1.00  0.00    -0.013 C 
HETATM   45  C28 UNL     1       1.755   6.920   6.424  1.00  0.00     0.010 C 
HETATM   46  C29 UNL     1       2.872   8.661   7.859  1.00  0.00     0.010 C 
ENDBRANCH  43  44
ENDBRANCH  41  43
ENDBRANCH  40  41
ENDBRANCH  16  40
TORSDOF 10
ENDMDL
MODEL 7
REMARK minimizedAffinity -7.30604887
REMARK CNNscore 0.299816579
REMARK CNNaffinity 6.66973734
REMARK  10 active torsions:
REMARK  status: ('A' for Active; 'I' for Inactive)
REMARK    1  A    between atoms: O1_2  and  C2_3 
REMARK    2  A    between atoms: C4_5  and  O2_6 
REMARK    3  A    between atoms: O2_6  and  C5_7 
REMARK    4  A    between atoms: C19_21  and  C20_22 
REMARK    5  A    between atoms: C24_28  and  O5_29 
REMARK    6  A    between atoms: O5_29  and  C25_30 
REMARK    7  A    between atoms: C25_30  and  C26_32 
REMARK    8  A    between atoms: C26_32  and  C27_33 
REMARK    9  A    between atoms: C31_37  and  O7_38 
REMARK   10  A    between atoms: C35_43  and  O9_44 
ROOT
HETATM    1  C5  UNL     1      -1.963  12.793  18.696  1.00  0.00     0.125 C 
HETATM    2  C6  UNL     1      -0.992  11.641  18.843  1.00  0.00     0.033 C 
HETATM    3  C7  UNL     1      -1.578  10.352  18.279  1.00  0.00     0.012 C 
HETATM    4  C8  UNL     1      -2.380  10.492  16.940  1.00  0.00    -0.036 C 
HETATM    5  C9  UNL     1      -3.899  10.397  17.267  1.00  0.00     0.016 C 
HETATM    6  C10 UNL     1      -2.179  11.883  16.261  1.00  0.00    -0.004 C 
HETATM    7  C11 UNL     1      -0.907  11.885  15.415  1.00  0.00     0.006 C 
HETATM    8  C12 UNL     1      -1.045  10.942  14.222  1.00  0.00     0.008 C 
HETATM    9  C13 UNL     1      -1.926   9.692  14.482  1.00  0.00     0.026 C 
HETATM   10  C14 UNL     1      -1.906   9.313  15.978  1.00  0.00     0.001 C 
HETATM   11  C15 UNL     1      -2.681   8.010  16.226  1.00  0.00     0.007 C 
HETATM   12  C16 UNL     1      -2.132   6.869  15.390  1.00  0.00     0.013 C 
HETATM   13  C17 UNL     1      -2.207   7.130  13.863  1.00  0.00    -0.003 C 
HETATM   14  C18 UNL     1      -3.675   7.084  13.398  1.00  0.00     0.019 C 
HETATM   15  C19 UNL     1      -1.246   6.061  13.180  1.00  0.00     0.058 C 
HETATM   16  C24 UNL     1      -0.133   6.903  12.511  1.00  0.00     0.144 C 
HETATM   17  C30 UNL     1      -0.096   8.189  13.337  1.00  0.00     0.072 C 
HETATM   18  C31 UNL     1      -1.575   8.524  13.504  1.00  0.00     0.072 C 
HETATM   19  C32 UNL     1      -2.229  13.093  17.219  1.00  0.00     0.037 C 
ENDROOT
BRANCH   1  20
HETATM   20  O2  UNL     1      -1.378  13.957  19.291  1.00  0.00    -0.356 OA
BRANCH  20  21
HETATM   21  C4  UNL     1       0.042  13.883  19.397  1.00  0.00     0.263 C 
HETATM   22  C3  UNL     1       0.627  14.896  18.418  1.00  0.00     0.095 C 
HETATM   23  C2  UNL     1       2.156  14.958  18.502  1.00  0.00     0.156 C 
HETATM   24  C35 UNL     1       2.704  14.063  19.625  1.00  0.00     0.175 C 
HETATM   25  C33 UNL     1       1.879  14.223  20.915  1.00  0.00     0.151 C 
HETATM   26  O8  UNL     1       0.462  14.197  20.720  1.00  0.00    -0.354 OA
HETATM   27  C34 UNL     1       2.183  15.518  21.672  1.00  0.00     0.042 C 
BRANCH  23  28
HETATM   28  O1  UNL     1       2.718  14.497  17.258  1.00  0.00    -0.388 OA
HETATM   29  C1  UNL     1       2.706  13.078  17.146  1.00  0.00     0.202 C 
ENDBRANCH  23  28
BRANCH  24  30
HETATM   30  O9  UNL     1       4.087  14.347  19.855  1.00  0.00    -0.390 OA
HETATM   31  H54 UNL     1       4.526  13.503  20.064  1.00  0.00     0.210 HD
ENDBRANCH  24  30
ENDBRANCH  20  21
ENDBRANCH   1  20
BRANCH  18  32
HETATM   32  O7  UNL     1      -2.043   8.917  12.199  1.00  0.00    -0.389 OA
HETATM   33  H46 UNL     1      -1.590   9.740  11.936  1.00  0.00     0.210 HD
ENDBRANCH  18  32
BRANCH  15  34
HETATM   34  C20 UNL     1      -1.805   4.938  12.334  1.00  0.00    -0.043 A 
HETATM   35  C21 UNL     1      -1.550   4.680  11.050  1.00  0.00     0.087 A 
HETATM   36  C22 UNL     1      -2.413   3.569  10.644  1.00  0.00     0.283 A 
HETATM   37  O3  UNL     1      -2.429   3.072   9.534  1.00  0.00    -0.260 OA
HETATM   38  O4  UNL     1      -3.198   3.207  11.695  1.00  0.00    -0.314 OA
HETATM   39  C23 UNL     1      -2.881   4.030  12.818  1.00  0.00     0.214 A 
ENDBRANCH  15  34
BRANCH  16  40
HETATM   40  O5  UNL     1       1.124   6.212  12.599  1.00  0.00    -0.315 OA
BRANCH  40  41
HETATM   41  C25 UNL     1       2.029   6.518  11.628  1.00  0.00     0.259 C 
HETATM   42  O6  UNL     1       3.210   6.778  11.819  1.00  0.00    -0.265 OA
BRANCH  41  43
HETATM   43  C26 UNL     1       1.381   6.486  10.266  1.00  0.00     0.115 C 
BRANCH  43  44
HETATM   44  C27 UNL     1       1.567   7.773   9.447  1.00  0.00    -0.013 C 
HETATM   45  C28 UNL     1       0.245   8.314   8.894  1.00  0.00     0.010 C 
HETATM   46  C29 UNL     1       2.591   7.599   8.322  1.00  0.00     0.010 C 
ENDBRANCH  43  44
ENDBRANCH  41  43
ENDBRANCH  40  41
ENDBRANCH  16  40
TORSDOF 10
ENDMDL
MODEL 8
REMARK minimizedAffinity -7.78738689
REMARK CNNscore 0.294455111
REMARK CNNaffinity 6.49781275
REMARK  10 active torsions:
REMARK  status: ('A' for Active; 'I' for Inactive)
REMARK    1  A    between atoms: O1_2  and  C2_3 
REMARK    2  A    between atoms: C4_5  and  O2_6 
REMARK    3  A    between atoms: O2_6  and  C5_7 
REMARK    4  A    between atoms: C19_21  and  C20_22 
REMARK    5  A    between atoms: C24_28  and  O5_29 
REMARK    6  A    between atoms: O5_29  and  C25_30 
REMARK    7  A    between atoms: C25_30  and  C26_32 
REMARK    8  A    between atoms: C26_32  and  C27_33 
REMARK    9  A    between atoms: C31_37  and  O7_38 
REMARK   10  A    between atoms: C35_43  and  O9_44 
ROOT
HETATM    1  C5  UNL     1      -3.058  12.460  18.322  1.00  0.00     0.125 C 
HETATM    2  C6  UNL     1      -1.968  11.450  18.614  1.00  0.00     0.033 C 
HETATM    3  C7  UNL     1      -2.276  10.105  17.967  1.00  0.00     0.012 C 
HETATM    4  C8  UNL     1      -2.879  10.162  16.521  1.00  0.00    -0.036 C 
HETATM    5  C9  UNL     1      -4.402   9.851  16.614  1.00  0.00     0.016 C 
HETATM    6  C10 UNL     1      -2.775  11.583  15.881  1.00  0.00    -0.004 C 
HETATM    7  C11 UNL     1      -1.404  11.779  15.238  1.00  0.00     0.006 C 
HETATM    8  C12 UNL     1      -1.227  10.852  14.038  1.00  0.00     0.008 C 
HETATM    9  C13 UNL     1      -1.953   9.487  14.160  1.00  0.00     0.026 C 
HETATM   10  C14 UNL     1      -2.106   9.082  15.641  1.00  0.00     0.001 C 
HETATM   11  C15 UNL     1      -2.719   7.679  15.768  1.00  0.00     0.007 C 
HETATM   12  C16 UNL     1      -1.896   6.644  15.024  1.00  0.00     0.013 C 
HETATM   13  C17 UNL     1      -1.777   6.925  13.504  1.00  0.00    -0.003 C 
HETATM   14  C18 UNL     1      -3.137   6.687  12.821  1.00  0.00     0.019 C 
HETATM   15  C19 UNL     1      -0.583   6.014  12.974  1.00  0.00     0.058 C 
HETATM   16  C24 UNL     1       0.488   7.017  12.482  1.00  0.00     0.144 C 
HETATM   17  C30 UNL     1       0.220   8.278  13.305  1.00  0.00     0.072 C 
HETATM   18  C31 UNL     1      -1.299   8.401  13.246  1.00  0.00     0.072 C 
HETATM   19  C32 UNL     1      -3.138  12.752  16.822  1.00  0.00     0.037 C 
ENDROOT
BRANCH   1  20
HETATM   20  O2  UNL     1      -2.738  13.679  19.000  1.00  0.00    -0.356 OA
BRANCH  20  21
HETATM   21  C4  UNL     1      -3.868  14.298  19.612  1.00  0.00     0.263 C 
HETATM   22  C3  UNL     1      -4.797  13.186  20.087  1.00  0.00     0.095 C 
HETATM   23  C2  UNL     1      -6.017  13.737  20.833  1.00  0.00     0.156 C 
HETATM   24  C35 UNL     1      -5.940  15.263  21.008  1.00  0.00     0.175 C 
HETATM   25  C33 UNL     1      -4.532  15.699  21.453  1.00  0.00     0.151 C 
HETATM   26  O8  UNL     1      -3.463  15.092  20.722  1.00  0.00    -0.354 OA
HETATM   27  C34 UNL     1      -4.251  15.423  22.931  1.00  0.00     0.042 C 
BRANCH  23  28
HETATM   28  O1  UNL     1      -7.208  13.441  20.079  1.00  0.00    -0.388 OA
HETATM   29  C1  UNL     1      -7.281  14.175  18.862  1.00  0.00     0.202 C 
ENDBRANCH  23  28
BRANCH  24  30
HETATM   30  O9  UNL     1      -6.938  15.708  21.932  1.00  0.00    -0.390 OA
HETATM   31  H54 UNL     1      -7.265  16.567  21.613  1.00  0.00     0.210 HD
ENDBRANCH  24  30
ENDBRANCH  20  21
ENDBRANCH   1  20
BRANCH  18  32
HETATM   32  O7  UNL     1      -1.616   8.754  11.885  1.00  0.00    -0.389 OA
HETATM   33  H46 UNL     1      -1.248   9.637  11.695  1.00  0.00     0.210 HD
ENDBRANCH  18  32
BRANCH  15  34
HETATM   34  C20 UNL     1      -0.846   4.845  12.051  1.00  0.00    -0.043 A 
HETATM   35  C21 UNL     1      -1.881   4.672  11.227  1.00  0.00     0.087 A 
HETATM   36  C22 UNL     1      -1.754   3.339  10.635  1.00  0.00     0.283 A 
HETATM   37  O3  UNL     1      -2.528   2.862   9.826  1.00  0.00    -0.260 OA
HETATM   38  O4  UNL     1      -0.655   2.725  11.149  1.00  0.00    -0.314 OA
HETATM   39  C23 UNL     1      -0.012   3.611  12.066  1.00  0.00     0.214 A 
ENDBRANCH  15  34
BRANCH  16  40
HETATM   40  O5  UNL     1       1.802   6.505  12.759  1.00  0.00    -0.315 OA
BRANCH  40  41
HETATM   41  C25 UNL     1       2.727   6.705  11.779  1.00  0.00     0.259 C 
HETATM   42  O6  UNL     1       3.859   7.137  11.952  1.00  0.00    -0.265 OA
BRANCH  41  43
HETATM   43  C26 UNL     1       2.171   6.308  10.433  1.00  0.00     0.115 C 
BRANCH  43  44
HETATM   44  C27 UNL     1       2.401   7.347   9.324  1.00  0.00    -0.013 C 
HETATM   45  C28 UNL     1       2.261   6.749   7.921  1.00  0.00     0.010 C 
HETATM   46  C29 UNL     1       3.747   8.062   9.474  1.00  0.00     0.010 C 
ENDBRANCH  43  44
ENDBRANCH  41  43
ENDBRANCH  40  41
ENDBRANCH  16  40
TORSDOF 10
ENDMDL
MODEL 9
REMARK minimizedAffinity -8.49458885
REMARK CNNscore 0.289101005
REMARK CNNaffinity 6.76721907
REMARK  10 active torsions:
REMARK  status: ('A' for Active; 'I' for Inactive)
REMARK    1  A    between atoms: O1_2  and  C2_3 
REMARK    2  A    between atoms: C4_5  and  O2_6 
REMARK    3  A    between atoms: O2_6  and  C5_7 
REMARK    4  A    between atoms: C19_21  and  C20_22 
REMARK    5  A    between atoms: C24_28  and  O5_29 
REMARK    6  A    between atoms: O5_29  and  C25_30 
REMARK    7  A    between atoms: C25_30  and  C26_32 
REMARK    8  A    between atoms: C26_32  and  C27_33 
REMARK    9  A    between atoms: C31_37  and  O7_38 
REMARK   10  A    between atoms: C35_43  and  O9_44 
ROOT
HETATM    1  C5  UNL     1      -1.327  12.524  18.489  1.00  0.00     0.125 C 
HETATM    2  C6  UNL     1      -0.859  11.112  18.775  1.00  0.00     0.033 C 
HETATM    3  C7  UNL     1      -1.813  10.084  18.179  1.00  0.00     0.012 C 
HETATM    4  C8  UNL     1      -2.374  10.415  16.753  1.00  0.00    -0.036 C 
HETATM    5  C9  UNL     1      -3.848  10.891  16.906  1.00  0.00     0.016 C 
HETATM    6  C10 UNL     1      -1.616  11.596  16.068  1.00  0.00    -0.004 C 
HETATM    7  C11 UNL     1      -0.353  11.089  15.374  1.00  0.00     0.006 C 
HETATM    8  C12 UNL     1      -0.705  10.182  14.197  1.00  0.00     0.008 C 
HETATM    9  C13 UNL     1      -2.001   9.350  14.384  1.00  0.00     0.026 C 
HETATM   10  C14 UNL     1      -2.267   9.086  15.881  1.00  0.00     0.001 C 
HETATM   11  C15 UNL     1      -3.482   8.165  16.070  1.00  0.00     0.007 C 
HETATM   12  C16 UNL     1      -3.304   6.852  15.331  1.00  0.00     0.013 C 
HETATM   13  C17 UNL     1      -3.128   7.024  13.799  1.00  0.00    -0.003 C 
HETATM   14  C18 UNL     1      -4.460   7.476  13.170  1.00  0.00     0.019 C 
HETATM   15  C19 UNL     1      -2.558   5.640  13.258  1.00  0.00     0.058 C 
HETATM   16  C24 UNL     1      -1.155   5.984  12.701  1.00  0.00     0.144 C 
HETATM   17  C30 UNL     1      -0.736   7.222  13.494  1.00  0.00     0.072 C 
HETATM   18  C31 UNL     1      -2.002   8.073  13.482  1.00  0.00     0.072 C 
HETATM   19  C32 UNL     1      -1.319  12.803  16.984  1.00  0.00     0.037 C 
ENDROOT
BRANCH   1  20
HETATM   20  O2  UNL     1      -0.422  13.437  19.119  1.00  0.00    -0.356 OA
BRANCH  20  21
HETATM   21  C4  UNL     1       0.904  12.923  19.243  1.00  0.00     0.263 C 
HETATM   22  C3  UNL     1       0.874  11.834  20.310  1.00  0.00     0.095 C 
HETATM   23  C2  UNL     1       2.237  11.155  20.474  1.00  0.00     0.156 C 
HETATM   24  C35 UNL     1       3.261  11.670  19.449  1.00  0.00     0.175 C 
HETATM   25  C33 UNL     1       2.638  11.764  18.043  1.00  0.00     0.151 C 
HETATM   26  O8  UNL     1       1.344  12.374  18.007  1.00  0.00    -0.354 OA
HETATM   27  C34 UNL     1       2.492  10.406  17.354  1.00  0.00     0.042 C 
BRANCH  23  28
HETATM   28  O1  UNL     1       2.753  11.439  21.789  1.00  0.00    -0.388 OA
HETATM   29  C1  UNL     1       2.978  10.261  22.555  1.00  0.00     0.202 C 
ENDBRANCH  23  28
BRANCH  24  30
HETATM   30  O9  UNL     1       4.424  10.837  19.447  1.00  0.00    -0.390 OA
HETATM   31  H54 UNL     1       5.195  11.415  19.306  1.00  0.00     0.210 HD
ENDBRANCH  24  30
ENDBRANCH  20  21
ENDBRANCH   1  20
BRANCH  18  32
HETATM   32  O7  UNL     1      -2.164   8.523  12.122  1.00  0.00    -0.389 OA
HETATM   33  H46 UNL     1      -1.420   9.111  11.893  1.00  0.00     0.210 HD
ENDBRANCH  18  32
BRANCH  15  34
HETATM   34  C20 UNL     1      -3.400   4.740  12.380  1.00  0.00    -0.043 A 
HETATM   35  C21 UNL     1      -4.508   4.078  12.716  1.00  0.00     0.087 A 
HETATM   36  C22 UNL     1      -4.891   3.252  11.569  1.00  0.00     0.283 A 
HETATM   37  O3  UNL     1      -5.867   2.526  11.532  1.00  0.00    -0.260 OA
HETATM   38  O4  UNL     1      -3.976   3.414  10.576  1.00  0.00    -0.314 OA
HETATM   39  C23 UNL     1      -2.983   4.345  11.006  1.00  0.00     0.214 A 
ENDBRANCH  15  34
BRANCH  16  40
HETATM   40  O5  UNL     1      -0.249   4.896  12.950  1.00  0.00    -0.315 OA
BRANCH  40  41
HETATM   41  C25 UNL     1       0.535   4.535  11.896  1.00  0.00     0.259 C 
HETATM   42  O6  UNL     1       0.447   3.484  11.276  1.00  0.00    -0.265 OA
BRANCH  41  43
HETATM   43  C26 UNL     1       1.536   5.621  11.581  1.00  0.00     0.115 C 
BRANCH  43  44
HETATM   44  C27 UNL     1       1.435   6.177  10.152  1.00  0.00    -0.013 C 
HETATM   45  C28 UNL     1       2.728   5.988   9.355  1.00  0.00     0.010 C 
HETATM   46  C29 UNL     1       1.000   7.646  10.135  1.00  0.00     0.010 C 
ENDBRANCH  43  44
ENDBRANCH  41  43
ENDBRANCH  40  41
ENDBRANCH  16  40
TORSDOF 10
ENDMDL
