MODEL 1
REMARK minimizedAffinity -8.68490124
REMARK  6 active torsions:
REMARK  status: ('A' for Active; 'I' for Inactive)
REMARK    1  A    between atoms: S1_2  and  C2_5 
REMARK    2  A    between atoms: N1_13  and  C9_14 
REMARK    3  A    between atoms: C9_14  and  C10_15 
REMARK    4  A    between atoms: C17_23  and  C18_24 
REMARK    5  A    between atoms: C18_24  and  C19_25 
REMARK    6  A    between atoms: C19_25  and  O4_27 
ROOT
HETATM    1  C2  UNL     1      -1.283   6.548  13.383  1.00  0.00     0.089 A 
HETATM    2  C3  UNL     1      -0.134   6.406  12.583  1.00  0.00     0.068 A 
HETATM    3  C4  UNL     1      -0.095   5.490  11.544  1.00  0.00     0.118 A 
HETATM    4  F1  UNL     1       1.015   5.398  10.801  1.00  0.00    -0.206 F 
HETATM    5  C5  UNL     1      -1.187   4.696  11.234  1.00  0.00     0.056 A 
HETATM    6  C6  UNL     1      -2.343   4.791  12.027  1.00  0.00     0.003 A 
HETATM    7  C7  UNL     1      -3.603   4.187  11.956  1.00  0.00    -0.022 C 
HETATM    8  C8  UNL     1      -4.364   4.657  12.984  1.00  0.00     0.024 C 
HETATM    9  N1  UNL     1      -3.589   5.423  13.804  1.00  0.00    -0.343 N 
HETATM   10  C16 UNL     1      -2.375   5.671  13.137  1.00  0.00     0.068 A 
HETATM   11  C17 UNL     1      -5.749   4.105  13.024  1.00  0.00     0.046 C 
HETATM   12  C20 UNL     1      -5.802   3.391  11.614  1.00  0.00     0.016 C 
HETATM   13  C21 UNL     1      -4.331   3.213  11.121  1.00  0.00     0.042 C 
ENDROOT
BRANCH   9  14
HETATM   14  C9  UNL     1      -3.932   5.815  15.175  1.00  0.00     0.167 C 
BRANCH  14  15
HETATM   15  C10 UNL     1      -5.235   6.583  15.287  1.00  0.00    -0.040 A 
HETATM   16  C11 UNL     1      -6.229   6.189  16.198  1.00  0.00     0.010 A 
HETATM   17  C12 UNL     1      -7.419   6.912  16.307  1.00  0.00     0.024 A 
HETATM   18  C13 UNL     1      -7.616   8.042  15.519  1.00  0.00     0.034 A 
HETATM   19 CL1  UNL     1      -9.082   8.934  15.653  1.00  0.00    -0.084 Cl
HETATM   20  C14 UNL     1      -6.632   8.461  14.627  1.00  0.00     0.024 A 
HETATM   21  C15 UNL     1      -5.442   7.738  14.516  1.00  0.00     0.010 A 
ENDBRANCH  14  15
ENDBRANCH   9  14
BRANCH  11  22
HETATM   22  C18 UNL     1      -6.831   5.172  13.161  1.00  0.00     0.120 C 
BRANCH  22  23
HETATM   23  C19 UNL     1      -8.149   4.692  12.620  1.00  0.00     0.140 C 
HETATM   24  O3  UNL     1      -8.783   5.148  11.685  1.00  0.00    -0.650 OA
BRANCH  23  25
HETATM   25  O4  UNL     1      -8.627   3.644  13.321  1.00  0.00    -0.776 OA
HETATM   26  H15 UNL     1      -9.482   3.439  12.888  1.00  0.00     0.167 HD
ENDBRANCH  23  25
ENDBRANCH  22  23
ENDBRANCH  11  22
BRANCH   1  27
HETATM   27  S1  UNL     1      -1.292   7.880  14.572  1.00  0.00     0.174 S 
HETATM   28  C1  UNL     1      -0.247   7.398  15.919  1.00  0.00     0.167 C 
HETATM   29  O1  UNL     1      -2.652   7.984  15.062  1.00  0.00    -0.223 OA
HETATM   30  O2  UNL     1      -0.635   9.010  13.938  1.00  0.00    -0.223 OA
ENDBRANCH   1  27
TORSDOF 6
ENDMDL
MODEL 2
REMARK minimizedAffinity -8.36454201
REMARK  6 active torsions:
REMARK  status: ('A' for Active; 'I' for Inactive)
REMARK    1  A    between atoms: S1_2  and  C2_5 
REMARK    2  A    between atoms: N1_13  and  C9_14 
REMARK    3  A    between atoms: C9_14  and  C10_15 
REMARK    4  A    between atoms: C17_23  and  C18_24 
REMARK    5  A    between atoms: C18_24  and  C19_25 
REMARK    6  A    between atoms: C19_25  and  O4_27 
ROOT
HETATM    1  C2  UNL     1      -1.960   5.026  12.786  1.00  0.00     0.089 A 
HETATM    2  C3  UNL     1      -1.116   4.045  12.235  1.00  0.00     0.068 A 
HETATM    3  C4  UNL     1      -1.622   2.833  11.792  1.00  0.00     0.118 A 
HETATM    4  F1  UNL     1      -0.782   1.933  11.264  1.00  0.00    -0.206 F 
HETATM    5  C5  UNL     1      -2.976   2.547  11.850  1.00  0.00     0.056 A 
HETATM    6  C6  UNL     1      -3.847   3.493  12.416  1.00  0.00     0.003 A 
HETATM    7  C7  UNL     1      -5.237   3.538  12.575  1.00  0.00    -0.022 C 
HETATM    8  C8  UNL     1      -5.562   4.713  13.185  1.00  0.00     0.024 C 
HETATM    9  N1  UNL     1      -4.419   5.355  13.564  1.00  0.00    -0.343 N 
HETATM   10  C16 UNL     1      -3.337   4.707  12.940  1.00  0.00     0.068 A 
HETATM   11  C17 UNL     1      -7.024   4.905  13.406  1.00  0.00     0.046 C 
HETATM   12  C20 UNL     1      -7.593   3.713  12.536  1.00  0.00     0.016 C 
HETATM   13  C21 UNL     1      -6.423   2.709  12.289  1.00  0.00     0.042 C 
ENDROOT
BRANCH   9  14
HETATM   14  C9  UNL     1      -4.343   6.451  14.534  1.00  0.00     0.167 C 
BRANCH  14  15
HETATM   15  C10 UNL     1      -5.684   6.849  15.119  1.00  0.00    -0.040 A 
HETATM   16  C11 UNL     1      -6.291   8.068  14.770  1.00  0.00     0.010 A 
HETATM   17  C12 UNL     1      -7.534   8.419  15.300  1.00  0.00     0.024 A 
HETATM   18  C13 UNL     1      -8.187   7.548  16.169  1.00  0.00     0.034 A 
HETATM   19 CL1  UNL     1      -9.719   7.980  16.822  1.00  0.00    -0.084 Cl
HETATM   20  C14 UNL     1      -7.610   6.327  16.508  1.00  0.00     0.024 A 
HETATM   21  C15 UNL     1      -6.366   5.975  15.980  1.00  0.00     0.010 A 
ENDBRANCH  14  15
ENDBRANCH   9  14
BRANCH  11  22
HETATM   22  C18 UNL     1      -7.544   6.257  12.927  1.00  0.00     0.120 C 
BRANCH  22  23
HETATM   23  C19 UNL     1      -8.976   6.167  12.477  1.00  0.00     0.140 C 
HETATM   24  O3  UNL     1      -9.398   6.133  11.334  1.00  0.00    -0.650 OA
BRANCH  23  25
HETATM   25  O4  UNL     1      -9.830   6.146  13.520  1.00  0.00    -0.776 OA
HETATM   26  H15 UNL     1     -10.715   6.103  13.101  1.00  0.00     0.167 HD
ENDBRANCH  23  25
ENDBRANCH  22  23
ENDBRANCH  11  22
BRANCH   1  27
HETATM   27  S1  UNL     1      -1.234   6.616  13.154  1.00  0.00     0.174 S 
HETATM   28  C1  UNL     1      -2.238   7.851  12.377  1.00  0.00     0.167 C 
HETATM   29  O1  UNL     1       0.072   6.626  12.526  1.00  0.00    -0.223 OA
HETATM   30  O2  UNL     1      -1.379   6.820  14.585  1.00  0.00    -0.223 OA
ENDBRANCH   1  27
TORSDOF 6
ENDMDL
MODEL 3
REMARK minimizedAffinity -8.14407063
REMARK  6 active torsions:
REMARK  status: ('A' for Active; 'I' for Inactive)
REMARK    1  A    between atoms: S1_2  and  C2_5 
REMARK    2  A    between atoms: N1_13  and  C9_14 
REMARK    3  A    between atoms: C9_14  and  C10_15 
REMARK    4  A    between atoms: C17_23  and  C18_24 
REMARK    5  A    between atoms: C18_24  and  C19_25 
REMARK    6  A    between atoms: C19_25  and  O4_27 
ROOT
HETATM    1  C2  UNL     1      -2.064   5.055  12.544  1.00  0.00     0.089 A 
HETATM    2  C3  UNL     1      -1.634   4.285  11.448  1.00  0.00     0.068 A 
HETATM    3  C4  UNL     1      -2.523   3.497  10.735  1.00  0.00     0.118 A 
HETATM    4  F1  UNL     1      -2.070   2.790   9.692  1.00  0.00    -0.206 F 
HETATM    5  C5  UNL     1      -3.870   3.452  11.053  1.00  0.00     0.056 A 
HETATM    6  C6  UNL     1      -4.333   4.188  12.156  1.00  0.00     0.003 A 
HETATM    7  C7  UNL     1      -5.605   4.396  12.701  1.00  0.00    -0.022 C 
HETATM    8  C8  UNL     1      -5.482   5.222  13.778  1.00  0.00     0.024 C 
HETATM    9  N1  UNL     1      -4.158   5.427  14.039  1.00  0.00    -0.343 N 
HETATM   10  C16 UNL     1      -3.426   4.943  12.941  1.00  0.00     0.068 A 
HETATM   11  C17 UNL     1      -6.771   5.546  14.454  1.00  0.00     0.046 C 
HETATM   12  C20 UNL     1      -7.791   4.972  13.389  1.00  0.00     0.016 C 
HETATM   13  C21 UNL     1      -7.004   3.993  12.462  1.00  0.00     0.042 C 
ENDROOT
BRANCH   9  14
HETATM   14  C9  UNL     1      -3.613   5.956  15.293  1.00  0.00     0.167 C 
BRANCH  14  15
HETATM   15  C10 UNL     1      -3.517   7.469  15.332  1.00  0.00    -0.040 A 
HETATM   16  C11 UNL     1      -2.738   8.118  16.306  1.00  0.00     0.010 A 
HETATM   17  C12 UNL     1      -2.642   9.511  16.324  1.00  0.00     0.024 A 
HETATM   18  C13 UNL     1      -3.308  10.263  15.361  1.00  0.00     0.034 A 
HETATM   19 CL1  UNL     1      -3.190  11.980  15.383  1.00  0.00    -0.084 Cl
HETATM   20  C14 UNL     1      -4.066   9.636  14.376  1.00  0.00     0.024 A 
HETATM   21  C15 UNL     1      -4.165   8.243  14.357  1.00  0.00     0.010 A 
ENDBRANCH  14  15
ENDBRANCH   9  14
BRANCH  11  22
HETATM   22  C18 UNL     1      -6.980   7.037  14.694  1.00  0.00     0.120 C 
BRANCH  22  23
HETATM   23  C19 UNL     1      -7.662   7.293  16.010  1.00  0.00     0.140 C 
HETATM   24  O3  UNL     1      -8.719   7.866  16.204  1.00  0.00    -0.650 OA
BRANCH  23  25
HETATM   25  O4  UNL     1      -6.942   6.819  17.048  1.00  0.00    -0.776 OA
HETATM   26  H15 UNL     1      -7.476   7.058  17.835  1.00  0.00     0.167 HD
ENDBRANCH  23  25
ENDBRANCH  22  23
ENDBRANCH  11  22
BRANCH   1  27
HETATM   27  S1  UNL     1      -0.878   6.173  13.274  1.00  0.00     0.174 S 
HETATM   28  C1  UNL     1       0.652   5.965  12.406  1.00  0.00     0.167 C 
HETATM   29  O1  UNL     1      -0.690   5.735  14.644  1.00  0.00    -0.223 OA
HETATM   30  O2  UNL     1      -1.333   7.519  12.974  1.00  0.00    -0.223 OA
ENDBRANCH   1  27
TORSDOF 6
ENDMDL
MODEL 4
REMARK minimizedAffinity -8.00276184
REMARK  6 active torsions:
REMARK  status: ('A' for Active; 'I' for Inactive)
REMARK    1  A    between atoms: S1_2  and  C2_5 
REMARK    2  A    between atoms: N1_13  and  C9_14 
REMARK    3  A    between atoms: C9_14  and  C10_15 
REMARK    4  A    between atoms: C17_23  and  C18_24 
REMARK    5  A    between atoms: C18_24  and  C19_25 
REMARK    6  A    between atoms: C19_25  and  O4_27 
ROOT
HETATM    1  C2  UNL     1      -2.791   3.389  12.008  1.00  0.00     0.089 A 
HETATM    2  C3  UNL     1      -3.745   2.423  11.639  1.00  0.00     0.068 A 
HETATM    3  C4  UNL     1      -5.100   2.653  11.814  1.00  0.00     0.118 A 
HETATM    4  F1  UNL     1      -5.973   1.710  11.437  1.00  0.00    -0.206 F 
HETATM    5  C5  UNL     1      -5.573   3.847  12.334  1.00  0.00     0.056 A 
HETATM    6  C6  UNL     1      -4.650   4.826  12.737  1.00  0.00     0.003 A 
HETATM    7  C7  UNL     1      -4.791   6.124  13.239  1.00  0.00    -0.022 C 
HETATM    8  C8  UNL     1      -3.548   6.641  13.451  1.00  0.00     0.024 C 
HETATM    9  N1  UNL     1      -2.614   5.666  13.250  1.00  0.00    -0.343 N 
HETATM   10  C16 UNL     1      -3.258   4.579  12.632  1.00  0.00     0.068 A 
HETATM   11  C17 UNL     1      -3.545   8.037  13.976  1.00  0.00     0.046 C 
HETATM   12  C20 UNL     1      -5.070   8.408  13.778  1.00  0.00     0.016 C 
HETATM   13  C21 UNL     1      -5.860   7.074  13.602  1.00  0.00     0.042 C 
ENDROOT
BRANCH   9  14
HETATM   14  C9  UNL     1      -1.221   5.718  13.705  1.00  0.00     0.167 C 
BRANCH  14  15
HETATM   15  C10 UNL     1      -0.264   6.309  12.688  1.00  0.00    -0.040 A 
HETATM   16  C11 UNL     1       1.125   6.149  12.827  1.00  0.00     0.010 A 
HETATM   17  C12 UNL     1       1.999   6.681  11.877  1.00  0.00     0.024 A 
HETATM   18  C13 UNL     1       1.491   7.362  10.774  1.00  0.00     0.034 A 
HETATM   19 CL1  UNL     1       2.567   8.019   9.603  1.00  0.00    -0.084 Cl
HETATM   20  C14 UNL     1       0.116   7.511  10.609  1.00  0.00     0.024 A 
HETATM   21  C15 UNL     1      -0.759   6.980  11.559  1.00  0.00     0.010 A 
ENDBRANCH  14  15
ENDBRANCH   9  14
BRANCH  11  22
HETATM   22  C18 UNL     1      -2.627   8.981  13.204  1.00  0.00     0.120 C 
BRANCH  22  23
HETATM   23  C19 UNL     1      -2.084  10.067  14.091  1.00  0.00     0.140 C 
HETATM   24  O3  UNL     1      -2.398  10.318  15.241  1.00  0.00    -0.650 OA
BRANCH  23  25
HETATM   25  O4  UNL     1      -1.163  10.820  13.455  1.00  0.00    -0.776 OA
HETATM   26  H15 UNL     1      -0.904  11.490  14.122  1.00  0.00     0.167 HD
ENDBRANCH  23  25
ENDBRANCH  22  23
ENDBRANCH  11  22
BRANCH   1  27
HETATM   27  S1  UNL     1      -1.090   3.067  11.571  1.00  0.00     0.174 S 
HETATM   28  C1  UNL     1      -1.032   1.471  10.804  1.00  0.00     0.167 C 
HETATM   29  O1  UNL     1      -0.351   3.003  12.817  1.00  0.00    -0.223 OA
HETATM   30  O2  UNL     1      -0.736   4.024  10.538  1.00  0.00    -0.223 OA
ENDBRANCH   1  27
TORSDOF 6
ENDMDL
MODEL 5
REMARK minimizedAffinity -7.94640303
REMARK  6 active torsions:
REMARK  status: ('A' for Active; 'I' for Inactive)
REMARK    1  A    between atoms: S1_2  and  C2_5 
REMARK    2  A    between atoms: N1_13  and  C9_14 
REMARK    3  A    between atoms: C9_14  and  C10_15 
REMARK    4  A    between atoms: C17_23  and  C18_24 
REMARK    5  A    between atoms: C18_24  and  C19_25 
REMARK    6  A    between atoms: C19_25  and  O4_27 
ROOT
HETATM    1  C2  UNL     1      -0.270   6.005  11.406  1.00  0.00     0.089 A 
HETATM    2  C3  UNL     1       0.260   6.515  10.207  1.00  0.00     0.068 A 
HETATM    3  C4  UNL     1       0.195   7.867   9.914  1.00  0.00     0.118 A 
HETATM    4  F1  UNL     1       0.724   8.309   8.765  1.00  0.00    -0.206 F 
HETATM    5  C5  UNL     1      -0.370   8.775  10.795  1.00  0.00     0.056 A 
HETATM    6  C6  UNL     1      -0.932   8.300  11.991  1.00  0.00     0.003 A 
HETATM    7  C7  UNL     1      -1.519   8.937  13.091  1.00  0.00    -0.022 C 
HETATM    8  C8  UNL     1      -1.885   7.985  13.994  1.00  0.00     0.024 C 
HETATM    9  N1  UNL     1      -1.697   6.749  13.448  1.00  0.00    -0.343 N 
HETATM   10  C16 UNL     1      -0.938   6.911  12.274  1.00  0.00     0.068 A 
HETATM   11  C17 UNL     1      -2.515   8.525  15.234  1.00  0.00     0.046 C 
HETATM   12  C20 UNL     1      -2.206  10.066  15.050  1.00  0.00     0.016 C 
HETATM   13  C21 UNL     1      -1.853  10.299  13.547  1.00  0.00     0.042 C 
ENDROOT
BRANCH   9  14
HETATM   14  C9  UNL     1      -2.281   5.501  13.949  1.00  0.00     0.167 C 
BRANCH  14  15
HETATM   15  C10 UNL     1      -3.735   5.305  13.565  1.00  0.00    -0.040 A 
HETATM   16  C11 UNL     1      -4.154   4.144  12.892  1.00  0.00     0.010 A 
HETATM   17  C12 UNL     1      -5.498   3.963  12.557  1.00  0.00     0.024 A 
HETATM   18  C13 UNL     1      -6.433   4.933  12.906  1.00  0.00     0.034 A 
HETATM   19 CL1  UNL     1      -8.089   4.711  12.494  1.00  0.00    -0.084 Cl
HETATM   20  C14 UNL     1      -6.040   6.079  13.592  1.00  0.00     0.024 A 
HETATM   21  C15 UNL     1      -4.696   6.262  13.927  1.00  0.00     0.010 A 
ENDBRANCH  14  15
ENDBRANCH   9  14
BRANCH  11  22
HETATM   22  C18 UNL     1      -1.908   7.975  16.520  1.00  0.00     0.120 C 
BRANCH  22  23
HETATM   23  C19 UNL     1      -0.405   8.000  16.475  1.00  0.00     0.140 C 
HETATM   24  O3  UNL     1       0.327   8.969  16.567  1.00  0.00    -0.650 OA
BRANCH  23  25
HETATM   25  O4  UNL     1       0.113   6.769  16.287  1.00  0.00    -0.776 OA
HETATM   26  H15 UNL     1       1.080   6.920  16.261  1.00  0.00     0.167 HD
ENDBRANCH  23  25
ENDBRANCH  22  23
ENDBRANCH  11  22
BRANCH   1  27
HETATM   27  S1  UNL     1       0.030   4.282  11.766  1.00  0.00     0.174 S 
HETATM   28  C1  UNL     1      -1.362   3.364  11.169  1.00  0.00     0.167 C 
HETATM   29  O1  UNL     1       0.071   4.165  13.210  1.00  0.00    -0.223 OA
HETATM   30  O2  UNL     1       1.160   3.875  10.949  1.00  0.00    -0.223 OA
ENDBRANCH   1  27
TORSDOF 6
ENDMDL
MODEL 6
REMARK minimizedAffinity -7.94638824
REMARK  6 active torsions:
REMARK  status: ('A' for Active; 'I' for Inactive)
REMARK    1  A    between atoms: S1_2  and  C2_5 
REMARK    2  A    between atoms: N1_13  and  C9_14 
REMARK    3  A    between atoms: C9_14  and  C10_15 
REMARK    4  A    between atoms: C17_23  and  C18_24 
REMARK    5  A    between atoms: C18_24  and  C19_25 
REMARK    6  A    between atoms: C19_25  and  O4_27 
ROOT
HETATM    1  C2  UNL     1      -5.493   5.587  13.296  1.00  0.00     0.089 A 
HETATM    2  C3  UNL     1      -6.331   4.488  13.032  1.00  0.00     0.068 A 
HETATM    3  C4  UNL     1      -5.833   3.332  12.452  1.00  0.00     0.118 A 
HETATM    4  F1  UNL     1      -6.665   2.307  12.231  1.00  0.00    -0.206 F 
HETATM    5  C5  UNL     1      -4.491   3.200  12.132  1.00  0.00     0.056 A 
HETATM    6  C6  UNL     1      -3.629   4.285  12.357  1.00  0.00     0.003 A 
HETATM    7  C7  UNL     1      -2.249   4.459  12.199  1.00  0.00    -0.022 C 
HETATM    8  C8  UNL     1      -1.928   5.725  12.588  1.00  0.00     0.024 C 
HETATM    9  N1  UNL     1      -3.073   6.422  12.844  1.00  0.00    -0.343 N 
HETATM   10  C16 UNL     1      -4.135   5.500  12.883  1.00  0.00     0.068 A 
HETATM   11  C17 UNL     1      -0.475   6.048  12.487  1.00  0.00     0.046 C 
HETATM   12  C20 UNL     1       0.109   4.603  12.217  1.00  0.00     0.016 C 
HETATM   13  C21 UNL     1      -1.071   3.698  11.742  1.00  0.00     0.042 C 
ENDROOT
BRANCH   9  14
HETATM   14  C9  UNL     1      -3.173   7.881  12.948  1.00  0.00     0.167 C 
BRANCH  14  15
HETATM   15  C10 UNL     1      -2.976   8.413  14.354  1.00  0.00    -0.040 A 
HETATM   16  C11 UNL     1      -2.495   7.583  15.380  1.00  0.00     0.010 A 
HETATM   17  C12 UNL     1      -2.300   8.086  16.668  1.00  0.00     0.024 A 
HETATM   18  C13 UNL     1      -2.569   9.425  16.935  1.00  0.00     0.034 A 
HETATM   19 CL1  UNL     1      -2.329  10.046  18.522  1.00  0.00    -0.084 Cl
HETATM   20  C14 UNL     1      -3.025  10.268  15.925  1.00  0.00     0.024 A 
HETATM   21  C15 UNL     1      -3.221   9.766  14.636  1.00  0.00     0.010 A 
ENDBRANCH  14  15
ENDBRANCH   9  14
BRANCH  11  22
HETATM   22  C18 UNL     1       0.106   6.667  13.753  1.00  0.00     0.120 C 
BRANCH  22  23
HETATM   23  C19 UNL     1       1.598   6.823  13.656  1.00  0.00     0.140 C 
HETATM   24  O3  UNL     1       2.246   7.216  12.702  1.00  0.00    -0.650 OA
BRANCH  23  25
HETATM   25  O4  UNL     1       2.218   6.441  14.791  1.00  0.00    -0.776 OA
HETATM   26  H15 UNL     1       3.170   6.573  14.597  1.00  0.00     0.167 HD
ENDBRANCH  23  25
ENDBRANCH  22  23
ENDBRANCH  11  22
BRANCH   1  27
HETATM   27  S1  UNL     1      -6.196   6.950  14.209  1.00  0.00     0.174 S 
HETATM   28  C1  UNL     1      -7.931   6.637  14.379  1.00  0.00     0.167 C 
HETATM   29  O1  UNL     1      -6.022   8.130  13.386  1.00  0.00    -0.223 OA
HETATM   30  O2  UNL     1      -5.642   6.884  15.550  1.00  0.00    -0.223 OA
ENDBRANCH   1  27
TORSDOF 6
ENDMDL
MODEL 7
REMARK minimizedAffinity -7.8456912
REMARK  6 active torsions:
REMARK  status: ('A' for Active; 'I' for Inactive)
REMARK    1  A    between atoms: S1_2  and  C2_5 
REMARK    2  A    between atoms: N1_13  and  C9_14 
REMARK    3  A    between atoms: C9_14  and  C10_15 
REMARK    4  A    between atoms: C17_23  and  C18_24 
REMARK    5  A    between atoms: C18_24  and  C19_25 
REMARK    6  A    between atoms: C19_25  and  O4_27 
ROOT
HETATM    1  C2  UNL     1      -5.397   5.944  13.981  1.00  0.00     0.089 A 
HETATM    2  C3  UNL     1      -6.622   5.266  14.117  1.00  0.00     0.068 A 
HETATM    3  C4  UNL     1      -6.829   4.035  13.517  1.00  0.00     0.118 A 
HETATM    4  F1  UNL     1      -8.007   3.421  13.683  1.00  0.00    -0.206 F 
HETATM    5  C5  UNL     1      -5.835   3.409  12.782  1.00  0.00     0.056 A 
HETATM    6  C6  UNL     1      -4.607   4.066  12.603  1.00  0.00     0.003 A 
HETATM    7  C7  UNL     1      -3.409   3.701  11.978  1.00  0.00    -0.022 C 
HETATM    8  C8  UNL     1      -2.521   4.725  12.116  1.00  0.00     0.024 C 
HETATM    9  N1  UNL     1      -3.155   5.798  12.672  1.00  0.00    -0.343 N 
HETATM   10  C16 UNL     1      -4.403   5.358  13.149  1.00  0.00     0.068 A 
HETATM   11  C17 UNL     1      -1.185   4.467  11.506  1.00  0.00     0.046 C 
HETATM   12  C20 UNL     1      -1.320   2.921  11.195  1.00  0.00     0.016 C 
HETATM   13  C21 UNL     1      -2.839   2.565  11.229  1.00  0.00     0.042 C 
ENDROOT
BRANCH   9  14
HETATM   14  C9  UNL     1      -2.656   7.177  12.664  1.00  0.00     0.167 C 
BRANCH  14  15
HETATM   15  C10 UNL     1      -1.441   7.397  13.544  1.00  0.00    -0.040 A 
HETATM   16  C11 UNL     1      -0.465   8.349  13.204  1.00  0.00     0.010 A 
HETATM   17  C12 UNL     1       0.642   8.557  14.029  1.00  0.00     0.024 A 
HETATM   18  C13 UNL     1       0.773   7.827  15.207  1.00  0.00     0.034 A 
HETATM   19 CL1  UNL     1       2.137   8.083  16.225  1.00  0.00    -0.084 Cl
HETATM   20  C14 UNL     1      -0.196   6.896  15.572  1.00  0.00     0.024 A 
HETATM   21  C15 UNL     1      -1.303   6.685  14.747  1.00  0.00     0.010 A 
ENDBRANCH  14  15
ENDBRANCH   9  14
BRANCH  11  22
HETATM   22  C18 UNL     1      -0.017   4.757  12.442  1.00  0.00     0.120 C 
BRANCH  22  23
HETATM   23  C19 UNL     1       1.213   5.163  11.678  1.00  0.00     0.140 C 
HETATM   24  O3  UNL     1       1.737   6.262  11.637  1.00  0.00    -0.650 OA
BRANCH  23  25
HETATM   25  O4  UNL     1       1.721   4.139  10.962  1.00  0.00    -0.776 OA
HETATM   26  H15 UNL     1       2.495   4.529  10.505  1.00  0.00     0.167 HD
ENDBRANCH  23  25
ENDBRANCH  22  23
ENDBRANCH  11  22
BRANCH   1  27
HETATM   27  S1  UNL     1      -5.173   7.431  14.944  1.00  0.00     0.174 S 
HETATM   28  C1  UNL     1      -4.866   8.757  13.809  1.00  0.00     0.167 C 
HETATM   29  O1  UNL     1      -3.982   7.228  15.744  1.00  0.00    -0.223 OA
HETATM   30  O2  UNL     1      -6.453   7.722  15.565  1.00  0.00    -0.223 OA
ENDBRANCH   1  27
TORSDOF 6
ENDMDL
MODEL 8
REMARK minimizedAffinity -7.71887827
REMARK  6 active torsions:
REMARK  status: ('A' for Active; 'I' for Inactive)
REMARK    1  A    between atoms: S1_2  and  C2_5 
REMARK    2  A    between atoms: N1_13  and  C9_14 
REMARK    3  A    between atoms: C9_14  and  C10_15 
REMARK    4  A    between atoms: C17_23  and  C18_24 
REMARK    5  A    between atoms: C18_24  and  C19_25 
REMARK    6  A    between atoms: C19_25  and  O4_27 
ROOT
HETATM    1  C2  UNL     1       0.229   6.670  13.433  1.00  0.00     0.089 A 
HETATM    2  C3  UNL     1       1.452   6.648  12.738  1.00  0.00     0.068 A 
HETATM    3  C4  UNL     1       1.624   5.848  11.619  1.00  0.00     0.118 A 
HETATM    4  F1  UNL     1       2.802   5.869  10.982  1.00  0.00    -0.206 F 
HETATM    5  C5  UNL     1       0.599   5.059  11.125  1.00  0.00     0.056 A 
HETATM    6  C6  UNL     1      -0.629   5.036  11.807  1.00  0.00     0.003 A 
HETATM    7  C7  UNL     1      -1.852   4.405  11.553  1.00  0.00    -0.022 C 
HETATM    8  C8  UNL     1      -2.724   4.741  12.545  1.00  0.00     0.024 C 
HETATM    9  N1  UNL     1      -2.060   5.439  13.511  1.00  0.00    -0.343 N 
HETATM   10  C16 UNL     1      -0.800   5.792  12.994  1.00  0.00     0.068 A 
HETATM   11  C17 UNL     1      -4.084   4.147  12.394  1.00  0.00     0.046 C 
HETATM   12  C20 UNL     1      -3.976   3.585  10.920  1.00  0.00     0.016 C 
HETATM   13  C21 UNL     1      -2.460   3.503  10.556  1.00  0.00     0.042 C 
ENDROOT
BRANCH   9  14
HETATM   14  C9  UNL     1      -2.545   5.674  14.874  1.00  0.00     0.167 C 
BRANCH  14  15
HETATM   15  C10 UNL     1      -3.850   6.444  14.939  1.00  0.00    -0.040 A 
HETATM   16  C11 UNL     1      -4.014   7.648  14.234  1.00  0.00     0.010 A 
HETATM   17  C12 UNL     1      -5.225   8.341  14.285  1.00  0.00     0.024 A 
HETATM   18  C13 UNL     1      -6.285   7.829  15.028  1.00  0.00     0.034 A 
HETATM   19 CL1  UNL     1      -7.777   8.683  15.092  1.00  0.00    -0.084 Cl
HETATM   20  C14 UNL     1      -6.147   6.625  15.716  1.00  0.00     0.024 A 
HETATM   21  C15 UNL     1      -4.936   5.931  15.666  1.00  0.00     0.010 A 
ENDBRANCH  14  15
ENDBRANCH   9  14
BRANCH  11  22
HETATM   22  C18 UNL     1      -5.215   5.161  12.533  1.00  0.00     0.120 C 
BRANCH  22  23
HETATM   23  C19 UNL     1      -6.548   4.482  12.680  1.00  0.00     0.140 C 
HETATM   24  O3  UNL     1      -7.649   4.938  12.429  1.00  0.00    -0.650 OA
BRANCH  23  25
HETATM   25  O4  UNL     1      -6.424   3.233  13.173  1.00  0.00    -0.776 OA
HETATM   26  H15 UNL     1      -7.346   2.909  13.235  1.00  0.00     0.167 HD
ENDBRANCH  23  25
ENDBRANCH  22  23
ENDBRANCH  11  22
BRANCH   1  27
HETATM   27  S1  UNL     1       0.056   7.869  14.745  1.00  0.00     0.174 S 
HETATM   28  C1  UNL     1      -1.106   9.089  14.199  1.00  0.00     0.167 C 
HETATM   29  O1  UNL     1       1.350   8.504  14.895  1.00  0.00    -0.223 OA
HETATM   30  O2  UNL     1      -0.575   7.181  15.858  1.00  0.00    -0.223 OA
ENDBRANCH   1  27
TORSDOF 6
ENDMDL
MODEL 9
REMARK minimizedAffinity -7.54362392
REMARK  6 active torsions:
REMARK  status: ('A' for Active; 'I' for Inactive)
REMARK    1  A    between atoms: S1_2  and  C2_5 
REMARK    2  A    between atoms: N1_13  and  C9_14 
REMARK    3  A    between atoms: C9_14  and  C10_15 
REMARK    4  A    between atoms: C17_23  and  C18_24 
REMARK    5  A    between atoms: C18_24  and  C19_25 
REMARK    6  A    between atoms: C19_25  and  O4_27 
ROOT
HETATM    1  C2  UNL     1      -4.538   5.308  13.018  1.00  0.00     0.089 A 
HETATM    2  C3  UNL     1      -4.870   4.009  12.592  1.00  0.00     0.068 A 
HETATM    3  C4  UNL     1      -3.900   3.144  12.110  1.00  0.00     0.118 A 
HETATM    4  F1  UNL     1      -4.261   1.913  11.727  1.00  0.00    -0.206 F 
HETATM    5  C5  UNL     1      -2.565   3.510  12.051  1.00  0.00     0.056 A 
HETATM    6  C6  UNL     1      -2.199   4.808  12.444  1.00  0.00     0.003 A 
HETATM    7  C7  UNL     1      -0.966   5.462  12.553  1.00  0.00    -0.022 C 
HETATM    8  C8  UNL     1      -1.189   6.728  13.005  1.00  0.00     0.024 C 
HETATM    9  N1  UNL     1      -2.533   6.963  13.043  1.00  0.00    -0.343 N 
HETATM   10  C16 UNL     1      -3.187   5.729  12.872  1.00  0.00     0.068 A 
HETATM   11  C17 UNL     1       0.047   7.542  13.185  1.00  0.00     0.046 C 
HETATM   12  C20 UNL     1       1.145   6.415  13.022  1.00  0.00     0.016 C 
HETATM   13  C21 UNL     1       0.466   5.194  12.325  1.00  0.00     0.042 C 
ENDROOT
BRANCH   9  14
HETATM   14  C9  UNL     1      -3.162   8.284  13.134  1.00  0.00     0.167 C 
BRANCH  14  15
HETATM   15  C10 UNL     1      -3.126   8.887  14.525  1.00  0.00    -0.040 A 
HETATM   16  C11 UNL     1      -2.764   8.112  15.639  1.00  0.00     0.010 A 
HETATM   17  C12 UNL     1      -2.716   8.680  16.914  1.00  0.00     0.024 A 
HETATM   18  C13 UNL     1      -3.016  10.030  17.082  1.00  0.00     0.034 A 
HETATM   19 CL1  UNL     1      -2.958  10.730  18.652  1.00  0.00    -0.084 Cl
HETATM   20  C14 UNL     1      -3.355  10.818  15.985  1.00  0.00     0.024 A 
HETATM   21  C15 UNL     1      -3.404  10.251  14.710  1.00  0.00     0.010 A 
ENDBRANCH  14  15
ENDBRANCH   9  14
BRANCH  11  22
HETATM   22  C18 UNL     1       0.137   8.230  14.544  1.00  0.00     0.120 C 
BRANCH  22  23
HETATM   23  C19 UNL     1       1.047   7.483  15.479  1.00  0.00     0.140 C 
HETATM   24  O3  UNL     1       2.261   7.554  15.553  1.00  0.00    -0.650 OA
BRANCH  23  25
HETATM   25  O4  UNL     1       0.363   6.642  16.281  1.00  0.00    -0.776 OA
HETATM   26  H15 UNL     1       1.058   6.212  16.822  1.00  0.00     0.167 HD
ENDBRANCH  23  25
ENDBRANCH  22  23
ENDBRANCH  11  22
BRANCH   1  27
HETATM   27  S1  UNL     1      -5.829   6.270  13.789  1.00  0.00     0.174 S 
HETATM   28  C1  UNL     1      -5.435   6.403  15.511  1.00  0.00     0.167 C 
HETATM   29  O1  UNL     1      -7.050   5.501  13.657  1.00  0.00    -0.223 OA
HETATM   30  O2  UNL     1      -5.728   7.614  13.248  1.00  0.00    -0.223 OA
ENDBRANCH   1  27
TORSDOF 6
ENDMDL
