MODEL 1
REMARK minimizedAffinity -9.8385601
REMARK  6 active torsions:
REMARK  status: ('A' for Active; 'I' for Inactive)
REMARK    1  A    between atoms: C2_2  and  C30_31 
REMARK    2  A    between atoms: C3_3  and  C4_4 
REMARK    3  A    between atoms: C4_4  and  C5_5 
REMARK    4  A    between atoms: C5_5  and  C6_6 
REMARK    5  A    between atoms: C6_6  and  C8_8 
REMARK    6  A    between atoms: C30_31  and  O3_33 
ROOT
HETATM    1  C8  UNL     1      -3.197  48.620 -19.664  1.00  0.00    -0.002 C 
HETATM    2  C9  UNL     1      -3.811  47.507 -20.553  1.00  0.00     0.007 C 
HETATM    3  C10 UNL     1      -3.523  47.903 -22.020  1.00  0.00     0.015 C 
HETATM    4  C11 UNL     1      -3.021  49.364 -21.953  1.00  0.00    -0.013 C 
HETATM    5  C12 UNL     1      -4.305  50.257 -21.924  1.00  0.00     0.021 C 
HETATM    6  C13 UNL     1      -2.172  49.904 -23.097  1.00  0.00    -0.070 C 
HETATM    7  C14 UNL     1      -2.340  49.502 -24.371  1.00  0.00    -0.022 C 
HETATM    8  C15 UNL     1      -1.631  50.100 -25.553  1.00  0.00     0.034 C 
HETATM    9  C16 UNL     1      -0.498  51.081 -25.180  1.00  0.00     0.013 C 
HETATM   10  C17 UNL     1       0.179  51.831 -26.391  1.00  0.00     0.018 C 
HETATM   11  C18 UNL     1       1.638  51.344 -26.544  1.00  0.00     0.023 C 
HETATM   12  C19 UNL     1      -0.526  51.582 -27.741  1.00  0.00     0.023 C 
HETATM   13  C20 UNL     1       0.263  53.350 -26.171  1.00  0.00     0.135 C 
HETATM   14  O1  UNL     1       0.137  54.149 -27.104  1.00  0.00    -0.297 OA
HETATM   15  C21 UNL     1       0.611  53.875 -24.798  1.00  0.00     0.080 C 
HETATM   16  C22 UNL     1       0.274  52.922 -23.662  1.00  0.00     0.017 C 
HETATM   17  C23 UNL     1      -0.916  51.986 -23.965  1.00  0.00    -0.031 C 
HETATM   18  C24 UNL     1      -2.186  52.825 -24.260  1.00  0.00     0.016 C 
HETATM   19  C25 UNL     1      -1.167  51.011 -22.745  1.00  0.00     0.024 C 
HETATM   20  C26 UNL     1      -1.469  51.711 -21.395  1.00  0.00     0.010 C 
HETATM   21  C27 UNL     1      -1.829  50.780 -20.211  1.00  0.00     0.011 C 
HETATM   22  C28 UNL     1      -2.194  49.339 -20.622  1.00  0.00    -0.029 C 
HETATM   23  C29 UNL     1      -0.879  48.511 -20.714  1.00  0.00     0.016 C 
ENDROOT
BRANCH   1  24
HETATM   24  C6  UNL     1      -2.718  48.195 -18.242  1.00  0.00    -0.014 C 
HETATM   25  C7  UNL     1      -2.886  46.667 -18.119  1.00  0.00     0.010 C 
BRANCH  24  26
HETATM   26  C5  UNL     1      -1.261  48.583 -17.884  1.00  0.00     0.008 C 
BRANCH  26  27
HETATM   27  C4  UNL     1      -1.124  49.883 -17.075  1.00  0.00     0.028 C 
BRANCH  27  28
HETATM   28  C3  UNL     1       0.018  49.909 -16.097  1.00  0.00    -0.013 C 
HETATM   29  C2  UNL     1       0.947  50.873 -15.920  1.00  0.00     0.008 C 
HETATM   30  C1  UNL     1       2.005  50.746 -14.860  1.00  0.00     0.055 C 
BRANCH  29  31
HETATM   31  C30 UNL     1       0.997  52.084 -16.779  1.00  0.00     0.171 C 
HETATM   32  O2  UNL     1       0.772  52.157 -17.974  1.00  0.00    -0.646 OA
BRANCH  31  33
HETATM   33  O3  UNL     1       1.352  53.179 -16.083  1.00  0.00    -0.773 OA
HETATM   34  H46 UNL     1       1.346  53.886 -16.762  1.00  0.00     0.167 HD
ENDBRANCH  31  33
ENDBRANCH  29  31
ENDBRANCH  27  28
ENDBRANCH  26  27
ENDBRANCH  24  26
ENDBRANCH   1  24
TORSDOF 6
ENDMDL
MODEL 2
REMARK minimizedAffinity -9.49156475
REMARK  6 active torsions:
REMARK  status: ('A' for Active; 'I' for Inactive)
REMARK    1  A    between atoms: C2_2  and  C30_31 
REMARK    2  A    between atoms: C3_3  and  C4_4 
REMARK    3  A    between atoms: C4_4  and  C5_5 
REMARK    4  A    between atoms: C5_5  and  C6_6 
REMARK    5  A    between atoms: C6_6  and  C8_8 
REMARK    6  A    between atoms: C30_31  and  O3_33 
ROOT
HETATM    1  C8  UNL     1      -4.310  47.944 -20.657  1.00  0.00    -0.002 C 
HETATM    2  C9  UNL     1      -4.978  47.114 -21.785  1.00  0.00     0.007 C 
HETATM    3  C10 UNL     1      -4.495  47.718 -23.124  1.00  0.00     0.015 C 
HETATM    4  C11 UNL     1      -3.808  49.050 -22.743  1.00  0.00    -0.013 C 
HETATM    5  C12 UNL     1      -4.955  50.108 -22.636  1.00  0.00     0.021 C 
HETATM    6  C13 UNL     1      -2.784  49.651 -23.698  1.00  0.00    -0.070 C 
HETATM    7  C14 UNL     1      -2.878  49.513 -25.034  1.00  0.00    -0.022 C 
HETATM    8  C15 UNL     1      -1.982  50.199 -26.026  1.00  0.00     0.034 C 
HETATM    9  C16 UNL     1      -0.768  50.913 -25.391  1.00  0.00     0.013 C 
HETATM   10  C17 UNL     1       0.120  51.757 -26.384  1.00  0.00     0.018 C 
HETATM   11  C18 UNL     1       1.508  51.089 -26.522  1.00  0.00     0.023 C 
HETATM   12  C19 UNL     1      -0.474  51.863 -27.804  1.00  0.00     0.023 C 
HETATM   13  C20 UNL     1       0.388  53.180 -25.872  1.00  0.00     0.135 C 
HETATM   14  O1  UNL     1       0.465  54.144 -26.641  1.00  0.00    -0.297 OA
HETATM   15  C21 UNL     1       0.666  53.393 -24.403  1.00  0.00     0.080 C 
HETATM   16  C22 UNL     1       0.092  52.314 -23.497  1.00  0.00     0.017 C 
HETATM   17  C23 UNL     1      -1.178  51.639 -24.059  1.00  0.00    -0.031 C 
HETATM   18  C24 UNL     1      -2.287  52.700 -24.279  1.00  0.00     0.016 C 
HETATM   19  C25 UNL     1      -1.678  50.511 -23.070  1.00  0.00     0.024 C 
HETATM   20  C26 UNL     1      -2.015  50.996 -21.636  1.00  0.00     0.010 C 
HETATM   21  C27 UNL     1      -2.614  49.934 -20.681  1.00  0.00     0.011 C 
HETATM   22  C28 UNL     1      -3.128  48.662 -21.385  1.00  0.00    -0.029 C 
HETATM   23  C29 UNL     1      -1.935  47.674 -21.539  1.00  0.00     0.016 C 
ENDROOT
BRANCH   1  24
HETATM   24  C6  UNL     1      -4.036  47.204 -19.312  1.00  0.00    -0.014 C 
HETATM   25  C7  UNL     1      -4.479  45.736 -19.477  1.00  0.00     0.010 C 
BRANCH  24  26
HETATM   26  C5  UNL     1      -2.569  47.245 -18.812  1.00  0.00     0.008 C 
BRANCH  26  27
HETATM   27  C4  UNL     1      -2.360  48.027 -17.505  1.00  0.00     0.028 C 
BRANCH  27  28
HETATM   28  C3  UNL     1      -1.147  48.916 -17.480  1.00  0.00    -0.013 C 
HETATM   29  C2  UNL     1      -1.089  50.248 -17.271  1.00  0.00     0.008 C 
HETATM   30  C1  UNL     1       0.227  50.973 -17.244  1.00  0.00     0.055 C 
BRANCH  29  31
HETATM   31  C30 UNL     1      -2.315  51.070 -17.093  1.00  0.00     0.171 C 
HETATM   32  O2  UNL     1      -3.064  51.089 -16.133  1.00  0.00    -0.646 OA
BRANCH  31  33
HETATM   33  O3  UNL     1      -2.560  51.844 -18.166  1.00  0.00    -0.773 OA
HETATM   34  H46 UNL     1      -3.379  52.319 -17.917  1.00  0.00     0.167 HD
ENDBRANCH  31  33
ENDBRANCH  29  31
ENDBRANCH  27  28
ENDBRANCH  26  27
ENDBRANCH  24  26
ENDBRANCH   1  24
TORSDOF 6
ENDMDL
MODEL 3
REMARK minimizedAffinity -9.43947411
REMARK  6 active torsions:
REMARK  status: ('A' for Active; 'I' for Inactive)
REMARK    1  A    between atoms: C2_2  and  C30_31 
REMARK    2  A    between atoms: C3_3  and  C4_4 
REMARK    3  A    between atoms: C4_4  and  C5_5 
REMARK    4  A    between atoms: C5_5  and  C6_6 
REMARK    5  A    between atoms: C6_6  and  C8_8 
REMARK    6  A    between atoms: C30_31  and  O3_33 
ROOT
HETATM    1  C8  UNL     1      -0.834  51.987 -21.115  1.00  0.00    -0.002 C 
HETATM    2  C9  UNL     1      -0.110  50.971 -20.194  1.00  0.00     0.007 C 
HETATM    3  C10 UNL     1      -1.122  49.838 -19.903  1.00  0.00     0.015 C 
HETATM    4  C11 UNL     1      -2.482  50.370 -20.411  1.00  0.00    -0.013 C 
HETATM    5  C12 UNL     1      -3.063  51.240 -19.247  1.00  0.00     0.021 C 
HETATM    6  C13 UNL     1      -3.578  49.373 -20.764  1.00  0.00    -0.070 C 
HETATM    7  C14 UNL     1      -3.722  48.202 -20.116  1.00  0.00    -0.022 C 
HETATM    8  C15 UNL     1      -4.865  47.247 -20.325  1.00  0.00     0.034 C 
HETATM    9  C16 UNL     1      -5.769  47.599 -21.527  1.00  0.00     0.013 C 
HETATM   10  C17 UNL     1      -7.053  46.700 -21.697  1.00  0.00     0.018 C 
HETATM   11  C18 UNL     1      -6.916  45.849 -22.981  1.00  0.00     0.023 C 
HETATM   12  C19 UNL     1      -7.279  45.721 -20.526  1.00  0.00     0.023 C 
HETATM   13  C20 UNL     1      -8.333  47.530 -21.878  1.00  0.00     0.135 C 
HETATM   14  O1  UNL     1      -9.417  47.162 -21.414  1.00  0.00    -0.297 OA
HETATM   15  C21 UNL     1      -8.288  48.775 -22.731  1.00  0.00     0.080 C 
HETATM   16  C22 UNL     1      -6.908  49.404 -22.844  1.00  0.00     0.017 C 
HETATM   17  C23 UNL     1      -6.004  49.150 -21.617  1.00  0.00    -0.031 C 
HETATM   18  C24 UNL     1      -6.674  49.723 -20.341  1.00  0.00     0.016 C 
HETATM   19  C25 UNL     1      -4.584  49.807 -21.840  1.00  0.00     0.024 C 
HETATM   20  C26 UNL     1      -4.599  51.338 -22.087  1.00  0.00     0.010 C 
HETATM   21  C27 UNL     1      -3.215  52.024 -22.196  1.00  0.00     0.011 C 
HETATM   22  C28 UNL     1      -2.038  51.169 -21.684  1.00  0.00    -0.029 C 
HETATM   23  C29 UNL     1      -1.547  50.266 -22.853  1.00  0.00     0.016 C 
ENDROOT
BRANCH   1  24
HETATM   24  C6  UNL     1       0.061  52.802 -22.097  1.00  0.00    -0.014 C 
HETATM   25  C7  UNL     1       1.367  53.166 -21.362  1.00  0.00     0.010 C 
BRANCH  24  26
HETATM   26  C5  UNL     1       0.403  52.096 -23.434  1.00  0.00     0.008 C 
BRANCH  26  27
HETATM   27  C4  UNL     1       0.941  53.029 -24.532  1.00  0.00     0.028 C 
BRANCH  27  28
HETATM   28  C3  UNL     1       0.464  52.717 -25.924  1.00  0.00    -0.013 C 
HETATM   29  C2  UNL     1       1.101  52.026 -26.892  1.00  0.00     0.008 C 
HETATM   30  C1  UNL     1       0.451  51.778 -28.225  1.00  0.00     0.055 C 
BRANCH  29  31
HETATM   31  C30 UNL     1       2.481  51.507 -26.710  1.00  0.00     0.171 C 
HETATM   32  O2  UNL     1       2.851  50.627 -25.953  1.00  0.00    -0.646 OA
BRANCH  31  33
HETATM   33  O3  UNL     1       3.365  52.146 -27.499  1.00  0.00    -0.773 OA
HETATM   34  H46 UNL     1       4.216  51.712 -27.277  1.00  0.00     0.167 HD
ENDBRANCH  31  33
ENDBRANCH  29  31
ENDBRANCH  27  28
ENDBRANCH  26  27
ENDBRANCH  24  26
ENDBRANCH   1  24
TORSDOF 6
ENDMDL
MODEL 4
REMARK minimizedAffinity -9.2664299
REMARK  6 active torsions:
REMARK  status: ('A' for Active; 'I' for Inactive)
REMARK    1  A    between atoms: C2_2  and  C30_31 
REMARK    2  A    between atoms: C3_3  and  C4_4 
REMARK    3  A    between atoms: C4_4  and  C5_5 
REMARK    4  A    between atoms: C5_5  and  C6_6 
REMARK    5  A    between atoms: C6_6  and  C8_8 
REMARK    6  A    between atoms: C30_31  and  O3_33 
ROOT
HETATM    1  C8  UNL     1      -1.750  49.400 -18.725  1.00  0.00    -0.002 C 
HETATM    2  C9  UNL     1      -2.620  48.198 -19.179  1.00  0.00     0.007 C 
HETATM    3  C10 UNL     1      -2.850  48.368 -20.699  1.00  0.00     0.015 C 
HETATM    4  C11 UNL     1      -2.367  49.800 -21.024  1.00  0.00    -0.013 C 
HETATM    5  C12 UNL     1      -3.572  50.742 -20.698  1.00  0.00     0.021 C 
HETATM    6  C13 UNL     1      -1.960  50.134 -22.454  1.00  0.00    -0.070 C 
HETATM    7  C14 UNL     1      -2.547  49.562 -23.522  1.00  0.00    -0.022 C 
HETATM    8  C15 UNL     1      -2.287  49.954 -24.949  1.00  0.00     0.034 C 
HETATM    9  C16 UNL     1      -1.102  50.928 -25.130  1.00  0.00     0.013 C 
HETATM   10  C17 UNL     1      -0.883  51.468 -26.595  1.00  0.00     0.018 C 
HETATM   11  C18 UNL     1       0.442  50.902 -27.156  1.00  0.00     0.023 C 
HETATM   12  C19 UNL     1      -2.002  51.058 -27.576  1.00  0.00     0.023 C 
HETATM   13  C20 UNL     1      -0.742  52.997 -26.645  1.00  0.00     0.135 C 
HETATM   14  O1  UNL     1      -1.183  53.660 -27.589  1.00  0.00    -0.297 OA
HETATM   15  C21 UNL     1       0.046  53.698 -25.565  1.00  0.00     0.080 C 
HETATM   16  C22 UNL     1       0.124  52.933 -24.252  1.00  0.00     0.017 C 
HETATM   17  C23 UNL     1      -1.091  52.014 -23.994  1.00  0.00    -0.031 C 
HETATM   18  C24 UNL     1      -2.393  52.856 -23.966  1.00  0.00     0.016 C 
HETATM   19  C25 UNL     1      -0.905  51.236 -22.630  1.00  0.00     0.024 C 
HETATM   20  C26 UNL     1      -0.737  52.134 -21.378  1.00  0.00     0.010 C 
HETATM   21  C27 UNL     1      -0.667  51.398 -20.017  1.00  0.00     0.011 C 
HETATM   22  C28 UNL     1      -1.137  49.930 -20.061  1.00  0.00    -0.029 C 
HETATM   23  C29 UNL     1       0.075  49.043 -20.466  1.00  0.00     0.016 C 
ENDROOT
BRANCH   1  24
HETATM   24  C6  UNL     1      -0.813  49.162 -17.501  1.00  0.00    -0.014 C 
HETATM   25  C7  UNL     1       0.054  50.424 -17.313  1.00  0.00     0.010 C 
BRANCH  24  26
HETATM   26  C5  UNL     1      -1.527  48.824 -16.168  1.00  0.00     0.008 C 
BRANCH  26  27
HETATM   27  C4  UNL     1      -2.209  50.022 -15.484  1.00  0.00     0.028 C 
BRANCH  27  28
HETATM   28  C3  UNL     1      -2.715  49.759 -14.093  1.00  0.00    -0.013 C 
HETATM   29  C2  UNL     1      -3.135  50.652 -13.173  1.00  0.00     0.008 C 
HETATM   30  C1  UNL     1      -3.648  50.203 -11.833  1.00  0.00     0.055 C 
BRANCH  29  31
HETATM   31  C30 UNL     1      -3.080  52.117 -13.416  1.00  0.00     0.171 C 
HETATM   32  O2  UNL     1      -3.905  52.807 -13.988  1.00  0.00    -0.646 OA
BRANCH  31  33
HETATM   33  O3  UNL     1      -1.952  52.665 -12.928  1.00  0.00    -0.773 OA
HETATM   34  H46 UNL     1      -2.048  53.613 -13.156  1.00  0.00     0.167 HD
ENDBRANCH  31  33
ENDBRANCH  29  31
ENDBRANCH  27  28
ENDBRANCH  26  27
ENDBRANCH  24  26
ENDBRANCH   1  24
TORSDOF 6
ENDMDL
MODEL 5
REMARK minimizedAffinity -9.22353363
REMARK  6 active torsions:
REMARK  status: ('A' for Active; 'I' for Inactive)
REMARK    1  A    between atoms: C2_2  and  C30_31 
REMARK    2  A    between atoms: C3_3  and  C4_4 
REMARK    3  A    between atoms: C4_4  and  C5_5 
REMARK    4  A    between atoms: C5_5  and  C6_6 
REMARK    5  A    between atoms: C6_6  and  C8_8 
REMARK    6  A    between atoms: C30_31  and  O3_33 
ROOT
HETATM    1  C8  UNL     1      -1.790  49.752 -22.917  1.00  0.00    -0.002 C 
HETATM    2  C9  UNL     1      -3.004  48.787 -22.897  1.00  0.00     0.007 C 
HETATM    3  C10 UNL     1      -3.289  48.464 -21.412  1.00  0.00     0.015 C 
HETATM    4  C11 UNL     1      -2.063  49.004 -20.639  1.00  0.00    -0.013 C 
HETATM    5  C12 UNL     1      -0.979  47.879 -20.715  1.00  0.00     0.021 C 
HETATM    6  C13 UNL     1      -2.211  49.331 -19.158  1.00  0.00    -0.070 C 
HETATM    7  C14 UNL     1      -3.037  48.642 -18.347  1.00  0.00    -0.022 C 
HETATM    8  C15 UNL     1      -3.118  48.826 -16.858  1.00  0.00     0.034 C 
HETATM    9  C16 UNL     1      -2.336  50.049 -16.330  1.00  0.00     0.013 C 
HETATM   10  C17 UNL     1      -2.285  50.198 -14.761  1.00  0.00     0.018 C 
HETATM   11  C18 UNL     1      -3.092  51.449 -14.340  1.00  0.00     0.023 C 
HETATM   12  C19 UNL     1      -2.890  48.994 -14.008  1.00  0.00     0.023 C 
HETATM   13  C20 UNL     1      -0.859  50.422 -14.235  1.00  0.00     0.135 C 
HETATM   14  O1  UNL     1      -0.485  49.955 -13.155  1.00  0.00    -0.297 OA
HETATM   15  C21 UNL     1       0.077  51.320 -15.009  1.00  0.00     0.080 C 
HETATM   16  C22 UNL     1      -0.256  51.442 -16.488  1.00  0.00     0.017 C 
HETATM   17  C23 UNL     1      -0.959  50.198 -17.074  1.00  0.00    -0.031 C 
HETATM   18  C24 UNL     1      -0.055  48.951 -16.902  1.00  0.00     0.016 C 
HETATM   19  C25 UNL     1      -1.297  50.432 -18.601  1.00  0.00     0.024 C 
HETATM   20  C26 UNL     1      -0.076  50.735 -19.506  1.00  0.00     0.010 C 
HETATM   21  C27 UNL     1      -0.365  50.855 -21.023  1.00  0.00     0.011 C 
HETATM   22  C28 UNL     1      -1.737  50.302 -21.456  1.00  0.00    -0.029 C 
HETATM   23  C29 UNL     1      -2.794  51.432 -21.287  1.00  0.00     0.016 C 
ENDROOT
BRANCH   1  24
HETATM   24  C6  UNL     1      -1.712  50.754 -24.109  1.00  0.00    -0.014 C 
HETATM   25  C7  UNL     1      -3.153  51.114 -24.524  1.00  0.00     0.010 C 
BRANCH  24  26
HETATM   26  C5  UNL     1      -0.915  52.055 -23.838  1.00  0.00     0.008 C 
BRANCH  26  27
HETATM   27  C4  UNL     1       0.387  52.190 -24.645  1.00  0.00     0.028 C 
BRANCH  27  28
HETATM   28  C3  UNL     1       0.214  52.187 -26.139  1.00  0.00    -0.013 C 
HETATM   29  C2  UNL     1       1.113  51.839 -27.085  1.00  0.00     0.008 C 
HETATM   30  C1  UNL     1       0.752  51.863 -28.543  1.00  0.00     0.055 C 
BRANCH  29  31
HETATM   31  C30 UNL     1       2.506  51.454 -26.742  1.00  0.00     0.171 C 
HETATM   32  O2  UNL     1       2.868  50.597 -25.956  1.00  0.00    -0.646 OA
BRANCH  31  33
HETATM   33  O3  UNL     1       3.410  52.193 -27.410  1.00  0.00    -0.773 OA
HETATM   34  H46 UNL     1       4.267  51.839 -27.092  1.00  0.00     0.167 HD
ENDBRANCH  31  33
ENDBRANCH  29  31
ENDBRANCH  27  28
ENDBRANCH  26  27
ENDBRANCH  24  26
ENDBRANCH   1  24
TORSDOF 6
ENDMDL
MODEL 6
REMARK minimizedAffinity -9.19864559
REMARK  6 active torsions:
REMARK  status: ('A' for Active; 'I' for Inactive)
REMARK    1  A    between atoms: C2_2  and  C30_31 
REMARK    2  A    between atoms: C3_3  and  C4_4 
REMARK    3  A    between atoms: C4_4  and  C5_5 
REMARK    4  A    between atoms: C5_5  and  C6_6 
REMARK    5  A    between atoms: C6_6  and  C8_8 
REMARK    6  A    between atoms: C30_31  and  O3_33 
ROOT
HETATM    1  C8  UNL     1      -3.815  50.334 -25.183  1.00  0.00    -0.002 C 
HETATM    2  C9  UNL     1      -3.977  51.863 -24.980  1.00  0.00     0.007 C 
HETATM    3  C10 UNL     1      -3.924  52.115 -23.454  1.00  0.00     0.015 C 
HETATM    4  C11 UNL     1      -4.032  50.714 -22.809  1.00  0.00    -0.013 C 
HETATM    5  C12 UNL     1      -5.561  50.391 -22.741  1.00  0.00     0.021 C 
HETATM    6  C13 UNL     1      -3.507  50.512 -21.393  1.00  0.00    -0.070 C 
HETATM    7  C14 UNL     1      -3.553  51.485 -20.463  1.00  0.00    -0.022 C 
HETATM    8  C15 UNL     1      -3.181  51.300 -19.018  1.00  0.00     0.034 C 
HETATM    9  C16 UNL     1      -2.510  49.944 -18.708  1.00  0.00     0.013 C 
HETATM   10  C17 UNL     1      -2.228  49.657 -17.184  1.00  0.00     0.018 C 
HETATM   11  C18 UNL     1      -0.702  49.644 -16.938  1.00  0.00     0.023 C 
HETATM   12  C19 UNL     1      -2.830  50.717 -16.236  1.00  0.00     0.023 C 
HETATM   13  C20 UNL     1      -2.737  48.277 -16.739  1.00  0.00     0.135 C 
HETATM   14  O1  UNL     1      -3.203  48.089 -15.610  1.00  0.00    -0.297 OA
HETATM   15  C21 UNL     1      -2.571  47.098 -17.668  1.00  0.00     0.080 C 
HETATM   16  C22 UNL     1      -2.463  47.473 -19.138  1.00  0.00     0.017 C 
HETATM   17  C23 UNL     1      -3.202  48.780 -19.505  1.00  0.00    -0.031 C 
HETATM   18  C24 UNL     1      -4.709  48.646 -19.168  1.00  0.00     0.016 C 
HETATM   19  C25 UNL     1      -3.004  49.106 -21.039  1.00  0.00     0.024 C 
HETATM   20  C26 UNL     1      -3.504  48.009 -22.015  1.00  0.00     0.010 C 
HETATM   21  C27 UNL     1      -3.425  48.352 -23.523  1.00  0.00     0.011 C 
HETATM   22  C28 UNL     1      -3.211  49.849 -23.826  1.00  0.00    -0.029 C 
HETATM   23  C29 UNL     1      -1.681  50.136 -23.804  1.00  0.00     0.016 C 
ENDROOT
BRANCH   1  24
HETATM   24  C6  UNL     1      -3.153  49.872 -26.517  1.00  0.00    -0.014 C 
HETATM   25  C7  UNL     1      -3.900  48.617 -27.010  1.00  0.00     0.010 C 
BRANCH  24  26
HETATM   26  C5  UNL     1      -3.121  50.930 -27.649  1.00  0.00     0.008 C 
BRANCH  26  27
HETATM   27  C4  UNL     1      -2.131  52.084 -27.421  1.00  0.00     0.028 C 
BRANCH  27  28
HETATM   28  C3  UNL     1      -0.680  51.687 -27.408  1.00  0.00    -0.013 C 
HETATM   29  C2  UNL     1       0.376  52.392 -26.950  1.00  0.00     0.008 C 
HETATM   30  C1  UNL     1       1.765  51.818 -26.983  1.00  0.00     0.055 C 
BRANCH  29  31
HETATM   31  C30 UNL     1       0.231  53.775 -26.426  1.00  0.00     0.171 C 
HETATM   32  O2  UNL     1       0.432  54.164 -25.290  1.00  0.00    -0.646 OA
BRANCH  31  33
HETATM   33  O3  UNL     1      -0.184  54.631 -27.378  1.00  0.00    -0.773 OA
HETATM   34  H46 UNL     1      -0.237  55.485 -26.901  1.00  0.00     0.167 HD
ENDBRANCH  31  33
ENDBRANCH  29  31
ENDBRANCH  27  28
ENDBRANCH  26  27
ENDBRANCH  24  26
ENDBRANCH   1  24
TORSDOF 6
ENDMDL
MODEL 7
REMARK minimizedAffinity -9.16211796
REMARK  6 active torsions:
REMARK  status: ('A' for Active; 'I' for Inactive)
REMARK    1  A    between atoms: C2_2  and  C30_31 
REMARK    2  A    between atoms: C3_3  and  C4_4 
REMARK    3  A    between atoms: C4_4  and  C5_5 
REMARK    4  A    between atoms: C5_5  and  C6_6 
REMARK    5  A    between atoms: C6_6  and  C8_8 
REMARK    6  A    between atoms: C30_31  and  O3_33 
ROOT
HETATM    1  C8  UNL     1      -2.368  50.599 -22.952  1.00  0.00    -0.002 C 
HETATM    2  C9  UNL     1      -1.529  49.624 -22.085  1.00  0.00     0.007 C 
HETATM    3  C10 UNL     1      -2.464  48.452 -21.706  1.00  0.00     0.015 C 
HETATM    4  C11 UNL     1      -3.882  48.921 -22.107  1.00  0.00    -0.013 C 
HETATM    5  C12 UNL     1      -4.406  49.776 -20.907  1.00  0.00     0.021 C 
HETATM    6  C13 UNL     1      -4.959  47.874 -22.365  1.00  0.00    -0.070 C 
HETATM    7  C14 UNL     1      -5.000  46.704 -21.699  1.00  0.00    -0.022 C 
HETATM    8  C15 UNL     1      -6.112  45.700 -21.810  1.00  0.00     0.034 C 
HETATM    9  C16 UNL     1      -7.124  45.999 -22.938  1.00  0.00     0.013 C 
HETATM   10  C17 UNL     1      -8.377  45.045 -22.999  1.00  0.00     0.018 C 
HETATM   11  C18 UNL     1      -8.305  44.187 -24.284  1.00  0.00     0.023 C 
HETATM   12  C19 UNL     1      -8.467  44.069 -21.807  1.00  0.00     0.023 C 
HETATM   13  C20 UNL     1      -9.703  45.817 -23.083  1.00  0.00     0.135 C 
HETATM   14  O1  UNL     1     -10.729  45.408 -22.531  1.00  0.00    -0.297 OA
HETATM   15  C21 UNL     1      -9.779  47.054 -23.946  1.00  0.00     0.080 C 
HETATM   16  C22 UNL     1      -8.441  47.740 -24.173  1.00  0.00     0.017 C 
HETATM   17  C23 UNL     1      -7.433  47.538 -23.019  1.00  0.00    -0.031 C 
HETATM   18  C24 UNL     1      -8.024  48.095 -21.699  1.00  0.00     0.016 C 
HETATM   19  C25 UNL     1      -6.065  48.253 -23.360  1.00  0.00     0.024 C 
HETATM   20  C26 UNL     1      -6.166  49.779 -23.616  1.00  0.00     0.010 C 
HETATM   21  C27 UNL     1      -4.826  50.523 -23.840  1.00  0.00     0.011 C 
HETATM   22  C28 UNL     1      -3.576  49.725 -23.418  1.00  0.00    -0.029 C 
HETATM   23  C29 UNL     1      -3.141  48.831 -24.615  1.00  0.00     0.016 C 
ENDROOT
BRANCH   1  24
HETATM   24  C6  UNL     1      -1.589  51.442 -24.008  1.00  0.00    -0.014 C 
HETATM   25  C7  UNL     1      -2.310  52.797 -24.162  1.00  0.00     0.010 C 
BRANCH  24  26
HETATM   26  C5  UNL     1      -0.091  51.688 -23.695  1.00  0.00     0.008 C 
BRANCH  26  27
HETATM   27  C4  UNL     1       0.610  52.670 -24.649  1.00  0.00     0.028 C 
BRANCH  27  28
HETATM   28  C3  UNL     1       0.327  52.453 -26.110  1.00  0.00    -0.013 C 
HETATM   29  C2  UNL     1       1.130  51.906 -27.046  1.00  0.00     0.008 C 
HETATM   30  C1  UNL     1       0.664  51.734 -28.464  1.00  0.00     0.055 C 
BRANCH  29  31
HETATM   31  C30 UNL     1       2.521  51.483 -26.739  1.00  0.00     0.171 C 
HETATM   32  O2  UNL     1       2.880  50.629 -25.947  1.00  0.00    -0.646 OA
BRANCH  31  33
HETATM   33  O3  UNL     1       3.427  52.180 -27.449  1.00  0.00    -0.773 OA
HETATM   34  H46 UNL     1       4.281  51.805 -27.150  1.00  0.00     0.167 HD
ENDBRANCH  31  33
ENDBRANCH  29  31
ENDBRANCH  27  28
ENDBRANCH  26  27
ENDBRANCH  24  26
ENDBRANCH   1  24
TORSDOF 6
ENDMDL
MODEL 8
REMARK minimizedAffinity -9.09838486
REMARK  6 active torsions:
REMARK  status: ('A' for Active; 'I' for Inactive)
REMARK    1  A    between atoms: C2_2  and  C30_31 
REMARK    2  A    between atoms: C3_3  and  C4_4 
REMARK    3  A    between atoms: C4_4  and  C5_5 
REMARK    4  A    between atoms: C5_5  and  C6_6 
REMARK    5  A    between atoms: C6_6  and  C8_8 
REMARK    6  A    between atoms: C30_31  and  O3_33 
ROOT
HETATM    1  C8  UNL     1      -2.178  50.643 -24.748  1.00  0.00    -0.002 C 
HETATM    2  C9  UNL     1      -3.208  51.669 -25.289  1.00  0.00     0.007 C 
HETATM    3  C10 UNL     1      -4.565  51.319 -24.635  1.00  0.00     0.015 C 
HETATM    4  C11 UNL     1      -4.353  49.936 -23.977  1.00  0.00    -0.013 C 
HETATM    5  C12 UNL     1      -4.583  48.883 -25.110  1.00  0.00     0.021 C 
HETATM    6  C13 UNL     1      -5.268  49.516 -22.834  1.00  0.00    -0.070 C 
HETATM    7  C14 UNL     1      -6.558  49.897 -22.767  1.00  0.00    -0.022 C 
HETATM    8  C15 UNL     1      -7.540  49.401 -21.744  1.00  0.00     0.034 C 
HETATM    9  C16 UNL     1      -6.903  48.575 -20.604  1.00  0.00     0.013 C 
HETATM   10  C17 UNL     1      -7.916  47.924 -19.587  1.00  0.00     0.018 C 
HETATM   11  C18 UNL     1      -7.757  48.598 -18.204  1.00  0.00     0.023 C 
HETATM   12  C19 UNL     1      -9.394  48.084 -20.002  1.00  0.00     0.023 C 
HETATM   13  C20 UNL     1      -7.644  46.429 -19.359  1.00  0.00     0.135 C 
HETATM   14  O1  UNL     1      -8.561  45.623 -19.172  1.00  0.00    -0.297 OA
HETATM   15  C21 UNL     1      -6.216  45.949 -19.258  1.00  0.00     0.080 C 
HETATM   16  C22 UNL     1      -5.206  46.846 -19.957  1.00  0.00     0.017 C 
HETATM   17  C23 UNL     1      -5.786  47.620 -21.161  1.00  0.00    -0.031 C 
HETATM   18  C24 UNL     1      -6.332  46.622 -22.216  1.00  0.00     0.016 C 
HETATM   19  C25 UNL     1      -4.677  48.549 -21.798  1.00  0.00     0.024 C 
HETATM   20  C26 UNL     1      -3.408  47.811 -22.298  1.00  0.00     0.010 C 
HETATM   21  C27 UNL     1      -2.356  48.683 -23.028  1.00  0.00     0.011 C 
HETATM   22  C28 UNL     1      -2.873  50.065 -23.475  1.00  0.00    -0.029 C 
HETATM   23  C29 UNL     1      -2.696  51.058 -22.289  1.00  0.00     0.016 C 
ENDROOT
BRANCH   1  24
HETATM   24  C6  UNL     1      -0.697  51.122 -24.653  1.00  0.00    -0.014 C 
HETATM   25  C7  UNL     1      -0.019  50.848 -26.011  1.00  0.00     0.010 C 
BRANCH  24  26
HETATM   26  C5  UNL     1      -0.499  52.611 -24.271  1.00  0.00     0.008 C 
BRANCH  26  27
HETATM   27  C4  UNL     1       0.466  52.848 -23.097  1.00  0.00     0.028 C 
BRANCH  27  28
HETATM   28  C3  UNL     1       0.155  52.070 -21.848  1.00  0.00    -0.013 C 
HETATM   29  C2  UNL     1       0.445  52.389 -20.569  1.00  0.00     0.008 C 
HETATM   30  C1  UNL     1       0.022  51.501 -19.433  1.00  0.00     0.055 C 
BRANCH  29  31
HETATM   31  C30 UNL     1       1.224  53.605 -20.219  1.00  0.00     0.171 C 
HETATM   32  O2  UNL     1       1.530  54.528 -20.952  1.00  0.00    -0.646 OA
BRANCH  31  33
HETATM   33  O3  UNL     1       1.608  53.601 -18.929  1.00  0.00    -0.773 OA
HETATM   34  H46 UNL     1       2.103  54.442 -18.842  1.00  0.00     0.167 HD
ENDBRANCH  31  33
ENDBRANCH  29  31
ENDBRANCH  27  28
ENDBRANCH  26  27
ENDBRANCH  24  26
ENDBRANCH   1  24
TORSDOF 6
ENDMDL
MODEL 9
REMARK minimizedAffinity -9.05751133
REMARK  6 active torsions:
REMARK  status: ('A' for Active; 'I' for Inactive)
REMARK    1  A    between atoms: C2_2  and  C30_31 
REMARK    2  A    between atoms: C3_3  and  C4_4 
REMARK    3  A    between atoms: C4_4  and  C5_5 
REMARK    4  A    between atoms: C5_5  and  C6_6 
REMARK    5  A    between atoms: C6_6  and  C8_8 
REMARK    6  A    between atoms: C30_31  and  O3_33 
ROOT
HETATM    1  C8  UNL     1      -1.766  51.038 -21.586  1.00  0.00    -0.002 C 
HETATM    2  C9  UNL     1      -1.169  49.836 -20.807  1.00  0.00     0.007 C 
HETATM    3  C10 UNL     1      -2.239  48.719 -20.829  1.00  0.00     0.015 C 
HETATM    4  C11 UNL     1      -3.524  49.401 -21.353  1.00  0.00    -0.013 C 
HETATM    5  C12 UNL     1      -4.193  50.070 -20.108  1.00  0.00     0.021 C 
HETATM    6  C13 UNL     1      -4.609  48.539 -21.988  1.00  0.00    -0.070 C 
HETATM    7  C14 UNL     1      -4.852  47.277 -21.586  1.00  0.00    -0.022 C 
HETATM    8  C15 UNL     1      -5.996  46.433 -22.076  1.00  0.00     0.034 C 
HETATM    9  C16 UNL     1      -6.763  47.041 -23.271  1.00  0.00     0.013 C 
HETATM   10  C17 UNL     1      -8.049  46.252 -23.726  1.00  0.00     0.018 C 
HETATM   11  C18 UNL     1      -7.808  45.644 -25.127  1.00  0.00     0.023 C 
HETATM   12  C19 UNL     1      -8.422  45.087 -22.784  1.00  0.00     0.023 C 
HETATM   13  C20 UNL     1      -9.279  47.161 -23.868  1.00  0.00     0.135 C 
HETATM   14  O1  UNL     1     -10.415  46.767 -23.585  1.00  0.00    -0.297 OA
HETATM   15  C21 UNL     1      -9.111  48.538 -24.466  1.00  0.00     0.080 C 
HETATM   16  C22 UNL     1      -7.708  49.109 -24.329  1.00  0.00     0.017 C 
HETATM   17  C23 UNL     1      -6.941  48.592 -23.091  1.00  0.00    -0.031 C 
HETATM   18  C24 UNL     1      -7.719  48.954 -21.800  1.00  0.00     0.016 C 
HETATM   19  C25 UNL     1      -5.487  49.210 -23.054  1.00  0.00     0.024 C 
HETATM   20  C26 UNL     1      -5.431  50.759 -23.011  1.00  0.00     0.010 C 
HETATM   21  C27 UNL     1      -4.023  51.386 -22.860  1.00  0.00     0.011 C 
HETATM   22  C28 UNL     1      -2.930  50.397 -22.408  1.00  0.00    -0.029 C 
HETATM   23  C29 UNL     1      -2.351  49.700 -23.674  1.00  0.00     0.016 C 
ENDROOT
BRANCH   1  24
HETATM   24  C6  UNL     1      -0.752  51.975 -22.310  1.00  0.00    -0.014 C 
HETATM   25  C7  UNL     1       0.596  51.886 -21.565  1.00  0.00     0.010 C 
BRANCH  24  26
HETATM   26  C5  UNL     1      -0.527  51.682 -23.816  1.00  0.00     0.008 C 
BRANCH  26  27
HETATM   27  C4  UNL     1       0.629  52.468 -24.457  1.00  0.00     0.028 C 
BRANCH  27  28
HETATM   28  C3  UNL     1       1.102  51.940 -25.782  1.00  0.00    -0.013 C 
HETATM   29  C2  UNL     1       0.849  52.426 -27.016  1.00  0.00     0.008 C 
HETATM   30  C1  UNL     1       1.441  51.785 -28.239  1.00  0.00     0.055 C 
BRANCH  29  31
HETATM   31  C30 UNL     1      -0.051  53.588 -27.234  1.00  0.00     0.171 C 
HETATM   32  O2  UNL     1       0.072  54.717 -26.792  1.00  0.00    -0.646 OA
BRANCH  31  33
HETATM   33  O3  UNL     1      -1.105  53.269 -28.007  1.00  0.00    -0.773 OA
HETATM   34  H46 UNL     1      -1.603  54.110 -28.064  1.00  0.00     0.167 HD
ENDBRANCH  31  33
ENDBRANCH  29  31
ENDBRANCH  27  28
ENDBRANCH  26  27
ENDBRANCH  24  26
ENDBRANCH   1  24
TORSDOF 6
ENDMDL
