MODEL 1
REMARK minimizedAffinity -7.63874626
REMARK CNNscore 0.79464519
REMARK CNNaffinity 6.9548111
REMARK  4 active torsions:
REMARK  status: ('A' for Active; 'I' for Inactive)
REMARK    1  A    between atoms: C4_4  and  C5_5 
REMARK    2  A    between atoms: C5_5  and  C6_7 
REMARK    3  A    between atoms: C6_7  and  C7_8 
REMARK    4  A    between atoms: C7_8  and  C9_10 
ROOT
HETATM    1  C9  UNL     1       2.377  53.332 -11.195  1.00  0.00    -0.002 C 
HETATM    2  C10 UNL     1       1.027  54.110 -11.239  1.00  0.00     0.006 C 
HETATM    3  C11 UNL     1       1.113  55.238 -10.189  1.00  0.00     0.011 C 
HETATM    4  C12 UNL     1       2.607  55.327  -9.829  1.00  0.00    -0.032 C 
HETATM    5  C13 UNL     1       3.270  56.166 -10.982  1.00  0.00     0.016 C 
HETATM    6  C14 UNL     1       3.013  56.044  -8.497  1.00  0.00     0.004 C 
HETATM    7  C15 UNL     1       1.878  56.329  -7.506  1.00  0.00     0.007 C 
HETATM    8  C16 UNL     1       2.338  57.076  -6.237  1.00  0.00     0.007 C 
HETATM    9  C17 UNL     1       3.855  57.379  -6.160  1.00  0.00     0.010 C 
HETATM   10  C18 UNL     1       4.321  57.961  -4.787  1.00  0.00     0.018 C 
HETATM   11  C19 UNL     1       3.559  59.260  -4.463  1.00  0.00     0.023 C 
HETATM   12  C20 UNL     1       4.143  56.976  -3.620  1.00  0.00     0.023 C 
HETATM   13  C21 UNL     1       5.815  58.312  -4.872  1.00  0.00     0.135 C 
HETATM   14  O2  UNL     1       6.374  58.995  -4.012  1.00  0.00    -0.297 OA
HETATM   15  C22 UNL     1       6.591  57.815  -6.068  1.00  0.00     0.080 C 
HETATM   16  C23 UNL     1       6.224  56.370  -6.354  1.00  0.00     0.018 C 
HETATM   17  C24 UNL     1       4.732  56.185  -6.594  1.00  0.00    -0.026 A 
HETATM   18  C25 UNL     1       4.190  54.790  -6.413  1.00  0.00     0.021 A 
HETATM   19  C26 UNL     1       4.233  55.382  -7.814  1.00  0.00    -0.027 A 
HETATM   20  C27 UNL     1       5.199  54.705  -8.775  1.00  0.00     0.011 C 
HETATM   21  C28 UNL     1       4.543  53.696  -9.741  1.00  0.00     0.011 C 
HETATM   22  C29 UNL     1       3.010  53.803  -9.842  1.00  0.00    -0.032 C 
HETATM   23  C30 UNL     1       2.373  52.996  -8.679  1.00  0.00     0.016 C 
ENDROOT
BRANCH   1  24
HETATM   24  C7  UNL     1       2.247  51.836 -11.625  1.00  0.00    -0.007 C 
HETATM   25  C8  UNL     1       1.391  50.917 -10.747  1.00  0.00     0.011 C 
BRANCH  24  26
HETATM   26  C6  UNL     1       3.603  51.223 -12.062  1.00  0.00     0.087 C 
BRANCH  26  27
HETATM   27  C5  UNL     1       3.683  50.675 -13.475  1.00  0.00     0.149 C 
HETATM   28  O1  UNL     1       4.596  49.926 -13.824  1.00  0.00    -0.293 OA
BRANCH  27  29
HETATM   29  C4  UNL     1       2.733  51.139 -14.528  1.00  0.00     0.052 C 
HETATM   30  C2  UNL     1       2.913  51.944 -15.593  1.00  0.00    -0.084 C 
HETATM   31  C1  UNL     1       4.169  52.680 -15.970  1.00  0.00     0.043 C 
HETATM   32  C3  UNL     1       1.756  52.216 -16.525  1.00  0.00     0.043 C 
ENDBRANCH  27  29
ENDBRANCH  26  27
ENDBRANCH  24  26
ENDBRANCH   1  24
TORSDOF 4
ENDMDL
MODEL 2
REMARK minimizedAffinity -7.55050468
REMARK CNNscore 0.709095418
REMARK CNNaffinity 6.82669687
REMARK  4 active torsions:
REMARK  status: ('A' for Active; 'I' for Inactive)
REMARK    1  A    between atoms: C4_4  and  C5_5 
REMARK    2  A    between atoms: C5_5  and  C6_7 
REMARK    3  A    between atoms: C6_7  and  C7_8 
REMARK    4  A    between atoms: C7_8  and  C9_10 
ROOT
HETATM    1  C9  UNL     1      -1.676  52.618 -11.028  1.00  0.00    -0.002 C 
HETATM    2  C10 UNL     1      -0.635  52.672 -12.187  1.00  0.00     0.006 C 
HETATM    3  C11 UNL     1       0.631  53.360 -11.635  1.00  0.00     0.011 C 
HETATM    4  C12 UNL     1       0.447  53.357 -10.107  1.00  0.00    -0.032 C 
HETATM    5  C13 UNL     1       0.862  51.915  -9.635  1.00  0.00     0.016 C 
HETATM    6  C14 UNL     1       1.305  54.345  -9.247  1.00  0.00     0.004 C 
HETATM    7  C15 UNL     1       2.036  55.454 -10.015  1.00  0.00     0.007 C 
HETATM    8  C16 UNL     1       2.898  56.365  -9.117  1.00  0.00     0.007 C 
HETATM    9  C17 UNL     1       2.855  56.034  -7.604  1.00  0.00     0.010 C 
HETATM   10  C18 UNL     1       3.579  57.083  -6.700  1.00  0.00     0.018 C 
HETATM   11  C19 UNL     1       5.056  57.226  -7.115  1.00  0.00     0.023 C 
HETATM   12  C20 UNL     1       2.917  58.470  -6.733  1.00  0.00     0.023 C 
HETATM   13  C21 UNL     1       3.554  56.593  -5.244  1.00  0.00     0.135 C 
HETATM   14  O2  UNL     1       4.251  57.113  -4.369  1.00  0.00    -0.297 OA
HETATM   15  C22 UNL     1       2.663  55.422  -4.907  1.00  0.00     0.080 C 
HETATM   16  C23 UNL     1       1.313  55.594  -5.580  1.00  0.00     0.018 C 
HETATM   17  C24 UNL     1       1.429  55.736  -7.091  1.00  0.00    -0.026 A 
HETATM   18  C25 UNL     1       0.262  56.374  -7.798  1.00  0.00     0.021 A 
HETATM   19  C26 UNL     1       0.534  54.894  -8.024  1.00  0.00    -0.027 A 
HETATM   20  C27 UNL     1      -0.527  53.949  -7.476  1.00  0.00     0.011 C 
HETATM   21  C28 UNL     1      -1.532  53.432  -8.527  1.00  0.00     0.011 C 
HETATM   22  C29 UNL     1      -1.099  53.641  -9.990  1.00  0.00    -0.032 C 
HETATM   23  C30 UNL     1      -1.488  55.078 -10.428  1.00  0.00     0.016 C 
ENDROOT
BRANCH   1  24
HETATM   24  C7  UNL     1      -3.157  52.617 -11.522  1.00  0.00    -0.007 C 
HETATM   25  C8  UNL     1      -4.149  53.532 -10.796  1.00  0.00     0.011 C 
BRANCH  24  26
HETATM   26  C6  UNL     1      -3.690  51.188 -11.799  1.00  0.00     0.087 C 
BRANCH  26  27
HETATM   27  C5  UNL     1      -4.080  50.355 -10.592  1.00  0.00     0.149 C 
HETATM   28  O1  UNL     1      -3.281  49.589 -10.052  1.00  0.00    -0.293 OA
BRANCH  27  29
HETATM   29  C4  UNL     1      -5.490  50.335 -10.103  1.00  0.00     0.052 C 
HETATM   30  C2  UNL     1      -6.505  49.485 -10.359  1.00  0.00    -0.084 C 
HETATM   31  C1  UNL     1      -6.495  48.323 -11.312  1.00  0.00     0.043 C 
HETATM   32  C3  UNL     1      -7.839  49.696  -9.682  1.00  0.00     0.043 C 
ENDBRANCH  27  29
ENDBRANCH  26  27
ENDBRANCH  24  26
ENDBRANCH   1  24
TORSDOF 4
ENDMDL
MODEL 3
REMARK minimizedAffinity -9.82055187
REMARK CNNscore 0.380588114
REMARK CNNaffinity 7.09729958
REMARK  4 active torsions:
REMARK  status: ('A' for Active; 'I' for Inactive)
REMARK    1  A    between atoms: C4_4  and  C5_5 
REMARK    2  A    between atoms: C5_5  and  C6_7 
REMARK    3  A    between atoms: C6_7  and  C7_8 
REMARK    4  A    between atoms: C7_8  and  C9_10 
ROOT
HETATM    1  C9  UNL     1      -3.709  50.509 -24.847  1.00  0.00    -0.002 C 
HETATM    2  C10 UNL     1      -5.135  50.288 -24.258  1.00  0.00     0.006 C 
HETATM    3  C11 UNL     1      -5.017  50.385 -22.722  1.00  0.00     0.011 C 
HETATM    4  C12 UNL     1      -3.635  51.015 -22.473  1.00  0.00    -0.032 C 
HETATM    5  C13 UNL     1      -3.830  52.560 -22.689  1.00  0.00     0.016 C 
HETATM    6  C14 UNL     1      -2.990  50.866 -21.053  1.00  0.00     0.004 C 
HETATM    7  C15 UNL     1      -3.643  49.843 -20.114  1.00  0.00     0.007 C 
HETATM    8  C16 UNL     1      -2.989  49.778 -18.719  1.00  0.00     0.007 C 
HETATM    9  C17 UNL     1      -1.776  50.719 -18.512  1.00  0.00     0.010 C 
HETATM   10  C18 UNL     1      -1.018  50.496 -17.164  1.00  0.00     0.018 C 
HETATM   11  C19 UNL     1      -1.973  50.680 -15.969  1.00  0.00     0.023 C 
HETATM   12  C20 UNL     1      -0.357  49.112 -17.063  1.00  0.00     0.023 C 
HETATM   13  C21 UNL     1       0.093  51.550 -17.032  1.00  0.00     0.135 C 
HETATM   14  O2  UNL     1       0.686  51.743 -15.969  1.00  0.00    -0.297 OA
HETATM   15  C22 UNL     1       0.430  52.377 -18.250  1.00  0.00     0.080 C 
HETATM   16  C23 UNL     1       0.494  51.484 -19.476  1.00  0.00     0.018 C 
HETATM   17  C24 UNL     1      -0.804  50.725 -19.712  1.00  0.00    -0.026 A 
HETATM   18  C25 UNL     1      -0.715  49.491 -20.571  1.00  0.00     0.021 A 
HETATM   19  C26 UNL     1      -1.453  50.706 -21.111  1.00  0.00    -0.027 A 
HETATM   20  C27 UNL     1      -0.797  51.386 -22.306  1.00  0.00     0.011 C 
HETATM   21  C28 UNL     1      -1.404  51.008 -23.673  1.00  0.00     0.011 C 
HETATM   22  C29 UNL     1      -2.780  50.320 -23.600  1.00  0.00    -0.032 C 
HETATM   23  C30 UNL     1      -2.569  48.802 -23.354  1.00  0.00     0.016 C 
ENDROOT
BRANCH   1  24
HETATM   24  C7  UNL     1      -3.485  49.797 -26.219  1.00  0.00    -0.007 C 
HETATM   25  C8  UNL     1      -2.689  48.488 -26.218  1.00  0.00     0.011 C 
BRANCH  24  26
HETATM   26  C6  UNL     1      -3.089  50.787 -27.345  1.00  0.00     0.087 C 
BRANCH  26  27
HETATM   27  C5  UNL     1      -2.092  51.872 -26.983  1.00  0.00     0.149 C 
HETATM   28  O1  UNL     1      -2.350  53.065 -27.148  1.00  0.00    -0.293 OA
BRANCH  27  29
HETATM   29  C4  UNL     1      -0.709  51.522 -26.545  1.00  0.00     0.052 C 
HETATM   30  C2  UNL     1       0.478  51.649 -27.170  1.00  0.00    -0.084 C 
HETATM   31  C1  UNL     1       0.716  52.132 -28.574  1.00  0.00     0.043 C 
HETATM   32  C3  UNL     1       1.742  51.234 -26.455  1.00  0.00     0.043 C 
ENDBRANCH  27  29
ENDBRANCH  26  27
ENDBRANCH  24  26
ENDBRANCH   1  24
TORSDOF 4
ENDMDL
MODEL 4
REMARK minimizedAffinity -8.14942074
REMARK CNNscore 0.370034099
REMARK CNNaffinity 6.52555656
REMARK  4 active torsions:
REMARK  status: ('A' for Active; 'I' for Inactive)
REMARK    1  A    between atoms: C4_4  and  C5_5 
REMARK    2  A    between atoms: C5_5  and  C6_7 
REMARK    3  A    between atoms: C6_7  and  C7_8 
REMARK    4  A    between atoms: C7_8  and  C9_10 
ROOT
HETATM    1  C9  UNL     1      -6.084  49.160 -24.387  1.00  0.00    -0.002 C 
HETATM    2  C10 UNL     1      -6.943  49.512 -23.134  1.00  0.00     0.006 C 
HETATM    3  C11 UNL     1      -6.060  50.363 -22.197  1.00  0.00     0.011 C 
HETATM    4  C12 UNL     1      -4.865  50.794 -23.066  1.00  0.00    -0.032 C 
HETATM    5  C13 UNL     1      -5.377  52.015 -23.913  1.00  0.00     0.016 C 
HETATM    6  C14 UNL     1      -3.562  51.292 -22.352  1.00  0.00     0.004 C 
HETATM    7  C15 UNL     1      -3.468  51.021 -20.845  1.00  0.00     0.007 C 
HETATM    8  C16 UNL     1      -2.183  51.575 -20.196  1.00  0.00     0.007 C 
HETATM    9  C17 UNL     1      -1.199  52.274 -21.168  1.00  0.00     0.010 C 
HETATM   10  C18 UNL     1       0.173  52.653 -20.523  1.00  0.00     0.018 C 
HETATM   11  C19 UNL     1      -0.038  53.580 -19.309  1.00  0.00     0.023 C 
HETATM   12  C20 UNL     1       0.992  51.431 -20.078  1.00  0.00     0.023 C 
HETATM   13  C21 UNL     1       1.014  53.425 -21.552  1.00  0.00     0.135 C 
HETATM   14  O2  UNL     1       2.035  54.037 -21.231  1.00  0.00    -0.297 OA
HETATM   15  C22 UNL     1       0.539  53.440 -22.984  1.00  0.00     0.080 C 
HETATM   16  C23 UNL     1       0.092  52.048 -23.392  1.00  0.00     0.018 C 
HETATM   17  C24 UNL     1      -1.006  51.502 -22.491  1.00  0.00    -0.026 A 
HETATM   18  C25 UNL     1      -1.190  50.006 -22.485  1.00  0.00     0.021 A 
HETATM   19  C26 UNL     1      -2.276  50.873 -23.102  1.00  0.00    -0.027 A 
HETATM   20  C27 UNL     1      -2.449  50.723 -24.607  1.00  0.00     0.011 C 
HETATM   21  C28 UNL     1      -3.612  49.803 -25.032  1.00  0.00     0.011 C 
HETATM   22  C29 UNL     1      -4.626  49.488 -23.916  1.00  0.00    -0.032 C 
HETATM   23  C30 UNL     1      -4.089  48.302 -23.071  1.00  0.00     0.016 C 
ENDROOT
BRANCH   1  24
HETATM   24  C7  UNL     1      -6.500  47.819 -25.070  1.00  0.00    -0.007 C 
HETATM   25  C8  UNL     1      -6.300  47.701 -26.584  1.00  0.00     0.011 C 
BRANCH  24  26
HETATM   26  C6  UNL     1      -7.867  47.292 -24.562  1.00  0.00     0.087 C 
BRANCH  26  27
HETATM   27  C5  UNL     1      -9.092  47.672 -25.373  1.00  0.00     0.149 C 
HETATM   28  O1  UNL     1      -9.595  48.793 -25.293  1.00  0.00    -0.293 OA
BRANCH  27  29
HETATM   29  C4  UNL     1      -9.811  46.652 -26.191  1.00  0.00     0.052 C 
HETATM   30  C2  UNL     1     -10.886  46.759 -26.996  1.00  0.00    -0.084 C 
HETATM   31  C1  UNL     1     -11.726  47.985 -27.229  1.00  0.00     0.043 C 
HETATM   32  C3  UNL     1     -11.383  45.542 -27.740  1.00  0.00     0.043 C 
ENDBRANCH  27  29
ENDBRANCH  26  27
ENDBRANCH  24  26
ENDBRANCH   1  24
TORSDOF 4
ENDMDL
MODEL 5
REMARK minimizedAffinity -7.89223719
REMARK CNNscore 0.340943694
REMARK CNNaffinity 5.61733246
REMARK  4 active torsions:
REMARK  status: ('A' for Active; 'I' for Inactive)
REMARK    1  A    between atoms: C4_4  and  C5_5 
REMARK    2  A    between atoms: C5_5  and  C6_7 
REMARK    3  A    between atoms: C6_7  and  C7_8 
REMARK    4  A    between atoms: C7_8  and  C9_10 
ROOT
HETATM    1  C9  UNL     1       6.823  67.138 -36.179  1.00  0.00    -0.002 C 
HETATM    2  C10 UNL     1       7.634  67.584 -37.433  1.00  0.00     0.006 C 
HETATM    3  C11 UNL     1       6.617  68.067 -38.489  1.00  0.00     0.011 C 
HETATM    4  C12 UNL     1       5.298  68.241 -37.715  1.00  0.00    -0.032 C 
HETATM    5  C13 UNL     1       5.414  69.634 -36.994  1.00  0.00     0.016 C 
HETATM    6  C14 UNL     1       3.958  68.294 -38.523  1.00  0.00     0.004 C 
HETATM    7  C15 UNL     1       4.033  67.860 -39.993  1.00  0.00     0.007 C 
HETATM    8  C16 UNL     1       2.690  67.978 -40.742  1.00  0.00     0.007 C 
HETATM    9  C17 UNL     1       1.497  68.477 -39.889  1.00  0.00     0.010 C 
HETATM   10  C18 UNL     1       0.117  68.404 -40.618  1.00  0.00     0.018 C 
HETATM   11  C19 UNL     1       0.149  69.228 -41.920  1.00  0.00     0.023 C 
HETATM   12  C20 UNL     1      -0.318  66.968 -40.949  1.00  0.00     0.023 C 
HETATM   13  C21 UNL     1      -0.962  69.017 -39.711  1.00  0.00     0.135 C 
HETATM   14  O2  UNL     1      -2.087  69.295 -40.132  1.00  0.00    -0.297 OA
HETATM   15  C22 UNL     1      -0.599  69.303 -38.274  1.00  0.00     0.080 C 
HETATM   16  C23 UNL     1       0.176  68.131 -37.697  1.00  0.00     0.018 C 
HETATM   17  C24 UNL     1       1.434  67.817 -38.494  1.00  0.00    -0.026 A 
HETATM   18  C25 UNL     1       2.008  66.434 -38.326  1.00  0.00     0.021 A 
HETATM   19  C26 UNL     1       2.785  67.620 -37.774  1.00  0.00    -0.027 A 
HETATM   20  C27 UNL     1       2.896  67.672 -36.257  1.00  0.00     0.011 C 
HETATM   21  C28 UNL     1       4.234  67.149 -35.693  1.00  0.00     0.011 C 
HETATM   22  C29 UNL     1       5.363  67.011 -36.732  1.00  0.00    -0.032 C 
HETATM   23  C30 UNL     1       5.214  65.646 -37.456  1.00  0.00     0.016 C 
ENDROOT
BRANCH   1  24
HETATM   24  C7  UNL     1       7.537  66.035 -35.336  1.00  0.00    -0.007 C 
HETATM   25  C8  UNL     1       7.768  64.673 -35.999  1.00  0.00     0.011 C 
BRANCH  24  26
HETATM   26  C6  UNL     1       7.001  65.957 -33.883  1.00  0.00     0.087 C 
BRANCH  26  27
HETATM   27  C5  UNL     1       5.994  64.862 -33.582  1.00  0.00     0.149 C 
HETATM   28  O1  UNL     1       5.082  65.031 -32.771  1.00  0.00    -0.293 OA
BRANCH  27  29
HETATM   29  C4  UNL     1       6.158  63.495 -34.158  1.00  0.00     0.052 C 
HETATM   30  C2  UNL     1       5.342  62.423 -34.142  1.00  0.00    -0.084 C 
HETATM   31  C1  UNL     1       4.020  62.300 -33.437  1.00  0.00     0.043 C 
HETATM   32  C3  UNL     1       5.763  61.157 -34.852  1.00  0.00     0.043 C 
ENDBRANCH  27  29
ENDBRANCH  26  27
ENDBRANCH  24  26
ENDBRANCH   1  24
TORSDOF 4
ENDMDL
MODEL 6
REMARK minimizedAffinity -7.59082079
REMARK CNNscore 0.319890589
REMARK CNNaffinity 5.45199203
REMARK  4 active torsions:
REMARK  status: ('A' for Active; 'I' for Inactive)
REMARK    1  A    between atoms: C4_4  and  C5_5 
REMARK    2  A    between atoms: C5_5  and  C6_7 
REMARK    3  A    between atoms: C6_7  and  C7_8 
REMARK    4  A    between atoms: C7_8  and  C9_10 
ROOT
HETATM    1  C9  UNL     1     -10.263  46.155 -27.682  1.00  0.00    -0.002 C 
HETATM    2  C10 UNL     1     -10.564  45.673 -29.134  1.00  0.00     0.006 C 
HETATM    3  C11 UNL     1     -12.089  45.462 -29.240  1.00  0.00     0.011 C 
HETATM    4  C12 UNL     1     -12.671  46.164 -28.000  1.00  0.00    -0.032 C 
HETATM    5  C13 UNL     1     -12.722  47.692 -28.366  1.00  0.00     0.016 C 
HETATM    6  C14 UNL     1     -14.121  45.791 -27.541  1.00  0.00     0.004 C 
HETATM    7  C15 UNL     1     -14.733  44.536 -28.176  1.00  0.00     0.007 C 
HETATM    8  C16 UNL     1     -16.177  44.250 -27.716  1.00  0.00     0.007 C 
HETATM    9  C17 UNL     1     -16.750  45.247 -26.677  1.00  0.00     0.010 C 
HETATM   10  C18 UNL     1     -18.135  44.827 -26.087  1.00  0.00     0.018 C 
HETATM   11  C19 UNL     1     -19.174  44.662 -27.213  1.00  0.00     0.023 C 
HETATM   12  C20 UNL     1     -18.076  43.527 -25.270  1.00  0.00     0.023 C 
HETATM   13  C21 UNL     1     -18.639  45.939 -25.153  1.00  0.00     0.135 C 
HETATM   14  O2  UNL     1     -19.801  45.968 -24.742  1.00  0.00    -0.297 OA
HETATM   15  C22 UNL     1     -17.670  47.030 -24.764  1.00  0.00     0.080 C 
HETATM   16  C23 UNL     1     -16.323  46.421 -24.417  1.00  0.00     0.018 C 
HETATM   17  C24 UNL     1     -15.744  45.599 -25.559  1.00  0.00    -0.026 A 
HETATM   18  C25 UNL     1     -14.692  44.585 -25.192  1.00  0.00     0.021 A 
HETATM   19  C26 UNL     1     -14.280  45.804 -26.003  1.00  0.00    -0.027 A 
HETATM   20  C27 UNL     1     -13.357  46.779 -25.285  1.00  0.00     0.011 C 
HETATM   21  C28 UNL     1     -11.863  46.632 -25.646  1.00  0.00     0.011 C 
HETATM   22  C29 UNL     1     -11.584  45.807 -26.916  1.00  0.00    -0.032 C 
HETATM   23  C30 UNL     1     -11.569  44.301 -26.543  1.00  0.00     0.016 C 
ENDROOT
BRANCH   1  24
HETATM   24  C7  UNL     1      -8.835  45.769 -27.182  1.00  0.00    -0.007 C 
HETATM   25  C8  UNL     1      -8.475  46.106 -25.731  1.00  0.00     0.011 C 
BRANCH  24  26
HETATM   26  C6  UNL     1      -7.730  46.115 -28.212  1.00  0.00     0.087 C 
BRANCH  26  27
HETATM   27  C5  UNL     1      -7.262  47.558 -28.256  1.00  0.00     0.149 C 
HETATM   28  O1  UNL     1      -8.047  48.485 -28.456  1.00  0.00    -0.293 OA
BRANCH  27  29
HETATM   29  C4  UNL     1      -5.808  47.890 -28.196  1.00  0.00     0.052 C 
HETATM   30  C2  UNL     1      -4.999  48.141 -27.147  1.00  0.00    -0.084 C 
HETATM   31  C1  UNL     1      -5.393  48.228 -25.699  1.00  0.00     0.043 C 
HETATM   32  C3  UNL     1      -3.534  48.419 -27.388  1.00  0.00     0.043 C 
ENDBRANCH  27  29
ENDBRANCH  26  27
ENDBRANCH  24  26
ENDBRANCH   1  24
TORSDOF 4
ENDMDL
MODEL 7
REMARK minimizedAffinity -7.50467253
REMARK CNNscore 0.30934912
REMARK CNNaffinity 5.45446157
REMARK  4 active torsions:
REMARK  status: ('A' for Active; 'I' for Inactive)
REMARK    1  A    between atoms: C4_4  and  C5_5 
REMARK    2  A    between atoms: C5_5  and  C6_7 
REMARK    3  A    between atoms: C6_7  and  C7_8 
REMARK    4  A    between atoms: C7_8  and  C9_10 
ROOT
HETATM    1  C9  UNL     1       5.545  66.498 -35.115  1.00  0.00    -0.002 C 
HETATM    2  C10 UNL     1       6.772  66.997 -35.937  1.00  0.00     0.006 C 
HETATM    3  C11 UNL     1       6.225  67.700 -37.197  1.00  0.00     0.011 C 
HETATM    4  C12 UNL     1       4.729  67.921 -36.906  1.00  0.00    -0.032 C 
HETATM    5  C13 UNL     1       4.661  69.203 -35.998  1.00  0.00     0.016 C 
HETATM    6  C14 UNL     1       3.768  68.205 -38.110  1.00  0.00     0.004 C 
HETATM    7  C15 UNL     1       4.334  67.935 -39.510  1.00  0.00     0.007 C 
HETATM    8  C16 UNL     1       3.353  68.276 -40.650  1.00  0.00     0.007 C 
HETATM    9  C17 UNL     1       1.965  68.796 -40.197  1.00  0.00     0.010 C 
HETATM   10  C18 UNL     1       0.931  68.950 -41.358  1.00  0.00     0.018 C 
HETATM   11  C19 UNL     1       1.470  69.910 -42.437  1.00  0.00     0.023 C 
HETATM   12  C20 UNL     1       0.561  67.614 -42.021  1.00  0.00     0.023 C 
HETATM   13  C21 UNL     1      -0.362  69.564 -40.800  1.00  0.00     0.135 C 
HETATM   14  O2  UNL     1      -1.247  70.003 -41.537  1.00  0.00    -0.297 OA
HETATM   15  C22 UNL     1      -0.516  69.645 -39.300  1.00  0.00     0.080 C 
HETATM   16  C23 UNL     1      -0.064  68.341 -38.666  1.00  0.00     0.018 C 
HETATM   17  C24 UNL     1       1.375  67.991 -39.019  1.00  0.00    -0.026 A 
HETATM   18  C25 UNL     1       1.772  66.546 -38.863  1.00  0.00     0.021 A 
HETATM   19  C26 UNL     1       2.369  67.574 -37.915  1.00  0.00    -0.027 A 
HETATM   20  C27 UNL     1       1.938  67.441 -36.460  1.00  0.00     0.011 C 
HETATM   21  C28 UNL     1       2.957  66.721 -35.552  1.00  0.00     0.011 C 
HETATM   22  C29 UNL     1       4.371  66.587 -36.148  1.00  0.00    -0.032 C 
HETATM   23  C30 UNL     1       4.411  65.336 -37.066  1.00  0.00     0.016 C 
ENDROOT
BRANCH   1  24
HETATM   24  C7  UNL     1       5.850  65.238 -34.245  1.00  0.00    -0.007 C 
HETATM   25  C8  UNL     1       4.945  64.972 -33.038  1.00  0.00     0.011 C 
BRANCH  24  26
HETATM   26  C6  UNL     1       7.364  65.064 -33.960  1.00  0.00     0.087 C 
BRANCH  26  27
HETATM   27  C5  UNL     1       7.950  63.683 -34.189  1.00  0.00     0.149 C 
HETATM   28  O1  UNL     1       7.391  62.668 -33.771  1.00  0.00    -0.293 OA
BRANCH  27  29
HETATM   29  C4  UNL     1       9.297  63.520 -34.809  1.00  0.00     0.052 C 
HETATM   30  C2  UNL     1      10.496  63.234 -34.264  1.00  0.00    -0.084 C 
HETATM   31  C1  UNL     1      10.811  63.072 -32.802  1.00  0.00     0.043 C 
HETATM   32  C3  UNL     1      11.706  63.094 -35.157  1.00  0.00     0.043 C 
ENDBRANCH  27  29
ENDBRANCH  26  27
ENDBRANCH  24  26
ENDBRANCH   1  24
TORSDOF 4
ENDMDL
MODEL 8
REMARK minimizedAffinity -7.52635813
REMARK CNNscore 0.284476429
REMARK CNNaffinity 5.65744781
REMARK  4 active torsions:
REMARK  status: ('A' for Active; 'I' for Inactive)
REMARK    1  A    between atoms: C4_4  and  C5_5 
REMARK    2  A    between atoms: C5_5  and  C6_7 
REMARK    3  A    between atoms: C6_7  and  C7_8 
REMARK    4  A    between atoms: C7_8  and  C9_10 
ROOT
HETATM    1  C9  UNL     1     -13.351  45.648 -26.478  1.00  0.00    -0.002 C 
HETATM    2  C10 UNL     1     -14.292  46.303 -27.533  1.00  0.00     0.006 C 
HETATM    3  C11 UNL     1     -13.436  46.618 -28.778  1.00  0.00     0.011 C 
HETATM    4  C12 UNL     1     -12.135  45.822 -28.573  1.00  0.00    -0.032 C 
HETATM    5  C13 UNL     1     -12.468  44.349 -29.009  1.00  0.00     0.016 C 
HETATM    6  C14 UNL     1     -10.869  46.231 -29.400  1.00  0.00     0.004 C 
HETATM    7  C15 UNL     1     -10.938  47.584 -30.121  1.00  0.00     0.007 C 
HETATM    8  C16 UNL     1      -9.679  47.906 -30.952  1.00  0.00     0.007 C 
HETATM    9  C17 UNL     1      -8.557  46.840 -30.895  1.00  0.00     0.010 C 
HETATM   10  C18 UNL     1      -7.225  47.277 -31.586  1.00  0.00     0.018 C 
HETATM   11  C19 UNL     1      -7.474  47.627 -33.066  1.00  0.00     0.023 C 
HETATM   12  C20 UNL     1      -6.550  48.474 -30.899  1.00  0.00     0.023 C 
HETATM   13  C21 UNL     1      -6.233  46.103 -31.551  1.00  0.00     0.135 C 
HETATM   14  O2  UNL     1      -5.201  46.102 -32.225  1.00  0.00    -0.297 OA
HETATM   15  C22 UNL     1      -6.570  44.919 -30.677  1.00  0.00     0.080 C 
HETATM   16  C23 UNL     1      -7.086  45.402 -29.334  1.00  0.00     0.018 C 
HETATM   17  C24 UNL     1      -8.303  46.306 -29.468  1.00  0.00    -0.026 A 
HETATM   18  C25 UNL     1      -8.604  47.208 -28.299  1.00  0.00     0.021 A 
HETATM   19  C26 UNL     1      -9.556  46.061 -28.602  1.00  0.00    -0.027 A 
HETATM   20  C27 UNL     1      -9.599  44.959 -27.552  1.00  0.00     0.011 C 
HETATM   21  C28 UNL     1     -10.787  45.051 -26.572  1.00  0.00     0.011 C 
HETATM   22  C29 UNL     1     -11.922  45.991 -27.020  1.00  0.00    -0.032 C 
HETATM   23  C30 UNL     1     -11.562  47.443 -26.611  1.00  0.00     0.016 C 
ENDROOT
BRANCH   1  24
HETATM   24  C7  UNL     1     -13.806  45.889 -25.003  1.00  0.00    -0.007 C 
HETATM   25  C8  UNL     1     -13.664  44.725 -24.017  1.00  0.00     0.011 C 
BRANCH  24  26
HETATM   26  C6  UNL     1     -15.158  46.642 -24.914  1.00  0.00     0.087 C 
BRANCH  26  27
HETATM   27  C5  UNL     1     -15.651  47.004 -23.525  1.00  0.00     0.149 C 
HETATM   28  O1  UNL     1     -15.027  47.782 -22.803  1.00  0.00    -0.293 OA
BRANCH  27  29
HETATM   29  C4  UNL     1     -16.839  46.320 -22.936  1.00  0.00     0.052 C 
HETATM   30  C2  UNL     1     -18.130  46.294 -23.323  1.00  0.00    -0.084 C 
HETATM   31  C1  UNL     1     -18.748  47.049 -24.467  1.00  0.00     0.043 C 
HETATM   32  C3  UNL     1     -19.126  45.474 -22.538  1.00  0.00     0.043 C 
ENDBRANCH  27  29
ENDBRANCH  26  27
ENDBRANCH  24  26
ENDBRANCH   1  24
TORSDOF 4
ENDMDL
MODEL 9
REMARK minimizedAffinity -8.00858402
REMARK CNNscore 0.283872694
REMARK CNNaffinity 6.31523895
REMARK  4 active torsions:
REMARK  status: ('A' for Active; 'I' for Inactive)
REMARK    1  A    between atoms: C4_4  and  C5_5 
REMARK    2  A    between atoms: C5_5  and  C6_7 
REMARK    3  A    between atoms: C6_7  and  C7_8 
REMARK    4  A    between atoms: C7_8  and  C9_10 
ROOT
HETATM    1  C9  UNL     1      -4.052  49.527 -23.738  1.00  0.00    -0.002 C 
HETATM    2  C10 UNL     1      -4.723  48.619 -24.812  1.00  0.00     0.006 C 
HETATM    3  C11 UNL     1      -5.954  47.962 -24.152  1.00  0.00     0.011 C 
HETATM    4  C12 UNL     1      -6.185  48.767 -22.861  1.00  0.00    -0.032 C 
HETATM    5  C13 UNL     1      -6.950  50.067 -23.306  1.00  0.00     0.016 C 
HETATM    6  C14 UNL     1      -7.060  48.130 -21.728  1.00  0.00     0.004 C 
HETATM    7  C15 UNL     1      -7.362  46.632 -21.866  1.00  0.00     0.007 C 
HETATM    8  C16 UNL     1      -8.263  46.077 -20.743  1.00  0.00     0.007 C 
HETATM    9  C17 UNL     1      -8.680  47.104 -19.660  1.00  0.00     0.010 C 
HETATM   10  C18 UNL     1      -9.429  46.477 -18.440  1.00  0.00     0.018 C 
HETATM   11  C19 UNL     1     -10.696  45.735 -18.907  1.00  0.00     0.023 C 
HETATM   12  C20 UNL     1      -8.556  45.507 -17.628  1.00  0.00     0.023 C 
HETATM   13  C21 UNL     1      -9.875  47.602 -17.493  1.00  0.00     0.135 C 
HETATM   14  O2  UNL     1     -10.680  47.405 -16.581  1.00  0.00    -0.297 OA
HETATM   15  C22 UNL     1      -9.317  48.985 -17.727  1.00  0.00     0.080 C 
HETATM   16  C23 UNL     1      -7.828  48.898 -18.010  1.00  0.00     0.018 C 
HETATM   17  C24 UNL     1      -7.513  48.007 -19.203  1.00  0.00    -0.026 A 
HETATM   18  C25 UNL     1      -6.109  47.467 -19.288  1.00  0.00     0.021 A 
HETATM   19  C26 UNL     1      -6.559  48.497 -20.312  1.00  0.00    -0.027 A 
HETATM   20  C27 UNL     1      -5.859  49.847 -20.225  1.00  0.00     0.011 C 
HETATM   21  C28 UNL     1      -4.714  50.043 -21.241  1.00  0.00     0.011 C 
HETATM   22  C29 UNL     1      -4.701  49.030 -22.402  1.00  0.00    -0.032 C 
HETATM   23  C30 UNL     1      -3.972  47.742 -21.935  1.00  0.00     0.016 C 
ENDROOT
BRANCH   1  24
HETATM   24  C7  UNL     1      -2.515  49.708 -23.949  1.00  0.00    -0.007 C 
HETATM   25  C8  UNL     1      -1.728  50.430 -22.850  1.00  0.00     0.011 C 
BRANCH  24  26
HETATM   26  C6  UNL     1      -2.161  50.156 -25.390  1.00  0.00     0.087 C 
BRANCH  26  27
HETATM   27  C5  UNL     1      -1.334  51.420 -25.531  1.00  0.00     0.149 C 
HETATM   28  O1  UNL     1      -1.862  52.525 -25.661  1.00  0.00    -0.293 OA
BRANCH  27  29
HETATM   29  C4  UNL     1       0.152  51.350 -25.656  1.00  0.00     0.052 C 
HETATM   30  C2  UNL     1       0.960  51.508 -26.722  1.00  0.00    -0.084 C 
HETATM   31  C1  UNL     1       0.544  51.733 -28.150  1.00  0.00     0.043 C 
HETATM   32  C3  UNL     1       2.457  51.413 -26.541  1.00  0.00     0.043 C 
ENDBRANCH  27  29
ENDBRANCH  26  27
ENDBRANCH  24  26
ENDBRANCH   1  24
TORSDOF 4
ENDMDL
