MODEL 1
REMARK minimizedAffinity -6.70060301
REMARK CNNscore 0.432531565
REMARK CNNaffinity 5.97873545
REMARK  12 active torsions:
REMARK  status: ('A' for Active; 'I' for Inactive)
REMARK    1  A    between atoms: C4_4  and  C5_5 
REMARK    2  A    between atoms: C5_5  and  C6_6 
REMARK    3  A    between atoms: C6_6  and  C7_7 
REMARK    4  A    between atoms: C7_7  and  C9_9 
REMARK    5  A    between atoms: C17_17  and  C18_18 
REMARK    6  A    between atoms: C18_18  and  O1_20 
REMARK    7  A    between atoms: C18_18  and  C20_21 
REMARK    8  A    between atoms: C20_21  and  O2_22 
REMARK    9  A    between atoms: C21_23  and  C22_24 
REMARK   10  A    between atoms: C22_24  and  C23_25 
REMARK   11  A    between atoms: C23_25  and  C24_26 
REMARK   12  A    between atoms: C24_26  and  O4_28 
ROOT
HETATM    1  C9  UNL     1       3.012  11.577  20.530  1.00  0.00    -0.002 C 
HETATM    2  C10 UNL     1       2.382  12.980  20.401  1.00  0.00     0.006 C 
HETATM    3  C11 UNL     1       3.343  13.943  21.090  1.00  0.00     0.011 C 
HETATM    4  C12 UNL     1       3.912  13.141  22.282  1.00  0.00    -0.032 C 
HETATM    5  C13 UNL     1       2.822  13.063  23.388  1.00  0.00     0.016 C 
HETATM    6  C14 UNL     1       5.198  13.801  22.930  1.00  0.00     0.004 C 
HETATM    7  C15 UNL     1       4.909  15.222  23.450  1.00  0.00     0.007 C 
HETATM    8  C16 UNL     1       6.089  16.163  23.650  1.00  0.00     0.009 C 
HETATM    9  C17 UNL     1       7.480  15.510  23.692  1.00  0.00     0.031 C 
HETATM   10  C21 UNL     1       7.687  14.535  22.485  1.00  0.00    -0.025 A 
HETATM   11  C25 UNL     1       6.934  14.793  21.178  1.00  0.00     0.021 A 
HETATM   12  C26 UNL     1       6.457  13.678  22.075  1.00  0.00    -0.027 A 
HETATM   13  C27 UNL     1       6.686  12.255  21.600  1.00  0.00     0.011 C 
HETATM   14  C28 UNL     1       5.498  11.753  20.805  1.00  0.00     0.011 C 
HETATM   15  C29 UNL     1       4.162  11.729  21.614  1.00  0.00    -0.032 C 
HETATM   16  C30 UNL     1       4.279  10.606  22.657  1.00  0.00     0.016 C 
ENDROOT
BRANCH   1  17
HETATM   17  C7  UNL     1       1.964  10.419  20.521  1.00  0.00    -0.014 C 
HETATM   18  C8  UNL     1       2.179   9.438  21.682  1.00  0.00     0.010 C 
BRANCH  17  19
HETATM   19  C6  UNL     1       0.481  10.818  20.373  1.00  0.00     0.008 C 
BRANCH  19  20
HETATM   20  C5  UNL     1       0.033  10.938  18.909  1.00  0.00     0.028 C 
BRANCH  20  21
HETATM   21  C4  UNL     1      -1.100  11.920  18.766  1.00  0.00    -0.025 C 
HETATM   22  C2  UNL     1      -2.416  11.639  18.700  1.00  0.00    -0.091 C 
HETATM   23  C1  UNL     1      -3.002  10.253  18.707  1.00  0.00     0.042 C 
HETATM   24  C3  UNL     1      -3.435  12.744  18.592  1.00  0.00     0.042 C 
ENDBRANCH  20  21
ENDBRANCH  19  20
ENDBRANCH  17  19
ENDBRANCH   1  17
BRANCH  10  25
HETATM   25  C22 UNL     1       9.054  13.824  22.468  1.00  0.00     0.021 C 
BRANCH  25  26
HETATM   26  C23 UNL     1       9.754  13.793  21.108  1.00  0.00     0.111 C 
BRANCH  26  27
HETATM   27  C24 UNL     1      10.499  12.502  20.918  1.00  0.00     0.139 C 
HETATM   28  O3  UNL     1      11.701  12.349  20.776  1.00  0.00    -0.650 OA
BRANCH  27  29
HETATM   29  O4  UNL     1       9.671  11.436  20.898  1.00  0.00    -0.776 OA
HETATM   30  H41 UNL     1      10.272  10.676  20.759  1.00  0.00     0.167 HD
ENDBRANCH  27  29
ENDBRANCH  26  27
ENDBRANCH  25  26
ENDBRANCH  10  25
BRANCH   9  31
HETATM   31  C18 UNL     1       8.631  16.590  23.907  1.00  0.00     0.080 C 
HETATM   32  C19 UNL     1       9.422  16.980  22.639  1.00  0.00     0.048 C 
BRANCH  31  33
HETATM   33  O1  UNL     1       9.630  16.102  24.818  1.00  0.00    -0.388 OA
HETATM   34  H33 UNL     1      10.096  16.904  25.132  1.00  0.00     0.210 HD
ENDBRANCH  31  33
BRANCH  31  35
HETATM   35  C20 UNL     1       8.038  17.897  24.507  1.00  0.00     0.201 C 
BRANCH  35  36
HETATM   36  O2  UNL     1       8.385  19.005  23.669  1.00  0.00    -0.398 OA
HETATM   37  H36 UNL     1       8.143  19.812  24.158  1.00  0.00     0.209 HD
ENDBRANCH  35  36
ENDBRANCH  31  35
ENDBRANCH   9  31
TORSDOF 12
ENDMDL
MODEL 2
REMARK minimizedAffinity -6.97689056
REMARK CNNscore 0.315930247
REMARK CNNaffinity 6.61582422
REMARK  12 active torsions:
REMARK  status: ('A' for Active; 'I' for Inactive)
REMARK    1  A    between atoms: C4_4  and  C5_5 
REMARK    2  A    between atoms: C5_5  and  C6_6 
REMARK    3  A    between atoms: C6_6  and  C7_7 
REMARK    4  A    between atoms: C7_7  and  C9_9 
REMARK    5  A    between atoms: C17_17  and  C18_18 
REMARK    6  A    between atoms: C18_18  and  O1_20 
REMARK    7  A    between atoms: C18_18  and  C20_21 
REMARK    8  A    between atoms: C20_21  and  O2_22 
REMARK    9  A    between atoms: C21_23  and  C22_24 
REMARK   10  A    between atoms: C22_24  and  C23_25 
REMARK   11  A    between atoms: C23_25  and  C24_26 
REMARK   12  A    between atoms: C24_26  and  O4_28 
ROOT
HETATM    1  C9  UNL     1      -8.029   4.607  14.397  1.00  0.00    -0.002 C 
HETATM    2  C10 UNL     1      -7.674   5.118  15.810  1.00  0.00     0.006 C 
HETATM    3  C11 UNL     1      -8.263   6.521  15.915  1.00  0.00     0.011 C 
HETATM    4  C12 UNL     1      -8.104   7.120  14.499  1.00  0.00    -0.032 C 
HETATM    5  C13 UNL     1      -6.612   7.505  14.292  1.00  0.00     0.016 C 
HETATM    6  C14 UNL     1      -8.967   8.427  14.267  1.00  0.00     0.004 C 
HETATM    7  C15 UNL     1      -8.594   9.541  15.262  1.00  0.00     0.007 C 
HETATM    8  C16 UNL     1      -9.609  10.650  15.507  1.00  0.00     0.009 C 
HETATM    9  C17 UNL     1     -10.738  10.780  14.471  1.00  0.00     0.031 C 
HETATM   10  C21 UNL     1     -11.414   9.396  14.193  1.00  0.00    -0.025 A 
HETATM   11  C25 UNL     1     -11.418   8.330  15.290  1.00  0.00     0.021 A 
HETATM   12  C26 UNL     1     -10.466   8.166  14.133  1.00  0.00    -0.027 A 
HETATM   13  C27 UNL     1     -10.765   7.063  13.135  1.00  0.00     0.011 C 
HETATM   14  C28 UNL     1     -10.073   5.775  13.531  1.00  0.00     0.011 C 
HETATM   15  C29 UNL     1      -8.516   5.888  13.595  1.00  0.00    -0.032 C 
HETATM   16  C30 UNL     1      -8.008   6.031  12.152  1.00  0.00     0.016 C 
ENDROOT
BRANCH   1  17
HETATM   17  C7  UNL     1      -7.017   3.557  13.840  1.00  0.00    -0.014 C 
HETATM   18  C8  UNL     1      -7.684   2.571  12.871  1.00  0.00     0.010 C 
BRANCH  17  19
HETATM   19  C6  UNL     1      -5.683   4.097  13.283  1.00  0.00     0.008 C 
BRANCH  19  20
HETATM   20  C5  UNL     1      -5.368   3.582  11.871  1.00  0.00     0.028 C 
BRANCH  20  21
HETATM   21  C4  UNL     1      -3.894   3.670  11.577  1.00  0.00    -0.025 C 
HETATM   22  C2  UNL     1      -3.019   2.649  11.495  1.00  0.00    -0.091 C 
HETATM   23  C1  UNL     1      -3.358   1.203  11.738  1.00  0.00     0.042 C 
HETATM   24  C3  UNL     1      -1.573   2.899  11.154  1.00  0.00     0.042 C 
ENDBRANCH  20  21
ENDBRANCH  19  20
ENDBRANCH  17  19
ENDBRANCH   1  17
BRANCH  10  25
HETATM   25  C22 UNL     1     -12.545   9.440  13.146  1.00  0.00     0.021 C 
BRANCH  25  26
HETATM   26  C23 UNL     1     -13.925   9.028  13.663  1.00  0.00     0.111 C 
BRANCH  26  27
HETATM   27  C24 UNL     1     -14.813   8.593  12.531  1.00  0.00     0.139 C 
HETATM   28  O3  UNL     1     -15.181   9.256  11.576  1.00  0.00    -0.650 OA
BRANCH  27  29
HETATM   29  O4  UNL     1     -15.220   7.313  12.668  1.00  0.00    -0.776 OA
HETATM   30  H41 UNL     1     -15.790   7.164  11.886  1.00  0.00     0.167 HD
ENDBRANCH  27  29
ENDBRANCH  26  27
ENDBRANCH  25  26
ENDBRANCH  10  25
BRANCH   9  31
HETATM   31  C18 UNL     1     -11.733  11.970  14.831  1.00  0.00     0.080 C 
HETATM   32  C19 UNL     1     -12.668  11.714  16.032  1.00  0.00     0.048 C 
BRANCH  31  33
HETATM   33  O1  UNL     1     -12.621  12.246  13.734  1.00  0.00    -0.388 OA
HETATM   34  H33 UNL     1     -12.953  13.152  13.904  1.00  0.00     0.210 HD
ENDBRANCH  31  33
BRANCH  31  35
HETATM   35  C20 UNL     1     -10.931  13.269  15.132  1.00  0.00     0.201 C 
BRANCH  35  36
HETATM   36  O2  UNL     1     -10.166  13.634  13.977  1.00  0.00    -0.398 OA
HETATM   37  H36 UNL     1      -9.561  14.344  14.255  1.00  0.00     0.209 HD
ENDBRANCH  35  36
ENDBRANCH  31  35
ENDBRANCH   9  31
TORSDOF 12
ENDMDL
MODEL 3
REMARK minimizedAffinity -6.25597143
REMARK CNNscore 0.309083551
REMARK CNNaffinity 6.15182924
REMARK  12 active torsions:
REMARK  status: ('A' for Active; 'I' for Inactive)
REMARK    1  A    between atoms: C4_4  and  C5_5 
REMARK    2  A    between atoms: C5_5  and  C6_6 
REMARK    3  A    between atoms: C6_6  and  C7_7 
REMARK    4  A    between atoms: C7_7  and  C9_9 
REMARK    5  A    between atoms: C17_17  and  C18_18 
REMARK    6  A    between atoms: C18_18  and  O1_20 
REMARK    7  A    between atoms: C18_18  and  C20_21 
REMARK    8  A    between atoms: C20_21  and  O2_22 
REMARK    9  A    between atoms: C21_23  and  C22_24 
REMARK   10  A    between atoms: C22_24  and  C23_25 
REMARK   11  A    between atoms: C23_25  and  C24_26 
REMARK   12  A    between atoms: C24_26  and  O4_28 
ROOT
HETATM    1  C9  UNL     1      -1.068   6.888  13.167  1.00  0.00    -0.002 C 
HETATM    2  C10 UNL     1      -1.939   6.163  14.215  1.00  0.00     0.006 C 
HETATM    3  C11 UNL     1      -2.373   7.228  15.217  1.00  0.00     0.011 C 
HETATM    4  C12 UNL     1      -1.163   8.183  15.321  1.00  0.00    -0.032 C 
HETATM    5  C13 UNL     1      -0.061   7.492  16.173  1.00  0.00     0.016 C 
HETATM    6  C14 UNL     1      -1.506   9.562  16.020  1.00  0.00     0.004 C 
HETATM    7  C15 UNL     1      -2.034   9.359  17.453  1.00  0.00     0.007 C 
HETATM    8  C16 UNL     1      -2.847  10.483  18.081  1.00  0.00     0.009 C 
HETATM    9  C17 UNL     1      -2.746  11.858  17.400  1.00  0.00     0.031 C 
HETATM   10  C21 UNL     1      -2.970  11.744  15.855  1.00  0.00    -0.025 A 
HETATM   11  C25 UNL     1      -3.842  10.612  15.307  1.00  0.00     0.021 A 
HETATM   12  C26 UNL     1      -2.345  10.504  15.158  1.00  0.00    -0.027 A 
HETATM   13  C27 UNL     1      -1.769  10.663  13.764  1.00  0.00     0.011 C 
HETATM   14  C28 UNL     1      -1.660   9.322  13.068  1.00  0.00     0.011 C 
HETATM   15  C29 UNL     1      -0.733   8.303  13.803  1.00  0.00    -0.032 C 
HETATM   16  C30 UNL     1       0.712   8.803  13.647  1.00  0.00     0.016 C 
ENDROOT
BRANCH   1  17
HETATM   17  C7  UNL     1      -0.013   5.961  12.484  1.00  0.00    -0.014 C 
HETATM   18  C8  UNL     1      -0.231   4.483  12.834  1.00  0.00     0.010 C 
BRANCH  17  19
HETATM   19  C6  UNL     1       0.224   6.165  10.973  1.00  0.00     0.008 C 
BRANCH  19  20
HETATM   20  C5  UNL     1       1.575   6.821  10.658  1.00  0.00     0.028 C 
BRANCH  20  21
HETATM   21  C4  UNL     1       1.913   6.697   9.196  1.00  0.00    -0.025 C 
HETATM   22  C2  UNL     1       1.420   7.434   8.182  1.00  0.00    -0.091 C 
HETATM   23  C1  UNL     1       0.377   8.508   8.327  1.00  0.00     0.042 C 
HETATM   24  C3  UNL     1       1.889   7.209   6.768  1.00  0.00     0.042 C 
ENDBRANCH  20  21
ENDBRANCH  19  20
ENDBRANCH  17  19
ENDBRANCH   1  17
BRANCH  10  25
HETATM   25  C22 UNL     1      -2.864  13.082  15.096  1.00  0.00     0.021 C 
BRANCH  25  26
HETATM   26  C23 UNL     1      -1.670  13.956  15.485  1.00  0.00     0.111 C 
BRANCH  26  27
HETATM   27  C24 UNL     1      -0.544  13.793  14.502  1.00  0.00     0.139 C 
HETATM   28  O3  UNL     1       0.601  13.442  14.732  1.00  0.00    -0.650 OA
BRANCH  27  29
HETATM   29  O4  UNL     1      -0.920  14.104  13.243  1.00  0.00    -0.776 OA
HETATM   30  H41 UNL     1      -0.106  13.968  12.716  1.00  0.00     0.167 HD
ENDBRANCH  27  29
ENDBRANCH  26  27
ENDBRANCH  25  26
ENDBRANCH  10  25
BRANCH   9  31
HETATM   31  C18 UNL     1      -3.635  12.950  18.144  1.00  0.00     0.080 C 
HETATM   32  C19 UNL     1      -4.409  12.447  19.381  1.00  0.00     0.048 C 
BRANCH  31  33
HETATM   33  O1  UNL     1      -4.651  13.468  17.268  1.00  0.00    -0.388 OA
HETATM   34  H33 UNL     1      -4.921  14.318  17.673  1.00  0.00     0.210 HD
ENDBRANCH  31  33
BRANCH  31  35
HETATM   35  C20 UNL     1      -2.748  14.144  18.601  1.00  0.00     0.201 C 
BRANCH  35  36
HETATM   36  O2  UNL     1      -3.139  14.548  19.919  1.00  0.00    -0.398 OA
HETATM   37  H36 UNL     1      -2.683  15.389  20.101  1.00  0.00     0.209 HD
ENDBRANCH  35  36
ENDBRANCH  31  35
ENDBRANCH   9  31
TORSDOF 12
ENDMDL
MODEL 4
REMARK minimizedAffinity -8.48425293
REMARK CNNscore 0.298998713
REMARK CNNaffinity 6.87798691
REMARK  12 active torsions:
REMARK  status: ('A' for Active; 'I' for Inactive)
REMARK    1  A    between atoms: C4_4  and  C5_5 
REMARK    2  A    between atoms: C5_5  and  C6_6 
REMARK    3  A    between atoms: C6_6  and  C7_7 
REMARK    4  A    between atoms: C7_7  and  C9_9 
REMARK    5  A    between atoms: C17_17  and  C18_18 
REMARK    6  A    between atoms: C18_18  and  O1_20 
REMARK    7  A    between atoms: C18_18  and  C20_21 
REMARK    8  A    between atoms: C20_21  and  O2_22 
REMARK    9  A    between atoms: C21_23  and  C22_24 
REMARK   10  A    between atoms: C22_24  and  C23_25 
REMARK   11  A    between atoms: C23_25  and  C24_26 
REMARK   12  A    between atoms: C24_26  and  O4_28 
ROOT
HETATM    1  C9  UNL     1      -3.441   7.365  15.271  1.00  0.00    -0.002 C 
HETATM    2  C10 UNL     1      -3.085   5.904  15.619  1.00  0.00     0.006 C 
HETATM    3  C11 UNL     1      -2.007   5.482  14.627  1.00  0.00     0.011 C 
HETATM    4  C12 UNL     1      -2.384   6.197  13.310  1.00  0.00    -0.032 C 
HETATM    5  C13 UNL     1      -3.593   5.454  12.675  1.00  0.00     0.016 C 
HETATM    6  C14 UNL     1      -1.218   6.204  12.239  1.00  0.00     0.004 C 
HETATM    7  C15 UNL     1      -0.785   4.776  11.858  1.00  0.00     0.007 C 
HETATM    8  C16 UNL     1       0.596   4.588  11.243  1.00  0.00     0.009 C 
HETATM    9  C17 UNL     1       1.276   5.855  10.698  1.00  0.00     0.031 C 
HETATM   10  C21 UNL     1       1.239   7.014  11.749  1.00  0.00    -0.025 A 
HETATM   11  C25 UNL     1       1.200   6.672  13.240  1.00  0.00     0.021 A 
HETATM   12  C26 UNL     1      -0.068   7.151  12.578  1.00  0.00    -0.027 A 
HETATM   13  C27 UNL     1      -0.562   8.539  12.939  1.00  0.00     0.011 C 
HETATM   14  C28 UNL     1      -1.520   8.484  14.112  1.00  0.00     0.011 C 
HETATM   15  C29 UNL     1      -2.798   7.628  13.843  1.00  0.00    -0.032 C 
HETATM   16  C30 UNL     1      -3.660   8.398  12.830  1.00  0.00     0.016 C 
ENDROOT
BRANCH   1  17
HETATM   17  C7  UNL     1      -4.900   7.762  15.661  1.00  0.00    -0.014 C 
HETATM   18  C8  UNL     1      -5.388   8.997  14.890  1.00  0.00     0.010 C 
BRANCH  17  19
HETATM   19  C6  UNL     1      -5.955   6.635  15.667  1.00  0.00     0.008 C 
BRANCH  19  20
HETATM   20  C5  UNL     1      -6.646   6.450  14.309  1.00  0.00     0.028 C 
BRANCH  20  21
HETATM   21  C4  UNL     1      -6.889   4.993  14.016  1.00  0.00    -0.025 C 
HETATM   22  C2  UNL     1      -7.669   4.477  13.047  1.00  0.00    -0.091 C 
HETATM   23  C1  UNL     1      -8.501   5.287  12.090  1.00  0.00     0.042 C 
HETATM   24  C3  UNL     1      -7.781   2.987  12.859  1.00  0.00     0.042 C 
ENDBRANCH  20  21
ENDBRANCH  19  20
ENDBRANCH  17  19
ENDBRANCH   1  17
BRANCH  10  25
HETATM   25  C22 UNL     1       1.885   8.329  11.269  1.00  0.00     0.021 C 
BRANCH  25  26
HETATM   26  C23 UNL     1       2.425   9.232  12.381  1.00  0.00     0.111 C 
BRANCH  26  27
HETATM   27  C24 UNL     1       3.905   9.036  12.558  1.00  0.00     0.139 C 
HETATM   28  O3  UNL     1       4.478   8.498  13.491  1.00  0.00    -0.650 OA
BRANCH  27  29
HETATM   29  O4  UNL     1       4.612   9.556  11.533  1.00  0.00    -0.776 OA
HETATM   30  H41 UNL     1       5.543   9.374  11.776  1.00  0.00     0.167 HD
ENDBRANCH  27  29
ENDBRANCH  26  27
ENDBRANCH  25  26
ENDBRANCH  10  25
BRANCH   9  31
HETATM   31  C18 UNL     1       2.708   5.535  10.080  1.00  0.00     0.080 C 
HETATM   32  C19 UNL     1       2.931   6.024   8.633  1.00  0.00     0.048 C 
BRANCH  31  33
HETATM   33  O1  UNL     1       2.937   4.117  10.021  1.00  0.00    -0.388 OA
HETATM   34  H33 UNL     1       3.909   4.023   9.944  1.00  0.00     0.210 HD
ENDBRANCH  31  33
BRANCH  31  35
HETATM   35  C20 UNL     1       3.827   6.161  10.962  1.00  0.00     0.201 C 
BRANCH  35  36
HETATM   36  O2  UNL     1       5.096   5.623  10.571  1.00  0.00    -0.398 OA
HETATM   37  H36 UNL     1       5.739   5.908  11.244  1.00  0.00     0.209 HD
ENDBRANCH  35  36
ENDBRANCH  31  35
ENDBRANCH   9  31
TORSDOF 12
ENDMDL
MODEL 5
REMARK minimizedAffinity -8.65011597
REMARK CNNscore 0.234116971
REMARK CNNaffinity 6.86804819
REMARK  12 active torsions:
REMARK  status: ('A' for Active; 'I' for Inactive)
REMARK    1  A    between atoms: C4_4  and  C5_5 
REMARK    2  A    between atoms: C5_5  and  C6_6 
REMARK    3  A    between atoms: C6_6  and  C7_7 
REMARK    4  A    between atoms: C7_7  and  C9_9 
REMARK    5  A    between atoms: C17_17  and  C18_18 
REMARK    6  A    between atoms: C18_18  and  O1_20 
REMARK    7  A    between atoms: C18_18  and  C20_21 
REMARK    8  A    between atoms: C20_21  and  O2_22 
REMARK    9  A    between atoms: C21_23  and  C22_24 
REMARK   10  A    between atoms: C22_24  and  C23_25 
REMARK   11  A    between atoms: C23_25  and  C24_26 
REMARK   12  A    between atoms: C24_26  and  O4_28 
ROOT
HETATM    1  C9  UNL     1       0.658   6.977  13.241  1.00  0.00    -0.002 C 
HETATM    2  C10 UNL     1       0.289   7.985  14.350  1.00  0.00     0.006 C 
HETATM    3  C11 UNL     1      -1.228   7.919  14.496  1.00  0.00     0.011 C 
HETATM    4  C12 UNL     1      -1.749   7.684  13.061  1.00  0.00    -0.032 C 
HETATM    5  C13 UNL     1      -1.645   9.021  12.273  1.00  0.00     0.016 C 
HETATM    6  C14 UNL     1      -3.262   7.221  13.007  1.00  0.00     0.004 C 
HETATM    7  C15 UNL     1      -4.199   8.258  13.653  1.00  0.00     0.007 C 
HETATM    8  C16 UNL     1      -5.571   7.789  14.121  1.00  0.00     0.009 C 
HETATM    9  C17 UNL     1      -6.054   6.438  13.566  1.00  0.00     0.031 C 
HETATM   10  C21 UNL     1      -4.954   5.335  13.724  1.00  0.00    -0.025 A 
HETATM   11  C25 UNL     1      -3.942   5.446  14.866  1.00  0.00     0.021 A 
HETATM   12  C26 UNL     1      -3.488   5.782  13.467  1.00  0.00    -0.027 A 
HETATM   13  C27 UNL     1      -2.538   4.812  12.790  1.00  0.00     0.011 C 
HETATM   14  C28 UNL     1      -1.096   5.195  13.055  1.00  0.00     0.011 C 
HETATM   15  C29 UNL     1      -0.713   6.614  12.527  1.00  0.00    -0.032 C 
HETATM   16  C30 UNL     1      -0.692   6.541  10.992  1.00  0.00     0.016 C 
ENDROOT
BRANCH   1  17
HETATM   17  C7  UNL     1       1.972   7.340  12.480  1.00  0.00    -0.014 C 
HETATM   18  C8  UNL     1       2.855   8.305  13.283  1.00  0.00     0.010 C 
BRANCH  17  19
HETATM   19  C6  UNL     1       2.788   6.169  11.894  1.00  0.00     0.008 C 
BRANCH  19  20
HETATM   20  C5  UNL     1       3.997   6.631  11.067  1.00  0.00     0.028 C 
BRANCH  20  21
HETATM   21  C4  UNL     1       3.579   7.583   9.978  1.00  0.00    -0.025 C 
HETATM   22  C2  UNL     1       3.035   7.269   8.787  1.00  0.00    -0.091 C 
HETATM   23  C1  UNL     1       2.787   5.867   8.297  1.00  0.00     0.042 C 
HETATM   24  C3  UNL     1       2.636   8.347   7.813  1.00  0.00     0.042 C 
ENDBRANCH  20  21
ENDBRANCH  19  20
ENDBRANCH  17  19
ENDBRANCH   1  17
BRANCH  10  25
HETATM   25  C22 UNL     1      -5.355   3.953  13.171  1.00  0.00     0.021 C 
BRANCH  25  26
HETATM   26  C23 UNL     1      -6.636   3.935  12.334  1.00  0.00     0.111 C 
BRANCH  26  27
HETATM   27  C24 UNL     1      -7.098   2.525  12.093  1.00  0.00     0.139 C 
HETATM   28  O3  UNL     1      -6.413   1.552  11.823  1.00  0.00    -0.650 OA
BRANCH  27  29
HETATM   29  O4  UNL     1      -8.439   2.407  12.188  1.00  0.00    -0.776 OA
HETATM   30  H41 UNL     1      -8.604   1.460  12.001  1.00  0.00     0.167 HD
ENDBRANCH  27  29
ENDBRANCH  26  27
ENDBRANCH  25  26
ENDBRANCH  10  25
BRANCH   9  31
HETATM   31  C18 UNL     1      -7.496   6.055  14.121  1.00  0.00     0.080 C 
HETATM   32  C19 UNL     1      -8.552   5.713  13.048  1.00  0.00     0.048 C 
BRANCH  31  33
HETATM   33  O1  UNL     1      -8.070   7.148  14.857  1.00  0.00    -0.388 OA
HETATM   34  H33 UNL     1      -8.767   6.738  15.410  1.00  0.00     0.210 HD
ENDBRANCH  31  33
BRANCH  31  35
HETATM   35  C20 UNL     1      -7.395   4.835  15.082  1.00  0.00     0.201 C 
BRANCH  35  36
HETATM   36  O2  UNL     1      -8.314   5.009  16.167  1.00  0.00    -0.398 OA
HETATM   37  H36 UNL     1      -8.105   4.320  16.823  1.00  0.00     0.209 HD
ENDBRANCH  35  36
ENDBRANCH  31  35
ENDBRANCH   9  31
TORSDOF 12
ENDMDL
MODEL 6
REMARK minimizedAffinity -7.61593866
REMARK CNNscore 0.230465636
REMARK CNNaffinity 6.53323221
REMARK  12 active torsions:
REMARK  status: ('A' for Active; 'I' for Inactive)
REMARK    1  A    between atoms: C4_4  and  C5_5 
REMARK    2  A    between atoms: C5_5  and  C6_6 
REMARK    3  A    between atoms: C6_6  and  C7_7 
REMARK    4  A    between atoms: C7_7  and  C9_9 
REMARK    5  A    between atoms: C17_17  and  C18_18 
REMARK    6  A    between atoms: C18_18  and  O1_20 
REMARK    7  A    between atoms: C18_18  and  C20_21 
REMARK    8  A    between atoms: C20_21  and  O2_22 
REMARK    9  A    between atoms: C21_23  and  C22_24 
REMARK   10  A    between atoms: C22_24  and  C23_25 
REMARK   11  A    between atoms: C23_25  and  C24_26 
REMARK   12  A    between atoms: C24_26  and  O4_28 
ROOT
HETATM    1  C9  UNL     1      -2.907   6.646  14.642  1.00  0.00    -0.002 C 
HETATM    2  C10 UNL     1      -3.338   6.195  13.230  1.00  0.00     0.006 C 
HETATM    3  C11 UNL     1      -2.159   6.496  12.310  1.00  0.00     0.011 C 
HETATM    4  C12 UNL     1      -1.552   7.803  12.867  1.00  0.00    -0.032 C 
HETATM    5  C13 UNL     1      -2.476   8.987  12.463  1.00  0.00     0.016 C 
HETATM    6  C14 UNL     1      -0.106   8.117  12.303  1.00  0.00     0.004 C 
HETATM    7  C15 UNL     1      -0.109   8.250  10.769  1.00  0.00     0.007 C 
HETATM    8  C16 UNL     1       1.212   8.068  10.033  1.00  0.00     0.009 C 
HETATM    9  C17 UNL     1       2.486   8.156  10.890  1.00  0.00     0.031 C 
HETATM   10  C21 UNL     1       2.376   7.251  12.163  1.00  0.00    -0.025 A 
HETATM   11  C25 UNL     1       1.493   6.002  12.119  1.00  0.00     0.021 A 
HETATM   12  C26 UNL     1       0.990   7.213  12.864  1.00  0.00    -0.027 A 
HETATM   13  C27 UNL     1       0.940   7.130  14.378  1.00  0.00     0.011 C 
HETATM   14  C28 UNL     1      -0.408   6.622  14.847  1.00  0.00     0.011 C 
HETATM   15  C29 UNL     1      -1.607   7.530  14.424  1.00  0.00    -0.032 C 
HETATM   16  C30 UNL     1      -1.510   8.826  15.245  1.00  0.00     0.016 C 
ENDROOT
BRANCH   1  17
HETATM   17  C7  UNL     1      -4.103   7.057  15.558  1.00  0.00    -0.014 C 
HETATM   18  C8  UNL     1      -4.499   8.527  15.364  1.00  0.00     0.010 C 
BRANCH  17  19
HETATM   19  C6  UNL     1      -5.334   6.126  15.562  1.00  0.00     0.008 C 
BRANCH  19  20
HETATM   20  C5  UNL     1      -6.611   6.814  15.060  1.00  0.00     0.028 C 
BRANCH  20  21
HETATM   21  C4  UNL     1      -7.087   6.203  13.768  1.00  0.00    -0.025 C 
HETATM   22  C2  UNL     1      -8.349   6.173  13.299  1.00  0.00    -0.091 C 
HETATM   23  C1  UNL     1      -9.550   6.715  14.025  1.00  0.00     0.042 C 
HETATM   24  C3  UNL     1      -8.659   5.551  11.962  1.00  0.00     0.042 C 
ENDBRANCH  20  21
ENDBRANCH  19  20
ENDBRANCH  17  19
ENDBRANCH   1  17
BRANCH  10  25
HETATM   25  C22 UNL     1       3.609   7.300  13.087  1.00  0.00     0.021 C 
BRANCH  25  26
HETATM   26  C23 UNL     1       3.858   8.648  13.767  1.00  0.00     0.111 C 
BRANCH  26  27
HETATM   27  C24 UNL     1       4.560   8.462  15.083  1.00  0.00     0.139 C 
HETATM   28  O3  UNL     1       5.290   9.253  15.656  1.00  0.00    -0.650 OA
BRANCH  27  29
HETATM   29  O4  UNL     1       4.316   7.249  15.621  1.00  0.00    -0.776 OA
HETATM   30  H41 UNL     1       4.832   7.254  16.454  1.00  0.00     0.167 HD
ENDBRANCH  27  29
ENDBRANCH  26  27
ENDBRANCH  25  26
ENDBRANCH  10  25
BRANCH   9  31
HETATM   31  C18 UNL     1       3.800   7.953  10.015  1.00  0.00     0.080 C 
HETATM   32  C19 UNL     1       4.973   8.900  10.346  1.00  0.00     0.048 C 
BRANCH  31  33
HETATM   33  O1  UNL     1       3.530   8.186   8.622  1.00  0.00    -0.388 OA
HETATM   34  H33 UNL     1       4.264   7.742   8.148  1.00  0.00     0.210 HD
ENDBRANCH  31  33
BRANCH  31  35
HETATM   35  C20 UNL     1       4.323   6.494  10.160  1.00  0.00     0.201 C 
BRANCH  35  36
HETATM   36  O2  UNL     1       3.794   5.692   9.098  1.00  0.00    -0.398 OA
HETATM   37  H36 UNL     1       4.005   4.766   9.315  1.00  0.00     0.209 HD
ENDBRANCH  35  36
ENDBRANCH  31  35
ENDBRANCH   9  31
TORSDOF 12
ENDMDL
MODEL 7
REMARK minimizedAffinity -8.76539707
REMARK CNNscore 0.213846713
REMARK CNNaffinity 6.85364962
REMARK  12 active torsions:
REMARK  status: ('A' for Active; 'I' for Inactive)
REMARK    1  A    between atoms: C4_4  and  C5_5 
REMARK    2  A    between atoms: C5_5  and  C6_6 
REMARK    3  A    between atoms: C6_6  and  C7_7 
REMARK    4  A    between atoms: C7_7  and  C9_9 
REMARK    5  A    between atoms: C17_17  and  C18_18 
REMARK    6  A    between atoms: C18_18  and  O1_20 
REMARK    7  A    between atoms: C18_18  and  C20_21 
REMARK    8  A    between atoms: C20_21  and  O2_22 
REMARK    9  A    between atoms: C21_23  and  C22_24 
REMARK   10  A    between atoms: C22_24  and  C23_25 
REMARK   11  A    between atoms: C23_25  and  C24_26 
REMARK   12  A    between atoms: C24_26  and  O4_28 
ROOT
HETATM    1  C9  UNL     1      -0.875   6.577  14.209  1.00  0.00    -0.002 C 
HETATM    2  C10 UNL     1      -1.093   7.758  15.180  1.00  0.00     0.006 C 
HETATM    3  C11 UNL     1      -2.603   7.939  15.294  1.00  0.00     0.011 C 
HETATM    4  C12 UNL     1      -3.145   7.610  13.885  1.00  0.00    -0.032 C 
HETATM    5  C13 UNL     1      -2.833   8.809  12.945  1.00  0.00     0.016 C 
HETATM    6  C14 UNL     1      -4.711   7.376  13.851  1.00  0.00     0.004 C 
HETATM    7  C15 UNL     1      -5.483   8.614  14.343  1.00  0.00     0.007 C 
HETATM    8  C16 UNL     1      -6.913   8.417  14.829  1.00  0.00     0.009 C 
HETATM    9  C17 UNL     1      -7.592   7.097  14.430  1.00  0.00     0.031 C 
HETATM   10  C21 UNL     1      -6.674   5.869  14.748  1.00  0.00    -0.025 A 
HETATM   11  C25 UNL     1      -5.664   5.966  15.892  1.00  0.00     0.021 A 
HETATM   12  C26 UNL     1      -5.156   6.055  14.475  1.00  0.00    -0.027 A 
HETATM   13  C27 UNL     1      -4.360   4.878  13.945  1.00  0.00     0.011 C 
HETATM   14  C28 UNL     1      -2.878   5.070  14.197  1.00  0.00     0.011 C 
HETATM   15  C29 UNL     1      -2.281   6.339  13.511  1.00  0.00    -0.032 C 
HETATM   16  C30 UNL     1      -2.261   6.075  11.997  1.00  0.00     0.016 C 
ENDROOT
BRANCH   1  17
HETATM   17  C7  UNL     1       0.485   6.642  13.444  1.00  0.00    -0.014 C 
HETATM   18  C8  UNL     1       1.620   7.175  14.329  1.00  0.00     0.010 C 
BRANCH  17  19
HETATM   19  C6  UNL     1       0.909   5.381  12.662  1.00  0.00     0.008 C 
BRANCH  19  20
HETATM   20  C5  UNL     1       1.599   5.702  11.329  1.00  0.00     0.028 C 
BRANCH  20  21
HETATM   21  C4  UNL     1       0.852   6.770  10.574  1.00  0.00    -0.025 C 
HETATM   22  C2  UNL     1       1.140   7.253   9.350  1.00  0.00    -0.091 C 
HETATM   23  C1  UNL     1       2.321   6.835   8.516  1.00  0.00     0.042 C 
HETATM   24  C3  UNL     1       0.270   8.303   8.712  1.00  0.00     0.042 C 
ENDBRANCH  20  21
ENDBRANCH  19  20
ENDBRANCH  17  19
ENDBRANCH   1  17
BRANCH  10  25
HETATM   25  C22 UNL     1      -7.277   4.505  14.356  1.00  0.00     0.021 C 
BRANCH  25  26
HETATM   26  C23 UNL     1      -7.558   4.324  12.863  1.00  0.00     0.111 C 
BRANCH  26  27
HETATM   27  C24 UNL     1      -7.156   2.949  12.406  1.00  0.00     0.139 C 
HETATM   28  O3  UNL     1      -6.132   2.625  11.827  1.00  0.00    -0.650 OA
BRANCH  27  29
HETATM   29  O4  UNL     1      -8.096   2.024  12.693  1.00  0.00    -0.776 OA
HETATM   30  H41 UNL     1      -7.721   1.192  12.339  1.00  0.00     0.167 HD
ENDBRANCH  27  29
ENDBRANCH  26  27
ENDBRANCH  25  26
ENDBRANCH  10  25
BRANCH   9  31
HETATM   31  C18 UNL     1      -9.079   7.005  14.991  1.00  0.00     0.080 C 
HETATM   32  C19 UNL     1      -9.596   8.268  15.714  1.00  0.00     0.048 C 
BRANCH  31  33
HETATM   33  O1  UNL     1      -9.196   5.957  15.968  1.00  0.00    -0.388 OA
HETATM   34  H33 UNL     1     -10.155   5.763  16.013  1.00  0.00     0.210 HD
ENDBRANCH  31  33
BRANCH  31  35
HETATM   35  C20 UNL     1     -10.072   6.690  13.835  1.00  0.00     0.201 C 
BRANCH  35  36
HETATM   36  O2  UNL     1     -11.361   6.391  14.384  1.00  0.00    -0.398 OA
HETATM   37  H36 UNL     1     -11.902   6.042  13.654  1.00  0.00     0.209 HD
ENDBRANCH  35  36
ENDBRANCH  31  35
ENDBRANCH   9  31
TORSDOF 12
ENDMDL
MODEL 8
REMARK minimizedAffinity -7.23788023
REMARK CNNscore 0.199572191
REMARK CNNaffinity 6.08608198
REMARK  12 active torsions:
REMARK  status: ('A' for Active; 'I' for Inactive)
REMARK    1  A    between atoms: C4_4  and  C5_5 
REMARK    2  A    between atoms: C5_5  and  C6_6 
REMARK    3  A    between atoms: C6_6  and  C7_7 
REMARK    4  A    between atoms: C7_7  and  C9_9 
REMARK    5  A    between atoms: C17_17  and  C18_18 
REMARK    6  A    between atoms: C18_18  and  O1_20 
REMARK    7  A    between atoms: C18_18  and  C20_21 
REMARK    8  A    between atoms: C20_21  and  O2_22 
REMARK    9  A    between atoms: C21_23  and  C22_24 
REMARK   10  A    between atoms: C22_24  and  C23_25 
REMARK   11  A    between atoms: C23_25  and  C24_26 
REMARK   12  A    between atoms: C24_26  and  O4_28 
ROOT
HETATM    1  C9  UNL     1      -0.028  10.111  17.105  1.00  0.00    -0.002 C 
HETATM    2  C10 UNL     1      -1.200   9.164  16.771  1.00  0.00     0.006 C 
HETATM    3  C11 UNL     1      -0.987   8.716  15.329  1.00  0.00     0.011 C 
HETATM    4  C12 UNL     1      -0.386   9.950  14.621  1.00  0.00    -0.032 C 
HETATM    5  C13 UNL     1      -1.523  10.984  14.382  1.00  0.00     0.016 C 
HETATM    6  C14 UNL     1       0.256   9.618  13.211  1.00  0.00     0.004 C 
HETATM    7  C15 UNL     1      -0.777   9.013  12.243  1.00  0.00     0.007 C 
HETATM    8  C16 UNL     1      -0.259   8.207  11.059  1.00  0.00     0.009 C 
HETATM    9  C17 UNL     1       1.227   8.389  10.710  1.00  0.00     0.031 C 
HETATM   10  C21 UNL     1       2.130   8.239  11.980  1.00  0.00    -0.025 A 
HETATM   11  C25 UNL     1       1.655   7.359  13.137  1.00  0.00     0.021 A 
HETATM   12  C26 UNL     1       1.578   8.857  13.294  1.00  0.00    -0.027 A 
HETATM   13  C27 UNL     1       2.550   9.508  14.260  1.00  0.00     0.011 C 
HETATM   14  C28 UNL     1       1.949   9.607  15.647  1.00  0.00     0.011 C 
HETATM   15  C29 UNL     1       0.643  10.461  15.709  1.00  0.00    -0.032 C 
HETATM   16  C30 UNL     1       1.043  11.927  15.487  1.00  0.00     0.016 C 
ENDROOT
BRANCH   1  17
HETATM   17  C7  UNL     1      -0.372  11.167  18.202  1.00  0.00    -0.014 C 
HETATM   18  C8  UNL     1      -1.830  11.638  18.112  1.00  0.00     0.010 C 
BRANCH  17  19
HETATM   19  C6  UNL     1       0.034  10.829  19.652  1.00  0.00     0.008 C 
BRANCH  19  20
HETATM   20  C5  UNL     1       1.554  10.790  19.858  1.00  0.00     0.028 C 
BRANCH  20  21
HETATM   21  C4  UNL     1       1.911  10.110  21.154  1.00  0.00    -0.025 C 
HETATM   22  C2  UNL     1       3.113  10.096  21.762  1.00  0.00    -0.091 C 
HETATM   23  C1  UNL     1       4.361  10.732  21.214  1.00  0.00     0.042 C 
HETATM   24  C3  UNL     1       3.300   9.395  23.082  1.00  0.00     0.042 C 
ENDBRANCH  20  21
ENDBRANCH  19  20
ENDBRANCH  17  19
ENDBRANCH   1  17
BRANCH  10  25
HETATM   25  C22 UNL     1       3.637   8.429  11.715  1.00  0.00     0.021 C 
BRANCH  25  26
HETATM   26  C23 UNL     1       4.524   7.257  12.139  1.00  0.00     0.111 C 
BRANCH  26  27
HETATM   27  C24 UNL     1       5.414   6.823  11.008  1.00  0.00     0.139 C 
HETATM   28  O3  UNL     1       6.298   7.466  10.466  1.00  0.00    -0.650 OA
BRANCH  27  29
HETATM   29  O4  UNL     1       5.130   5.571  10.591  1.00  0.00    -0.776 OA
HETATM   30  H41 UNL     1       5.762   5.420   9.858  1.00  0.00     0.167 HD
ENDBRANCH  27  29
ENDBRANCH  26  27
ENDBRANCH  25  26
ENDBRANCH  10  25
BRANCH   9  31
HETATM   31  C18 UNL     1       1.651   7.500   9.458  1.00  0.00     0.080 C 
HETATM   32  C19 UNL     1       2.962   7.919   8.759  1.00  0.00     0.048 C 
BRANCH  31  33
HETATM   33  O1  UNL     1       0.656   7.563   8.423  1.00  0.00    -0.388 OA
HETATM   34  H33 UNL     1       0.825   6.776   7.865  1.00  0.00     0.210 HD
ENDBRANCH  31  33
BRANCH  31  35
HETATM   35  C20 UNL     1       1.804   6.011   9.883  1.00  0.00     0.201 C 
BRANCH  35  36
HETATM   36  O2  UNL     1       2.710   5.353   8.989  1.00  0.00    -0.398 OA
HETATM   37  H36 UNL     1       2.651   4.400   9.183  1.00  0.00     0.209 HD
ENDBRANCH  35  36
ENDBRANCH  31  35
ENDBRANCH   9  31
TORSDOF 12
ENDMDL
MODEL 9
REMARK minimizedAffinity -6.21952105
REMARK CNNscore 0.183701977
REMARK CNNaffinity 6.11148024
REMARK  12 active torsions:
REMARK  status: ('A' for Active; 'I' for Inactive)
REMARK    1  A    between atoms: C4_4  and  C5_5 
REMARK    2  A    between atoms: C5_5  and  C6_6 
REMARK    3  A    between atoms: C6_6  and  C7_7 
REMARK    4  A    between atoms: C7_7  and  C9_9 
REMARK    5  A    between atoms: C17_17  and  C18_18 
REMARK    6  A    between atoms: C18_18  and  O1_20 
REMARK    7  A    between atoms: C18_18  and  C20_21 
REMARK    8  A    between atoms: C20_21  and  O2_22 
REMARK    9  A    between atoms: C21_23  and  C22_24 
REMARK   10  A    between atoms: C22_24  and  C23_25 
REMARK   11  A    between atoms: C23_25  and  C24_26 
REMARK   12  A    between atoms: C24_26  and  O4_28 
ROOT
HETATM    1  C9  UNL     1      -0.763   9.589  16.668  1.00  0.00    -0.002 C 
HETATM    2  C10 UNL     1      -1.496   8.289  16.274  1.00  0.00     0.006 C 
HETATM    3  C11 UNL     1      -0.939   7.883  14.913  1.00  0.00     0.011 C 
HETATM    4  C12 UNL     1      -0.682   9.220  14.181  1.00  0.00    -0.032 C 
HETATM    5  C13 UNL     1      -2.048   9.797  13.715  1.00  0.00     0.016 C 
HETATM    6  C14 UNL     1       0.232   9.069  12.897  1.00  0.00     0.004 C 
HETATM    7  C15 UNL     1      -0.390   8.112  11.863  1.00  0.00     0.007 C 
HETATM    8  C16 UNL     1       0.531   7.483  10.826  1.00  0.00     0.009 C 
HETATM    9  C17 UNL     1       1.908   8.143  10.650  1.00  0.00     0.031 C 
HETATM   10  C21 UNL     1       2.614   8.359  12.031  1.00  0.00    -0.025 A 
HETATM   11  C25 UNL     1       2.292   7.416  13.192  1.00  0.00     0.021 A 
HETATM   12  C26 UNL     1       1.704   8.804  13.208  1.00  0.00    -0.027 A 
HETATM   13  C27 UNL     1       2.255   9.783  14.227  1.00  0.00     0.011 C 
HETATM   14  C28 UNL     1       1.460   9.728  15.515  1.00  0.00     0.011 C 
HETATM   15  C29 UNL     1      -0.049  10.090  15.341  1.00  0.00    -0.032 C 
HETATM   16  C30 UNL     1      -0.127  11.596  15.045  1.00  0.00     0.016 C 
ENDROOT
BRANCH   1  17
HETATM   17  C7  UNL     1      -1.592  10.509  17.619  1.00  0.00    -0.014 C 
HETATM   18  C8  UNL     1      -3.084  10.150  17.612  1.00  0.00     0.010 C 
BRANCH  17  19
HETATM   19  C6  UNL     1      -1.054  10.702  19.052  1.00  0.00     0.008 C 
BRANCH  19  20
HETATM   20  C5  UNL     1      -0.304  12.027  19.241  1.00  0.00     0.028 C 
BRANCH  20  21
HETATM   21  C4  UNL     1       1.044  11.990  18.570  1.00  0.00    -0.025 C 
HETATM   22  C2  UNL     1       2.139  11.322  18.981  1.00  0.00    -0.091 C 
HETATM   23  C1  UNL     1       2.229  10.512  20.246  1.00  0.00     0.042 C 
HETATM   24  C3  UNL     1       3.410  11.358  18.174  1.00  0.00     0.042 C 
ENDBRANCH  20  21
ENDBRANCH  19  20
ENDBRANCH  17  19
ENDBRANCH   1  17
BRANCH  10  25
HETATM   25  C22 UNL     1       3.996   9.037  11.940  1.00  0.00     0.021 C 
BRANCH  25  26
HETATM   26  C23 UNL     1       5.174   8.176  12.400  1.00  0.00     0.111 C 
BRANCH  26  27
HETATM   27  C24 UNL     1       6.328   8.293  11.444  1.00  0.00     0.139 C 
HETATM   28  O3  UNL     1       7.151   7.438  11.161  1.00  0.00    -0.650 OA
BRANCH  27  29
HETATM   29  O4  UNL     1       6.404   9.520  10.887  1.00  0.00    -0.776 OA
HETATM   30  H41 UNL     1       7.190   9.465  10.306  1.00  0.00     0.167 HD
ENDBRANCH  27  29
ENDBRANCH  26  27
ENDBRANCH  25  26
ENDBRANCH  10  25
BRANCH   9  31
HETATM   31  C18 UNL     1       2.779   7.403   9.542  1.00  0.00     0.080 C 
HETATM   32  C19 UNL     1       1.977   6.637   8.468  1.00  0.00     0.048 C 
BRANCH  31  33
HETATM   33  O1  UNL     1       3.627   6.406  10.137  1.00  0.00    -0.388 OA
HETATM   34  H33 UNL     1       4.325   6.241   9.470  1.00  0.00     0.210 HD
ENDBRANCH  31  33
BRANCH  31  35
HETATM   35  C20 UNL     1       3.692   8.424   8.804  1.00  0.00     0.201 C 
BRANCH  35  36
HETATM   36  O2  UNL     1       3.040   8.865   7.607  1.00  0.00    -0.398 OA
HETATM   37  H36 UNL     1       3.701   9.366   7.096  1.00  0.00     0.209 HD
ENDBRANCH  35  36
ENDBRANCH  31  35
ENDBRANCH   9  31
TORSDOF 12
ENDMDL
