MODEL 1
REMARK minimizedAffinity -9.98025894
REMARK CNNscore 0.288322121
REMARK CNNaffinity 7.90013695
REMARK  14 active torsions:
REMARK  status: ('A' for Active; 'I' for Inactive)
REMARK    1  A    between atoms: C2_2  and  C3_3 
REMARK    2  A    between atoms: C6_6  and  C7_7 
REMARK    3  A    between atoms: C7_7  and  C8_8 
REMARK    4  A    between atoms: C14_17  and  C15_18 
REMARK    5  A    between atoms: C15_18  and  O3_20 
REMARK    6  A    between atoms: C19_24  and  C20_25 
REMARK    7  A    between atoms: C20_25  and  C21_26 
REMARK    8  A    between atoms: C22_27  and  C23_28 
REMARK    9  A    between atoms: C25_30  and  C26_31 
REMARK   10  A    between atoms: C27_33  and  C28_34 
REMARK   11  A    between atoms: C29_38  and  C30_39 
REMARK   12  A    between atoms: C30_39  and  C31_40 
REMARK   13  A    between atoms: C31_40  and  C32_41 
REMARK   14  A    between atoms: C32_41  and  O7_43 
ROOT
HETATM    1  C8  UNL     1      -0.420   7.476  12.296  1.00  0.00     0.016 C 
HETATM    2  N1  UNL     1      -0.964   6.368  11.908  1.00  0.00    -0.362 N 
ATOM      3  H1  UNL     1      -0.610   5.744  11.182  1.00  0.00     0.165 HD
HETATM    4  C9  UNL     1      -2.107   6.185  12.654  1.00  0.00     0.024 C 
HETATM    5  C10 UNL     1      -3.018   5.274  12.280  1.00  0.00     0.014 A 
HETATM    6  C11 UNL     1      -4.267   5.003  12.875  1.00  0.00     0.056 A 
HETATM    7  C12 UNL     1      -4.957   4.009  12.250  1.00  0.00     0.046 A 
HETATM    8  C13 UNL     1      -4.173   3.518  11.130  1.00  0.00     0.180 A 
HETATM    9  O1  UNL     1      -4.509   2.617  10.376  1.00  0.00    -0.291 OA
HETATM   10  C14 UNL     1      -2.841   4.312  11.067  1.00  0.00     0.197 A 
HETATM   11  C17 UNL     1      -6.170   3.806  12.935  1.00  0.00    -0.023 A 
HETATM   12  C18 UNL     1      -7.200   2.794  12.580  1.00  0.00     0.051 C 
HETATM   13  C19 UNL     1      -6.162   4.724  14.000  1.00  0.00     0.022 A 
HETATM   14  N3  UNL     1      -4.979   5.462  13.922  1.00  0.00    -0.357 N 
HETATM   15  C29 UNL     1      -2.171   7.149  13.819  1.00  0.00     0.046 C 
HETATM   16  C33 UNL     1      -1.150   8.217  13.392  1.00  0.00     0.041 C 
HETATM   17  C34 UNL     1      -1.825   9.460  12.822  1.00  0.00     0.017 C 
HETATM   18  H25 UNL     1      -4.721   6.197  14.564  1.00  0.00     0.166 HD
ENDROOT
BRANCH  10  19
HETATM   19  C15 UNL     1      -1.671   3.386  11.265  1.00  0.00     0.274 C 
HETATM   20  O2  UNL     1      -0.490   3.699  11.165  1.00  0.00    -0.264 OA
BRANCH  19  21
HETATM   21  O3  UNL     1      -2.112   2.143  11.616  1.00  0.00    -0.326 OA
HETATM   22  C16 UNL     1      -1.388   1.078  10.999  1.00  0.00     0.213 C 
ENDBRANCH  19  21
ENDBRANCH  10  19
BRANCH  15  23
HETATM   23  C30 UNL     1      -1.793   6.433  15.130  1.00  0.00     0.022 C 
BRANCH  23  24
HETATM   24  C31 UNL     1      -0.822   7.238  15.992  1.00  0.00     0.110 C 
BRANCH  24  25
HETATM   25  C32 UNL     1      -1.504   8.401  16.655  1.00  0.00     0.139 C 
HETATM   26  O6  UNL     1      -1.029   9.511  16.830  1.00  0.00    -0.650 OA
BRANCH  25  27
HETATM   27  O7  UNL     1      -2.734   8.098  17.097  1.00  0.00    -0.776 OA
HETATM   28  H31 UNL     1      -3.069   8.920  17.508  1.00  0.00     0.167 HD
ENDBRANCH  25  27
ENDBRANCH  24  25
ENDBRANCH  23  24
ENDBRANCH  15  23
BRANCH   1  29
HETATM   29  C7  UNL     1       0.764   8.066  11.642  1.00  0.00     0.055 C 
BRANCH  29  30
HETATM   30  C6  UNL     1       1.448   7.557  10.613  1.00  0.00     0.043 A 
HETATM   31  C4  UNL     1       1.263   7.584   9.173  1.00  0.00    -0.019 A 
HETATM   32  C3  UNL     1       2.202   6.831   8.552  1.00  0.00     0.039 A 
HETATM   33  C5  UNL     1       0.187   8.381   8.522  1.00  0.00     0.052 C 
HETATM   34  C35 UNL     1       3.079   6.304   9.644  1.00  0.00     0.256 A 
HETATM   35  N4  UNL     1       2.567   6.806  10.814  1.00  0.00    -0.322 N 
HETATM   36  O8  UNL     1       4.042   5.569   9.549  1.00  0.00    -0.267 OA
HETATM   37  H36 UNL     1       2.992   6.597  11.705  1.00  0.00     0.169 HD
BRANCH  32  38
HETATM   38  C2  UNL     1       2.355   6.567   7.140  1.00  0.00     0.007 C 
HETATM   39  C1  UNL     1       1.670   7.143   6.146  1.00  0.00     0.012 C 
ENDBRANCH  32  38
ENDBRANCH  29  30
ENDBRANCH   1  29
BRANCH  13  40
HETATM   40  C20 UNL     1      -7.099   4.993  15.148  1.00  0.00     0.115 C 
BRANCH  40  41
HETATM   41  C21 UNL     1      -7.945   6.220  15.020  1.00  0.00     0.022 A 
HETATM   42  C22 UNL     1      -7.689   7.554  15.306  1.00  0.00    -0.020 A 
HETATM   43  C25 UNL     1      -8.894   8.288  15.009  1.00  0.00     0.040 A 
HETATM   44  C27 UNL     1      -9.838   7.371  14.563  1.00  0.00     0.084 A 
HETATM   45  N2  UNL     1      -9.246   6.132  14.587  1.00  0.00    -0.356 N 
HETATM   46  H24 UNL     1      -9.719   5.281  14.302  1.00  0.00     0.166 HD
BRANCH  42  47
HETATM   47  C23 UNL     1      -6.399   8.116  15.827  1.00  0.00     0.037 C 
HETATM   48  C24 UNL     1      -5.541   8.709  14.718  1.00  0.00     0.010 C 
ENDBRANCH  42  47
BRANCH  43  49
HETATM   49  C26 UNL     1      -9.103   9.722  15.153  1.00  0.00     0.273 C 
HETATM   50  O4  UNL     1     -10.129  10.302  14.810  1.00  0.00    -0.301 OA
ENDBRANCH  43  49
BRANCH  44  51
HETATM   51  C28 UNL     1     -11.205   7.539  14.132  1.00  0.00     0.288 C 
HETATM   52  O5  UNL     1     -11.504   7.820  12.974  1.00  0.00    -0.300 OA
ENDBRANCH  44  51
ENDBRANCH  40  41
ENDBRANCH  13  40
TORSDOF 14
ENDMDL
MODEL 2
REMARK minimizedAffinity -7.20125008
REMARK CNNscore 0.245642692
REMARK CNNaffinity 7.11944962
REMARK  14 active torsions:
REMARK  status: ('A' for Active; 'I' for Inactive)
REMARK    1  A    between atoms: C2_2  and  C3_3 
REMARK    2  A    between atoms: C6_6  and  C7_7 
REMARK    3  A    between atoms: C7_7  and  C8_8 
REMARK    4  A    between atoms: C14_17  and  C15_18 
REMARK    5  A    between atoms: C15_18  and  O3_20 
REMARK    6  A    between atoms: C19_24  and  C20_25 
REMARK    7  A    between atoms: C20_25  and  C21_26 
REMARK    8  A    between atoms: C22_27  and  C23_28 
REMARK    9  A    between atoms: C25_30  and  C26_31 
REMARK   10  A    between atoms: C27_33  and  C28_34 
REMARK   11  A    between atoms: C29_38  and  C30_39 
REMARK   12  A    between atoms: C30_39  and  C31_40 
REMARK   13  A    between atoms: C31_40  and  C32_41 
REMARK   14  A    between atoms: C32_41  and  O7_43 
ROOT
HETATM    1  C8  UNL     1      -8.937   6.783  15.575  1.00  0.00     0.016 C 
HETATM    2  N1  UNL     1     -10.131   6.710  15.081  1.00  0.00    -0.362 N 
ATOM      3  H1  UNL     1     -10.623   5.857  14.817  1.00  0.00     0.165 HD
HETATM    4  C9  UNL     1     -10.615   7.995  14.978  1.00  0.00     0.024 C 
HETATM    5  C10 UNL     1     -11.709   8.248  14.243  1.00  0.00     0.014 A 
HETATM    6  C11 UNL     1     -12.299   9.498  13.968  1.00  0.00     0.056 A 
HETATM    7  C12 UNL     1     -13.410   9.409  13.186  1.00  0.00     0.046 A 
HETATM    8  C13 UNL     1     -13.654   8.014  12.865  1.00  0.00     0.180 A 
HETATM    9  O1  UNL     1     -14.584   7.599  12.189  1.00  0.00    -0.291 OA
HETATM   10  C14 UNL     1     -12.555   7.147  13.535  1.00  0.00     0.197 A 
HETATM   11  C17 UNL     1     -13.928  10.704  12.995  1.00  0.00    -0.023 A 
HETATM   12  C18 UNL     1     -15.150  11.035  12.214  1.00  0.00     0.051 C 
HETATM   13  C19 UNL     1     -13.073  11.564  13.707  1.00  0.00     0.022 A 
HETATM   14  N3  UNL     1     -12.065  10.787  14.281  1.00  0.00    -0.357 N 
HETATM   15  C29 UNL     1      -9.736   8.981  15.717  1.00  0.00     0.046 C 
HETATM   16  C33 UNL     1      -8.436   8.176  15.878  1.00  0.00     0.041 C 
HETATM   17  C34 UNL     1      -7.379   8.585  14.859  1.00  0.00     0.017 C 
HETATM   18  H25 UNL     1     -11.312  11.155  14.843  1.00  0.00     0.166 HD
ENDROOT
BRANCH  10  19
HETATM   19  C15 UNL     1     -13.172   6.202  14.532  1.00  0.00     0.274 C 
HETATM   20  O2  UNL     1     -13.081   4.980  14.505  1.00  0.00    -0.264 OA
BRANCH  19  21
HETATM   21  O3  UNL     1     -13.820   6.905  15.505  1.00  0.00    -0.326 OA
HETATM   22  C16 UNL     1     -15.137   6.427  15.783  1.00  0.00     0.213 C 
ENDBRANCH  19  21
ENDBRANCH  10  19
BRANCH  15  23
HETATM   23  C30 UNL     1     -10.383   9.373  17.061  1.00  0.00     0.022 C 
BRANCH  23  24
HETATM   24  C31 UNL     1     -10.592  10.879  17.205  1.00  0.00     0.110 C 
BRANCH  24  25
HETATM   25  C32 UNL     1     -11.428  11.210  18.409  1.00  0.00     0.139 C 
HETATM   26  O6  UNL     1     -11.133  10.995  19.574  1.00  0.00    -0.650 OA
BRANCH  25  27
HETATM   27  O7  UNL     1     -12.609  11.760  18.085  1.00  0.00    -0.776 OA
HETATM   28  H31 UNL     1     -13.058  11.923  18.939  1.00  0.00     0.167 HD
ENDBRANCH  25  27
ENDBRANCH  24  25
ENDBRANCH  23  24
ENDBRANCH  15  23
BRANCH   1  29
HETATM   29  C7  UNL     1      -8.052   5.612  15.722  1.00  0.00     0.055 C 
BRANCH  29  30
HETATM   30  C6  UNL     1      -7.523   4.879  14.737  1.00  0.00     0.043 A 
HETATM   31  C4  UNL     1      -6.312   4.989  13.944  1.00  0.00    -0.019 A 
HETATM   32  C3  UNL     1      -6.268   4.025  12.994  1.00  0.00     0.039 A 
HETATM   33  C5  UNL     1      -5.276   6.025  14.209  1.00  0.00     0.052 C 
HETATM   34  C35 UNL     1      -7.507   3.209  13.195  1.00  0.00     0.256 A 
HETATM   35  N4  UNL     1      -8.164   3.777  14.257  1.00  0.00    -0.322 N 
HETATM   36  O8  UNL     1      -7.887   2.247  12.557  1.00  0.00    -0.267 OA
HETATM   37  H36 UNL     1      -9.036   3.400  14.597  1.00  0.00     0.169 HD
BRANCH  32  38
HETATM   38  C2  UNL     1      -5.260   3.801  11.984  1.00  0.00     0.007 C 
HETATM   39  C1  UNL     1      -5.366   2.994  10.922  1.00  0.00     0.012 C 
ENDBRANCH  32  38
ENDBRANCH  29  30
ENDBRANCH   1  29
BRANCH  13  40
HETATM   40  C20 UNL     1     -13.083  13.044  13.984  1.00  0.00     0.115 C 
BRANCH  40  41
HETATM   41  C21 UNL     1     -13.791  13.888  12.973  1.00  0.00     0.022 A 
HETATM   42  C22 UNL     1     -14.996  14.575  13.021  1.00  0.00    -0.020 A 
HETATM   43  C25 UNL     1     -15.182  15.193  11.732  1.00  0.00     0.040 A 
HETATM   44  C27 UNL     1     -14.089  14.851  10.947  1.00  0.00     0.084 A 
HETATM   45  N2  UNL     1     -13.269  14.059  11.713  1.00  0.00    -0.356 N 
HETATM   46  H24 UNL     1     -12.391  13.674  11.378  1.00  0.00     0.166 HD
BRANCH  42  47
HETATM   47  C23 UNL     1     -15.924  14.652  14.199  1.00  0.00     0.037 C 
HETATM   48  C24 UNL     1     -17.001  13.576  14.152  1.00  0.00     0.010 C 
ENDBRANCH  42  47
BRANCH  43  49
HETATM   49  C26 UNL     1     -16.307  16.018  11.312  1.00  0.00     0.273 C 
HETATM   50  O4  UNL     1     -16.819  15.960  10.198  1.00  0.00    -0.301 OA
ENDBRANCH  43  49
BRANCH  44  51
HETATM   51  C28 UNL     1     -13.748  15.185   9.585  1.00  0.00     0.288 C 
HETATM   52  O5  UNL     1     -12.627  15.563   9.257  1.00  0.00    -0.300 OA
ENDBRANCH  44  51
ENDBRANCH  40  41
ENDBRANCH  13  40
TORSDOF 14
ENDMDL
MODEL 3
REMARK minimizedAffinity -9.88607025
REMARK CNNscore 0.194304362
REMARK CNNaffinity 7.77320862
REMARK  14 active torsions:
REMARK  status: ('A' for Active; 'I' for Inactive)
REMARK    1  A    between atoms: C2_2  and  C3_3 
REMARK    2  A    between atoms: C6_6  and  C7_7 
REMARK    3  A    between atoms: C7_7  and  C8_8 
REMARK    4  A    between atoms: C14_17  and  C15_18 
REMARK    5  A    between atoms: C15_18  and  O3_20 
REMARK    6  A    between atoms: C19_24  and  C20_25 
REMARK    7  A    between atoms: C20_25  and  C21_26 
REMARK    8  A    between atoms: C22_27  and  C23_28 
REMARK    9  A    between atoms: C25_30  and  C26_31 
REMARK   10  A    between atoms: C27_33  and  C28_34 
REMARK   11  A    between atoms: C29_38  and  C30_39 
REMARK   12  A    between atoms: C30_39  and  C31_40 
REMARK   13  A    between atoms: C31_40  and  C32_41 
REMARK   14  A    between atoms: C32_41  and  O7_43 
ROOT
HETATM    1  C8  UNL     1      -0.571   7.568  12.410  1.00  0.00     0.016 C 
HETATM    2  N1  UNL     1      -1.088   6.424  12.098  1.00  0.00    -0.362 N 
ATOM      3  H1  UNL     1      -0.700   5.746  11.442  1.00  0.00     0.165 HD
HETATM    4  C9  UNL     1      -2.257   6.289  12.814  1.00  0.00     0.024 C 
HETATM    5  C10 UNL     1      -3.144   5.337  12.485  1.00  0.00     0.014 A 
HETATM    6  C11 UNL     1      -4.412   5.101  13.054  1.00  0.00     0.056 A 
HETATM    7  C12 UNL     1      -5.066   4.048  12.491  1.00  0.00     0.046 A 
HETATM    8  C13 UNL     1      -4.235   3.475  11.447  1.00  0.00     0.180 A 
HETATM    9  O1  UNL     1      -4.533   2.509  10.760  1.00  0.00    -0.291 OA
HETATM   10  C14 UNL     1      -2.910   4.279  11.366  1.00  0.00     0.197 A 
HETATM   11  C17 UNL     1      -6.303   3.887  13.145  1.00  0.00    -0.023 A 
HETATM   12  C18 UNL     1      -7.308   2.835  12.839  1.00  0.00     0.051 C 
HETATM   13  C19 UNL     1      -6.346   4.893  14.127  1.00  0.00     0.022 A 
HETATM   14  N3  UNL     1      -5.168   5.637  14.030  1.00  0.00    -0.357 N 
HETATM   15  C29 UNL     1      -2.375   7.348  13.889  1.00  0.00     0.046 C 
HETATM   16  C33 UNL     1      -1.351   8.390  13.411  1.00  0.00     0.041 C 
HETATM   17  C34 UNL     1      -2.016   9.571  12.713  1.00  0.00     0.017 C 
HETATM   18  H25 UNL     1      -4.943   6.427  14.617  1.00  0.00     0.166 HD
ENDROOT
BRANCH  10  19
HETATM   19  C15 UNL     1      -1.739   3.389  11.686  1.00  0.00     0.274 C 
HETATM   20  O2  UNL     1      -0.634   3.770  12.054  1.00  0.00    -0.264 OA
BRANCH  19  21
HETATM   21  O3  UNL     1      -2.094   2.079  11.546  1.00  0.00    -0.326 OA
HETATM   22  C16 UNL     1      -1.138   1.294  10.833  1.00  0.00     0.213 C 
ENDBRANCH  19  21
ENDBRANCH  10  19
BRANCH  15  23
HETATM   23  C30 UNL     1      -2.041   6.750  15.270  1.00  0.00     0.022 C 
BRANCH  23  24
HETATM   24  C31 UNL     1      -1.575   7.799  16.277  1.00  0.00     0.110 C 
BRANCH  24  25
HETATM   25  C32 UNL     1      -0.077   7.915  16.305  1.00  0.00     0.139 C 
HETATM   26  O6  UNL     1       0.568   8.948  16.232  1.00  0.00    -0.650 OA
BRANCH  25  27
HETATM   27  O7  UNL     1       0.533   6.723  16.388  1.00  0.00    -0.776 OA
HETATM   28  H31 UNL     1       1.490   6.925  16.393  1.00  0.00     0.167 HD
ENDBRANCH  25  27
ENDBRANCH  24  25
ENDBRANCH  23  24
ENDBRANCH  15  23
BRANCH   1  29
HETATM   29  C7  UNL     1       0.631   8.117  11.753  1.00  0.00     0.055 C 
BRANCH  29  30
HETATM   30  C6  UNL     1       1.308   7.572  10.738  1.00  0.00     0.043 A 
HETATM   31  C4  UNL     1       1.125   7.566   9.298  1.00  0.00    -0.019 A 
HETATM   32  C3  UNL     1       2.053   6.784   8.697  1.00  0.00     0.039 A 
HETATM   33  C5  UNL     1       0.061   8.361   8.625  1.00  0.00     0.052 C 
HETATM   34  C35 UNL     1       2.921   6.271   9.803  1.00  0.00     0.256 A 
HETATM   35  N4  UNL     1       2.415   6.811  10.959  1.00  0.00    -0.322 N 
HETATM   36  O8  UNL     1       3.874   5.521   9.727  1.00  0.00    -0.267 OA
HETATM   37  H36 UNL     1       2.837   6.618  11.855  1.00  0.00     0.169 HD
BRANCH  32  38
HETATM   38  C2  UNL     1       2.203   6.482   7.292  1.00  0.00     0.007 C 
HETATM   39  C1  UNL     1       1.784   7.235   6.269  1.00  0.00     0.012 C 
ENDBRANCH  32  38
ENDBRANCH  29  30
ENDBRANCH   1  29
BRANCH  13  40
HETATM   40  C20 UNL     1      -7.328   5.245  15.212  1.00  0.00     0.115 C 
BRANCH  40  41
HETATM   41  C21 UNL     1      -8.446   6.151  14.805  1.00  0.00     0.022 A 
HETATM   42  C22 UNL     1      -9.247   6.180  13.672  1.00  0.00    -0.020 A 
HETATM   43  C25 UNL     1     -10.141   7.302  13.815  1.00  0.00     0.040 A 
HETATM   44  C27 UNL     1      -9.843   7.917  15.024  1.00  0.00     0.084 A 
HETATM   45  N2  UNL     1      -8.814   7.211  15.598  1.00  0.00    -0.356 N 
HETATM   46  H24 UNL     1      -8.405   7.449  16.496  1.00  0.00     0.166 HD
BRANCH  42  47
HETATM   47  C23 UNL     1      -9.186   5.220  12.519  1.00  0.00     0.037 C 
HETATM   48  C24 UNL     1      -8.811   5.912  11.215  1.00  0.00     0.010 C 
ENDBRANCH  42  47
BRANCH  43  49
HETATM   49  C26 UNL     1     -11.166   7.730  12.873  1.00  0.00     0.273 C 
HETATM   50  O4  UNL     1     -11.188   8.837  12.341  1.00  0.00    -0.301 OA
ENDBRANCH  43  49
BRANCH  44  51
HETATM   51  C28 UNL     1     -10.412   9.072  15.675  1.00  0.00     0.288 C 
HETATM   52  O5  UNL     1      -9.734  10.029  16.039  1.00  0.00    -0.300 OA
ENDBRANCH  44  51
ENDBRANCH  40  41
ENDBRANCH  13  40
TORSDOF 14
ENDMDL
MODEL 4
REMARK minimizedAffinity -9.3966713
REMARK CNNscore 0.18844007
REMARK CNNaffinity 7.89269018
REMARK  14 active torsions:
REMARK  status: ('A' for Active; 'I' for Inactive)
REMARK    1  A    between atoms: C2_2  and  C3_3 
REMARK    2  A    between atoms: C6_6  and  C7_7 
REMARK    3  A    between atoms: C7_7  and  C8_8 
REMARK    4  A    between atoms: C14_17  and  C15_18 
REMARK    5  A    between atoms: C15_18  and  O3_20 
REMARK    6  A    between atoms: C19_24  and  C20_25 
REMARK    7  A    between atoms: C20_25  and  C21_26 
REMARK    8  A    between atoms: C22_27  and  C23_28 
REMARK    9  A    between atoms: C25_30  and  C26_31 
REMARK   10  A    between atoms: C27_33  and  C28_34 
REMARK   11  A    between atoms: C29_38  and  C30_39 
REMARK   12  A    between atoms: C30_39  and  C31_40 
REMARK   13  A    between atoms: C31_40  and  C32_41 
REMARK   14  A    between atoms: C32_41  and  O7_43 
ROOT
HETATM    1  C8  UNL     1      -7.162   6.356  14.449  1.00  0.00     0.016 C 
HETATM    2  N1  UNL     1      -6.639   5.429  13.714  1.00  0.00    -0.362 N 
ATOM      3  H1  UNL     1      -7.122   4.613  13.339  1.00  0.00     0.165 HD
HETATM    4  C9  UNL     1      -5.311   5.745  13.532  1.00  0.00     0.024 C 
HETATM    5  C10 UNL     1      -4.458   4.827  13.052  1.00  0.00     0.014 A 
HETATM    6  C11 UNL     1      -3.065   4.950  12.871  1.00  0.00     0.056 A 
HETATM    7  C12 UNL     1      -2.489   3.828  12.358  1.00  0.00     0.046 A 
HETATM    8  C13 UNL     1      -3.513   2.820  12.151  1.00  0.00     0.180 A 
HETATM    9  O1  UNL     1      -3.321   1.704  11.690  1.00  0.00    -0.291 OA
HETATM   10  C14 UNL     1      -4.883   3.401  12.591  1.00  0.00     0.197 A 
HETATM   11  C17 UNL     1      -1.111   4.066  12.196  1.00  0.00    -0.023 A 
HETATM   12  C18 UNL     1      -0.128   3.096  11.646  1.00  0.00     0.051 C 
HETATM   13  C19 UNL     1      -0.901   5.387  12.632  1.00  0.00     0.022 A 
HETATM   14  N3  UNL     1      -2.127   5.897  13.061  1.00  0.00    -0.357 N 
HETATM   15  C29 UNL     1      -5.008   7.156  13.989  1.00  0.00     0.046 C 
HETATM   16  C33 UNL     1      -6.224   7.461  14.880  1.00  0.00     0.041 C 
HETATM   17  C34 UNL     1      -5.898   7.320  16.363  1.00  0.00     0.017 C 
HETATM   18  H25 UNL     1      -2.261   6.827  13.430  1.00  0.00     0.166 HD
ENDROOT
BRANCH  10  19
HETATM   19  C15 UNL     1      -5.826   3.461  11.418  1.00  0.00     0.274 C 
HETATM   20  O2  UNL     1      -5.495   3.527  10.240  1.00  0.00    -0.264 OA
BRANCH  19  21
HETATM   21  O3  UNL     1      -7.118   3.390  11.853  1.00  0.00    -0.326 OA
HETATM   22  C16 UNL     1      -7.410   2.212  12.606  1.00  0.00     0.213 C 
ENDBRANCH  19  21
ENDBRANCH  10  19
BRANCH  15  23
HETATM   23  C30 UNL     1      -4.889   8.099  12.775  1.00  0.00     0.022 C 
BRANCH  23  24
HETATM   24  C31 UNL     1      -3.548   8.827  12.714  1.00  0.00     0.110 C 
BRANCH  24  25
HETATM   25  C32 UNL     1      -3.022   9.136  14.087  1.00  0.00     0.139 C 
HETATM   26  O6  UNL     1      -2.084   8.586  14.641  1.00  0.00    -0.650 OA
BRANCH  25  27
HETATM   27  O7  UNL     1      -3.724  10.098  14.707  1.00  0.00    -0.776 OA
HETATM   28  H31 UNL     1      -3.296  10.205  15.579  1.00  0.00     0.167 HD
ENDBRANCH  25  27
ENDBRANCH  24  25
ENDBRANCH  23  24
ENDBRANCH  15  23
BRANCH   1  29
HETATM   29  C7  UNL     1      -8.547   6.300  14.956  1.00  0.00     0.055 C 
BRANCH  29  30
HETATM   30  C6  UNL     1      -9.590   7.011  14.517  1.00  0.00     0.043 A 
HETATM   31  C4  UNL     1      -9.984   8.401  14.651  1.00  0.00    -0.019 A 
HETATM   32  C3  UNL     1     -11.195   8.616  14.085  1.00  0.00     0.039 A 
HETATM   33  C5  UNL     1      -9.114   9.418  15.304  1.00  0.00     0.052 C 
HETATM   34  C35 UNL     1     -11.610   7.297  13.514  1.00  0.00     0.256 A 
HETATM   35  N4  UNL     1     -10.589   6.425  13.800  1.00  0.00    -0.322 N 
HETATM   36  O8  UNL     1     -12.637   7.019  12.926  1.00  0.00    -0.267 OA
HETATM   37  H36 UNL     1     -10.628   5.460  13.510  1.00  0.00     0.169 HD
BRANCH  32  38
HETATM   38  C2  UNL     1     -11.958   9.842  14.027  1.00  0.00     0.007 C 
HETATM   39  C1  UNL     1     -12.808  10.204  13.059  1.00  0.00     0.012 C 
ENDBRANCH  32  38
ENDBRANCH  29  30
ENDBRANCH   1  29
BRANCH  13  40
HETATM   40  C20 UNL     1       0.302   6.292  12.664  1.00  0.00     0.115 C 
BRANCH  40  41
HETATM   41  C21 UNL     1       1.075   6.386  11.386  1.00  0.00     0.022 A 
HETATM   42  C22 UNL     1       1.006   7.281  10.327  1.00  0.00    -0.020 A 
HETATM   43  C25 UNL     1       1.981   6.858   9.353  1.00  0.00     0.040 A 
HETATM   44  C27 UNL     1       2.599   5.719   9.853  1.00  0.00     0.084 A 
HETATM   45  N2  UNL     1       2.031   5.450  11.074  1.00  0.00    -0.356 N 
HETATM   46  H24 UNL     1       2.307   4.668  11.659  1.00  0.00     0.166 HD
BRANCH  42  47
HETATM   47  C23 UNL     1       0.084   8.461  10.224  1.00  0.00     0.037 C 
HETATM   48  C24 UNL     1      -0.569   8.562   8.852  1.00  0.00     0.010 C 
ENDBRANCH  42  47
BRANCH  43  49
HETATM   49  C26 UNL     1       2.271   7.491   8.074  1.00  0.00     0.273 C 
HETATM   50  O4  UNL     1       3.003   8.468   7.943  1.00  0.00    -0.301 OA
ENDBRANCH  43  49
BRANCH  44  51
HETATM   51  C28 UNL     1       3.640   4.880   9.311  1.00  0.00     0.288 C 
HETATM   52  O5  UNL     1       3.563   4.364   8.199  1.00  0.00    -0.300 OA
ENDBRANCH  44  51
ENDBRANCH  40  41
ENDBRANCH  13  40
TORSDOF 14
ENDMDL
MODEL 5
REMARK minimizedAffinity -8.18909168
REMARK CNNscore 0.0943806395
REMARK CNNaffinity 6.17058182
REMARK  14 active torsions:
REMARK  status: ('A' for Active; 'I' for Inactive)
REMARK    1  A    between atoms: C2_2  and  C3_3 
REMARK    2  A    between atoms: C6_6  and  C7_7 
REMARK    3  A    between atoms: C7_7  and  C8_8 
REMARK    4  A    between atoms: C14_17  and  C15_18 
REMARK    5  A    between atoms: C15_18  and  O3_20 
REMARK    6  A    between atoms: C19_24  and  C20_25 
REMARK    7  A    between atoms: C20_25  and  C21_26 
REMARK    8  A    between atoms: C22_27  and  C23_28 
REMARK    9  A    between atoms: C25_30  and  C26_31 
REMARK   10  A    between atoms: C27_33  and  C28_34 
REMARK   11  A    between atoms: C29_38  and  C30_39 
REMARK   12  A    between atoms: C30_39  and  C31_40 
REMARK   13  A    between atoms: C31_40  and  C32_41 
REMARK   14  A    between atoms: C32_41  and  O7_43 
ROOT
HETATM    1  C8  UNL     1       0.422   8.835  13.052  1.00  0.00     0.016 C 
HETATM    2  N1  UNL     1       0.013   9.877  13.700  1.00  0.00    -0.362 N 
ATOM      3  H1  UNL     1      -0.580  10.621  13.334  1.00  0.00     0.165 HD
HETATM    4  C9  UNL     1       0.526   9.797  14.976  1.00  0.00     0.024 C 
HETATM    5  C10 UNL     1       0.503  10.870  15.781  1.00  0.00     0.014 A 
HETATM    6  C11 UNL     1       1.041  10.992  17.078  1.00  0.00     0.056 A 
HETATM    7  C12 UNL     1       0.846  12.222  17.629  1.00  0.00     0.046 A 
HETATM    8  C13 UNL     1       0.122  13.056  16.685  1.00  0.00     0.180 A 
HETATM    9  O1  UNL     1      -0.219  14.212  16.884  1.00  0.00    -0.291 OA
HETATM   10  C14 UNL     1      -0.157  12.230  15.401  1.00  0.00     0.197 A 
HETATM   11  C17 UNL     1       1.398  12.227  18.924  1.00  0.00    -0.023 A 
HETATM   12  C18 UNL     1       1.376  13.377  19.865  1.00  0.00     0.051 C 
HETATM   13  C19 UNL     1       1.925  10.937  19.116  1.00  0.00     0.022 A 
HETATM   14  N3  UNL     1       1.704  10.205  17.947  1.00  0.00    -0.357 N 
HETATM   15  C29 UNL     1       1.120   8.433  15.252  1.00  0.00     0.046 C 
HETATM   16  C33 UNL     1       1.299   7.880  13.829  1.00  0.00     0.041 C 
HETATM   17  C34 UNL     1       2.742   7.988  13.348  1.00  0.00     0.017 C 
HETATM   18  H25 UNL     1       1.990   9.247  17.812  1.00  0.00     0.166 HD
ENDROOT
BRANCH  10  19
HETATM   19  C15 UNL     1      -1.640  12.081  15.188  1.00  0.00     0.274 C 
HETATM   20  O2  UNL     1      -2.428  11.584  15.985  1.00  0.00    -0.264 OA
BRANCH  19  21
HETATM   21  O3  UNL     1      -1.996  12.619  13.986  1.00  0.00    -0.326 OA
HETATM   22  C16 UNL     1      -2.345  14.002  14.053  1.00  0.00     0.213 C 
ENDBRANCH  19  21
ENDBRANCH  10  19
BRANCH  15  23
HETATM   23  C30 UNL     1       0.159   7.594  16.117  1.00  0.00     0.022 C 
BRANCH  23  24
HETATM   24  C31 UNL     1      -0.876   6.832  15.292  1.00  0.00     0.110 C 
BRANCH  24  25
HETATM   25  C32 UNL     1      -2.239   7.456  15.398  1.00  0.00     0.139 C 
HETATM   26  O6  UNL     1      -2.672   8.363  14.707  1.00  0.00    -0.650 OA
BRANCH  25  27
HETATM   27  O7  UNL     1      -2.973   6.931  16.392  1.00  0.00    -0.776 OA
HETATM   28  H31 UNL     1      -3.823   7.413  16.364  1.00  0.00     0.167 HD
ENDBRANCH  25  27
ENDBRANCH  24  25
ENDBRANCH  23  24
ENDBRANCH  15  23
BRANCH   1  29
HETATM   29  C7  UNL     1       0.171   8.631  11.612  1.00  0.00     0.055 C 
BRANCH  29  30
HETATM   30  C6  UNL     1       0.968   8.004  10.741  1.00  0.00     0.043 A 
HETATM   31  C4  UNL     1       0.924   7.805   9.304  1.00  0.00    -0.019 A 
HETATM   32  C3  UNL     1       1.941   7.011   8.895  1.00  0.00     0.039 A 
HETATM   33  C5  UNL     1      -0.108   8.445   8.441  1.00  0.00     0.052 C 
HETATM   34  C35 UNL     1       2.723   6.694  10.131  1.00  0.00     0.256 A 
HETATM   35  N4  UNL     1       2.084   7.343  11.157  1.00  0.00    -0.322 N 
HETATM   36  O8  UNL     1       3.713   5.997  10.239  1.00  0.00    -0.267 OA
HETATM   37  H36 UNL     1       2.426   7.290  12.105  1.00  0.00     0.169 HD
BRANCH  32  38
HETATM   38  C2  UNL     1       2.239   6.544   7.560  1.00  0.00     0.007 C 
HETATM   39  C1  UNL     1       1.893   7.141   6.414  1.00  0.00     0.012 C 
ENDBRANCH  32  38
ENDBRANCH  29  30
ENDBRANCH   1  29
BRANCH  13  40
HETATM   40  C20 UNL     1       2.581  10.244  20.281  1.00  0.00     0.115 C 
BRANCH  40  41
HETATM   41  C21 UNL     1       3.834  10.882  20.791  1.00  0.00     0.022 A 
HETATM   42  C22 UNL     1       4.222  11.269  22.067  1.00  0.00    -0.020 A 
HETATM   43  C25 UNL     1       5.533  11.858  21.949  1.00  0.00     0.040 A 
HETATM   44  C27 UNL     1       5.887  11.814  20.607  1.00  0.00     0.084 A 
HETATM   45  N2  UNL     1       4.846  11.230  19.929  1.00  0.00    -0.356 N 
HETATM   46  H24 UNL     1       4.850  11.072  18.926  1.00  0.00     0.166 HD
BRANCH  42  47
HETATM   47  C23 UNL     1       3.420  11.103  23.325  1.00  0.00     0.037 C 
HETATM   48  C24 UNL     1       3.197   9.638  23.675  1.00  0.00     0.010 C 
ENDBRANCH  42  47
BRANCH  43  49
HETATM   49  C26 UNL     1       6.344  12.409  23.026  1.00  0.00     0.273 C 
HETATM   50  O4  UNL     1       7.421  11.938  23.382  1.00  0.00    -0.301 OA
ENDBRANCH  43  49
BRANCH  44  51
HETATM   51  C28 UNL     1       7.075  12.257  19.917  1.00  0.00     0.288 C 
HETATM   52  O5  UNL     1       7.053  12.673  18.761  1.00  0.00    -0.300 OA
ENDBRANCH  44  51
ENDBRANCH  40  41
ENDBRANCH  13  40
TORSDOF 14
ENDMDL
MODEL 6
REMARK minimizedAffinity -7.37603951
REMARK CNNscore 0.0842178017
REMARK CNNaffinity 6.63034868
REMARK  14 active torsions:
REMARK  status: ('A' for Active; 'I' for Inactive)
REMARK    1  A    between atoms: C2_2  and  C3_3 
REMARK    2  A    between atoms: C6_6  and  C7_7 
REMARK    3  A    between atoms: C7_7  and  C8_8 
REMARK    4  A    between atoms: C14_17  and  C15_18 
REMARK    5  A    between atoms: C15_18  and  O3_20 
REMARK    6  A    between atoms: C19_24  and  C20_25 
REMARK    7  A    between atoms: C20_25  and  C21_26 
REMARK    8  A    between atoms: C22_27  and  C23_28 
REMARK    9  A    between atoms: C25_30  and  C26_31 
REMARK   10  A    between atoms: C27_33  and  C28_34 
REMARK   11  A    between atoms: C29_38  and  C30_39 
REMARK   12  A    between atoms: C30_39  and  C31_40 
REMARK   13  A    between atoms: C31_40  and  C32_41 
REMARK   14  A    between atoms: C32_41  and  O7_43 
ROOT
HETATM    1  C8  UNL     1      -8.852   6.775  15.354  1.00  0.00     0.016 C 
HETATM    2  N1  UNL     1     -10.059   6.825  14.892  1.00  0.00    -0.362 N 
ATOM      3  H1  UNL     1     -10.619   6.032  14.579  1.00  0.00     0.165 HD
HETATM    4  C9  UNL     1     -10.451   8.145  14.901  1.00  0.00     0.024 C 
HETATM    5  C10 UNL     1     -11.542   8.531  14.221  1.00  0.00     0.014 A 
HETATM    6  C11 UNL     1     -12.046   9.837  14.060  1.00  0.00     0.056 A 
HETATM    7  C12 UNL     1     -13.179   9.888  13.307  1.00  0.00     0.046 A 
HETATM    8  C13 UNL     1     -13.532   8.543  12.888  1.00  0.00     0.180 A 
HETATM    9  O1  UNL     1     -14.505   8.249  12.210  1.00  0.00    -0.291 OA
HETATM   10  C14 UNL     1     -12.483   7.551  13.457  1.00  0.00     0.197 A 
HETATM   11  C17 UNL     1     -13.607  11.227  13.230  1.00  0.00    -0.023 A 
HETATM   12  C18 UNL     1     -14.820  11.703  12.514  1.00  0.00     0.051 C 
HETATM   13  C19 UNL     1     -12.675  11.966  13.980  1.00  0.00     0.022 A 
HETATM   14  N3  UNL     1     -11.712  11.078  14.463  1.00  0.00    -0.357 N 
HETATM   15  C29 UNL     1      -9.486   9.007  15.687  1.00  0.00     0.046 C 
HETATM   16  C33 UNL     1      -8.244   8.102  15.748  1.00  0.00     0.041 C 
HETATM   17  C34 UNL     1      -7.185   8.514  14.731  1.00  0.00     0.017 C 
HETATM   18  H25 UNL     1     -10.921  11.347  15.029  1.00  0.00     0.166 HD
ENDROOT
BRANCH  10  19
HETATM   19  C15 UNL     1     -13.141   6.576  14.397  1.00  0.00     0.274 C 
HETATM   20  O2  UNL     1     -13.038   5.356  14.345  1.00  0.00    -0.264 OA
BRANCH  19  21
HETATM   21  O3  UNL     1     -13.846   7.250  15.351  1.00  0.00    -0.326 OA
HETATM   22  C16 UNL     1     -15.088   6.634  15.695  1.00  0.00     0.213 C 
ENDBRANCH  19  21
ENDBRANCH  10  19
BRANCH  15  23
HETATM   23  C30 UNL     1     -10.069   9.337  17.075  1.00  0.00     0.022 C 
BRANCH  23  24
HETATM   24  C31 UNL     1     -11.593   9.239  17.121  1.00  0.00     0.110 C 
BRANCH  24  25
HETATM   25  C32 UNL     1     -12.118   9.407  18.519  1.00  0.00     0.139 C 
HETATM   26  O6  UNL     1     -13.093  10.063  18.849  1.00  0.00    -0.650 OA
BRANCH  25  27
HETATM   27  O7  UNL     1     -11.369   8.772  19.434  1.00  0.00    -0.776 OA
HETATM   28  H31 UNL     1     -11.802   8.957  20.291  1.00  0.00     0.167 HD
ENDBRANCH  25  27
ENDBRANCH  24  25
ENDBRANCH  23  24
ENDBRANCH  15  23
BRANCH   1  29
HETATM   29  C7  UNL     1      -8.051   5.537  15.385  1.00  0.00     0.055 C 
BRANCH  29  30
HETATM   30  C6  UNL     1      -7.073   5.194  14.541  1.00  0.00     0.043 A 
HETATM   31  C4  UNL     1      -6.946   4.178  13.512  1.00  0.00    -0.019 A 
HETATM   32  C3  UNL     1      -5.700   4.181  12.982  1.00  0.00     0.039 A 
HETATM   33  C5  UNL     1      -8.082   3.303  13.110  1.00  0.00     0.052 C 
HETATM   34  C35 UNL     1      -4.971   5.286  13.680  1.00  0.00     0.256 A 
HETATM   35  N4  UNL     1      -5.871   5.834  14.559  1.00  0.00    -0.322 N 
HETATM   36  O8  UNL     1      -3.817   5.640  13.531  1.00  0.00    -0.267 OA
HETATM   37  H36 UNL     1      -5.619   6.612  15.150  1.00  0.00     0.169 HD
BRANCH  32  38
HETATM   38  C2  UNL     1      -5.152   3.315  11.963  1.00  0.00     0.007 C 
HETATM   39  C1  UNL     1      -5.400   3.378  10.650  1.00  0.00     0.012 C 
ENDBRANCH  32  38
ENDBRANCH  29  30
ENDBRANCH   1  29
BRANCH  13  40
HETATM   40  C20 UNL     1     -12.570  13.417  14.369  1.00  0.00     0.115 C 
BRANCH  40  41
HETATM   41  C21 UNL     1     -12.363  14.377  13.241  1.00  0.00     0.022 A 
HETATM   42  C22 UNL     1     -11.588  15.524  13.133  1.00  0.00    -0.020 A 
HETATM   43  C25 UNL     1     -11.807  16.059  11.812  1.00  0.00     0.040 A 
HETATM   44  C27 UNL     1     -12.712  15.222  11.172  1.00  0.00     0.084 A 
HETATM   45  N2  UNL     1     -13.038  14.222  12.055  1.00  0.00    -0.356 N 
HETATM   46  H24 UNL     1     -13.682  13.469  11.834  1.00  0.00     0.166 HD
BRANCH  42  47
HETATM   47  C23 UNL     1     -10.696  16.094  14.198  1.00  0.00     0.037 C 
HETATM   48  C24 UNL     1     -11.370  17.220  14.970  1.00  0.00     0.010 C 
ENDBRANCH  42  47
BRANCH  43  49
HETATM   49  C26 UNL     1     -11.206  17.257  11.243  1.00  0.00     0.273 C 
HETATM   50  O4  UNL     1     -10.174  17.255  10.576  1.00  0.00    -0.301 OA
ENDBRANCH  43  49
BRANCH  44  51
HETATM   51  C28 UNL     1     -13.286  15.269   9.849  1.00  0.00     0.288 C 
HETATM   52  O5  UNL     1     -12.628  15.547   8.850  1.00  0.00    -0.300 OA
ENDBRANCH  44  51
ENDBRANCH  40  41
ENDBRANCH  13  40
TORSDOF 14
ENDMDL
MODEL 7
REMARK minimizedAffinity -7.3842926
REMARK CNNscore 0.0772289708
REMARK CNNaffinity 5.38698959
REMARK  14 active torsions:
REMARK  status: ('A' for Active; 'I' for Inactive)
REMARK    1  A    between atoms: C2_2  and  C3_3 
REMARK    2  A    between atoms: C6_6  and  C7_7 
REMARK    3  A    between atoms: C7_7  and  C8_8 
REMARK    4  A    between atoms: C14_17  and  C15_18 
REMARK    5  A    between atoms: C15_18  and  O3_20 
REMARK    6  A    between atoms: C19_24  and  C20_25 
REMARK    7  A    between atoms: C20_25  and  C21_26 
REMARK    8  A    between atoms: C22_27  and  C23_28 
REMARK    9  A    between atoms: C25_30  and  C26_31 
REMARK   10  A    between atoms: C27_33  and  C28_34 
REMARK   11  A    between atoms: C29_38  and  C30_39 
REMARK   12  A    between atoms: C30_39  and  C31_40 
REMARK   13  A    between atoms: C31_40  and  C32_41 
REMARK   14  A    between atoms: C32_41  and  O7_43 
ROOT
HETATM    1  C8  UNL     1       5.474  12.256  22.128  1.00  0.00     0.016 C 
HETATM    2  N1  UNL     1       5.717  12.117  20.865  1.00  0.00    -0.362 N 
ATOM      3  H1  UNL     1       6.605  12.303  20.398  1.00  0.00     0.165 HD
HETATM    4  C9  UNL     1       4.559  11.673  20.267  1.00  0.00     0.024 C 
HETATM    5  C10 UNL     1       4.432  11.710  18.932  1.00  0.00     0.014 A 
HETATM    6  C11 UNL     1       3.303  11.367  18.159  1.00  0.00     0.056 A 
HETATM    7  C12 UNL     1       3.502  11.516  16.820  1.00  0.00     0.046 A 
HETATM    8  C13 UNL     1       4.854  11.995  16.592  1.00  0.00     0.180 A 
HETATM    9  O1  UNL     1       5.346  12.217  15.495  1.00  0.00    -0.291 OA
HETATM   10  C14 UNL     1       5.565  12.158  17.961  1.00  0.00     0.197 A 
HETATM   11  C17 UNL     1       2.329  11.127  16.147  1.00  0.00    -0.023 A 
HETATM   12  C18 UNL     1       2.145  11.123  14.672  1.00  0.00     0.051 C 
HETATM   13  C19 UNL     1       1.427  10.735  17.152  1.00  0.00     0.022 A 
HETATM   14  N3  UNL     1       2.055  10.915  18.386  1.00  0.00    -0.357 N 
HETATM   15  C29 UNL     1       3.535  11.240  21.293  1.00  0.00     0.046 C 
HETATM   16  C33 UNL     1       4.068  11.916  22.567  1.00  0.00     0.041 C 
HETATM   17  C34 UNL     1       3.303  13.191  22.904  1.00  0.00     0.017 C 
HETATM   18  H25 UNL     1       1.628  10.715  19.278  1.00  0.00     0.166 HD
ENDROOT
BRANCH  10  19
HETATM   19  C15 UNL     1       6.756  11.240  18.044  1.00  0.00     0.274 C 
HETATM   20  O2  UNL     1       7.770  11.446  18.700  1.00  0.00    -0.264 OA
BRANCH  19  21
HETATM   21  O3  UNL     1       6.529  10.112  17.310  1.00  0.00    -0.326 OA
HETATM   22  C16 UNL     1       7.693   9.601  16.661  1.00  0.00     0.213 C 
ENDBRANCH  19  21
ENDBRANCH  10  19
BRANCH  15  23
HETATM   23  C30 UNL     1       3.490   9.702  21.391  1.00  0.00     0.022 C 
BRANCH  23  24
HETATM   24  C31 UNL     1       3.635   9.190  22.822  1.00  0.00     0.110 C 
BRANCH  24  25
HETATM   25  C32 UNL     1       2.380   8.515  23.300  1.00  0.00     0.139 C 
HETATM   26  O6  UNL     1       1.932   8.545  24.435  1.00  0.00    -0.650 OA
BRANCH  25  27
HETATM   27  O7  UNL     1       1.773   7.808  22.335  1.00  0.00    -0.776 OA
HETATM   28  H31 UNL     1       0.984   7.417  22.761  1.00  0.00     0.167 HD
ENDBRANCH  25  27
ENDBRANCH  24  25
ENDBRANCH  23  24
ENDBRANCH  15  23
BRANCH   1  29
HETATM   29  C7  UNL     1       6.445  12.830  23.079  1.00  0.00     0.055 C 
BRANCH  29  30
HETATM   30  C6  UNL     1       7.145  13.959  22.926  1.00  0.00     0.043 A 
HETATM   31  C4  UNL     1       6.839  15.364  23.129  1.00  0.00    -0.019 A 
HETATM   32  C3  UNL     1       7.878  16.143  22.745  1.00  0.00     0.039 A 
HETATM   33  C5  UNL     1       5.551  15.824  23.717  1.00  0.00     0.052 C 
HETATM   34  C35 UNL     1       8.945  15.195  22.295  1.00  0.00     0.256 A 
HETATM   35  N4  UNL     1       8.425  13.937  22.463  1.00  0.00    -0.322 N 
HETATM   36  O8  UNL     1      10.047  15.456  21.853  1.00  0.00    -0.267 OA
HETATM   37  H36 UNL     1       8.961  13.113  22.233  1.00  0.00     0.169 HD
BRANCH  32  38
HETATM   38  C2  UNL     1       7.972  17.585  22.751  1.00  0.00     0.007 C 
HETATM   39  C1  UNL     1       8.376  18.350  23.771  1.00  0.00     0.012 C 
ENDBRANCH  32  38
ENDBRANCH  29  30
ENDBRANCH   1  29
BRANCH  13  40
HETATM   40  C20 UNL     1       0.039  10.151  17.134  1.00  0.00     0.115 C 
BRANCH  40  41
HETATM   41  C21 UNL     1      -0.355   9.458  15.868  1.00  0.00     0.022 A 
HETATM   42  C22 UNL     1      -1.166   9.851  14.813  1.00  0.00    -0.020 A 
HETATM   43  C25 UNL     1      -1.205   8.754  13.878  1.00  0.00     0.040 A 
HETATM   44  C27 UNL     1      -0.423   7.733  14.406  1.00  0.00     0.084 A 
HETATM   45  N2  UNL     1       0.071   8.178  15.608  1.00  0.00    -0.356 N 
HETATM   46  H24 UNL     1       0.680   7.624  16.201  1.00  0.00     0.166 HD
BRANCH  42  47
HETATM   47  C23 UNL     1      -1.868  11.171  14.679  1.00  0.00     0.037 C 
HETATM   48  C24 UNL     1      -3.294  11.119  15.212  1.00  0.00     0.010 C 
ENDBRANCH  42  47
BRANCH  43  49
HETATM   49  C26 UNL     1      -1.930   8.704  12.616  1.00  0.00     0.273 C 
HETATM   50  O4  UNL     1      -1.553   9.258  11.588  1.00  0.00    -0.301 OA
ENDBRANCH  43  49
BRANCH  44  51
HETATM   51  C28 UNL     1      -0.105   6.417  13.907  1.00  0.00     0.288 C 
HETATM   52  O5  UNL     1      -0.615   5.396  14.359  1.00  0.00    -0.300 OA
ENDBRANCH  44  51
ENDBRANCH  40  41
ENDBRANCH  13  40
TORSDOF 14
ENDMDL
MODEL 8
REMARK minimizedAffinity -9.91530418
REMARK CNNscore 0.076759547
REMARK CNNaffinity 6.98258591
REMARK  14 active torsions:
REMARK  status: ('A' for Active; 'I' for Inactive)
REMARK    1  A    between atoms: C2_2  and  C3_3 
REMARK    2  A    between atoms: C6_6  and  C7_7 
REMARK    3  A    between atoms: C7_7  and  C8_8 
REMARK    4  A    between atoms: C14_17  and  C15_18 
REMARK    5  A    between atoms: C15_18  and  O3_20 
REMARK    6  A    between atoms: C19_24  and  C20_25 
REMARK    7  A    between atoms: C20_25  and  C21_26 
REMARK    8  A    between atoms: C22_27  and  C23_28 
REMARK    9  A    between atoms: C25_30  and  C26_31 
REMARK   10  A    between atoms: C27_33  and  C28_34 
REMARK   11  A    between atoms: C29_38  and  C30_39 
REMARK   12  A    between atoms: C30_39  and  C31_40 
REMARK   13  A    between atoms: C31_40  and  C32_41 
REMARK   14  A    between atoms: C32_41  and  O7_43 
ROOT
HETATM    1  C8  UNL     1      -0.485   6.044  11.465  1.00  0.00     0.016 C 
HETATM    2  N1  UNL     1      -1.322   5.070  11.316  1.00  0.00    -0.362 N 
ATOM      3  H1  UNL     1      -1.228   4.287  10.669  1.00  0.00     0.165 HD
HETATM    4  C9  UNL     1      -2.365   5.282  12.191  1.00  0.00     0.024 C 
HETATM    5  C10 UNL     1      -3.507   4.591  12.060  1.00  0.00     0.014 A 
HETATM    6  C11 UNL     1      -4.693   4.727  12.812  1.00  0.00     0.056 A 
HETATM    7  C12 UNL     1      -5.675   3.867  12.426  1.00  0.00     0.046 A 
HETATM    8  C13 UNL     1      -5.188   3.050  11.328  1.00  0.00     0.180 A 
HETATM    9  O1  UNL     1      -5.827   2.173  10.766  1.00  0.00    -0.291 OA
HETATM   10  C14 UNL     1      -3.728   3.465  11.006  1.00  0.00     0.197 A 
HETATM   11  C17 UNL     1      -6.798   4.070  13.251  1.00  0.00    -0.023 A 
HETATM   12  C18 UNL     1      -8.076   3.315  13.167  1.00  0.00     0.051 C 
HETATM   13  C19 UNL     1      -6.429   5.088  14.148  1.00  0.00     0.022 A 
HETATM   14  N3  UNL     1      -5.128   5.485  13.836  1.00  0.00    -0.357 N 
HETATM   15  C29 UNL     1      -2.041   6.376  13.186  1.00  0.00     0.046 C 
HETATM   16  C33 UNL     1      -0.864   7.084  12.494  1.00  0.00     0.041 C 
HETATM   17  C34 UNL     1      -1.298   8.372  11.801  1.00  0.00     0.017 C 
HETATM   18  H25 UNL     1      -4.619   6.208  14.323  1.00  0.00     0.166 HD
ENDROOT
BRANCH  10  19
HETATM   19  C15 UNL     1      -2.794   2.307  11.235  1.00  0.00     0.274 C 
HETATM   20  O2  UNL     1      -2.985   1.380  12.014  1.00  0.00    -0.264 OA
BRANCH  19  21
HETATM   21  O3  UNL     1      -1.709   2.412  10.414  1.00  0.00    -0.326 OA
HETATM   22  C16 UNL     1      -0.722   1.403  10.629  1.00  0.00     0.213 C 
ENDBRANCH  19  21
ENDBRANCH  10  19
BRANCH  15  23
HETATM   23  C30 UNL     1      -1.669   5.766  14.551  1.00  0.00     0.022 C 
BRANCH  23  24
HETATM   24  C31 UNL     1      -0.789   6.685  15.396  1.00  0.00     0.110 C 
BRANCH  24  25
HETATM   25  C32 UNL     1      -1.586   7.795  16.021  1.00  0.00     0.139 C 
HETATM   26  O6  UNL     1      -1.361   8.990  15.919  1.00  0.00    -0.650 OA
BRANCH  25  27
HETATM   27  O7  UNL     1      -2.604   7.345  16.770  1.00  0.00    -0.776 OA
HETATM   28  H31 UNL     1      -3.039   8.147  17.121  1.00  0.00     0.167 HD
ENDBRANCH  25  27
ENDBRANCH  24  25
ENDBRANCH  23  24
ENDBRANCH  15  23
BRANCH   1  29
HETATM   29  C7  UNL     1       0.705   6.224  10.611  1.00  0.00     0.055 C 
BRANCH  29  30
HETATM   30  C6  UNL     1       1.936   6.556  11.011  1.00  0.00     0.043 A 
HETATM   31  C4  UNL     1       3.258   6.383  10.438  1.00  0.00    -0.019 A 
HETATM   32  C3  UNL     1       4.214   6.825  11.289  1.00  0.00     0.039 A 
HETATM   33  C5  UNL     1       3.470   5.819   9.076  1.00  0.00     0.052 C 
HETATM   34  C35 UNL     1       3.477   7.354  12.479  1.00  0.00     0.256 A 
HETATM   35  N4  UNL     1       2.145   7.171  12.208  1.00  0.00    -0.322 N 
HETATM   36  O8  UNL     1       3.936   7.836  13.496  1.00  0.00    -0.267 OA
HETATM   37  H36 UNL     1       1.433   7.457  12.864  1.00  0.00     0.169 HD
BRANCH  32  38
HETATM   38  C2  UNL     1       5.649   6.806  11.120  1.00  0.00     0.007 C 
HETATM   39  C1  UNL     1       6.440   5.728  11.167  1.00  0.00     0.012 C 
ENDBRANCH  32  38
ENDBRANCH  29  30
ENDBRANCH   1  29
BRANCH  13  40
HETATM   40  C20 UNL     1      -7.112   5.734  15.325  1.00  0.00     0.115 C 
BRANCH  40  41
HETATM   41  C21 UNL     1      -8.263   6.630  14.994  1.00  0.00     0.022 A 
HETATM   42  C22 UNL     1      -8.400   8.011  15.027  1.00  0.00    -0.020 A 
HETATM   43  C25 UNL     1      -9.752   8.311  14.628  1.00  0.00     0.040 A 
HETATM   44  C27 UNL     1     -10.388   7.102  14.378  1.00  0.00     0.084 A 
HETATM   45  N2  UNL     1      -9.474   6.104  14.613  1.00  0.00    -0.356 N 
HETATM   46  H24 UNL     1      -9.681   5.117  14.499  1.00  0.00     0.166 HD
BRANCH  42  47
HETATM   47  C23 UNL     1      -7.334   8.997  15.408  1.00  0.00     0.037 C 
HETATM   48  C24 UNL     1      -5.934   8.470  15.124  1.00  0.00     0.010 C 
ENDBRANCH  42  47
BRANCH  43  49
HETATM   49  C26 UNL     1     -10.358   9.630  14.513  1.00  0.00     0.273 C 
HETATM   50  O4  UNL     1     -10.164  10.545  15.308  1.00  0.00    -0.301 OA
ENDBRANCH  43  49
BRANCH  44  51
HETATM   51  C28 UNL     1     -11.733   6.799  13.953  1.00  0.00     0.288 C 
HETATM   52  O5  UNL     1     -12.270   7.361  13.002  1.00  0.00    -0.300 OA
ENDBRANCH  44  51
ENDBRANCH  40  41
ENDBRANCH  13  40
TORSDOF 14
ENDMDL
MODEL 9
REMARK minimizedAffinity -9.89689159
REMARK CNNscore 0.0644892156
REMARK CNNaffinity 7.28932953
REMARK  14 active torsions:
REMARK  status: ('A' for Active; 'I' for Inactive)
REMARK    1  A    between atoms: C2_2  and  C3_3 
REMARK    2  A    between atoms: C6_6  and  C7_7 
REMARK    3  A    between atoms: C7_7  and  C8_8 
REMARK    4  A    between atoms: C14_17  and  C15_18 
REMARK    5  A    between atoms: C15_18  and  O3_20 
REMARK    6  A    between atoms: C19_24  and  C20_25 
REMARK    7  A    between atoms: C20_25  and  C21_26 
REMARK    8  A    between atoms: C22_27  and  C23_28 
REMARK    9  A    between atoms: C25_30  and  C26_31 
REMARK   10  A    between atoms: C27_33  and  C28_34 
REMARK   11  A    between atoms: C29_38  and  C30_39 
REMARK   12  A    between atoms: C30_39  and  C31_40 
REMARK   13  A    between atoms: C31_40  and  C32_41 
REMARK   14  A    between atoms: C32_41  and  O7_43 
ROOT
HETATM    1  C8  UNL     1      -5.517   4.118  12.194  1.00  0.00     0.016 C 
HETATM    2  N1  UNL     1      -4.840   5.015  12.835  1.00  0.00    -0.362 N 
ATOM      3  H1  UNL     1      -5.195   5.629  13.569  1.00  0.00     0.165 HD
HETATM    4  C9  UNL     1      -3.552   4.989  12.347  1.00  0.00     0.024 C 
HETATM    5  C10 UNL     1      -2.705   5.992  12.623  1.00  0.00     0.014 A 
HETATM    6  C11 UNL     1      -1.387   6.167  12.154  1.00  0.00     0.056 A 
HETATM    7  C12 UNL     1      -0.793   7.298  12.626  1.00  0.00     0.046 A 
HETATM    8  C13 UNL     1      -1.726   7.997  13.493  1.00  0.00     0.180 A 
HETATM    9  O1  UNL     1      -1.491   9.042  14.083  1.00  0.00    -0.291 OA
HETATM   10  C14 UNL     1      -3.050   7.192  13.555  1.00  0.00     0.197 A 
HETATM   11  C17 UNL     1       0.518   7.361  12.118  1.00  0.00    -0.023 A 
HETATM   12  C18 UNL     1       1.505   8.434  12.413  1.00  0.00     0.051 C 
HETATM   13  C19 UNL     1       0.674   6.210  11.327  1.00  0.00     0.022 A 
HETATM   14  N3  UNL     1      -0.530   5.503  11.355  1.00  0.00    -0.357 N 
HETATM   15  C29 UNL     1      -3.313   3.775  11.475  1.00  0.00     0.046 C 
HETATM   16  C33 UNL     1      -4.751   3.341  11.147  1.00  0.00     0.041 C 
HETATM   17  C34 UNL     1      -5.179   3.783   9.752  1.00  0.00     0.017 C 
HETATM   18  H25 UNL     1      -0.695   4.637  10.864  1.00  0.00     0.166 HD
ENDROOT
BRANCH  10  19
HETATM   19  C15 UNL     1      -3.318   6.735  14.964  1.00  0.00     0.274 C 
HETATM   20  O2  UNL     1      -2.765   5.795  15.525  1.00  0.00    -0.264 OA
BRANCH  19  21
HETATM   21  O3  UNL     1      -4.244   7.546  15.552  1.00  0.00    -0.326 OA
HETATM   22  C16 UNL     1      -5.305   7.938  14.680  1.00  0.00     0.213 C 
ENDBRANCH  19  21
ENDBRANCH  10  19
BRANCH  15  23
HETATM   23  C30 UNL     1      -2.515   2.707  12.250  1.00  0.00     0.022 C 
BRANCH  23  24
HETATM   24  C31 UNL     1      -2.247   1.449  11.427  1.00  0.00     0.110 C 
BRANCH  24  25
HETATM   25  C32 UNL     1      -0.926   1.522  10.716  1.00  0.00     0.139 C 
HETATM   26  O6  UNL     1       0.092   2.046  11.137  1.00  0.00    -0.650 OA
BRANCH  25  27
HETATM   27  O7  UNL     1      -0.962   0.963   9.496  1.00  0.00    -0.776 OA
HETATM   28  H31 UNL     1      -0.060   1.074   9.136  1.00  0.00     0.167 HD
ENDBRANCH  25  27
ENDBRANCH  24  25
ENDBRANCH  23  24
ENDBRANCH  15  23
BRANCH   1  29
HETATM   29  C7  UNL     1      -6.971   3.933  12.361  1.00  0.00     0.055 C 
BRANCH  29  30
HETATM   30  C6  UNL     1      -7.816   4.753  12.994  1.00  0.00     0.043 A 
HETATM   31  C4  UNL     1      -8.797   5.724  12.545  1.00  0.00    -0.019 A 
HETATM   32  C3  UNL     1      -9.349   6.373  13.598  1.00  0.00     0.039 A 
HETATM   33  C5  UNL     1      -9.134   5.912  11.107  1.00  0.00     0.052 C 
HETATM   34  C35 UNL     1      -8.720   5.770  14.814  1.00  0.00     0.256 A 
HETATM   35  N4  UNL     1      -7.852   4.812  14.354  1.00  0.00    -0.322 N 
HETATM   36  O8  UNL     1      -8.907   6.058  15.981  1.00  0.00    -0.267 OA
HETATM   37  H36 UNL     1      -7.304   4.253  14.990  1.00  0.00     0.169 HD
BRANCH  32  38
HETATM   38  C2  UNL     1     -10.335   7.429  13.588  1.00  0.00     0.007 C 
HETATM   39  C1  UNL     1     -11.590   7.340  13.131  1.00  0.00     0.012 C 
ENDBRANCH  32  38
ENDBRANCH  29  30
ENDBRANCH   1  29
BRANCH  13  40
HETATM   40  C20 UNL     1       1.831   5.622  10.563  1.00  0.00     0.115 C 
BRANCH  40  41
HETATM   41  C21 UNL     1       3.105   6.403  10.615  1.00  0.00     0.022 A 
HETATM   42  C22 UNL     1       3.537   7.517   9.907  1.00  0.00    -0.020 A 
HETATM   43  C25 UNL     1       4.872   7.816  10.362  1.00  0.00     0.040 A 
HETATM   44  C27 UNL     1       5.203   6.868  11.322  1.00  0.00     0.084 A 
HETATM   45  N2  UNL     1       4.127   6.024  11.451  1.00  0.00    -0.356 N 
HETATM   46  H24 UNL     1       4.105   5.240  12.095  1.00  0.00     0.166 HD
BRANCH  42  47
HETATM   47  C23 UNL     1       2.755   8.261   8.864  1.00  0.00     0.037 C 
HETATM   48  C24 UNL     1       2.409   7.382   7.669  1.00  0.00     0.010 C 
ENDBRANCH  42  47
BRANCH  43  49
HETATM   49  C26 UNL     1       5.731   8.899   9.906  1.00  0.00     0.273 C 
HETATM   50  O4  UNL     1       5.629  10.062  10.288  1.00  0.00    -0.301 OA
ENDBRANCH  43  49
BRANCH  44  51
HETATM   51  C28 UNL     1       6.399   6.680  12.108  1.00  0.00     0.288 C 
HETATM   52  O5  UNL     1       7.524   6.896  11.664  1.00  0.00    -0.300 OA
ENDBRANCH  44  51
ENDBRANCH  40  41
ENDBRANCH  13  40
TORSDOF 14
ENDMDL
