MODEL 1
REMARK minimizedAffinity -9.42985535
REMARK CNNscore 0.49977386
REMARK CNNaffinity 7.65839624
REMARK  18 active torsions:
REMARK  status: ('A' for Active; 'I' for Inactive)
REMARK    1  A    between atoms: C19_20  and  O2_21 
REMARK    2  A    between atoms: C19_20  and  C20_22 
REMARK    3  A    between atoms: C20_22  and  C21_24 
REMARK    4  A    between atoms: C21_24  and  O4_25 
REMARK    5  A    between atoms: O4_25  and  C22_26 
REMARK    6  A    between atoms: C22_26  and  C23_28 
REMARK    7  A    between atoms: C23_28  and  C24_29 
REMARK    8  A    between atoms: C24_29  and  C25_30 
REMARK       I    between atoms: C25_30  and  N1_32 
REMARK    9  A    between atoms: N1_32  and  C26_33 
REMARK   10  A    between atoms: C26_33  and  C27_34 
REMARK   11  A    between atoms: C27_34  and  C28_35 
REMARK   12  A    between atoms: C28_35  and  C29_36 
REMARK   13  A    between atoms: C29_36  and  C30_37 
REMARK   14  A    between atoms: C30_37  and  C31_38 
REMARK       I    between atoms: C31_38  and  N2_40 
REMARK   15  A    between atoms: N2_40  and  C32_41 
REMARK   16  A    between atoms: C32_41  and  C33_42 
REMARK   17  A    between atoms: C36_45  and  C37_46 
REMARK   18  A    between atoms: C37_46  and  O9_48 
ROOT
HETATM    1  C22 UNL     1      -5.361   7.303  14.102  1.00  0.00     0.259 C 
HETATM    2  O5  UNL     1      -5.317   6.293  13.414  1.00  0.00    -0.265 OA
ENDROOT
BRANCH   1   3
HETATM    3  O4  UNL     1      -4.458   8.319  14.044  1.00  0.00    -0.314 OA
BRANCH   3   4
HETATM    4  C21 UNL     1      -3.348   8.189  14.933  1.00  0.00     0.260 C 
BRANCH   4   5
HETATM    5  C20 UNL     1      -2.023   8.686  14.355  1.00  0.00     0.185 C 
HETATM    6  O3  UNL     1      -1.759   9.888  14.386  1.00  0.00    -0.292 OA
BRANCH   5   7
HETATM    7  C19 UNL     1      -1.062   7.614  13.779  1.00  0.00     0.128 C 
HETATM    8  C14 UNL     1      -0.097   8.073  12.629  1.00  0.00    -0.002 C 
HETATM    9  C13 UNL     1       1.152   8.866  13.086  1.00  0.00     0.013 C 
HETATM   10  C15 UNL     1      -0.852   8.848  11.511  1.00  0.00     0.019 C 
HETATM   11  C16 UNL     1       0.371   6.687  12.136  1.00  0.00     0.002 C 
HETATM   12  C12 UNL     1       2.476   8.417  12.413  1.00  0.00     0.007 C 
HETATM   13  C11 UNL     1       2.272   7.956  10.955  1.00  0.00     0.002 C 
HETATM   14  C2  UNL     1       3.554   7.808  10.051  1.00  0.00    -0.016 C 
HETATM   15  C10 UNL     1       1.325   6.697  10.921  1.00  0.00    -0.004 C 
HETATM   16  C1  UNL     1       3.096   7.964   8.569  1.00  0.00     0.020 C 
HETATM   17  C3  UNL     1       4.606   8.938  10.261  1.00  0.00     0.022 C 
HETATM   18  C7  UNL     1       4.173   6.428  10.231  1.00  0.00    -0.068 C 
HETATM   19  C4  UNL     1       5.661   8.656  11.323  1.00  0.00     0.084 C 
HETATM   20  C5  UNL     1       6.305   7.316  11.085  1.00  0.00     0.149 C 
HETATM   21  O1  UNL     1       7.491   7.101  11.319  1.00  0.00    -0.293 OA
HETATM   22  C6  UNL     1       5.429   6.205  10.652  1.00  0.00     0.053 C 
HETATM   23  C8  UNL     1       3.252   5.273   9.948  1.00  0.00     0.035 C 
HETATM   24  C9  UNL     1       2.075   5.342  10.908  1.00  0.00     0.010 C 
HETATM   25  C17 UNL     1      -0.923   5.881  12.011  1.00  0.00     0.009 C 
HETATM   26  C18 UNL     1      -1.835   6.437  13.125  1.00  0.00     0.047 C 
BRANCH   7  27
HETATM   27  O2  UNL     1      -0.271   7.083  14.857  1.00  0.00    -0.381 OA
HETATM   28  H27 UNL     1      -0.826   6.476  15.381  1.00  0.00     0.211 HD
ENDBRANCH   7  27
ENDBRANCH   5   7
ENDBRANCH   4   5
ENDBRANCH   3   4
ENDBRANCH   1   3
BRANCH   1  29
HETATM   29  C23 UNL     1      -6.373   7.526  15.193  1.00  0.00     0.120 C 
BRANCH  29  30
HETATM   30  C24 UNL     1      -6.939   8.942  15.194  1.00  0.00     0.112 C 
BRANCH  30  31
HETATM   31  C25 UNL     1      -8.453   8.922  15.186  1.00  0.00     0.217 C 
HETATM   32  O6  UNL     1      -9.137   9.911  15.414  1.00  0.00    -0.274 OA
HETATM   33  N1  UNL     1      -8.977   7.685  14.884  1.00  0.00    -0.361 N 
HETATM   34  H34 UNL     1      -8.357   6.905  14.711  1.00  0.00     0.162 HD
BRANCH  33  35
HETATM   35  C26 UNL     1     -10.405   7.439  14.876  1.00  0.00     0.122 C 
BRANCH  35  36
HETATM   36  C27 UNL     1     -10.856   6.560  13.706  1.00  0.00     0.020 C 
BRANCH  36  37
HETATM   37  C28 UNL     1     -10.455   7.078  12.319  1.00  0.00     0.002 C 
BRANCH  37  38
HETATM   38  C29 UNL     1      -9.461   6.183  11.575  1.00  0.00     0.009 C 
BRANCH  38  39
HETATM   39  C30 UNL     1      -8.300   5.733  12.462  1.00  0.00     0.103 C 
BRANCH  39  40
HETATM   40  C31 UNL     1      -8.089   4.228  12.465  1.00  0.00     0.217 C 
HETATM   41  O7  UNL     1      -8.929   3.420  12.846  1.00  0.00    -0.274 OA
HETATM   42  N2  UNL     1      -6.844   3.871  11.990  1.00  0.00    -0.357 N 
HETATM   43  H45 UNL     1      -6.286   4.567  11.515  1.00  0.00     0.162 HD
BRANCH  42  44
HETATM   44  C32 UNL     1      -6.460   2.486  11.839  1.00  0.00     0.161 C 
BRANCH  44  45
HETATM   45  C33 UNL     1      -4.977   2.352  11.602  1.00  0.00    -0.040 A 
HETATM   46  C34 UNL     1      -4.228   3.427  11.100  1.00  0.00     0.010 A 
HETATM   47  C35 UNL     1      -2.856   3.288  10.874  1.00  0.00     0.019 A 
HETATM   48  C36 UNL     1      -2.214   2.071  11.144  1.00  0.00     0.037 A 
HETATM   49  C38 UNL     1      -2.958   0.993  11.636  1.00  0.00     0.019 A 
HETATM   50  C39 UNL     1      -4.331   1.133  11.856  1.00  0.00     0.010 A 
BRANCH  48  51
HETATM   51  C37 UNL     1      -0.757   1.973  10.892  1.00  0.00     0.176 C 
HETATM   52  O8  UNL     1       0.109   2.608  11.466  1.00  0.00    -0.646 OA
BRANCH  51  53
HETATM   53  O9  UNL     1      -0.451   1.075   9.938  1.00  0.00    -0.773 OA
HETATM   54  H50 UNL     1       0.527   1.115   9.884  1.00  0.00     0.167 HD
ENDBRANCH  51  53
ENDBRANCH  48  51
ENDBRANCH  44  45
ENDBRANCH  42  44
ENDBRANCH  39  40
ENDBRANCH  38  39
ENDBRANCH  37  38
ENDBRANCH  36  37
ENDBRANCH  35  36
ENDBRANCH  33  35
ENDBRANCH  30  31
ENDBRANCH  29  30
ENDBRANCH   1  29
TORSDOF 18
ENDMDL
MODEL 2
REMARK minimizedAffinity -8.89245701
REMARK CNNscore 0.465772033
REMARK CNNaffinity 6.88213539
REMARK  18 active torsions:
REMARK  status: ('A' for Active; 'I' for Inactive)
REMARK    1  A    between atoms: C19_20  and  O2_21 
REMARK    2  A    between atoms: C19_20  and  C20_22 
REMARK    3  A    between atoms: C20_22  and  C21_24 
REMARK    4  A    between atoms: C21_24  and  O4_25 
REMARK    5  A    between atoms: O4_25  and  C22_26 
REMARK    6  A    between atoms: C22_26  and  C23_28 
REMARK    7  A    between atoms: C23_28  and  C24_29 
REMARK    8  A    between atoms: C24_29  and  C25_30 
REMARK       I    between atoms: C25_30  and  N1_32 
REMARK    9  A    between atoms: N1_32  and  C26_33 
REMARK   10  A    between atoms: C26_33  and  C27_34 
REMARK   11  A    between atoms: C27_34  and  C28_35 
REMARK   12  A    between atoms: C28_35  and  C29_36 
REMARK   13  A    between atoms: C29_36  and  C30_37 
REMARK   14  A    between atoms: C30_37  and  C31_38 
REMARK       I    between atoms: C31_38  and  N2_40 
REMARK   15  A    between atoms: N2_40  and  C32_41 
REMARK   16  A    between atoms: C32_41  and  C33_42 
REMARK   17  A    between atoms: C36_45  and  C37_46 
REMARK   18  A    between atoms: C37_46  and  O9_48 
ROOT
HETATM    1  C22 UNL     1      -4.642   4.937  13.599  1.00  0.00     0.259 C 
HETATM    2  O5  UNL     1      -3.915   3.964  13.456  1.00  0.00    -0.265 OA
ENDROOT
BRANCH   1   3
HETATM    3  O4  UNL     1      -4.238   6.137  14.099  1.00  0.00    -0.314 OA
BRANCH   3   4
HETATM    4  C21 UNL     1      -3.221   6.061  15.098  1.00  0.00     0.260 C 
BRANCH   4   5
HETATM    5  C20 UNL     1      -1.914   6.752  14.713  1.00  0.00     0.185 C 
HETATM    6  O3  UNL     1      -1.102   7.050  15.590  1.00  0.00    -0.292 OA
BRANCH   5   7
HETATM    7  C19 UNL     1      -1.676   7.015  13.204  1.00  0.00     0.128 C 
HETATM    8  C14 UNL     1      -0.183   7.066  12.720  1.00  0.00    -0.002 C 
HETATM    9  C13 UNL     1       0.503   5.691  12.532  1.00  0.00     0.013 C 
HETATM   10  C15 UNL     1       0.688   7.987  13.622  1.00  0.00     0.019 C 
HETATM   11  C16 UNL     1      -0.402   7.688  11.324  1.00  0.00     0.002 C 
HETATM   12  C12 UNL     1       1.318   5.558  11.219  1.00  0.00     0.007 C 
HETATM   13  C11 UNL     1       1.987   6.885  10.800  1.00  0.00     0.002 C 
HETATM   14  C2  UNL     1       3.112   6.818   9.700  1.00  0.00    -0.016 C 
HETATM   15  C10 UNL     1       0.882   7.970  10.511  1.00  0.00    -0.004 C 
HETATM   16  C1  UNL     1       4.026   8.066   9.897  1.00  0.00     0.020 C 
HETATM   17  C3  UNL     1       4.069   5.598   9.851  1.00  0.00     0.022 C 
HETATM   18  C7  UNL     1       2.497   6.876   8.308  1.00  0.00    -0.068 C 
HETATM   19  C4  UNL     1       3.646   4.342   9.100  1.00  0.00     0.084 C 
HETATM   20  C5  UNL     1       3.356   4.662   7.658  1.00  0.00     0.149 C 
HETATM   21  O1  UNL     1       3.608   3.882   6.743  1.00  0.00    -0.293 OA
HETATM   22  C6  UNL     1       2.645   5.927   7.369  1.00  0.00     0.053 C 
HETATM   23  C8  UNL     1       1.636   8.080   8.040  1.00  0.00     0.035 C 
HETATM   24  C9  UNL     1       0.474   8.076   9.021  1.00  0.00     0.010 C 
HETATM   25  C17 UNL     1      -1.346   8.862  11.584  1.00  0.00     0.009 C 
HETATM   26  C18 UNL     1      -2.224   8.399  12.765  1.00  0.00     0.047 C 
BRANCH   7  27
HETATM   27  O2  UNL     1      -2.367   6.003  12.450  1.00  0.00    -0.381 OA
HETATM   28  H27 UNL     1      -3.321   6.206  12.457  1.00  0.00     0.211 HD
ENDBRANCH   7  27
ENDBRANCH   5   7
ENDBRANCH   4   5
ENDBRANCH   3   4
ENDBRANCH   1   3
BRANCH   1  29
HETATM   29  C23 UNL     1      -6.123   4.919  13.336  1.00  0.00     0.120 C 
BRANCH  29  30
HETATM   30  C24 UNL     1      -6.824   6.187  13.813  1.00  0.00     0.112 C 
BRANCH  30  31
HETATM   31  C25 UNL     1      -8.286   6.180  13.420  1.00  0.00     0.217 C 
HETATM   32  O6  UNL     1      -8.713   5.581  12.441  1.00  0.00    -0.274 OA
HETATM   33  N1  UNL     1      -9.083   6.901  14.281  1.00  0.00    -0.361 N 
HETATM   34  H34 UNL     1      -8.667   7.378  15.070  1.00  0.00     0.162 HD
BRANCH  33  35
HETATM   35  C26 UNL     1     -10.505   7.064  14.055  1.00  0.00     0.122 C 
BRANCH  35  36
HETATM   36  C27 UNL     1     -11.109   8.231  14.841  1.00  0.00     0.020 C 
BRANCH  36  37
HETATM   37  C28 UNL     1     -10.474   9.598  14.553  1.00  0.00     0.002 C 
BRANCH  37  38
HETATM   38  C29 UNL     1      -9.907  10.302  15.789  1.00  0.00     0.009 C 
BRANCH  38  39
HETATM   39  C30 UNL     1     -10.784  11.465  16.253  1.00  0.00     0.103 C 
BRANCH  39  40
HETATM   40  C31 UNL     1     -10.213  12.217  17.444  1.00  0.00     0.217 C 
HETATM   41  O7  UNL     1      -9.227  12.945  17.385  1.00  0.00    -0.274 OA
HETATM   42  N2  UNL     1     -10.929  11.991  18.601  1.00  0.00    -0.357 N 
HETATM   43  H45 UNL     1     -11.833  11.544  18.535  1.00  0.00     0.162 HD
BRANCH  42  44
HETATM   44  C32 UNL     1     -10.602  12.664  19.837  1.00  0.00     0.161 C 
BRANCH  44  45
HETATM   45  C33 UNL     1     -10.743  11.738  21.019  1.00  0.00    -0.040 A 
HETATM   46  C34 UNL     1     -10.517  12.198  22.324  1.00  0.00     0.010 A 
HETATM   47  C35 UNL     1     -10.640  11.327  23.412  1.00  0.00     0.019 A 
HETATM   48  C36 UNL     1     -10.986   9.985  23.207  1.00  0.00     0.037 A 
HETATM   49  C38 UNL     1     -11.203   9.518  21.906  1.00  0.00     0.019 A 
HETATM   50  C39 UNL     1     -11.075  10.389  20.820  1.00  0.00     0.010 A 
BRANCH  48  51
HETATM   51  C37 UNL     1     -11.107   9.101  24.391  1.00  0.00     0.176 C 
HETATM   52  O8  UNL     1     -10.990   9.448  25.552  1.00  0.00    -0.646 OA
BRANCH  51  53
HETATM   53  O9  UNL     1     -11.378   7.825  24.065  1.00  0.00    -0.773 OA
HETATM   54  H50 UNL     1     -11.434   7.368  24.931  1.00  0.00     0.167 HD
ENDBRANCH  51  53
ENDBRANCH  48  51
ENDBRANCH  44  45
ENDBRANCH  42  44
ENDBRANCH  39  40
ENDBRANCH  38  39
ENDBRANCH  37  38
ENDBRANCH  36  37
ENDBRANCH  35  36
ENDBRANCH  33  35
ENDBRANCH  30  31
ENDBRANCH  29  30
ENDBRANCH   1  29
TORSDOF 18
ENDMDL
MODEL 3
REMARK minimizedAffinity -8.22921276
REMARK CNNscore 0.461544245
REMARK CNNaffinity 7.85873842
REMARK  18 active torsions:
REMARK  status: ('A' for Active; 'I' for Inactive)
REMARK    1  A    between atoms: C19_20  and  O2_21 
REMARK    2  A    between atoms: C19_20  and  C20_22 
REMARK    3  A    between atoms: C20_22  and  C21_24 
REMARK    4  A    between atoms: C21_24  and  O4_25 
REMARK    5  A    between atoms: O4_25  and  C22_26 
REMARK    6  A    between atoms: C22_26  and  C23_28 
REMARK    7  A    between atoms: C23_28  and  C24_29 
REMARK    8  A    between atoms: C24_29  and  C25_30 
REMARK       I    between atoms: C25_30  and  N1_32 
REMARK    9  A    between atoms: N1_32  and  C26_33 
REMARK   10  A    between atoms: C26_33  and  C27_34 
REMARK   11  A    between atoms: C27_34  and  C28_35 
REMARK   12  A    between atoms: C28_35  and  C29_36 
REMARK   13  A    between atoms: C29_36  and  C30_37 
REMARK   14  A    between atoms: C30_37  and  C31_38 
REMARK       I    between atoms: C31_38  and  N2_40 
REMARK   15  A    between atoms: N2_40  and  C32_41 
REMARK   16  A    between atoms: C32_41  and  C33_42 
REMARK   17  A    between atoms: C36_45  and  C37_46 
REMARK   18  A    between atoms: C37_46  and  O9_48 
ROOT
HETATM    1  C22 UNL     1      -5.553   2.586  11.187  1.00  0.00     0.259 C 
HETATM    2  O5  UNL     1      -6.000   1.449  11.123  1.00  0.00    -0.265 OA
ENDROOT
BRANCH   1   3
HETATM    3  O4  UNL     1      -6.292   3.693  11.476  1.00  0.00    -0.314 OA
BRANCH   3   4
HETATM    4  C21 UNL     1      -6.889   3.695  12.773  1.00  0.00     0.260 C 
BRANCH   4   5
HETATM    5  C20 UNL     1      -6.236   4.663  13.759  1.00  0.00     0.185 C 
HETATM    6  O3  UNL     1      -5.036   4.915  13.659  1.00  0.00    -0.292 OA
BRANCH   5   7
HETATM    7  C19 UNL     1      -7.157   5.302  14.830  1.00  0.00     0.128 C 
HETATM    8  C14 UNL     1      -7.932   6.604  14.414  1.00  0.00    -0.002 C 
HETATM    9  C13 UNL     1      -9.193   6.378  13.545  1.00  0.00     0.013 C 
HETATM   10  C15 UNL     1      -6.993   7.648  13.746  1.00  0.00     0.019 C 
HETATM   11  C16 UNL     1      -8.391   7.070  15.812  1.00  0.00     0.002 C 
HETATM   12  C12 UNL     1     -10.430   7.202  13.987  1.00  0.00     0.007 C 
HETATM   13  C11 UNL     1     -10.048   8.585  14.554  1.00  0.00     0.002 C 
HETATM   14  C2  UNL     1     -11.198   9.650  14.714  1.00  0.00    -0.016 C 
HETATM   15  C10 UNL     1      -9.166   8.407  15.847  1.00  0.00    -0.004 C 
HETATM   16  C1  UNL     1     -10.532  11.060  14.676  1.00  0.00     0.020 C 
HETATM   17  C3  UNL     1     -12.215   9.661  13.533  1.00  0.00     0.022 C 
HETATM   18  C7  UNL     1     -11.900   9.475  16.054  1.00  0.00    -0.068 C 
HETATM   19  C4  UNL     1     -13.419   8.743  13.702  1.00  0.00     0.084 C 
HETATM   20  C5  UNL     1     -14.086   8.987  15.029  1.00  0.00     0.149 C 
HETATM   21  O1  UNL     1     -15.302   8.911  15.183  1.00  0.00    -0.293 OA
HETATM   22  C6  UNL     1     -13.211   9.223  16.200  1.00  0.00     0.053 C 
HETATM   23  C8  UNL     1     -11.005   9.553  17.260  1.00  0.00     0.035 C 
HETATM   24  C9  UNL     1      -9.970   8.443  17.171  1.00  0.00     0.010 C 
HETATM   25  C17 UNL     1      -7.132   6.961  16.672  1.00  0.00     0.009 C 
HETATM   26  C18 UNL     1      -6.358   5.766  16.077  1.00  0.00     0.047 C 
BRANCH   7  27
HETATM   27  O2  UNL     1      -8.115   4.316  15.256  1.00  0.00    -0.381 OA
HETATM   28  H27 UNL     1      -7.667   3.683  15.847  1.00  0.00     0.211 HD
ENDBRANCH   7  27
ENDBRANCH   5   7
ENDBRANCH   4   5
ENDBRANCH   3   4
ENDBRANCH   1   3
BRANCH   1  29
HETATM   29  C23 UNL     1      -4.131   2.945  10.853  1.00  0.00     0.120 C 
BRANCH  29  30
HETATM   30  C24 UNL     1      -3.116   2.224  11.735  1.00  0.00     0.112 C 
BRANCH  30  31
HETATM   31  C25 UNL     1      -1.703   2.476  11.255  1.00  0.00     0.217 C 
HETATM   32  O6  UNL     1      -1.182   1.844  10.346  1.00  0.00    -0.274 OA
HETATM   33  N1  UNL     1      -1.073   3.495  11.934  1.00  0.00    -0.361 N 
HETATM   34  H34 UNL     1      -1.557   3.976  12.680  1.00  0.00     0.162 HD
BRANCH  33  35
HETATM   35  C26 UNL     1       0.303   3.861  11.664  1.00  0.00     0.122 C 
BRANCH  35  36
HETATM   36  C27 UNL     1       0.441   5.235  11.004  1.00  0.00     0.020 C 
BRANCH  36  37
HETATM   37  C28 UNL     1       1.646   6.058  11.476  1.00  0.00     0.002 C 
BRANCH  37  38
HETATM   38  C29 UNL     1       2.633   6.426  10.365  1.00  0.00     0.009 C 
BRANCH  38  39
HETATM   39  C30 UNL     1       4.056   6.621  10.886  1.00  0.00     0.103 C 
BRANCH  39  40
HETATM   40  C31 UNL     1       4.327   8.027  11.398  1.00  0.00     0.217 C 
HETATM   41  O7  UNL     1       3.485   8.729  11.947  1.00  0.00    -0.274 OA
HETATM   42  N2  UNL     1       5.629   8.424  11.178  1.00  0.00    -0.357 N 
HETATM   43  H45 UNL     1       6.311   7.730  10.904  1.00  0.00     0.162 HD
BRANCH  42  44
HETATM   44  C32 UNL     1       6.122   9.698  11.650  1.00  0.00     0.161 C 
BRANCH  44  45
HETATM   45  C33 UNL     1       6.694   9.584  13.041  1.00  0.00    -0.040 A 
HETATM   46  C34 UNL     1       5.905   9.857  14.168  1.00  0.00     0.010 A 
HETATM   47  C35 UNL     1       6.448   9.758  15.452  1.00  0.00     0.019 A 
HETATM   48  C36 UNL     1       7.789   9.387  15.626  1.00  0.00     0.037 A 
HETATM   49  C38 UNL     1       8.583   9.122  14.505  1.00  0.00     0.019 A 
HETATM   50  C39 UNL     1       8.039   9.227  13.221  1.00  0.00     0.010 A 
BRANCH  48  51
HETATM   51  C37 UNL     1       8.320   9.292  17.007  1.00  0.00     0.176 C 
HETATM   52  O8  UNL     1       9.336   8.710  17.339  1.00  0.00    -0.646 OA
BRANCH  51  53
HETATM   53  O9  UNL     1       7.558   9.940  17.906  1.00  0.00    -0.773 OA
HETATM   54  H50 UNL     1       8.025   9.798  18.755  1.00  0.00     0.167 HD
ENDBRANCH  51  53
ENDBRANCH  48  51
ENDBRANCH  44  45
ENDBRANCH  42  44
ENDBRANCH  39  40
ENDBRANCH  38  39
ENDBRANCH  37  38
ENDBRANCH  36  37
ENDBRANCH  35  36
ENDBRANCH  33  35
ENDBRANCH  30  31
ENDBRANCH  29  30
ENDBRANCH   1  29
TORSDOF 18
ENDMDL
MODEL 4
REMARK minimizedAffinity -8.62697792
REMARK CNNscore 0.427451015
REMARK CNNaffinity 7.15888357
REMARK  18 active torsions:
REMARK  status: ('A' for Active; 'I' for Inactive)
REMARK    1  A    between atoms: C19_20  and  O2_21 
REMARK    2  A    between atoms: C19_20  and  C20_22 
REMARK    3  A    between atoms: C20_22  and  C21_24 
REMARK    4  A    between atoms: C21_24  and  O4_25 
REMARK    5  A    between atoms: O4_25  and  C22_26 
REMARK    6  A    between atoms: C22_26  and  C23_28 
REMARK    7  A    between atoms: C23_28  and  C24_29 
REMARK    8  A    between atoms: C24_29  and  C25_30 
REMARK       I    between atoms: C25_30  and  N1_32 
REMARK    9  A    between atoms: N1_32  and  C26_33 
REMARK   10  A    between atoms: C26_33  and  C27_34 
REMARK   11  A    between atoms: C27_34  and  C28_35 
REMARK   12  A    between atoms: C28_35  and  C29_36 
REMARK   13  A    between atoms: C29_36  and  C30_37 
REMARK   14  A    between atoms: C30_37  and  C31_38 
REMARK       I    between atoms: C31_38  and  N2_40 
REMARK   15  A    between atoms: N2_40  and  C32_41 
REMARK   16  A    between atoms: C32_41  and  C33_42 
REMARK   17  A    between atoms: C36_45  and  C37_46 
REMARK   18  A    between atoms: C37_46  and  O9_48 
ROOT
HETATM    1  C22 UNL     1      -4.474   5.068  13.712  1.00  0.00     0.259 C 
HETATM    2  O5  UNL     1      -3.683   4.136  13.686  1.00  0.00    -0.265 OA
ENDROOT
BRANCH   1   3
HETATM    3  O4  UNL     1      -4.162   6.338  14.093  1.00  0.00    -0.314 OA
BRANCH   3   4
HETATM    4  C21 UNL     1      -3.214   6.430  15.158  1.00  0.00     0.260 C 
BRANCH   4   5
HETATM    5  C20 UNL     1      -1.859   6.999  14.739  1.00  0.00     0.185 C 
HETATM    6  O3  UNL     1      -1.009   7.238  15.597  1.00  0.00    -0.292 OA
BRANCH   5   7
HETATM    7  C19 UNL     1      -1.627   7.217  13.222  1.00  0.00     0.128 C 
HETATM    8  C14 UNL     1      -0.136   7.241  12.730  1.00  0.00    -0.002 C 
HETATM    9  C13 UNL     1       0.537   5.855  12.577  1.00  0.00     0.013 C 
HETATM   10  C15 UNL     1       0.748   8.179  13.601  1.00  0.00     0.019 C 
HETATM   11  C16 UNL     1      -0.356   7.825  11.318  1.00  0.00     0.002 C 
HETATM   12  C12 UNL     1       1.344   5.678  11.264  1.00  0.00     0.007 C 
HETATM   13  C11 UNL     1       2.023   6.986  10.805  1.00  0.00     0.002 C 
HETATM   14  C2  UNL     1       3.142   6.879   9.702  1.00  0.00    -0.016 C 
HETATM   15  C10 UNL     1       0.926   8.073  10.491  1.00  0.00    -0.004 C 
HETATM   16  C1  UNL     1       4.068   8.123   9.860  1.00  0.00     0.020 C 
HETATM   17  C3  UNL     1       4.089   5.654   9.883  1.00  0.00     0.022 C 
HETATM   18  C7  UNL     1       2.520   6.903   8.312  1.00  0.00    -0.068 C 
HETATM   19  C4  UNL     1       3.651   4.382   9.169  1.00  0.00     0.084 C 
HETATM   20  C5  UNL     1       3.356   4.664   7.720  1.00  0.00     0.149 C 
HETATM   21  O1  UNL     1       3.597   3.856   6.827  1.00  0.00    -0.293 OA
HETATM   22  C6  UNL     1       2.655   5.926   7.399  1.00  0.00     0.053 C 
HETATM   23  C8  UNL     1       1.668   8.106   8.014  1.00  0.00     0.035 C 
HETATM   24  C9  UNL     1       0.512   8.141   9.000  1.00  0.00     0.010 C 
HETATM   25  C17 UNL     1      -1.288   9.014  11.549  1.00  0.00     0.009 C 
HETATM   26  C18 UNL     1      -2.164   8.593  12.747  1.00  0.00     0.047 C 
BRANCH   7  27
HETATM   27  O2  UNL     1      -2.330   6.190  12.500  1.00  0.00    -0.381 OA
HETATM   28  H27 UNL     1      -3.283   6.403  12.506  1.00  0.00     0.211 HD
ENDBRANCH   7  27
ENDBRANCH   5   7
ENDBRANCH   4   5
ENDBRANCH   3   4
ENDBRANCH   1   3
BRANCH   1  29
HETATM   29  C23 UNL     1      -5.943   4.926  13.420  1.00  0.00     0.120 C 
BRANCH  29  30
HETATM   30  C24 UNL     1      -6.739   6.180  13.766  1.00  0.00     0.112 C 
BRANCH  30  31
HETATM   31  C25 UNL     1      -8.169   6.066  13.280  1.00  0.00     0.217 C 
HETATM   32  O6  UNL     1      -8.497   5.381  12.321  1.00  0.00    -0.274 OA
HETATM   33  N1  UNL     1      -9.058   6.798  14.035  1.00  0.00    -0.361 N 
HETATM   34  H34 UNL     1      -8.722   7.349  14.814  1.00  0.00     0.162 HD
BRANCH  33  35
HETATM   35  C26 UNL     1     -10.468   6.867  13.706  1.00  0.00     0.122 C 
BRANCH  35  36
HETATM   36  C27 UNL     1     -11.310   7.520  14.805  1.00  0.00     0.020 C 
BRANCH  36  37
HETATM   37  C28 UNL     1     -10.861   8.931  15.208  1.00  0.00     0.002 C 
BRANCH  37  38
HETATM   38  C29 UNL     1     -10.758   9.152  16.719  1.00  0.00     0.009 C 
BRANCH  38  39
HETATM   39  C30 UNL     1     -11.912   9.990  17.269  1.00  0.00     0.103 C 
BRANCH  39  40
HETATM   40  C31 UNL     1     -11.890  10.135  18.782  1.00  0.00     0.217 C 
HETATM   41  O7  UNL     1     -11.056  10.794  19.394  1.00  0.00    -0.274 OA
HETATM   42  N2  UNL     1     -12.915   9.442  19.391  1.00  0.00    -0.357 N 
HETATM   43  H45 UNL     1     -13.670   9.089  18.821  1.00  0.00     0.162 HD
BRANCH  42  44
HETATM   44  C32 UNL     1     -13.125   9.501  20.820  1.00  0.00     0.161 C 
BRANCH  44  45
HETATM   45  C33 UNL     1     -13.318   8.125  21.403  1.00  0.00    -0.040 A 
HETATM   46  C34 UNL     1     -13.940   7.110  20.660  1.00  0.00     0.010 A 
HETATM   47  C35 UNL     1     -14.123   5.840  21.215  1.00  0.00     0.019 A 
HETATM   48  C36 UNL     1     -13.690   5.569  22.521  1.00  0.00     0.037 A 
HETATM   49  C38 UNL     1     -13.078   6.580  23.269  1.00  0.00     0.019 A 
HETATM   50  C39 UNL     1     -12.900   7.851  22.714  1.00  0.00     0.010 A 
BRANCH  48  51
HETATM   51  C37 UNL     1     -13.904   4.207  23.065  1.00  0.00     0.176 C 
HETATM   52  O8  UNL     1     -14.624   3.353  22.581  1.00  0.00    -0.646 OA
BRANCH  51  53
HETATM   53  O9  UNL     1     -13.197   3.974  24.185  1.00  0.00    -0.773 OA
HETATM   54  H50 UNL     1     -13.430   3.052  24.422  1.00  0.00     0.167 HD
ENDBRANCH  51  53
ENDBRANCH  48  51
ENDBRANCH  44  45
ENDBRANCH  42  44
ENDBRANCH  39  40
ENDBRANCH  38  39
ENDBRANCH  37  38
ENDBRANCH  36  37
ENDBRANCH  35  36
ENDBRANCH  33  35
ENDBRANCH  30  31
ENDBRANCH  29  30
ENDBRANCH   1  29
TORSDOF 18
ENDMDL
MODEL 5
REMARK minimizedAffinity -8.04238224
REMARK CNNscore 0.408060044
REMARK CNNaffinity 7.00129271
REMARK  18 active torsions:
REMARK  status: ('A' for Active; 'I' for Inactive)
REMARK    1  A    between atoms: C19_20  and  O2_21 
REMARK    2  A    between atoms: C19_20  and  C20_22 
REMARK    3  A    between atoms: C20_22  and  C21_24 
REMARK    4  A    between atoms: C21_24  and  O4_25 
REMARK    5  A    between atoms: O4_25  and  C22_26 
REMARK    6  A    between atoms: C22_26  and  C23_28 
REMARK    7  A    between atoms: C23_28  and  C24_29 
REMARK    8  A    between atoms: C24_29  and  C25_30 
REMARK       I    between atoms: C25_30  and  N1_32 
REMARK    9  A    between atoms: N1_32  and  C26_33 
REMARK   10  A    between atoms: C26_33  and  C27_34 
REMARK   11  A    between atoms: C27_34  and  C28_35 
REMARK   12  A    between atoms: C28_35  and  C29_36 
REMARK   13  A    between atoms: C29_36  and  C30_37 
REMARK   14  A    between atoms: C30_37  and  C31_38 
REMARK       I    between atoms: C31_38  and  N2_40 
REMARK   15  A    between atoms: N2_40  and  C32_41 
REMARK   16  A    between atoms: C32_41  and  C33_42 
REMARK   17  A    between atoms: C36_45  and  C37_46 
REMARK   18  A    between atoms: C37_46  and  O9_48 
ROOT
HETATM    1  C22 UNL     1       1.408   6.814  11.386  1.00  0.00     0.259 C 
HETATM    2  O5  UNL     1       1.234   5.802  10.722  1.00  0.00    -0.265 OA
ENDROOT
BRANCH   1   3
HETATM    3  O4  UNL     1       0.460   7.765  11.611  1.00  0.00    -0.314 OA
BRANCH   3   4
HETATM    4  C21 UNL     1       0.211   8.052  12.988  1.00  0.00     0.260 C 
BRANCH   4   5
HETATM    5  C20 UNL     1      -0.610   6.985  13.710  1.00  0.00     0.185 C 
HETATM    6  O3  UNL     1      -0.182   6.491  14.753  1.00  0.00    -0.292 OA
BRANCH   5   7
HETATM    7  C19 UNL     1      -1.975   6.605  13.082  1.00  0.00     0.128 C 
HETATM    8  C14 UNL     1      -3.156   6.312  14.075  1.00  0.00    -0.002 C 
HETATM    9  C13 UNL     1      -3.844   7.562  14.677  1.00  0.00     0.013 C 
HETATM   10  C15 UNL     1      -2.734   5.330  15.204  1.00  0.00     0.019 C 
HETATM   11  C16 UNL     1      -4.143   5.649  13.090  1.00  0.00     0.002 C 
HETATM   12  C12 UNL     1      -5.394   7.501  14.675  1.00  0.00     0.007 C 
HETATM   13  C11 UNL     1      -5.931   6.070  14.893  1.00  0.00     0.002 C 
HETATM   14  C2  UNL     1      -7.454   5.911  15.260  1.00  0.00    -0.016 C 
HETATM   15  C10 UNL     1      -5.463   5.139  13.711  1.00  0.00    -0.004 C 
HETATM   16  C1  UNL     1      -7.609   4.559  16.021  1.00  0.00     0.020 C 
HETATM   17  C3  UNL     1      -7.978   6.989  16.257  1.00  0.00     0.022 C 
HETATM   18  C7  UNL     1      -8.301   5.862  13.995  1.00  0.00    -0.068 C 
HETATM   19  C4  UNL     1      -8.549   8.247  15.614  1.00  0.00     0.084 C 
HETATM   20  C5  UNL     1      -9.574   7.889  14.573  1.00  0.00     0.149 C 
HETATM   21  O1  UNL     1     -10.576   8.571  14.368  1.00  0.00    -0.293 OA
HETATM   22  C6  UNL     1      -9.289   6.725  13.706  1.00  0.00     0.053 C 
HETATM   23  C8  UNL     1      -7.929   4.781  13.018  1.00  0.00     0.035 C 
HETATM   24  C9  UNL     1      -6.496   5.007  12.564  1.00  0.00     0.010 C 
HETATM   25  C17 UNL     1      -3.285   4.640  12.328  1.00  0.00     0.009 C 
HETATM   26  C18 UNL     1      -1.888   5.290  12.261  1.00  0.00     0.047 C 
BRANCH   7  27
HETATM   27  O2  UNL     1      -2.378   7.660  12.190  1.00  0.00    -0.381 OA
HETATM   28  H27 UNL     1      -1.849   7.596  11.373  1.00  0.00     0.211 HD
ENDBRANCH   7  27
ENDBRANCH   5   7
ENDBRANCH   4   5
ENDBRANCH   3   4
ENDBRANCH   1   3
BRANCH   1  29
HETATM   29  C23 UNL     1       2.735   7.208  11.975  1.00  0.00     0.120 C 
BRANCH  29  30
HETATM   30  C24 UNL     1       3.918   6.613  11.219  1.00  0.00     0.112 C 
BRANCH  30  31
HETATM   31  C25 UNL     1       5.222   7.231  11.676  1.00  0.00     0.217 C 
HETATM   32  O6  UNL     1       6.314   6.889  11.242  1.00  0.00    -0.274 OA
HETATM   33  N1  UNL     1       5.052   8.223  12.616  1.00  0.00    -0.361 N 
HETATM   34  H34 UNL     1       4.122   8.455  12.939  1.00  0.00     0.162 HD
BRANCH  33  35
HETATM   35  C26 UNL     1       6.177   8.906  13.223  1.00  0.00     0.122 C 
BRANCH  35  36
HETATM   36  C27 UNL     1       6.704   8.201  14.475  1.00  0.00     0.020 C 
BRANCH  36  37
HETATM   37  C28 UNL     1       7.990   8.801  15.059  1.00  0.00     0.002 C 
BRANCH  37  38
HETATM   38  C29 UNL     1       9.199   7.862  15.019  1.00  0.00     0.009 C 
BRANCH  38  39
HETATM   39  C30 UNL     1      10.240   8.292  13.986  1.00  0.00     0.103 C 
BRANCH  39  40
HETATM   40  C31 UNL     1      10.710   9.727  14.161  1.00  0.00     0.217 C 
HETATM   41  O7  UNL     1      10.804  10.533  13.241  1.00  0.00    -0.274 OA
HETATM   42  N2  UNL     1      11.018  10.023  15.472  1.00  0.00    -0.357 N 
HETATM   43  H45 UNL     1      10.732   9.380  16.197  1.00  0.00     0.162 HD
BRANCH  42  44
HETATM   44  C32 UNL     1      11.416  11.353  15.875  1.00  0.00     0.161 C 
BRANCH  44  45
HETATM   45  C33 UNL     1      10.978  11.652  17.286  1.00  0.00    -0.040 A 
HETATM   46  C34 UNL     1      11.393  12.824  17.935  1.00  0.00     0.010 A 
HETATM   47  C35 UNL     1      10.989  13.086  19.247  1.00  0.00     0.019 A 
HETATM   48  C36 UNL     1      10.167  12.178  19.929  1.00  0.00     0.037 A 
HETATM   49  C38 UNL     1       9.758  11.003  19.290  1.00  0.00     0.019 A 
HETATM   50  C39 UNL     1      10.168  10.740  17.979  1.00  0.00     0.010 A 
BRANCH  48  51
HETATM   51  C37 UNL     1       9.763  12.500  21.318  1.00  0.00     0.176 C 
HETATM   52  O8  UNL     1       9.253  11.726  22.108  1.00  0.00    -0.646 OA
BRANCH  51  53
HETATM   53  O9  UNL     1      10.024  13.775  21.657  1.00  0.00    -0.773 OA
HETATM   54  H50 UNL     1       9.714  13.840  22.584  1.00  0.00     0.167 HD
ENDBRANCH  51  53
ENDBRANCH  48  51
ENDBRANCH  44  45
ENDBRANCH  42  44
ENDBRANCH  39  40
ENDBRANCH  38  39
ENDBRANCH  37  38
ENDBRANCH  36  37
ENDBRANCH  35  36
ENDBRANCH  33  35
ENDBRANCH  30  31
ENDBRANCH  29  30
ENDBRANCH   1  29
TORSDOF 18
ENDMDL
MODEL 6
REMARK minimizedAffinity -8.71528625
REMARK CNNscore 0.364257157
REMARK CNNaffinity 7.03362322
REMARK  18 active torsions:
REMARK  status: ('A' for Active; 'I' for Inactive)
REMARK    1  A    between atoms: C19_20  and  O2_21 
REMARK    2  A    between atoms: C19_20  and  C20_22 
REMARK    3  A    between atoms: C20_22  and  C21_24 
REMARK    4  A    between atoms: C21_24  and  O4_25 
REMARK    5  A    between atoms: O4_25  and  C22_26 
REMARK    6  A    between atoms: C22_26  and  C23_28 
REMARK    7  A    between atoms: C23_28  and  C24_29 
REMARK    8  A    between atoms: C24_29  and  C25_30 
REMARK       I    between atoms: C25_30  and  N1_32 
REMARK    9  A    between atoms: N1_32  and  C26_33 
REMARK   10  A    between atoms: C26_33  and  C27_34 
REMARK   11  A    between atoms: C27_34  and  C28_35 
REMARK   12  A    between atoms: C28_35  and  C29_36 
REMARK   13  A    between atoms: C29_36  and  C30_37 
REMARK   14  A    between atoms: C30_37  and  C31_38 
REMARK       I    between atoms: C31_38  and  N2_40 
REMARK   15  A    between atoms: N2_40  and  C32_41 
REMARK   16  A    between atoms: C32_41  and  C33_42 
REMARK   17  A    between atoms: C36_45  and  C37_46 
REMARK   18  A    between atoms: C37_46  and  O9_48 
ROOT
HETATM    1  C22 UNL     1      -3.696   3.057  11.506  1.00  0.00     0.259 C 
HETATM    2  O5  UNL     1      -2.984   2.092  11.747  1.00  0.00    -0.265 OA
ENDROOT
BRANCH   1   3
HETATM    3  O4  UNL     1      -3.377   4.347  11.800  1.00  0.00    -0.314 OA
BRANCH   3   4
HETATM    4  C21 UNL     1      -3.012   4.581  13.161  1.00  0.00     0.260 C 
BRANCH   4   5
HETATM    5  C20 UNL     1      -1.999   5.709  13.350  1.00  0.00     0.185 C 
HETATM    6  O3  UNL     1      -2.313   6.704  14.003  1.00  0.00    -0.292 OA
BRANCH   5   7
HETATM    7  C19 UNL     1      -0.599   5.511  12.715  1.00  0.00     0.128 C 
HETATM    8  C14 UNL     1       0.401   6.719  12.810  1.00  0.00    -0.002 C 
HETATM    9  C13 UNL     1       1.107   6.891  14.177  1.00  0.00     0.013 C 
HETATM   10  C15 UNL     1      -0.261   8.055  12.369  1.00  0.00     0.019 C 
HETATM   11  C16 UNL     1       1.453   6.245  11.784  1.00  0.00     0.002 C 
HETATM   12  C12 UNL     1       2.630   7.167  14.079  1.00  0.00     0.007 C 
HETATM   13  C11 UNL     1       3.001   8.009  12.840  1.00  0.00     0.002 C 
HETATM   14  C2  UNL     1       4.438   8.652  12.799  1.00  0.00    -0.016 C 
HETATM   15  C10 UNL     1       2.622   7.222  11.528  1.00  0.00    -0.004 C 
HETATM   16  C1  UNL     1       4.364   9.893  11.857  1.00  0.00     0.020 C 
HETATM   17  C3  UNL     1       4.912   9.223  14.170  1.00  0.00     0.022 C 
HETATM   18  C7  UNL     1       5.446   7.663  12.228  1.00  0.00    -0.068 C 
HETATM   19  C4  UNL     1       5.676   8.245  15.053  1.00  0.00     0.084 C 
HETATM   20  C5  UNL     1       6.801   7.608  14.283  1.00  0.00     0.149 C 
HETATM   21  O1  UNL     1       7.878   7.321  14.800  1.00  0.00    -0.293 OA
HETATM   22  C6  UNL     1       6.538   7.227  12.878  1.00  0.00     0.053 C 
HETATM   23  C8  UNL     1       5.118   7.136  10.858  1.00  0.00     0.035 C 
HETATM   24  C9  UNL     1       3.789   6.402  10.923  1.00  0.00     0.010 C 
HETATM   25  C17 UNL     1       0.623   5.805  10.577  1.00  0.00     0.009 C 
HETATM   26  C18 UNL     1      -0.688   5.263  11.185  1.00  0.00     0.047 C 
BRANCH   7  27
HETATM   27  O2  UNL     1       0.017   4.359  13.317  1.00  0.00    -0.381 OA
HETATM   28  H27 UNL     1      -0.396   3.556  12.948  1.00  0.00     0.211 HD
ENDBRANCH   7  27
ENDBRANCH   5   7
ENDBRANCH   4   5
ENDBRANCH   3   4
ENDBRANCH   1   3
BRANCH   1  29
HETATM   29  C23 UNL     1      -5.084   2.948  10.935  1.00  0.00     0.120 C 
BRANCH  29  30
HETATM   30  C24 UNL     1      -5.978   2.002  11.729  1.00  0.00     0.112 C 
BRANCH  30  31
HETATM   31  C25 UNL     1      -6.984   2.773  12.559  1.00  0.00     0.217 C 
HETATM   32  O6  UNL     1      -8.150   2.426  12.688  1.00  0.00    -0.274 OA
HETATM   33  N1  UNL     1      -6.448   3.889  13.161  1.00  0.00    -0.361 N 
HETATM   34  H34 UNL     1      -5.476   4.124  13.010  1.00  0.00     0.162 HD
BRANCH  33  35
HETATM   35  C26 UNL     1      -7.255   4.793  13.956  1.00  0.00     0.122 C 
BRANCH  35  36
HETATM   36  C27 UNL     1      -8.040   5.800  13.110  1.00  0.00     0.020 C 
BRANCH  36  37
HETATM   37  C28 UNL     1      -9.265   6.407  13.805  1.00  0.00     0.002 C 
BRANCH  37  38
HETATM   38  C29 UNL     1      -9.020   6.837  15.254  1.00  0.00     0.009 C 
BRANCH  38  39
HETATM   39  C30 UNL     1      -8.677   8.322  15.374  1.00  0.00     0.103 C 
BRANCH  39  40
HETATM   40  C31 UNL     1      -9.897   9.228  15.369  1.00  0.00     0.217 C 
HETATM   41  O7  UNL     1      -9.923  10.338  14.848  1.00  0.00    -0.274 OA
HETATM   42  N2  UNL     1     -10.975   8.661  16.016  1.00  0.00    -0.357 N 
HETATM   43  H45 UNL     1     -10.944   7.678  16.245  1.00  0.00     0.162 HD
BRANCH  42  44
HETATM   44  C32 UNL     1     -12.260   9.320  16.067  1.00  0.00     0.161 C 
BRANCH  44  45
HETATM   45  C33 UNL     1     -13.172   8.831  14.970  1.00  0.00    -0.040 A 
HETATM   46  C34 UNL     1     -14.407   9.451  14.730  1.00  0.00     0.010 A 
HETATM   47  C35 UNL     1     -15.248   8.982  13.717  1.00  0.00     0.019 A 
HETATM   48  C36 UNL     1     -14.867   7.884  12.933  1.00  0.00     0.037 A 
HETATM   49  C38 UNL     1     -13.640   7.256  13.174  1.00  0.00     0.019 A 
HETATM   50  C39 UNL     1     -12.803   7.723  14.191  1.00  0.00     0.010 A 
BRANCH  48  51
HETATM   51  C37 UNL     1     -15.791   7.424  11.869  1.00  0.00     0.176 C 
HETATM   52  O8  UNL     1     -16.430   6.388  11.881  1.00  0.00    -0.646 OA
BRANCH  51  53
HETATM   53  O9  UNL     1     -15.880   8.290  10.843  1.00  0.00    -0.773 OA
HETATM   54  H50 UNL     1     -16.516   7.864  10.232  1.00  0.00     0.167 HD
ENDBRANCH  51  53
ENDBRANCH  48  51
ENDBRANCH  44  45
ENDBRANCH  42  44
ENDBRANCH  39  40
ENDBRANCH  38  39
ENDBRANCH  37  38
ENDBRANCH  36  37
ENDBRANCH  35  36
ENDBRANCH  33  35
ENDBRANCH  30  31
ENDBRANCH  29  30
ENDBRANCH   1  29
TORSDOF 18
ENDMDL
MODEL 7
REMARK minimizedAffinity -8.32027435
REMARK CNNscore 0.327709913
REMARK CNNaffinity 6.87024307
REMARK  18 active torsions:
REMARK  status: ('A' for Active; 'I' for Inactive)
REMARK    1  A    between atoms: C19_20  and  O2_21 
REMARK    2  A    between atoms: C19_20  and  C20_22 
REMARK    3  A    between atoms: C20_22  and  C21_24 
REMARK    4  A    between atoms: C21_24  and  O4_25 
REMARK    5  A    between atoms: O4_25  and  C22_26 
REMARK    6  A    between atoms: C22_26  and  C23_28 
REMARK    7  A    between atoms: C23_28  and  C24_29 
REMARK    8  A    between atoms: C24_29  and  C25_30 
REMARK       I    between atoms: C25_30  and  N1_32 
REMARK    9  A    between atoms: N1_32  and  C26_33 
REMARK   10  A    between atoms: C26_33  and  C27_34 
REMARK   11  A    between atoms: C27_34  and  C28_35 
REMARK   12  A    between atoms: C28_35  and  C29_36 
REMARK   13  A    between atoms: C29_36  and  C30_37 
REMARK   14  A    between atoms: C30_37  and  C31_38 
REMARK       I    between atoms: C31_38  and  N2_40 
REMARK   15  A    between atoms: N2_40  and  C32_41 
REMARK   16  A    between atoms: C32_41  and  C33_42 
REMARK   17  A    between atoms: C36_45  and  C37_46 
REMARK   18  A    between atoms: C37_46  and  O9_48 
ROOT
HETATM    1  C22 UNL     1      -5.653   4.071  12.854  1.00  0.00     0.259 C 
HETATM    2  O5  UNL     1      -5.121   3.428  11.961  1.00  0.00    -0.265 OA
ENDROOT
BRANCH   1   3
HETATM    3  O4  UNL     1      -4.982   4.730  13.838  1.00  0.00    -0.314 OA
BRANCH   3   4
HETATM    4  C21 UNL     1      -3.708   5.248  13.455  1.00  0.00     0.260 C 
BRANCH   4   5
HETATM    5  C20 UNL     1      -3.381   6.613  14.060  1.00  0.00     0.185 C 
HETATM    6  O3  UNL     1      -4.270   7.262  14.612  1.00  0.00    -0.292 OA
BRANCH   5   7
HETATM    7  C19 UNL     1      -1.910   7.091  13.961  1.00  0.00     0.128 C 
HETATM    8  C14 UNL     1      -1.042   6.482  12.802  1.00  0.00    -0.002 C 
HETATM    9  C13 UNL     1      -1.278   7.097  11.401  1.00  0.00     0.013 C 
HETATM   10  C15 UNL     1      -1.163   4.932  12.741  1.00  0.00     0.019 C 
HETATM   11  C16 UNL     1       0.356   6.920  13.289  1.00  0.00     0.002 C 
HETATM   12  C12 UNL     1       0.022   7.412  10.615  1.00  0.00     0.007 C 
HETATM   13  C11 UNL     1       1.146   6.394  10.897  1.00  0.00     0.002 C 
HETATM   14  C2  UNL     1       2.382   6.383   9.921  1.00  0.00    -0.016 C 
HETATM   15  C10 UNL     1       1.543   6.446  12.421  1.00  0.00    -0.004 C 
HETATM   16  C1  UNL     1       3.018   4.961   9.993  1.00  0.00     0.020 C 
HETATM   17  C3  UNL     1       2.002   6.572   8.421  1.00  0.00     0.022 C 
HETATM   18  C7  UNL     1       3.418   7.406  10.367  1.00  0.00    -0.068 C 
HETATM   19  C4  UNL     1       1.979   8.014   7.932  1.00  0.00     0.084 C 
HETATM   20  C5  UNL     1       3.265   8.712   8.285  1.00  0.00     0.149 C 
HETATM   21  O1  UNL     1       3.782   9.555   7.556  1.00  0.00    -0.293 OA
HETATM   22  C6  UNL     1       3.853   8.430   9.613  1.00  0.00     0.053 C 
HETATM   23  C8  UNL     1       3.919   7.237  11.775  1.00  0.00     0.035 C 
HETATM   24  C9  UNL     1       2.744   7.374  12.730  1.00  0.00     0.010 C 
HETATM   25  C17 UNL     1       0.368   6.543  14.770  1.00  0.00     0.009 C 
HETATM   26  C18 UNL     1      -1.094   6.719  15.228  1.00  0.00     0.047 C 
BRANCH   7  27
HETATM   27  O2  UNL     1      -1.903   8.525  13.832  1.00  0.00    -0.381 OA
HETATM   28  H27 UNL     1      -2.097   8.916  14.705  1.00  0.00     0.211 HD
ENDBRANCH   7  27
ENDBRANCH   5   7
ENDBRANCH   4   5
ENDBRANCH   3   4
ENDBRANCH   1   3
BRANCH   1  29
HETATM   29  C23 UNL     1      -7.142   4.147  13.056  1.00  0.00     0.120 C 
BRANCH  29  30
HETATM   30  C24 UNL     1      -7.738   5.466  12.576  1.00  0.00     0.112 C 
BRANCH  30  31
HETATM   31  C25 UNL     1      -8.506   6.151  13.687  1.00  0.00     0.217 C 
HETATM   32  O6  UNL     1      -8.013   6.422  14.773  1.00  0.00    -0.274 OA
HETATM   33  N1  UNL     1      -9.806   6.448  13.344  1.00  0.00    -0.361 N 
HETATM   34  H34 UNL     1     -10.156   6.193  12.429  1.00  0.00     0.162 HD
BRANCH  33  35
HETATM   35  C26 UNL     1     -10.727   7.057  14.282  1.00  0.00     0.122 C 
BRANCH  35  36
HETATM   36  C27 UNL     1     -12.160   6.536  14.142  1.00  0.00     0.020 C 
BRANCH  36  37
HETATM   37  C28 UNL     1     -13.158   7.546  13.560  1.00  0.00     0.002 C 
BRANCH  37  38
HETATM   38  C29 UNL     1     -14.588   7.016  13.429  1.00  0.00     0.009 C 
BRANCH  38  39
HETATM   39  C30 UNL     1     -14.938   6.001  14.517  1.00  0.00     0.103 C 
BRANCH  39  40
HETATM   40  C31 UNL     1     -16.097   5.090  14.145  1.00  0.00     0.217 C 
HETATM   41  O7  UNL     1     -16.937   5.363  13.294  1.00  0.00    -0.274 OA
HETATM   42  N2  UNL     1     -16.098   3.918  14.872  1.00  0.00    -0.357 N 
HETATM   43  H45 UNL     1     -15.276   3.676  15.407  1.00  0.00     0.162 HD
BRANCH  42  44
HETATM   44  C32 UNL     1     -17.070   2.877  14.629  1.00  0.00     0.161 C 
BRANCH  44  45
HETATM   45  C33 UNL     1     -16.482   1.510  14.874  1.00  0.00    -0.040 A 
HETATM   46  C34 UNL     1     -16.182   0.654  13.804  1.00  0.00     0.010 A 
HETATM   47  C35 UNL     1     -15.647  -0.615  14.043  1.00  0.00     0.019 A 
HETATM   48  C36 UNL     1     -15.409  -1.046  15.355  1.00  0.00     0.037 A 
HETATM   49  C38 UNL     1     -15.715  -0.200  16.427  1.00  0.00     0.019 A 
HETATM   50  C39 UNL     1     -16.255   1.067  16.186  1.00  0.00     0.010 A 
BRANCH  48  51
HETATM   51  C37 UNL     1     -14.837  -2.399  15.559  1.00  0.00     0.176 C 
HETATM   52  O8  UNL     1     -13.654  -2.683  15.528  1.00  0.00    -0.646 OA
BRANCH  51  53
HETATM   53  O9  UNL     1     -15.775  -3.332  15.803  1.00  0.00    -0.773 OA
HETATM   54  H50 UNL     1     -15.260  -4.157  15.919  1.00  0.00     0.167 HD
ENDBRANCH  51  53
ENDBRANCH  48  51
ENDBRANCH  44  45
ENDBRANCH  42  44
ENDBRANCH  39  40
ENDBRANCH  38  39
ENDBRANCH  37  38
ENDBRANCH  36  37
ENDBRANCH  35  36
ENDBRANCH  33  35
ENDBRANCH  30  31
ENDBRANCH  29  30
ENDBRANCH   1  29
TORSDOF 18
ENDMDL
MODEL 8
REMARK minimizedAffinity -9.26529503
REMARK CNNscore 0.315412194
REMARK CNNaffinity 6.94098425
REMARK  18 active torsions:
REMARK  status: ('A' for Active; 'I' for Inactive)
REMARK    1  A    between atoms: C19_20  and  O2_21 
REMARK    2  A    between atoms: C19_20  and  C20_22 
REMARK    3  A    between atoms: C20_22  and  C21_24 
REMARK    4  A    between atoms: C21_24  and  O4_25 
REMARK    5  A    between atoms: O4_25  and  C22_26 
REMARK    6  A    between atoms: C22_26  and  C23_28 
REMARK    7  A    between atoms: C23_28  and  C24_29 
REMARK    8  A    between atoms: C24_29  and  C25_30 
REMARK       I    between atoms: C25_30  and  N1_32 
REMARK    9  A    between atoms: N1_32  and  C26_33 
REMARK   10  A    between atoms: C26_33  and  C27_34 
REMARK   11  A    between atoms: C27_34  and  C28_35 
REMARK   12  A    between atoms: C28_35  and  C29_36 
REMARK   13  A    between atoms: C29_36  and  C30_37 
REMARK   14  A    between atoms: C30_37  and  C31_38 
REMARK       I    between atoms: C31_38  and  N2_40 
REMARK   15  A    between atoms: N2_40  and  C32_41 
REMARK   16  A    between atoms: C32_41  and  C33_42 
REMARK   17  A    between atoms: C36_45  and  C37_46 
REMARK   18  A    between atoms: C37_46  and  O9_48 
ROOT
HETATM    1  C22 UNL     1      -5.135   6.481  14.602  1.00  0.00     0.259 C 
HETATM    2  O5  UNL     1      -5.152   7.296  15.512  1.00  0.00    -0.265 OA
ENDROOT
BRANCH   1   3
HETATM    3  O4  UNL     1      -4.050   5.741  14.245  1.00  0.00    -0.314 OA
BRANCH   3   4
HETATM    4  C21 UNL     1      -2.957   5.795  15.162  1.00  0.00     0.260 C 
BRANCH   4   5
HETATM    5  C20 UNL     1      -1.878   6.810  14.789  1.00  0.00     0.185 C 
HETATM    6  O3  UNL     1      -1.227   7.359  15.678  1.00  0.00    -0.292 OA
BRANCH   5   7
HETATM    7  C19 UNL     1      -1.649   7.069  13.278  1.00  0.00     0.128 C 
HETATM    8  C14 UNL     1      -0.158   7.110  12.784  1.00  0.00    -0.002 C 
HETATM    9  C13 UNL     1       0.518   5.730  12.594  1.00  0.00     0.013 C 
HETATM   10  C15 UNL     1       0.724   8.027  13.679  1.00  0.00     0.019 C 
HETATM   11  C16 UNL     1      -0.382   7.730  11.388  1.00  0.00     0.002 C 
HETATM   12  C12 UNL     1       1.324   5.590  11.276  1.00  0.00     0.007 C 
HETATM   13  C11 UNL     1       1.998   6.912  10.850  1.00  0.00     0.002 C 
HETATM   14  C2  UNL     1       3.115   6.837   9.743  1.00  0.00    -0.016 C 
HETATM   15  C10 UNL     1       0.898   8.003  10.566  1.00  0.00    -0.004 C 
HETATM   16  C1  UNL     1       4.039   8.079   9.932  1.00  0.00     0.020 C 
HETATM   17  C3  UNL     1       4.066   5.610   9.891  1.00  0.00     0.022 C 
HETATM   18  C7  UNL     1       2.492   6.895   8.355  1.00  0.00    -0.068 C 
HETATM   19  C4  UNL     1       3.631   4.356   9.144  1.00  0.00     0.084 C 
HETATM   20  C5  UNL     1       3.333   4.675   7.704  1.00  0.00     0.149 C 
HETATM   21  O1  UNL     1       3.575   3.892   6.789  1.00  0.00    -0.293 OA
HETATM   22  C6  UNL     1       2.627   5.944   7.417  1.00  0.00     0.053 C 
HETATM   23  C8  UNL     1       1.636   8.104   8.090  1.00  0.00     0.035 C 
HETATM   24  C9  UNL     1       0.481   8.109   9.078  1.00  0.00     0.010 C 
HETATM   25  C17 UNL     1      -1.318   8.910  11.652  1.00  0.00     0.009 C 
HETATM   26  C18 UNL     1      -2.191   8.455  12.840  1.00  0.00     0.047 C 
BRANCH   7  27
HETATM   27  O2  UNL     1      -2.350   6.059  12.530  1.00  0.00    -0.381 OA
HETATM   28  H27 UNL     1      -3.303   6.269  12.544  1.00  0.00     0.211 HD
ENDBRANCH   7  27
ENDBRANCH   5   7
ENDBRANCH   4   5
ENDBRANCH   3   4
ENDBRANCH   1   3
BRANCH   1  29
HETATM   29  C23 UNL     1      -6.293   6.246  13.670  1.00  0.00     0.120 C 
BRANCH  29  30
HETATM   30  C24 UNL     1      -7.534   5.724  14.387  1.00  0.00     0.112 C 
BRANCH  30  31
HETATM   31  C25 UNL     1      -8.600   6.795  14.478  1.00  0.00     0.217 C 
HETATM   32  O6  UNL     1      -8.465   7.819  15.134  1.00  0.00    -0.274 OA
HETATM   33  N1  UNL     1      -9.724   6.506  13.738  1.00  0.00    -0.361 N 
HETATM   34  H34 UNL     1      -9.776   5.638  13.220  1.00  0.00     0.162 HD
BRANCH  33  35
HETATM   35  C26 UNL     1     -10.883   7.377  13.731  1.00  0.00     0.122 C 
BRANCH  35  36
HETATM   36  C27 UNL     1     -12.101   6.762  14.424  1.00  0.00     0.020 C 
BRANCH  36  37
HETATM   37  C28 UNL     1     -13.367   6.693  13.560  1.00  0.00     0.002 C 
BRANCH  37  38
HETATM   38  C29 UNL     1     -14.466   5.786  14.122  1.00  0.00     0.009 C 
BRANCH  38  39
HETATM   39  C30 UNL     1     -15.849   6.435  14.059  1.00  0.00     0.103 C 
BRANCH  39  40
HETATM   40  C31 UNL     1     -16.926   5.511  13.515  1.00  0.00     0.217 C 
HETATM   41  O7  UNL     1     -17.587   5.749  12.509  1.00  0.00    -0.274 OA
HETATM   42  N2  UNL     1     -17.077   4.372  14.277  1.00  0.00    -0.357 N 
HETATM   43  H45 UNL     1     -16.372   4.152  14.968  1.00  0.00     0.162 HD
BRANCH  42  44
HETATM   44  C32 UNL     1     -17.996   3.323  13.900  1.00  0.00     0.161 C 
BRANCH  44  45
HETATM   45  C33 UNL     1     -17.263   2.060  13.525  1.00  0.00    -0.040 A 
HETATM   46  C34 UNL     1     -16.327   1.486  14.397  1.00  0.00     0.010 A 
HETATM   47  C35 UNL     1     -15.646   0.320  14.035  1.00  0.00     0.019 A 
HETATM   48  C36 UNL     1     -15.889  -0.284  12.794  1.00  0.00     0.037 A 
HETATM   49  C38 UNL     1     -16.815   0.289  11.916  1.00  0.00     0.019 A 
HETATM   50  C39 UNL     1     -17.492   1.458  12.278  1.00  0.00     0.010 A 
BRANCH  48  51
HETATM   51  C37 UNL     1     -15.145  -1.521  12.455  1.00  0.00     0.176 C 
HETATM   52  O8  UNL     1     -15.271  -2.600  13.004  1.00  0.00    -0.646 OA
BRANCH  51  53
HETATM   53  O9  UNL     1     -14.283  -1.350  11.437  1.00  0.00    -0.773 OA
HETATM   54  H50 UNL     1     -13.875  -2.234  11.324  1.00  0.00     0.167 HD
ENDBRANCH  51  53
ENDBRANCH  48  51
ENDBRANCH  44  45
ENDBRANCH  42  44
ENDBRANCH  39  40
ENDBRANCH  38  39
ENDBRANCH  37  38
ENDBRANCH  36  37
ENDBRANCH  35  36
ENDBRANCH  33  35
ENDBRANCH  30  31
ENDBRANCH  29  30
ENDBRANCH   1  29
TORSDOF 18
ENDMDL
MODEL 9
REMARK minimizedAffinity -8.81868076
REMARK CNNscore 0.299926639
REMARK CNNaffinity 6.95126152
REMARK  18 active torsions:
REMARK  status: ('A' for Active; 'I' for Inactive)
REMARK    1  A    between atoms: C19_20  and  O2_21 
REMARK    2  A    between atoms: C19_20  and  C20_22 
REMARK    3  A    between atoms: C20_22  and  C21_24 
REMARK    4  A    between atoms: C21_24  and  O4_25 
REMARK    5  A    between atoms: O4_25  and  C22_26 
REMARK    6  A    between atoms: C22_26  and  C23_28 
REMARK    7  A    between atoms: C23_28  and  C24_29 
REMARK    8  A    between atoms: C24_29  and  C25_30 
REMARK       I    between atoms: C25_30  and  N1_32 
REMARK    9  A    between atoms: N1_32  and  C26_33 
REMARK   10  A    between atoms: C26_33  and  C27_34 
REMARK   11  A    between atoms: C27_34  and  C28_35 
REMARK   12  A    between atoms: C28_35  and  C29_36 
REMARK   13  A    between atoms: C29_36  and  C30_37 
REMARK   14  A    between atoms: C30_37  and  C31_38 
REMARK       I    between atoms: C31_38  and  N2_40 
REMARK   15  A    between atoms: N2_40  and  C32_41 
REMARK   16  A    between atoms: C32_41  and  C33_42 
REMARK   17  A    between atoms: C36_45  and  C37_46 
REMARK   18  A    between atoms: C37_46  and  O9_48 
ROOT
HETATM    1  C22 UNL     1       0.650   8.330  10.973  1.00  0.00     0.259 C 
HETATM    2  O5  UNL     1      -0.281   8.844  10.371  1.00  0.00    -0.265 OA
ENDROOT
BRANCH   1   3
HETATM    3  O4  UNL     1       0.975   8.596  12.269  1.00  0.00    -0.314 OA
BRANCH   3   4
HETATM    4  C21 UNL     1      -0.139   8.785  13.141  1.00  0.00     0.260 C 
BRANCH   4   5
HETATM    5  C20 UNL     1      -0.696   7.492  13.733  1.00  0.00     0.185 C 
HETATM    6  O3  UNL     1      -0.175   7.009  14.739  1.00  0.00    -0.292 OA
BRANCH   5   7
HETATM    7  C19 UNL     1      -1.929   6.870  13.029  1.00  0.00     0.128 C 
HETATM    8  C14 UNL     1      -3.140   6.467  13.943  1.00  0.00    -0.002 C 
HETATM    9  C13 UNL     1      -4.054   7.635  14.390  1.00  0.00     0.013 C 
HETATM   10  C15 UNL     1      -2.685   5.634  15.175  1.00  0.00     0.019 C 
HETATM   11  C16 UNL     1      -3.928   5.602  12.937  1.00  0.00     0.002 C 
HETATM   12  C12 UNL     1      -5.572   7.341  14.268  1.00  0.00     0.007 C 
HETATM   13  C11 UNL     1      -5.914   5.863  14.552  1.00  0.00     0.002 C 
HETATM   14  C2  UNL     1      -7.425   5.500  14.806  1.00  0.00    -0.016 C 
HETATM   15  C10 UNL     1      -5.211   4.940  13.487  1.00  0.00    -0.004 C 
HETATM   16  C1  UNL     1      -7.451   4.192  15.654  1.00  0.00     0.020 C 
HETATM   17  C3  UNL     1      -8.188   6.548  15.672  1.00  0.00     0.022 C 
HETATM   18  C7  UNL     1      -8.138   5.243  13.485  1.00  0.00    -0.068 C 
HETATM   19  C4  UNL     1      -8.874   7.662  14.891  1.00  0.00     0.084 C 
HETATM   20  C5  UNL     1      -9.738   7.088  13.801  1.00  0.00     0.149 C 
HETATM   21  O1  UNL     1     -10.804   7.596  13.465  1.00  0.00    -0.293 OA
HETATM   22  C6  UNL     1      -9.210   5.926  13.051  1.00  0.00     0.053 C 
HETATM   23  C8  UNL     1      -7.526   4.170  12.627  1.00  0.00     0.035 C 
HETATM   24  C9  UNL     1      -6.105   4.580  12.274  1.00  0.00     0.010 C 
HETATM   25  C17 UNL     1      -2.867   4.686  12.325  1.00  0.00     0.009 C 
HETATM   26  C18 UNL     1      -1.578   5.534  12.321  1.00  0.00     0.047 C 
BRANCH   7  27
HETATM   27  O2  UNL     1      -2.398   7.794  12.029  1.00  0.00    -0.381 OA
HETATM   28  H27 UNL     1      -1.793   7.758  11.265  1.00  0.00     0.211 HD
ENDBRANCH   7  27
ENDBRANCH   5   7
ENDBRANCH   4   5
ENDBRANCH   3   4
ENDBRANCH   1   3
BRANCH   1  29
HETATM   29  C23 UNL     1       1.643   7.396  10.337  1.00  0.00     0.120 C 
BRANCH  29  30
HETATM   30  C24 UNL     1       2.469   6.623  11.360  1.00  0.00     0.112 C 
BRANCH  30  31
HETATM   31  C25 UNL     1       3.869   6.366  10.844  1.00  0.00     0.217 C 
HETATM   32  O6  UNL     1       4.111   6.082   9.678  1.00  0.00    -0.274 OA
HETATM   33  N1  UNL     1       4.838   6.496  11.814  1.00  0.00    -0.361 N 
HETATM   34  H34 UNL     1       4.571   6.727  12.762  1.00  0.00     0.162 HD
BRANCH  33  35
HETATM   35  C26 UNL     1       6.237   6.240  11.540  1.00  0.00     0.122 C 
BRANCH  35  36
HETATM   36  C27 UNL     1       7.168   7.312  12.114  1.00  0.00     0.020 C 
BRANCH  36  37
HETATM   37  C28 UNL     1       7.074   7.499  13.634  1.00  0.00     0.002 C 
BRANCH  37  38
HETATM   38  C29 UNL     1       8.428   7.630  14.338  1.00  0.00     0.009 C 
BRANCH  38  39
HETATM   39  C30 UNL     1       8.290   8.078  15.792  1.00  0.00     0.103 C 
BRANCH  39  40
HETATM   40  C31 UNL     1       8.452   9.578  15.982  1.00  0.00     0.217 C 
HETATM   41  O7  UNL     1       9.201  10.276  15.307  1.00  0.00    -0.274 OA
HETATM   42  N2  UNL     1       7.658  10.067  16.998  1.00  0.00    -0.357 N 
HETATM   43  H45 UNL     1       6.929   9.478  17.374  1.00  0.00     0.162 HD
BRANCH  42  44
HETATM   44  C32 UNL     1       7.601  11.479  17.301  1.00  0.00     0.161 C 
BRANCH  44  45
HETATM   45  C33 UNL     1       7.831  11.735  18.769  1.00  0.00    -0.040 A 
HETATM   46  C34 UNL     1       6.795  12.208  19.588  1.00  0.00     0.010 A 
HETATM   47  C35 UNL     1       7.023  12.451  20.946  1.00  0.00     0.019 A 
HETATM   48  C36 UNL     1       8.290  12.228  21.501  1.00  0.00     0.037 A 
HETATM   49  C38 UNL     1       9.329  11.764  20.687  1.00  0.00     0.019 A 
HETATM   50  C39 UNL     1       9.101  11.527  19.328  1.00  0.00     0.010 A 
BRANCH  48  51
HETATM   51  C37 UNL     1       8.483  12.497  22.946  1.00  0.00     0.176 C 
HETATM   52  O8  UNL     1       8.159  13.516  23.529  1.00  0.00    -0.646 OA
BRANCH  51  53
HETATM   53  O9  UNL     1       9.063  11.473  23.597  1.00  0.00    -0.773 OA
HETATM   54  H50 UNL     1       9.121  11.786  24.523  1.00  0.00     0.167 HD
ENDBRANCH  51  53
ENDBRANCH  48  51
ENDBRANCH  44  45
ENDBRANCH  42  44
ENDBRANCH  39  40
ENDBRANCH  38  39
ENDBRANCH  37  38
ENDBRANCH  36  37
ENDBRANCH  35  36
ENDBRANCH  33  35
ENDBRANCH  30  31
ENDBRANCH  29  30
ENDBRANCH   1  29
TORSDOF 18
ENDMDL
