MODEL 1
REMARK minimizedAffinity -10.0378695
REMARK CNNscore 0.529187858
REMARK CNNaffinity 6.67308378
REMARK  13 active torsions:
REMARK  status: ('A' for Active; 'I' for Inactive)
REMARK    1  A    between atoms: C19_21  and  O3_22 
REMARK    2  A    between atoms: C19_21  and  C20_23 
REMARK    3  A    between atoms: C20_23  and  C21_25 
REMARK    4  A    between atoms: C21_25  and  O5_26 
REMARK    5  A    between atoms: O5_26  and  C22_27 
REMARK    6  A    between atoms: C22_27  and  C23_29 
REMARK    7  A    between atoms: C23_29  and  C24_30 
REMARK    8  A    between atoms: C24_30  and  C25_31 
REMARK       I    between atoms: C25_31  and  N1_33 
REMARK    9  A    between atoms: N1_33  and  C26_34 
REMARK   10  A    between atoms: C26_34  and  C27_35 
REMARK   11  A    between atoms: C26_34  and  C36_45 
REMARK   12  A    between atoms: C27_35  and  C28_36 
REMARK   13  A    between atoms: C36_45  and  O9_47 
ROOT
HETATM    1  C21 UNL     1       0.578  10.603  15.210  1.00  0.00     0.260 C 
ENDROOT
BRANCH   1   2
HETATM    2  C20 UNL     1       0.771   9.583  14.085  1.00  0.00     0.185 C 
HETATM    3  O4  UNL     1       1.895   9.182  13.771  1.00  0.00    -0.292 OA
BRANCH   2   4
HETATM    4  C19 UNL     1      -0.482   9.167  13.282  1.00  0.00     0.128 C 
HETATM    5  C14 UNL     1      -1.480   8.175  13.974  1.00  0.00     0.005 C 
HETATM    6  C13 UNL     1      -2.470   8.812  14.975  1.00  0.00     0.091 C 
HETATM    7  C15 UNL     1      -0.698   7.023  14.648  1.00  0.00     0.019 C 
HETATM    8  C16 UNL     1      -2.286   7.717  12.735  1.00  0.00     0.002 C 
HETATM    9  C12 UNL     1      -3.869   8.191  14.966  1.00  0.00     0.133 C 
HETATM   10  C11 UNL     1      -4.014   6.784  14.390  1.00  0.00     0.072 C 
HETATM   11  O2  UNL     1      -4.796   8.781  15.521  1.00  0.00    -0.297 OA
HETATM   12  C2  UNL     1      -5.434   6.111  14.399  1.00  0.00    -0.009 C 
HETATM   13  C10 UNL     1      -3.376   6.668  12.983  1.00  0.00     0.003 C 
HETATM   14  C1  UNL     1      -5.780   5.686  15.844  1.00  0.00     0.021 C 
HETATM   15  C3  UNL     1      -6.549   7.029  13.837  1.00  0.00     0.022 C 
HETATM   16  C7  UNL     1      -5.368   4.846  13.517  1.00  0.00    -0.067 C 
HETATM   17  C4  UNL     1      -7.884   6.316  13.649  1.00  0.00     0.084 C 
HETATM   18  C5  UNL     1      -7.736   5.040  12.858  1.00  0.00     0.149 C 
HETATM   19  O1  UNL     1      -8.683   4.529  12.264  1.00  0.00    -0.293 OA
HETATM   20  C6  UNL     1      -6.416   4.372  12.824  1.00  0.00     0.053 C 
HETATM   21  C8  UNL     1      -4.004   4.212  13.369  1.00  0.00     0.035 C 
HETATM   22  C9  UNL     1      -3.002   5.193  12.728  1.00  0.00     0.010 C 
HETATM   23  C17 UNL     1      -1.241   7.446  11.661  1.00  0.00     0.009 C 
HETATM   24  C18 UNL     1      -0.102   8.432  11.966  1.00  0.00     0.047 C 
BRANCH   4  25
HETATM   25  O3  UNL     1      -1.167  10.375  12.920  1.00  0.00    -0.381 OA
HETATM   26  H25 UNL     1      -0.606  10.856  12.285  1.00  0.00     0.211 HD
ENDBRANCH   4  25
ENDBRANCH   2   4
ENDBRANCH   1   2
BRANCH   1  27
HETATM   27  O5  UNL     1       0.492   9.964  16.486  1.00  0.00    -0.314 OA
BRANCH  27  28
HETATM   28  C22 UNL     1       1.667   9.919  17.168  1.00  0.00     0.259 C 
HETATM   29  O6  UNL     1       2.352   8.909  17.293  1.00  0.00    -0.265 OA
BRANCH  28  30
HETATM   30  C23 UNL     1       2.093  11.273  17.683  1.00  0.00     0.120 C 
BRANCH  30  31
HETATM   31  C24 UNL     1       1.736  11.555  19.138  1.00  0.00     0.112 C 
BRANCH  31  32
HETATM   32  C25 UNL     1       2.730  10.933  20.097  1.00  0.00     0.218 C 
HETATM   33  O7  UNL     1       3.915  10.761  19.827  1.00  0.00    -0.274 OA
HETATM   34  N1  UNL     1       2.169  10.588  21.303  1.00  0.00    -0.346 N 
HETATM   35  H32 UNL     1       1.163  10.500  21.350  1.00  0.00     0.163 HD
BRANCH  34  36
HETATM   36  C26 UNL     1       2.957   9.899  22.333  1.00  0.00     0.186 C 
BRANCH  36  37
HETATM   37  C27 UNL     1       3.200  10.795  23.557  1.00  0.00     0.077 C 
BRANCH  37  38
HETATM   38  C28 UNL     1       3.814  12.117  23.209  1.00  0.00    -0.028 A 
HETATM   39  C29 UNL     1       3.135  13.297  22.976  1.00  0.00     0.096 A 
HETATM   40  N2  UNL     1       4.053  14.278  22.720  1.00  0.00    -0.365 N 
HETATM   41  C30 UNL     1       5.328  13.764  22.774  1.00  0.00     0.042 A 
HETATM   42  H37 UNL     1       3.834  15.244  22.521  1.00  0.00     0.165 HD
HETATM   43  C31 UNL     1       6.563  14.397  22.583  1.00  0.00     0.030 A 
HETATM   44  C35 UNL     1       5.211  12.406  23.070  1.00  0.00    -0.002 A 
HETATM   45  C32 UNL     1       7.715  13.614  22.692  1.00  0.00     0.002 A 
HETATM   46  C33 UNL     1       7.635  12.256  22.984  1.00  0.00     0.001 A 
HETATM   47  C34 UNL     1       6.391  11.640  23.176  1.00  0.00     0.014 A 
ENDBRANCH  37  38
ENDBRANCH  36  37
BRANCH  36  48
HETATM   48  C36 UNL     1       2.261   8.626  22.818  1.00  0.00     0.163 C 
HETATM   49  O8  UNL     1       1.857   7.716  22.112  1.00  0.00    -0.648 OA
BRANCH  48  50
HETATM   50  O9  UNL     1       2.170   8.512  24.163  1.00  0.00    -0.775 OA
HETATM   51  H42 UNL     1       1.686   7.668  24.287  1.00  0.00     0.167 HD
ENDBRANCH  48  50
ENDBRANCH  36  48
ENDBRANCH  34  36
ENDBRANCH  31  32
ENDBRANCH  30  31
ENDBRANCH  28  30
ENDBRANCH  27  28
ENDBRANCH   1  27
TORSDOF 13
ENDMDL
MODEL 2
REMARK minimizedAffinity -9.50595474
REMARK CNNscore 0.362190127
REMARK CNNaffinity 6.5681777
REMARK  13 active torsions:
REMARK  status: ('A' for Active; 'I' for Inactive)
REMARK    1  A    between atoms: C19_21  and  O3_22 
REMARK    2  A    between atoms: C19_21  and  C20_23 
REMARK    3  A    between atoms: C20_23  and  C21_25 
REMARK    4  A    between atoms: C21_25  and  O5_26 
REMARK    5  A    between atoms: O5_26  and  C22_27 
REMARK    6  A    between atoms: C22_27  and  C23_29 
REMARK    7  A    between atoms: C23_29  and  C24_30 
REMARK    8  A    between atoms: C24_30  and  C25_31 
REMARK       I    between atoms: C25_31  and  N1_33 
REMARK    9  A    between atoms: N1_33  and  C26_34 
REMARK   10  A    between atoms: C26_34  and  C27_35 
REMARK   11  A    between atoms: C26_34  and  C36_45 
REMARK   12  A    between atoms: C27_35  and  C28_36 
REMARK   13  A    between atoms: C36_45  and  O9_47 
ROOT
HETATM    1  C21 UNL     1       0.067  11.346  15.499  1.00  0.00     0.260 C 
ENDROOT
BRANCH   1   2
HETATM    2  C20 UNL     1       0.372  10.107  14.654  1.00  0.00     0.185 C 
HETATM    3  O4  UNL     1       1.502   9.610  14.630  1.00  0.00    -0.292 OA
BRANCH   2   4
HETATM    4  C19 UNL     1      -0.757   9.573  13.744  1.00  0.00     0.128 C 
HETATM    5  C14 UNL     1      -1.754   8.537  14.369  1.00  0.00     0.005 C 
HETATM    6  C13 UNL     1      -2.886   9.134  15.235  1.00  0.00     0.091 C 
HETATM    7  C15 UNL     1      -0.971   7.468  15.169  1.00  0.00     0.019 C 
HETATM    8  C16 UNL     1      -2.390   7.979  13.074  1.00  0.00     0.002 C 
HETATM    9  C12 UNL     1      -4.230   8.415  15.107  1.00  0.00     0.133 C 
HETATM   10  C11 UNL     1      -4.217   6.982  14.578  1.00  0.00     0.072 C 
HETATM   11  O2  UNL     1      -5.248   8.955  15.537  1.00  0.00    -0.297 OA
HETATM   12  C2  UNL     1      -5.581   6.209  14.468  1.00  0.00    -0.009 C 
HETATM   13  C10 UNL     1      -3.426   6.864  13.251  1.00  0.00     0.003 C 
HETATM   14  C1  UNL     1      -6.049   5.811  15.886  1.00  0.00     0.021 C 
HETATM   15  C3  UNL     1      -6.689   7.025  13.756  1.00  0.00     0.022 C 
HETATM   16  C7  UNL     1      -5.335   4.923  13.651  1.00  0.00    -0.067 C 
HETATM   17  C4  UNL     1      -7.946   6.211  13.460  1.00  0.00     0.084 C 
HETATM   18  C5  UNL     1      -7.628   4.923  12.743  1.00  0.00     0.149 C 
HETATM   19  O1  UNL     1      -8.469   4.324  12.075  1.00  0.00    -0.293 OA
HETATM   20  C6  UNL     1      -6.269   4.350  12.874  1.00  0.00     0.053 C 
HETATM   21  C8  UNL     1      -3.923   4.384  13.672  1.00  0.00     0.035 C 
HETATM   22  C9  UNL     1      -2.928   5.411  13.099  1.00  0.00     0.010 C 
HETATM   23  C17 UNL     1      -1.221   7.747  12.126  1.00  0.00     0.009 C 
HETATM   24  C18 UNL     1      -0.191   8.823  12.506  1.00  0.00     0.047 C 
BRANCH   4  25
HETATM   25  O3  UNL     1      -1.481  10.716  13.262  1.00  0.00    -0.381 OA
HETATM   26  H25 UNL     1      -0.889  11.214  12.669  1.00  0.00     0.211 HD
ENDBRANCH   4  25
ENDBRANCH   2   4
ENDBRANCH   1   2
BRANCH   1  27
HETATM   27  O5  UNL     1       0.876  11.386  16.678  1.00  0.00    -0.314 OA
BRANCH  27  28
HETATM   28  C22 UNL     1       0.510  12.340  17.574  1.00  0.00     0.259 C 
HETATM   29  O6  UNL     1      -0.501  13.028  17.474  1.00  0.00    -0.265 OA
BRANCH  28  30
HETATM   30  C23 UNL     1       1.435  12.404  18.766  1.00  0.00     0.120 C 
BRANCH  30  31
HETATM   31  C24 UNL     1       0.963  11.638  19.995  1.00  0.00     0.112 C 
BRANCH  31  32
HETATM   32  C25 UNL     1       1.955  10.571  20.415  1.00  0.00     0.218 C 
HETATM   33  O7  UNL     1       2.343   9.677  19.671  1.00  0.00    -0.274 OA
HETATM   34  N1  UNL     1       2.379  10.715  21.714  1.00  0.00    -0.346 N 
HETATM   35  H32 UNL     1       1.821  11.285  22.336  1.00  0.00     0.163 HD
BRANCH  34  36
HETATM   36  C26 UNL     1       3.281   9.731  22.327  1.00  0.00     0.186 C 
BRANCH  36  37
HETATM   37  C27 UNL     1       4.190  10.373  23.385  1.00  0.00     0.077 C 
BRANCH  37  38
HETATM   38  C28 UNL     1       4.793  11.670  22.937  1.00  0.00    -0.028 A 
HETATM   39  C29 UNL     1       6.033  11.835  22.351  1.00  0.00     0.096 A 
HETATM   40  N2  UNL     1       6.200  13.162  22.064  1.00  0.00    -0.365 N 
HETATM   41  C30 UNL     1       5.092  13.878  22.457  1.00  0.00     0.042 A 
HETATM   42  H37 UNL     1       7.016  13.566  21.625  1.00  0.00     0.165 HD
HETATM   43  C31 UNL     1       4.825  15.249  22.357  1.00  0.00     0.030 A 
HETATM   44  C35 UNL     1       4.194  12.970  23.018  1.00  0.00    -0.002 A 
HETATM   45  C32 UNL     1       3.602  15.708  22.853  1.00  0.00     0.002 A 
HETATM   46  C33 UNL     1       2.683  14.830  23.421  1.00  0.00     0.001 A 
HETATM   47  C34 UNL     1       2.966  13.460  23.508  1.00  0.00     0.014 A 
ENDBRANCH  37  38
ENDBRANCH  36  37
BRANCH  36  48
HETATM   48  C36 UNL     1       2.505   8.599  23.005  1.00  0.00     0.163 C 
HETATM   49  O8  UNL     1       2.316   8.478  24.205  1.00  0.00    -0.648 OA
BRANCH  48  50
HETATM   50  O9  UNL     1       1.940   7.715  22.152  1.00  0.00    -0.775 OA
HETATM   51  H42 UNL     1       1.516   7.063  22.749  1.00  0.00     0.167 HD
ENDBRANCH  48  50
ENDBRANCH  36  48
ENDBRANCH  34  36
ENDBRANCH  31  32
ENDBRANCH  30  31
ENDBRANCH  28  30
ENDBRANCH  27  28
ENDBRANCH   1  27
TORSDOF 13
ENDMDL
MODEL 3
REMARK minimizedAffinity -9.79063702
REMARK CNNscore 0.311192542
REMARK CNNaffinity 6.50088739
REMARK  13 active torsions:
REMARK  status: ('A' for Active; 'I' for Inactive)
REMARK    1  A    between atoms: C19_21  and  O3_22 
REMARK    2  A    between atoms: C19_21  and  C20_23 
REMARK    3  A    between atoms: C20_23  and  C21_25 
REMARK    4  A    between atoms: C21_25  and  O5_26 
REMARK    5  A    between atoms: O5_26  and  C22_27 
REMARK    6  A    between atoms: C22_27  and  C23_29 
REMARK    7  A    between atoms: C23_29  and  C24_30 
REMARK    8  A    between atoms: C24_30  and  C25_31 
REMARK       I    between atoms: C25_31  and  N1_33 
REMARK    9  A    between atoms: N1_33  and  C26_34 
REMARK   10  A    between atoms: C26_34  and  C27_35 
REMARK   11  A    between atoms: C26_34  and  C36_45 
REMARK   12  A    between atoms: C27_35  and  C28_36 
REMARK   13  A    between atoms: C36_45  and  O9_47 
ROOT
HETATM    1  C21 UNL     1       5.144   7.888  11.481  1.00  0.00     0.260 C 
ENDROOT
BRANCH   1   2
HETATM    2  C20 UNL     1       4.763   8.287  12.908  1.00  0.00     0.185 C 
HETATM    3  O4  UNL     1       3.683   8.833  13.154  1.00  0.00    -0.292 OA
BRANCH   2   4
HETATM    4  C19 UNL     1       5.829   8.089  14.009  1.00  0.00     0.128 C 
HETATM    5  C14 UNL     1       6.519   9.375  14.580  1.00  0.00     0.005 C 
HETATM    6  C13 UNL     1       5.716  10.146  15.652  1.00  0.00     0.091 C 
HETATM    7  C15 UNL     1       6.915  10.321  13.421  1.00  0.00     0.019 C 
HETATM    8  C16 UNL     1       7.739   8.726  15.275  1.00  0.00     0.002 C 
HETATM    9  C12 UNL     1       6.568  10.751  16.770  1.00  0.00     0.133 C 
HETATM   10  C11 UNL     1       8.053  10.967  16.489  1.00  0.00     0.072 C 
HETATM   11  O2  UNL     1       6.022  11.150  17.798  1.00  0.00    -0.297 OA
HETATM   12  C2  UNL     1       8.944  11.618  17.608  1.00  0.00    -0.009 C 
HETATM   13  C10 UNL     1       8.731   9.684  15.945  1.00  0.00     0.003 C 
HETATM   14  C1  UNL     1       8.617  13.126  17.697  1.00  0.00     0.021 C 
HETATM   15  C3  UNL     1       8.761  10.955  18.996  1.00  0.00     0.022 C 
HETATM   16  C7  UNL     1      10.422  11.458  17.194  1.00  0.00    -0.067 C 
HETATM   17  C4  UNL     1       9.767  11.439  20.036  1.00  0.00     0.084 C 
HETATM   18  C5  UNL     1      11.187  11.343  19.536  1.00  0.00     0.149 C 
HETATM   19  O1  UNL     1      12.146  11.297  20.303  1.00  0.00    -0.293 OA
HETATM   20  C6  UNL     1      11.428  11.335  18.075  1.00  0.00     0.053 C 
HETATM   21  C8  UNL     1      10.685  11.327  15.711  1.00  0.00     0.035 C 
HETATM   22  C9  UNL     1       9.977  10.088  15.129  1.00  0.00     0.010 C 
HETATM   23  C17 UNL     1       8.268   7.706  14.276  1.00  0.00     0.009 C 
HETATM   24  C18 UNL     1       7.027   7.236  13.502  1.00  0.00     0.047 C 
BRANCH   4  25
HETATM   25  O3  UNL     1       5.200   7.359  15.073  1.00  0.00    -0.381 OA
HETATM   26  H25 UNL     1       5.004   6.463  14.744  1.00  0.00     0.211 HD
ENDBRANCH   4  25
ENDBRANCH   2   4
ENDBRANCH   1   2
BRANCH   1  27
HETATM   27  O5  UNL     1       4.516   6.662  11.095  1.00  0.00    -0.314 OA
BRANCH  27  28
HETATM   28  C22 UNL     1       3.229   6.800  10.679  1.00  0.00     0.259 C 
HETATM   29  O6  UNL     1       2.878   7.526   9.755  1.00  0.00    -0.265 OA
BRANCH  28  30
HETATM   30  C23 UNL     1       2.278   5.890  11.419  1.00  0.00     0.120 C 
BRANCH  30  31
HETATM   31  C24 UNL     1       0.855   5.858  10.875  1.00  0.00     0.112 C 
BRANCH  31  32
HETATM   32  C25 UNL     1      -0.032   4.914  11.661  1.00  0.00     0.218 C 
HETATM   33  O7  UNL     1      -0.036   4.850  12.886  1.00  0.00    -0.274 OA
HETATM   34  N1  UNL     1      -0.837   4.141  10.858  1.00  0.00    -0.346 N 
HETATM   35  H32 UNL     1      -0.584   4.047   9.884  1.00  0.00     0.163 HD
BRANCH  34  36
HETATM   36  C26 UNL     1      -1.709   3.109  11.433  1.00  0.00     0.186 C 
BRANCH  36  37
HETATM   37  C27 UNL     1      -3.159   3.255  10.949  1.00  0.00     0.077 C 
BRANCH  37  38
HETATM   38  C28 UNL     1      -4.039   3.975  11.926  1.00  0.00    -0.028 A 
HETATM   39  C29 UNL     1      -3.728   5.139  12.600  1.00  0.00     0.096 A 
HETATM   40  N2  UNL     1      -4.802   5.489  13.373  1.00  0.00    -0.365 N 
HETATM   41  C30 UNL     1      -5.815   4.570  13.224  1.00  0.00     0.042 A 
HETATM   42  H37 UNL     1      -4.852   6.304  13.968  1.00  0.00     0.165 HD
HETATM   43  C31 UNL     1      -7.085   4.528  13.812  1.00  0.00     0.030 A 
HETATM   44  C35 UNL     1      -5.362   3.601  12.328  1.00  0.00    -0.002 A 
HETATM   45  C32 UNL     1      -7.918   3.456  13.478  1.00  0.00     0.002 A 
HETATM   46  C33 UNL     1      -7.498   2.470  12.590  1.00  0.00     0.001 A 
HETATM   47  C34 UNL     1      -6.224   2.532  12.008  1.00  0.00     0.014 A 
ENDBRANCH  37  38
ENDBRANCH  36  37
BRANCH  36  48
HETATM   48  C36 UNL     1      -1.235   1.701  11.068  1.00  0.00     0.163 C 
HETATM   49  O8  UNL     1      -1.936   0.704  10.999  1.00  0.00    -0.648 OA
BRANCH  48  50
HETATM   50  O9  UNL     1       0.073   1.616  10.734  1.00  0.00    -0.775 OA
HETATM   51  H42 UNL     1       0.201   0.660  10.559  1.00  0.00     0.167 HD
ENDBRANCH  48  50
ENDBRANCH  36  48
ENDBRANCH  34  36
ENDBRANCH  31  32
ENDBRANCH  30  31
ENDBRANCH  28  30
ENDBRANCH  27  28
ENDBRANCH   1  27
TORSDOF 13
ENDMDL
MODEL 4
REMARK minimizedAffinity -9.21258736
REMARK CNNscore 0.307666838
REMARK CNNaffinity 7.06945944
REMARK  13 active torsions:
REMARK  status: ('A' for Active; 'I' for Inactive)
REMARK    1  A    between atoms: C19_21  and  O3_22 
REMARK    2  A    between atoms: C19_21  and  C20_23 
REMARK    3  A    between atoms: C20_23  and  C21_25 
REMARK    4  A    between atoms: C21_25  and  O5_26 
REMARK    5  A    between atoms: O5_26  and  C22_27 
REMARK    6  A    between atoms: C22_27  and  C23_29 
REMARK    7  A    between atoms: C23_29  and  C24_30 
REMARK    8  A    between atoms: C24_30  and  C25_31 
REMARK       I    between atoms: C25_31  and  N1_33 
REMARK    9  A    between atoms: N1_33  and  C26_34 
REMARK   10  A    between atoms: C26_34  and  C27_35 
REMARK   11  A    between atoms: C26_34  and  C36_45 
REMARK   12  A    between atoms: C27_35  and  C28_36 
REMARK   13  A    between atoms: C36_45  and  O9_47 
ROOT
HETATM    1  C21 UNL     1       0.803   7.674  15.729  1.00  0.00     0.260 C 
ENDROOT
BRANCH   1   2
HETATM    2  C20 UNL     1       0.640   7.086  14.326  1.00  0.00     0.185 C 
HETATM    3  O4  UNL     1       1.581   6.533  13.750  1.00  0.00    -0.292 OA
BRANCH   2   4
HETATM    4  C19 UNL     1      -0.712   7.316  13.613  1.00  0.00     0.128 C 
HETATM    5  C14 UNL     1      -1.990   6.705  14.284  1.00  0.00     0.005 C 
HETATM    6  C13 UNL     1      -2.592   7.525  15.448  1.00  0.00     0.091 C 
HETATM    7  C15 UNL     1      -1.706   5.254  14.738  1.00  0.00     0.019 C 
HETATM    8  C16 UNL     1      -2.970   6.786  13.090  1.00  0.00     0.002 C 
HETATM    9  C12 UNL     1      -4.121   7.511  15.510  1.00  0.00     0.133 C 
HETATM   10  C11 UNL     1      -4.847   6.374  14.794  1.00  0.00     0.072 C 
HETATM   11  O2  UNL     1      -4.704   8.328  16.221  1.00  0.00    -0.297 OA
HETATM   12  C2  UNL     1      -6.415   6.317  14.871  1.00  0.00    -0.009 C 
HETATM   13  C10 UNL     1      -4.377   6.224  13.325  1.00  0.00     0.003 C 
HETATM   14  C1  UNL     1      -6.833   5.856  16.285  1.00  0.00     0.021 C 
HETATM   15  C3  UNL     1      -7.092   7.670  14.536  1.00  0.00     0.022 C 
HETATM   16  C7  UNL     1      -6.905   5.272  13.847  1.00  0.00    -0.067 C 
HETATM   17  C4  UNL     1      -8.609   7.573  14.404  1.00  0.00     0.084 C 
HETATM   18  C5  UNL     1      -9.024   6.472  13.460  1.00  0.00     0.149 C 
HETATM   19  O1  UNL     1     -10.124   6.466  12.911  1.00  0.00    -0.293 OA
HETATM   20  C6  UNL     1      -8.088   5.353  13.215  1.00  0.00     0.053 C 
HETATM   21  C8  UNL     1      -5.920   4.183  13.488  1.00  0.00     0.035 C 
HETATM   22  C9  UNL     1      -4.640   4.775  12.866  1.00  0.00     0.010 C 
HETATM   23  C17 UNL     1      -2.175   6.288  11.890  1.00  0.00     0.009 C 
HETATM   24  C18 UNL     1      -0.723   6.692  12.188  1.00  0.00     0.047 C 
BRANCH   4  25
HETATM   25  O3  UNL     1      -0.870   8.735  13.464  1.00  0.00    -0.381 OA
HETATM   26  H25 UNL     1      -0.193   9.045  12.834  1.00  0.00     0.211 HD
ENDBRANCH   4  25
ENDBRANCH   2   4
ENDBRANCH   1   2
BRANCH   1  27
HETATM   27  O5  UNL     1       2.116   8.208  15.923  1.00  0.00    -0.314 OA
BRANCH  27  28
HETATM   28  C22 UNL     1       2.157   9.320  16.704  1.00  0.00     0.259 C 
HETATM   29  O6  UNL     1       2.332   9.303  17.918  1.00  0.00    -0.265 OA
BRANCH  28  30
HETATM   30  C23 UNL     1       2.057  10.596  15.903  1.00  0.00     0.120 C 
BRANCH  30  31
HETATM   31  C24 UNL     1       3.310  10.973  15.123  1.00  0.00     0.112 C 
BRANCH  31  32
HETATM   32  C25 UNL     1       3.353  10.308  13.761  1.00  0.00     0.218 C 
HETATM   33  O7  UNL     1       2.391  10.260  13.001  1.00  0.00    -0.274 OA
HETATM   34  N1  UNL     1       4.583   9.772  13.464  1.00  0.00    -0.346 N 
HETATM   35  H32 UNL     1       5.224   9.604  14.228  1.00  0.00     0.163 HD
BRANCH  34  36
HETATM   36  C26 UNL     1       4.797   9.017  12.223  1.00  0.00     0.186 C 
BRANCH  36  37
HETATM   37  C27 UNL     1       3.470   8.662  11.537  1.00  0.00     0.077 C 
BRANCH  37  38
HETATM   38  C28 UNL     1       3.565   7.453  10.656  1.00  0.00    -0.028 A 
HETATM   39  C29 UNL     1       4.187   6.261  10.970  1.00  0.00     0.096 A 
HETATM   40  N2  UNL     1       4.029   5.403   9.917  1.00  0.00    -0.365 N 
HETATM   41  C30 UNL     1       3.317   6.011   8.909  1.00  0.00     0.042 A 
HETATM   42  H37 UNL     1       4.380   4.456   9.878  1.00  0.00     0.165 HD
HETATM   43  C31 UNL     1       2.921   5.514   7.661  1.00  0.00     0.030 A 
HETATM   44  C35 UNL     1       3.019   7.304   9.339  1.00  0.00    -0.002 A 
HETATM   45  C32 UNL     1       2.202   6.370   6.822  1.00  0.00     0.002 A 
HETATM   46  C33 UNL     1       1.889   7.667   7.219  1.00  0.00     0.001 A 
HETATM   47  C34 UNL     1       2.290   8.146   8.474  1.00  0.00     0.014 A 
ENDBRANCH  37  38
ENDBRANCH  36  37
BRANCH  36  48
HETATM   48  C36 UNL     1       5.643   9.806  11.221  1.00  0.00     0.163 C 
HETATM   49  O8  UNL     1       6.224   9.343  10.252  1.00  0.00    -0.648 OA
BRANCH  48  50
HETATM   50  O9  UNL     1       5.666  11.142  11.432  1.00  0.00    -0.775 OA
HETATM   51  H42 UNL     1       6.262  11.473  10.728  1.00  0.00     0.167 HD
ENDBRANCH  48  50
ENDBRANCH  36  48
ENDBRANCH  34  36
ENDBRANCH  31  32
ENDBRANCH  30  31
ENDBRANCH  28  30
ENDBRANCH  27  28
ENDBRANCH   1  27
TORSDOF 13
ENDMDL
MODEL 5
REMARK minimizedAffinity -9.62851429
REMARK CNNscore 0.286182553
REMARK CNNaffinity 6.43543577
REMARK  13 active torsions:
REMARK  status: ('A' for Active; 'I' for Inactive)
REMARK    1  A    between atoms: C19_21  and  O3_22 
REMARK    2  A    between atoms: C19_21  and  C20_23 
REMARK    3  A    between atoms: C20_23  and  C21_25 
REMARK    4  A    between atoms: C21_25  and  O5_26 
REMARK    5  A    between atoms: O5_26  and  C22_27 
REMARK    6  A    between atoms: C22_27  and  C23_29 
REMARK    7  A    between atoms: C23_29  and  C24_30 
REMARK    8  A    between atoms: C24_30  and  C25_31 
REMARK       I    between atoms: C25_31  and  N1_33 
REMARK    9  A    between atoms: N1_33  and  C26_34 
REMARK   10  A    between atoms: C26_34  and  C27_35 
REMARK   11  A    between atoms: C26_34  and  C36_45 
REMARK   12  A    between atoms: C27_35  and  C28_36 
REMARK   13  A    between atoms: C36_45  and  O9_47 
ROOT
HETATM    1  C21 UNL     1       2.895   8.130  13.851  1.00  0.00     0.260 C 
ENDROOT
BRANCH   1   2
HETATM    2  C20 UNL     1       4.332   8.036  13.333  1.00  0.00     0.185 C 
HETATM    3  O4  UNL     1       4.574   7.991  12.124  1.00  0.00    -0.292 OA
BRANCH   2   4
HETATM    4  C19 UNL     1       5.456   7.881  14.382  1.00  0.00     0.128 C 
HETATM    5  C14 UNL     1       6.180   9.189  14.856  1.00  0.00     0.005 C 
HETATM    6  C13 UNL     1       5.439  10.011  15.935  1.00  0.00     0.091 C 
HETATM    7  C15 UNL     1       6.515  10.080  13.636  1.00  0.00     0.019 C 
HETATM    8  C16 UNL     1       7.434   8.564  15.512  1.00  0.00     0.002 C 
HETATM    9  C12 UNL     1       6.353  10.661  16.976  1.00  0.00     0.133 C 
HETATM   10  C11 UNL     1       7.821  10.856  16.605  1.00  0.00     0.072 C 
HETATM   11  O2  UNL     1       5.865  11.108  18.014  1.00  0.00    -0.297 OA
HETATM   12  C2  UNL     1       8.773  11.552  17.643  1.00  0.00    -0.009 C 
HETATM   13  C10 UNL     1       8.464   9.546  16.083  1.00  0.00     0.003 C 
HETATM   14  C1  UNL     1       8.456  13.064  17.682  1.00  0.00     0.021 C 
HETATM   15  C3  UNL     1       8.664  10.952  19.068  1.00  0.00     0.022 C 
HETATM   16  C7  UNL     1      10.226  11.365  17.157  1.00  0.00    -0.067 C 
HETATM   17  C4  UNL     1       9.728  11.477  20.029  1.00  0.00     0.084 C 
HETATM   18  C5  UNL     1      11.118  11.351  19.456  1.00  0.00     0.149 C 
HETATM   19  O1  UNL     1      12.117  11.334  20.171  1.00  0.00    -0.293 OA
HETATM   20  C6  UNL     1      11.279  11.276  17.987  1.00  0.00     0.053 C 
HETATM   21  C8  UNL     1      10.407  11.166  15.669  1.00  0.00     0.035 C 
HETATM   22  C9  UNL     1       9.664   9.907  15.183  1.00  0.00     0.010 C 
HETATM   23  C17 UNL     1       7.905   7.498  14.532  1.00  0.00     0.009 C 
HETATM   24  C18 UNL     1       6.622   7.001  13.849  1.00  0.00     0.047 C 
BRANCH   4  25
HETATM   25  O3  UNL     1       4.884   7.204  15.511  1.00  0.00    -0.381 OA
HETATM   26  H25 UNL     1       4.668   6.295  15.233  1.00  0.00     0.211 HD
ENDBRANCH   4  25
ENDBRANCH   2   4
ENDBRANCH   1   2
BRANCH   1  27
HETATM   27  O5  UNL     1       2.328   6.833  14.056  1.00  0.00    -0.314 OA
BRANCH  27  28
HETATM   28  C22 UNL     1       1.256   6.561  13.266  1.00  0.00     0.259 C 
HETATM   29  O6  UNL     1       1.291   5.821  12.289  1.00  0.00    -0.265 OA
BRANCH  28  30
HETATM   30  C23 UNL     1      -0.017   7.196  13.774  1.00  0.00     0.120 C 
BRANCH  30  31
HETATM   31  C24 UNL     1      -1.222   7.062  12.852  1.00  0.00     0.112 C 
BRANCH  31  32
HETATM   32  C25 UNL     1      -1.859   5.690  12.946  1.00  0.00     0.218 C 
HETATM   33  O7  UNL     1      -2.263   5.203  13.997  1.00  0.00    -0.274 OA
HETATM   34  N1  UNL     1      -1.943   5.053  11.731  1.00  0.00    -0.346 N 
HETATM   35  H32 UNL     1      -1.353   5.383  10.980  1.00  0.00     0.163 HD
BRANCH  34  36
HETATM   36  C26 UNL     1      -2.459   3.682  11.633  1.00  0.00     0.186 C 
BRANCH  36  37
HETATM   37  C27 UNL     1      -3.645   3.588  10.662  1.00  0.00     0.077 C 
BRANCH  37  38
HETATM   38  C28 UNL     1      -4.900   3.085  11.308  1.00  0.00    -0.028 A 
HETATM   39  C29 UNL     1      -5.544   1.896  11.026  1.00  0.00     0.096 A 
HETATM   40  N2  UNL     1      -6.632   1.791  11.847  1.00  0.00    -0.365 N 
HETATM   41  C30 UNL     1      -6.722   2.894  12.664  1.00  0.00     0.042 A 
HETATM   42  H37 UNL     1      -7.281   1.016  11.860  1.00  0.00     0.165 HD
HETATM   43  C31 UNL     1      -7.662   3.209  13.653  1.00  0.00     0.030 A 
HETATM   44  C35 UNL     1      -5.652   3.731  12.342  1.00  0.00    -0.002 A 
HETATM   45  C32 UNL     1      -7.509   4.421  14.331  1.00  0.00     0.002 A 
HETATM   46  C33 UNL     1      -6.455   5.281  14.034  1.00  0.00     0.001 A 
HETATM   47  C34 UNL     1      -5.520   4.947  13.044  1.00  0.00     0.014 A 
ENDBRANCH  37  38
ENDBRANCH  36  37
BRANCH  36  48
HETATM   48  C36 UNL     1      -1.383   2.707  11.150  1.00  0.00     0.163 C 
HETATM   49  O8  UNL     1      -0.380   2.382  11.767  1.00  0.00    -0.648 OA
BRANCH  48  50
HETATM   50  O9  UNL     1      -1.643   2.127   9.956  1.00  0.00    -0.775 OA
HETATM   51  H42 UNL     1      -0.854   1.568   9.799  1.00  0.00     0.167 HD
ENDBRANCH  48  50
ENDBRANCH  36  48
ENDBRANCH  34  36
ENDBRANCH  31  32
ENDBRANCH  30  31
ENDBRANCH  28  30
ENDBRANCH  27  28
ENDBRANCH   1  27
TORSDOF 13
ENDMDL
MODEL 6
REMARK minimizedAffinity -9.37618923
REMARK CNNscore 0.284823626
REMARK CNNaffinity 6.51782179
REMARK  13 active torsions:
REMARK  status: ('A' for Active; 'I' for Inactive)
REMARK    1  A    between atoms: C19_21  and  O3_22 
REMARK    2  A    between atoms: C19_21  and  C20_23 
REMARK    3  A    between atoms: C20_23  and  C21_25 
REMARK    4  A    between atoms: C21_25  and  O5_26 
REMARK    5  A    between atoms: O5_26  and  C22_27 
REMARK    6  A    between atoms: C22_27  and  C23_29 
REMARK    7  A    between atoms: C23_29  and  C24_30 
REMARK    8  A    between atoms: C24_30  and  C25_31 
REMARK       I    between atoms: C25_31  and  N1_33 
REMARK    9  A    between atoms: N1_33  and  C26_34 
REMARK   10  A    between atoms: C26_34  and  C27_35 
REMARK   11  A    between atoms: C26_34  and  C36_45 
REMARK   12  A    between atoms: C27_35  and  C28_36 
REMARK   13  A    between atoms: C36_45  and  O9_47 
ROOT
HETATM    1  C21 UNL     1       2.567   7.657  11.421  1.00  0.00     0.260 C 
ENDROOT
BRANCH   1   2
HETATM    2  C20 UNL     1       4.005   8.176  11.367  1.00  0.00     0.185 C 
HETATM    3  O4  UNL     1       4.774   7.838  10.462  1.00  0.00    -0.292 OA
BRANCH   2   4
HETATM    4  C19 UNL     1       4.492   9.043  12.549  1.00  0.00     0.128 C 
HETATM    5  C14 UNL     1       6.009   8.943  12.935  1.00  0.00     0.005 C 
HETATM    6  C13 UNL     1       6.977   9.780  12.068  1.00  0.00     0.091 C 
HETATM    7  C15 UNL     1       6.452   7.461  12.959  1.00  0.00     0.019 C 
HETATM    8  C16 UNL     1       5.958   9.583  14.342  1.00  0.00     0.002 C 
HETATM    9  C12 UNL     1       8.144  10.401  12.838  1.00  0.00     0.133 C 
HETATM   10  C11 UNL     1       8.514   9.778  14.183  1.00  0.00     0.072 C 
HETATM   11  O2  UNL     1       8.814  11.287  12.310  1.00  0.00    -0.297 OA
HETATM   12  C2  UNL     1       9.730  10.376  14.979  1.00  0.00    -0.009 C 
HETATM   13  C10 UNL     1       7.282   9.639  15.113  1.00  0.00     0.003 C 
HETATM   14  C1  UNL     1      11.043   9.952  14.284  1.00  0.00     0.021 C 
HETATM   15  C3  UNL     1       9.675  11.919  15.109  1.00  0.00     0.022 C 
HETATM   16  C7  UNL     1       9.709   9.777  16.401  1.00  0.00    -0.067 C 
HETATM   17  C4  UNL     1      10.732  12.486  16.051  1.00  0.00     0.084 C 
HETATM   18  C5  UNL     1      10.722  11.795  17.393  1.00  0.00     0.149 C 
HETATM   19  O1  UNL     1      11.187  12.323  18.401  1.00  0.00    -0.293 OA
HETATM   20  C6  UNL     1      10.161  10.429  17.486  1.00  0.00     0.053 C 
HETATM   21  C8  UNL     1       9.034   8.432  16.544  1.00  0.00     0.035 C 
HETATM   22  C9  UNL     1       7.552   8.508  16.127  1.00  0.00     0.010 C 
HETATM   23  C17 UNL     1       4.744   8.959  15.018  1.00  0.00     0.009 C 
HETATM   24  C18 UNL     1       3.762   8.674  13.872  1.00  0.00     0.047 C 
BRANCH   4  25
HETATM   25  O3  UNL     1       4.157  10.403  12.236  1.00  0.00    -0.381 OA
HETATM   26  H25 UNL     1       3.186  10.480  12.247  1.00  0.00     0.211 HD
ENDBRANCH   4  25
ENDBRANCH   2   4
ENDBRANCH   1   2
BRANCH   1  27
HETATM   27  O5  UNL     1       2.525   6.266  11.752  1.00  0.00    -0.314 OA
BRANCH  27  28
HETATM   28  C22 UNL     1       1.523   5.577  11.145  1.00  0.00     0.259 C 
HETATM   29  O6  UNL     1       1.661   4.473  10.629  1.00  0.00    -0.265 OA
BRANCH  28  30
HETATM   30  C23 UNL     1       0.189   6.276  11.254  1.00  0.00     0.120 C 
BRANCH  30  31
HETATM   31  C24 UNL     1      -0.470   6.205  12.626  1.00  0.00     0.112 C 
BRANCH  31  32
HETATM   32  C25 UNL     1      -1.540   5.133  12.687  1.00  0.00     0.218 C 
HETATM   33  O7  UNL     1      -2.429   5.112  13.531  1.00  0.00    -0.274 OA
HETATM   34  N1  UNL     1      -1.414   4.192  11.693  1.00  0.00    -0.346 N 
HETATM   35  H32 UNL     1      -0.523   4.116  11.222  1.00  0.00     0.163 HD
BRANCH  34  36
HETATM   36  C26 UNL     1      -2.311   3.031  11.636  1.00  0.00     0.186 C 
BRANCH  36  37
HETATM   37  C27 UNL     1      -3.511   3.283  10.711  1.00  0.00     0.077 C 
BRANCH  37  38
HETATM   38  C28 UNL     1      -4.821   2.891  11.323  1.00  0.00    -0.028 A 
HETATM   39  C29 UNL     1      -5.530   1.734  11.065  1.00  0.00     0.096 A 
HETATM   40  N2  UNL     1      -6.655   1.736  11.842  1.00  0.00    -0.365 N 
HETATM   41  C30 UNL     1      -6.706   2.880  12.606  1.00  0.00     0.042 A 
HETATM   42  H37 UNL     1      -7.353   1.006  11.860  1.00  0.00     0.165 HD
HETATM   43  C31 UNL     1      -7.663   3.299  13.538  1.00  0.00     0.030 A 
HETATM   44  C35 UNL     1      -5.571   3.631  12.295  1.00  0.00    -0.002 A 
HETATM   45  C32 UNL     1      -7.458   4.529  14.168  1.00  0.00     0.002 A 
HETATM   46  C33 UNL     1      -6.339   5.305  13.881  1.00  0.00     0.001 A 
HETATM   47  C34 UNL     1      -5.388   4.867  12.948  1.00  0.00     0.014 A 
ENDBRANCH  37  38
ENDBRANCH  36  37
BRANCH  36  48
HETATM   48  C36 UNL     1      -1.586   1.782  11.128  1.00  0.00     0.163 C 
HETATM   49  O8  UNL     1      -0.389   1.689  10.904  1.00  0.00    -0.648 OA
BRANCH  48  50
HETATM   50  O9  UNL     1      -2.372   0.690  10.996  1.00  0.00    -0.775 OA
HETATM   51  H42 UNL     1      -1.759   0.010  10.646  1.00  0.00     0.167 HD
ENDBRANCH  48  50
ENDBRANCH  36  48
ENDBRANCH  34  36
ENDBRANCH  31  32
ENDBRANCH  30  31
ENDBRANCH  28  30
ENDBRANCH  27  28
ENDBRANCH   1  27
TORSDOF 13
ENDMDL
MODEL 7
REMARK minimizedAffinity -9.29625416
REMARK CNNscore 0.279455811
REMARK CNNaffinity 7.18567419
REMARK  13 active torsions:
REMARK  status: ('A' for Active; 'I' for Inactive)
REMARK    1  A    between atoms: C19_21  and  O3_22 
REMARK    2  A    between atoms: C19_21  and  C20_23 
REMARK    3  A    between atoms: C20_23  and  C21_25 
REMARK    4  A    between atoms: C21_25  and  O5_26 
REMARK    5  A    between atoms: O5_26  and  C22_27 
REMARK    6  A    between atoms: C22_27  and  C23_29 
REMARK    7  A    between atoms: C23_29  and  C24_30 
REMARK    8  A    between atoms: C24_30  and  C25_31 
REMARK       I    between atoms: C25_31  and  N1_33 
REMARK    9  A    between atoms: N1_33  and  C26_34 
REMARK   10  A    between atoms: C26_34  and  C27_35 
REMARK   11  A    between atoms: C26_34  and  C36_45 
REMARK   12  A    between atoms: C27_35  and  C28_36 
REMARK   13  A    between atoms: C36_45  and  O9_47 
ROOT
HETATM    1  C21 UNL     1       0.461   5.623  13.587  1.00  0.00     0.260 C 
ENDROOT
BRANCH   1   2
HETATM    2  C20 UNL     1       0.331   7.146  13.653  1.00  0.00     0.185 C 
HETATM    3  O4  UNL     1       1.291   7.882  13.406  1.00  0.00    -0.292 OA
BRANCH   2   4
HETATM    4  C19 UNL     1      -1.012   7.723  14.153  1.00  0.00     0.128 C 
HETATM    5  C14 UNL     1      -0.959   9.055  14.979  1.00  0.00     0.005 C 
HETATM    6  C13 UNL     1      -0.837  10.353  14.149  1.00  0.00     0.091 C 
HETATM    7  C15 UNL     1       0.175   8.979  16.030  1.00  0.00     0.019 C 
HETATM    8  C16 UNL     1      -2.371   9.023  15.608  1.00  0.00     0.002 C 
HETATM    9  C12 UNL     1      -1.620  11.541  14.712  1.00  0.00     0.133 C 
HETATM   10  C11 UNL     1      -2.005  11.498  16.190  1.00  0.00     0.072 C 
HETATM   11  O2  UNL     1      -1.808  12.531  14.006  1.00  0.00    -0.297 OA
HETATM   12  C2  UNL     1      -2.780  12.720  16.801  1.00  0.00    -0.009 C 
HETATM   13  C10 UNL     1      -2.717  10.173  16.562  1.00  0.00     0.003 C 
HETATM   14  C1  UNL     1      -1.801  13.905  16.966  1.00  0.00     0.021 C 
HETATM   15  C3  UNL     1      -3.999  13.157  15.950  1.00  0.00     0.022 C 
HETATM   16  C7  UNL     1      -3.295  12.309  18.197  1.00  0.00    -0.067 C 
HETATM   17  C4  UNL     1      -4.874  14.202  16.637  1.00  0.00     0.084 C 
HETATM   18  C5  UNL     1      -5.267  13.781  18.031  1.00  0.00     0.149 C 
HETATM   19  O1  UNL     1      -6.251  14.249  18.600  1.00  0.00    -0.293 OA
HETATM   20  C6  UNL     1      -4.422  12.796  18.743  1.00  0.00     0.053 C 
HETATM   21  C8  UNL     1      -2.517  11.217  18.894  1.00  0.00     0.035 C 
HETATM   22  C9  UNL     1      -2.527   9.915  18.071  1.00  0.00     0.010 C 
HETATM   23  C17 UNL     1      -2.558   7.591  16.091  1.00  0.00     0.009 C 
HETATM   24  C18 UNL     1      -1.740   6.737  15.110  1.00  0.00     0.047 C 
BRANCH   4  25
HETATM   25  O3  UNL     1      -1.847   7.899  12.998  1.00  0.00    -0.381 OA
HETATM   26  H25 UNL     1      -2.063   7.015  12.650  1.00  0.00     0.211 HD
ENDBRANCH   4  25
ENDBRANCH   2   4
ENDBRANCH   1   2
BRANCH   1  27
HETATM   27  O5  UNL     1      -0.548   5.048  12.752  1.00  0.00    -0.314 OA
BRANCH  27  28
HETATM   28  C22 UNL     1      -0.069   4.217  11.789  1.00  0.00     0.259 C 
HETATM   29  O6  UNL     1       1.048   4.312  11.290  1.00  0.00    -0.265 OA
BRANCH  28  30
HETATM   30  C23 UNL     1      -1.026   3.097  11.458  1.00  0.00     0.120 C 
BRANCH  30  31
HETATM   31  C24 UNL     1      -2.358   3.538  10.862  1.00  0.00     0.112 C 
BRANCH  31  32
HETATM   32  C25 UNL     1      -3.470   3.533  11.891  1.00  0.00     0.218 C 
HETATM   33  O7  UNL     1      -3.316   3.890  13.054  1.00  0.00    -0.274 OA
HETATM   34  N1  UNL     1      -4.669   3.095  11.383  1.00  0.00    -0.346 N 
HETATM   35  H32 UNL     1      -4.655   2.566  10.522  1.00  0.00     0.163 HD
BRANCH  34  36
HETATM   36  C26 UNL     1      -5.846   2.946  12.249  1.00  0.00     0.186 C 
BRANCH  36  37
HETATM   37  C27 UNL     1      -6.767   4.172  12.175  1.00  0.00     0.077 C 
BRANCH  37  38
HETATM   38  C28 UNL     1      -7.022   4.801  13.511  1.00  0.00    -0.028 A 
HETATM   39  C29 UNL     1      -7.703   4.228  14.566  1.00  0.00     0.096 A 
HETATM   40  N2  UNL     1      -7.695   5.109  15.613  1.00  0.00    -0.365 N 
HETATM   41  C30 UNL     1      -7.023   6.258  15.264  1.00  0.00     0.042 A 
HETATM   42  H37 UNL     1      -8.117   4.945  16.517  1.00  0.00     0.165 HD
HETATM   43  C31 UNL     1      -6.766   7.413  16.013  1.00  0.00     0.030 A 
HETATM   44  C35 UNL     1      -6.596   6.099  13.945  1.00  0.00    -0.002 A 
HETATM   45  C32 UNL     1      -6.055   8.443  15.391  1.00  0.00     0.002 A 
HETATM   46  C33 UNL     1      -5.617   8.319  14.076  1.00  0.00     0.001 A 
HETATM   47  C34 UNL     1      -5.879   7.153  13.343  1.00  0.00     0.014 A 
ENDBRANCH  37  38
ENDBRANCH  36  37
BRANCH  36  48
HETATM   48  C36 UNL     1      -6.675   1.717  11.868  1.00  0.00     0.163 C 
HETATM   49  O8  UNL     1      -6.350   0.853  11.068  1.00  0.00    -0.648 OA
BRANCH  48  50
HETATM   50  O9  UNL     1      -7.832   1.585  12.554  1.00  0.00    -0.775 OA
HETATM   51  H42 UNL     1      -8.233   0.776  12.170  1.00  0.00     0.167 HD
ENDBRANCH  48  50
ENDBRANCH  36  48
ENDBRANCH  34  36
ENDBRANCH  31  32
ENDBRANCH  30  31
ENDBRANCH  28  30
ENDBRANCH  27  28
ENDBRANCH   1  27
TORSDOF 13
ENDMDL
MODEL 8
REMARK minimizedAffinity -9.84786892
REMARK CNNscore 0.26906547
REMARK CNNaffinity 5.66712809
REMARK  13 active torsions:
REMARK  status: ('A' for Active; 'I' for Inactive)
REMARK    1  A    between atoms: C19_21  and  O3_22 
REMARK    2  A    between atoms: C19_21  and  C20_23 
REMARK    3  A    between atoms: C20_23  and  C21_25 
REMARK    4  A    between atoms: C21_25  and  O5_26 
REMARK    5  A    between atoms: O5_26  and  C22_27 
REMARK    6  A    between atoms: C22_27  and  C23_29 
REMARK    7  A    between atoms: C23_29  and  C24_30 
REMARK    8  A    between atoms: C24_30  and  C25_31 
REMARK       I    between atoms: C25_31  and  N1_33 
REMARK    9  A    between atoms: N1_33  and  C26_34 
REMARK   10  A    between atoms: C26_34  and  C27_35 
REMARK   11  A    between atoms: C26_34  and  C36_45 
REMARK   12  A    between atoms: C27_35  and  C28_36 
REMARK   13  A    between atoms: C36_45  and  O9_47 
ROOT
HETATM    1  C21 UNL     1      -1.892   9.629  17.186  1.00  0.00     0.260 C 
ENDROOT
BRANCH   1   2
HETATM    2  C20 UNL     1      -1.560   9.353  15.718  1.00  0.00     0.185 C 
HETATM    3  O4  UNL     1      -2.211   9.871  14.806  1.00  0.00    -0.292 OA
BRANCH   2   4
HETATM    4  C19 UNL     1      -0.458   8.311  15.423  1.00  0.00     0.128 C 
HETATM    5  C14 UNL     1       0.513   8.611  14.229  1.00  0.00     0.005 C 
HETATM    6  C13 UNL     1       1.672   9.586  14.538  1.00  0.00     0.091 C 
HETATM    7  C15 UNL     1      -0.293   9.104  13.004  1.00  0.00     0.019 C 
HETATM    8  C16 UNL     1       1.118   7.202  14.029  1.00  0.00     0.002 C 
HETATM    9  C12 UNL     1       2.992   9.242  13.845  1.00  0.00     0.133 C 
HETATM   10  C11 UNL     1       2.930   8.343  12.612  1.00  0.00     0.072 C 
HETATM   11  O2  UNL     1       4.031   9.784  14.220  1.00  0.00    -0.297 OA
HETATM   12  C2  UNL     1       4.268   8.002  11.862  1.00  0.00    -0.009 C 
HETATM   13  C10 UNL     1       2.122   7.049  12.881  1.00  0.00     0.003 C 
HETATM   14  C1  UNL     1       4.738   9.248  11.079  1.00  0.00     0.021 C 
HETATM   15  C3  UNL     1       5.393   7.518  12.811  1.00  0.00     0.022 C 
HETATM   16  C7  UNL     1       3.974   6.870  10.854  1.00  0.00    -0.067 C 
HETATM   17  C4  UNL     1       6.621   6.988  12.076  1.00  0.00     0.084 C 
HETATM   18  C5  UNL     1       6.256   5.953  11.041  1.00  0.00     0.149 C 
HETATM   19  O1  UNL     1       7.071   5.133  10.625  1.00  0.00    -0.293 OA
HETATM   20  C6  UNL     1       4.882   5.949  10.491  1.00  0.00     0.053 C 
HETATM   21  C8  UNL     1       2.546   6.769  10.368  1.00  0.00     0.035 C 
HETATM   22  C9  UNL     1       1.577   6.516  11.539  1.00  0.00     0.010 C 
HETATM   23  C17 UNL     1      -0.068   6.248  14.096  1.00  0.00     0.009 C 
HETATM   24  C18 UNL     1      -1.060   6.925  15.054  1.00  0.00     0.047 C 
BRANCH   4  25
HETATM   25  O3  UNL     1       0.295   8.145  16.634  1.00  0.00    -0.381 OA
HETATM   26  H25 UNL     1      -0.287   7.721  17.290  1.00  0.00     0.211 HD
ENDBRANCH   4  25
ENDBRANCH   2   4
ENDBRANCH   1   2
BRANCH   1  27
HETATM   27  O5  UNL     1      -1.714  11.010  17.511  1.00  0.00    -0.314 OA
BRANCH  27  28
HETATM   28  C22 UNL     1      -0.444  11.342  17.865  1.00  0.00     0.259 C 
HETATM   29  O6  UNL     1       0.406  11.746  17.079  1.00  0.00    -0.265 OA
BRANCH  28  30
HETATM   30  C23 UNL     1      -0.213  11.248  19.354  1.00  0.00     0.120 C 
BRANCH  30  31
HETATM   31  C24 UNL     1       1.144  11.750  19.832  1.00  0.00     0.112 C 
BRANCH  31  32
HETATM   32  C25 UNL     1       2.051  10.614  20.262  1.00  0.00     0.218 C 
HETATM   33  O7  UNL     1       2.410   9.714  19.510  1.00  0.00    -0.274 OA
HETATM   34  N1  UNL     1       2.435  10.703  21.578  1.00  0.00    -0.346 N 
HETATM   35  H32 UNL     1       1.890  11.293  22.192  1.00  0.00     0.163 HD
BRANCH  34  36
HETATM   36  C26 UNL     1       3.249   9.650  22.199  1.00  0.00     0.186 C 
BRANCH  36  37
HETATM   37  C27 UNL     1       4.153  10.210  23.307  1.00  0.00     0.077 C 
BRANCH  37  38
HETATM   38  C28 UNL     1       4.500  11.655  23.114  1.00  0.00    -0.028 A 
HETATM   39  C29 UNL     1       3.606  12.696  22.963  1.00  0.00     0.096 A 
HETATM   40  N2  UNL     1       4.316  13.859  22.842  1.00  0.00    -0.365 N 
HETATM   41  C30 UNL     1       5.666  13.602  22.903  1.00  0.00     0.042 A 
HETATM   42  H37 UNL     1       3.913  14.779  22.726  1.00  0.00     0.165 HD
HETATM   43  C31 UNL     1       6.754  14.481  22.828  1.00  0.00     0.030 A 
HETATM   44  C35 UNL     1       5.815  12.224  23.064  1.00  0.00    -0.002 A 
HETATM   45  C32 UNL     1       8.036  13.932  22.914  1.00  0.00     0.002 A 
HETATM   46  C33 UNL     1       8.221  12.561  23.072  1.00  0.00     0.001 A 
HETATM   47  C34 UNL     1       7.120  11.698  23.150  1.00  0.00     0.014 A 
ENDBRANCH  37  38
ENDBRANCH  36  37
BRANCH  36  48
HETATM   48  C36 UNL     1       2.380   8.553  22.816  1.00  0.00     0.163 C 
HETATM   49  O8  UNL     1       1.856   7.629  22.214  1.00  0.00    -0.648 OA
BRANCH  48  50
HETATM   50  O9  UNL     1       2.265   8.617  24.163  1.00  0.00    -0.775 OA
HETATM   51  H42 UNL     1       1.667   7.869  24.375  1.00  0.00     0.167 HD
ENDBRANCH  48  50
ENDBRANCH  36  48
ENDBRANCH  34  36
ENDBRANCH  31  32
ENDBRANCH  30  31
ENDBRANCH  28  30
ENDBRANCH  27  28
ENDBRANCH   1  27
TORSDOF 13
ENDMDL
MODEL 9
REMARK minimizedAffinity -8.8052578
REMARK CNNscore 0.224678606
REMARK CNNaffinity 5.6828289
REMARK  13 active torsions:
REMARK  status: ('A' for Active; 'I' for Inactive)
REMARK    1  A    between atoms: C19_21  and  O3_22 
REMARK    2  A    between atoms: C19_21  and  C20_23 
REMARK    3  A    between atoms: C20_23  and  C21_25 
REMARK    4  A    between atoms: C21_25  and  O5_26 
REMARK    5  A    between atoms: O5_26  and  C22_27 
REMARK    6  A    between atoms: C22_27  and  C23_29 
REMARK    7  A    between atoms: C23_29  and  C24_30 
REMARK    8  A    between atoms: C24_30  and  C25_31 
REMARK       I    between atoms: C25_31  and  N1_33 
REMARK    9  A    between atoms: N1_33  and  C26_34 
REMARK   10  A    between atoms: C26_34  and  C27_35 
REMARK   11  A    between atoms: C26_34  and  C36_45 
REMARK   12  A    between atoms: C27_35  and  C28_36 
REMARK   13  A    between atoms: C36_45  and  O9_47 
ROOT
HETATM    1  C21 UNL     1       1.168  11.464  18.956  1.00  0.00     0.260 C 
ENDROOT
BRANCH   1   2
HETATM    2  C20 UNL     1       2.240  10.760  19.791  1.00  0.00     0.185 C 
HETATM    3  O4  UNL     1       2.615   9.616  19.517  1.00  0.00    -0.292 OA
BRANCH   2   4
HETATM    4  C19 UNL     1       2.748  11.489  21.055  1.00  0.00     0.128 C 
HETATM    5  C14 UNL     1       4.090  12.290  20.931  1.00  0.00     0.005 C 
HETATM    6  C13 UNL     1       3.973  13.697  20.302  1.00  0.00     0.091 C 
HETATM    7  C15 UNL     1       5.141  11.446  20.171  1.00  0.00     0.019 C 
HETATM    8  C16 UNL     1       4.423  12.466  22.431  1.00  0.00     0.002 C 
HETATM    9  C12 UNL     1       4.898  14.748  20.922  1.00  0.00     0.133 C 
HETATM   10  C11 UNL     1       6.118  14.249  21.692  1.00  0.00     0.072 C 
HETATM   11  O2  UNL     1       4.703  15.939  20.685  1.00  0.00    -0.297 OA
HETATM   12  C2  UNL     1       7.102  15.307  22.310  1.00  0.00    -0.009 C 
HETATM   13  C10 UNL     1       5.736  13.189  22.756  1.00  0.00     0.003 C 
HETATM   14  C1  UNL     1       7.930  15.948  21.173  1.00  0.00     0.021 C 
HETATM   15  C3  UNL     1       6.379  16.410  23.123  1.00  0.00     0.022 C 
HETATM   16  C7  UNL     1       8.064  14.565  23.263  1.00  0.00    -0.067 C 
HETATM   17  C4  UNL     1       7.332  17.318  23.895  1.00  0.00     0.084 C 
HETATM   18  C5  UNL     1       8.306  16.529  24.735  1.00  0.00     0.149 C 
HETATM   19  O1  UNL     1       8.877  17.022  25.705  1.00  0.00    -0.293 OA
HETATM   20  C6  UNL     1       8.602  15.129  24.357  1.00  0.00     0.053 C 
HETATM   21  C8  UNL     1       8.289  13.100  22.968  1.00  0.00     0.035 C 
HETATM   22  C9  UNL     1       6.969  12.308  23.045  1.00  0.00     0.010 C 
HETATM   23  C17 UNL     1       4.165  11.102  23.057  1.00  0.00     0.009 C 
HETATM   24  C18 UNL     1       3.032  10.494  22.216  1.00  0.00     0.047 C 
BRANCH   4  25
HETATM   25  O3  UNL     1       1.695  12.364  21.484  1.00  0.00    -0.381 OA
HETATM   26  H25 UNL     1       0.954  11.810  21.790  1.00  0.00     0.211 HD
ENDBRANCH   4  25
ENDBRANCH   2   4
ENDBRANCH   1   2
BRANCH   1  27
HETATM   27  O5  UNL     1       0.584  10.577  17.998  1.00  0.00    -0.314 OA
BRANCH  27  28
HETATM   28  C22 UNL     1      -0.723  10.829  17.727  1.00  0.00     0.259 C 
HETATM   29  O6  UNL     1      -1.404  11.655  18.326  1.00  0.00    -0.265 OA
BRANCH  28  30
HETATM   30  C23 UNL     1      -1.232  10.048  16.539  1.00  0.00     0.120 C 
BRANCH  30  31
HETATM   31  C24 UNL     1      -0.617   8.665  16.362  1.00  0.00     0.112 C 
BRANCH  31  32
HETATM   32  C25 UNL     1      -1.486   7.762  15.509  1.00  0.00     0.218 C 
HETATM   33  O7  UNL     1      -1.092   6.710  15.018  1.00  0.00    -0.274 OA
HETATM   34  N1  UNL     1      -2.764   8.242  15.351  1.00  0.00    -0.346 N 
HETATM   35  H32 UNL     1      -2.930   9.221  15.540  1.00  0.00     0.163 HD
BRANCH  34  36
HETATM   36  C26 UNL     1      -3.731   7.546  14.492  1.00  0.00     0.186 C 
BRANCH  36  37
HETATM   37  C27 UNL     1      -4.529   6.491  15.272  1.00  0.00     0.077 C 
BRANCH  37  38
HETATM   38  C28 UNL     1      -5.379   5.624  14.393  1.00  0.00    -0.028 A 
HETATM   39  C29 UNL     1      -6.752   5.490  14.462  1.00  0.00     0.096 A 
HETATM   40  N2  UNL     1      -7.150   4.632  13.473  1.00  0.00    -0.365 N 
HETATM   41  C30 UNL     1      -6.061   4.193  12.755  1.00  0.00     0.042 A 
HETATM   42  H37 UNL     1      -8.105   4.358  13.288  1.00  0.00     0.165 HD
HETATM   43  C31 UNL     1      -5.996   3.319  11.664  1.00  0.00     0.030 A 
HETATM   44  C35 UNL     1      -4.932   4.792  13.316  1.00  0.00    -0.002 A 
HETATM   45  C32 UNL     1      -4.734   3.042  11.131  1.00  0.00     0.002 A 
HETATM   46  C33 UNL     1      -3.586   3.619  11.667  1.00  0.00     0.001 A 
HETATM   47  C34 UNL     1      -3.672   4.496  12.757  1.00  0.00     0.014 A 
ENDBRANCH  37  38
ENDBRANCH  36  37
BRANCH  36  48
HETATM   48  C36 UNL     1      -4.732   8.518  13.865  1.00  0.00     0.163 C 
HETATM   49  O8  UNL     1      -4.894   8.710  12.670  1.00  0.00    -0.648 OA
BRANCH  48  50
HETATM   50  O9  UNL     1      -5.535   9.149  14.753  1.00  0.00    -0.775 OA
HETATM   51  H42 UNL     1      -6.081   9.736  14.188  1.00  0.00     0.167 HD
ENDBRANCH  48  50
ENDBRANCH  36  48
ENDBRANCH  34  36
ENDBRANCH  31  32
ENDBRANCH  30  31
ENDBRANCH  28  30
ENDBRANCH  27  28
ENDBRANCH   1  27
TORSDOF 13
ENDMDL
