MODEL 1
REMARK minimizedAffinity -7.50284195
REMARK CNNscore 0.444591343
REMARK CNNaffinity 6.54353762
REMARK  7 active torsions:
REMARK  status: ('A' for Active; 'I' for Inactive)
REMARK    1  A    between atoms: C4_4  and  C5_5 
REMARK    2  A    between atoms: C5_5  and  C6_6 
REMARK    3  A    between atoms: C6_6  and  C7_7 
REMARK    4  A    between atoms: C7_7  and  C9_9 
REMARK    5  A    between atoms: C18_18  and  O1_19 
REMARK    6  A    between atoms: O1_19  and  C19_20 
REMARK    7  A    between atoms: C19_20  and  C20_22 
ROOT
HETATM    1  C9  UNL     1      -2.470   6.926  13.400  1.00  0.00    -0.002 C 
HETATM    2  C10 UNL     1      -3.856   7.352  12.844  1.00  0.00     0.006 C 
HETATM    3  C11 UNL     1      -4.307   8.592  13.624  1.00  0.00     0.010 C 
HETATM    4  C12 UNL     1      -3.081   8.988  14.437  1.00  0.00     0.023 C 
HETATM    5  C13 UNL     1      -3.202   9.939  15.603  1.00  0.00    -0.070 C 
HETATM    6  C14 UNL     1      -4.306  10.658  15.862  1.00  0.00     0.004 C 
HETATM    7  C15 UNL     1      -4.312  11.725  16.827  1.00  0.00     0.004 C 
HETATM    8  C16 UNL     1      -3.311  11.919  17.702  1.00  0.00    -0.069 C 
HETATM    9  C17 UNL     1      -3.380  13.036  18.718  1.00  0.00     0.067 C 
HETATM   10  C18 UNL     1      -2.067  13.814  18.832  1.00  0.00     0.136 C 
HETATM   11  C26 UNL     1      -0.903  12.855  19.091  1.00  0.00     0.034 C 
HETATM   12  C27 UNL     1      -0.797  11.814  17.979  1.00  0.00     0.017 C 
HETATM   13  C28 UNL     1      -2.094  10.984  17.747  1.00  0.00    -0.013 C 
HETATM   14  C29 UNL     1      -2.323  10.040  18.953  1.00  0.00     0.021 C 
HETATM   15  C30 UNL     1      -1.908  10.174  16.382  1.00  0.00     0.027 C 
HETATM   16  C31 UNL     1      -1.071   8.877  16.561  1.00  0.00     0.011 C 
HETATM   17  C32 UNL     1      -1.016   7.970  15.323  1.00  0.00     0.011 C 
HETATM   18  C33 UNL     1      -2.427   7.631  14.797  1.00  0.00    -0.033 C 
HETATM   19  C34 UNL     1      -3.240   6.840  15.851  1.00  0.00     0.016 C 
ENDROOT
BRANCH  10  20
HETATM   20  O1  UNL     1      -2.194  14.726  19.941  1.00  0.00    -0.312 OA
BRANCH  20  21
HETATM   21  C19 UNL     1      -3.253  15.573  19.893  1.00  0.00     0.293 C 
HETATM   22  O2  UNL     1      -3.519  16.338  18.980  1.00  0.00    -0.259 OA
BRANCH  21  23
HETATM   23  C20 UNL     1      -4.079  15.449  21.125  1.00  0.00     0.039 A 
HETATM   24  C21 UNL     1      -5.411  15.029  20.987  1.00  0.00     0.017 A 
HETATM   25  C22 UNL     1      -6.227  14.896  22.112  1.00  0.00     0.001 A 
HETATM   26  C23 UNL     1      -5.721  15.182  23.379  1.00  0.00     0.000 A 
HETATM   27  C24 UNL     1      -4.398  15.602  23.525  1.00  0.00     0.001 A 
HETATM   28  C25 UNL     1      -3.577  15.735  22.402  1.00  0.00     0.017 A 
ENDBRANCH  21  23
ENDBRANCH  20  21
ENDBRANCH  10  20
BRANCH   1  29
HETATM   29  C7  UNL     1      -2.233   5.388  13.306  1.00  0.00    -0.014 C 
HETATM   30  C8  UNL     1      -1.133   5.036  12.293  1.00  0.00     0.010 C 
BRANCH  29  31
HETATM   31  C6  UNL     1      -3.515   4.610  12.886  1.00  0.00     0.008 C 
BRANCH  31  32
HETATM   32  C5  UNL     1      -3.527   4.124  11.431  1.00  0.00     0.028 C 
BRANCH  32  33
HETATM   33  C4  UNL     1      -4.261   2.815  11.309  1.00  0.00    -0.025 C 
HETATM   34  C2  UNL     1      -5.563   2.567  11.552  1.00  0.00    -0.091 C 
HETATM   35  C1  UNL     1      -6.128   1.184  11.352  1.00  0.00     0.042 C 
HETATM   36  C3  UNL     1      -6.569   3.576  12.035  1.00  0.00     0.042 C 
ENDBRANCH  32  33
ENDBRANCH  31  32
ENDBRANCH  29  31
ENDBRANCH   1  29
TORSDOF 7
ENDMDL
MODEL 2
REMARK minimizedAffinity -9.9462862
REMARK CNNscore 0.433094501
REMARK CNNaffinity 7.15402079
REMARK  7 active torsions:
REMARK  status: ('A' for Active; 'I' for Inactive)
REMARK    1  A    between atoms: C4_4  and  C5_5 
REMARK    2  A    between atoms: C5_5  and  C6_6 
REMARK    3  A    between atoms: C6_6  and  C7_7 
REMARK    4  A    between atoms: C7_7  and  C9_9 
REMARK    5  A    between atoms: C18_18  and  O1_19 
REMARK    6  A    between atoms: O1_19  and  C19_20 
REMARK    7  A    between atoms: C19_20  and  C20_22 
ROOT
HETATM    1  C9  UNL     1      -7.141   4.921  14.776  1.00  0.00    -0.002 C 
HETATM    2  C10 UNL     1      -7.493   3.868  13.691  1.00  0.00     0.006 C 
HETATM    3  C11 UNL     1      -6.245   3.660  12.825  1.00  0.00     0.010 C 
HETATM    4  C12 UNL     1      -5.146   4.411  13.568  1.00  0.00     0.023 C 
HETATM    5  C13 UNL     1      -3.848   4.758  12.879  1.00  0.00    -0.070 C 
HETATM    6  C14 UNL     1      -3.482   4.256  11.690  1.00  0.00     0.004 C 
HETATM    7  C15 UNL     1      -2.148   4.412  11.174  1.00  0.00     0.004 C 
HETATM    8  C16 UNL     1      -1.257   5.262  11.710  1.00  0.00    -0.069 C 
HETATM    9  C17 UNL     1       0.123   5.413  11.111  1.00  0.00     0.067 C 
HETATM   10  C18 UNL     1       1.229   5.428  12.169  1.00  0.00     0.136 C 
HETATM   11  C26 UNL     1       0.931   6.486  13.233  1.00  0.00     0.034 C 
HETATM   12  C27 UNL     1      -0.420   6.228  13.896  1.00  0.00     0.017 C 
HETATM   13  C28 UNL     1      -1.620   6.154  12.906  1.00  0.00    -0.013 C 
HETATM   14  C29 UNL     1      -1.892   7.564  12.323  1.00  0.00     0.021 C 
HETATM   15  C30 UNL     1      -2.876   5.591  13.716  1.00  0.00     0.027 C 
HETATM   16  C31 UNL     1      -3.592   6.686  14.555  1.00  0.00     0.011 C 
HETATM   17  C32 UNL     1      -4.910   6.240  15.206  1.00  0.00     0.011 C 
HETATM   18  C33 UNL     1      -5.883   5.632  14.174  1.00  0.00    -0.033 C 
HETATM   19  C34 UNL     1      -6.286   6.676  13.103  1.00  0.00     0.016 C 
ENDROOT
BRANCH  10  20
HETATM   20  O1  UNL     1       2.466   5.750  11.503  1.00  0.00    -0.312 OA
BRANCH  20  21
HETATM   21  C19 UNL     1       2.553   7.004  10.989  1.00  0.00     0.293 C 
HETATM   22  O2  UNL     1       2.786   8.023  11.619  1.00  0.00    -0.259 OA
BRANCH  21  23
HETATM   23  C20 UNL     1       2.329   6.982   9.518  1.00  0.00     0.039 A 
HETATM   24  C21 UNL     1       1.514   7.978   8.959  1.00  0.00     0.017 A 
HETATM   25  C22 UNL     1       1.273   8.003   7.585  1.00  0.00     0.001 A 
HETATM   26  C23 UNL     1       1.842   7.033   6.760  1.00  0.00     0.000 A 
HETATM   27  C24 UNL     1       2.651   6.037   7.307  1.00  0.00     0.001 A 
HETATM   28  C25 UNL     1       2.897   6.010   8.683  1.00  0.00     0.017 A 
ENDBRANCH  21  23
ENDBRANCH  20  21
ENDBRANCH  10  20
BRANCH   1  29
HETATM   29  C7  UNL     1      -8.374   5.773  15.208  1.00  0.00    -0.014 C 
HETATM   30  C8  UNL     1      -9.142   6.327  14.000  1.00  0.00     0.010 C 
BRANCH  29  31
HETATM   31  C6  UNL     1      -7.980   6.985  16.102  1.00  0.00     0.008 C 
BRANCH  31  32
HETATM   32  C5  UNL     1      -8.437   8.351  15.574  1.00  0.00     0.028 C 
BRANCH  32  33
HETATM   33  C4  UNL     1      -9.639   8.844  16.336  1.00  0.00    -0.025 C 
HETATM   34  C2  UNL     1     -10.313   9.999  16.169  1.00  0.00    -0.091 C 
HETATM   35  C1  UNL     1     -11.517  10.312  17.020  1.00  0.00     0.042 C 
HETATM   36  C3  UNL     1      -9.970  11.073  15.173  1.00  0.00     0.042 C 
ENDBRANCH  32  33
ENDBRANCH  31  32
ENDBRANCH  29  31
ENDBRANCH   1  29
TORSDOF 7
ENDMDL
MODEL 3
REMARK minimizedAffinity -9.57663918
REMARK CNNscore 0.422253728
REMARK CNNaffinity 7.20990229
REMARK  7 active torsions:
REMARK  status: ('A' for Active; 'I' for Inactive)
REMARK    1  A    between atoms: C4_4  and  C5_5 
REMARK    2  A    between atoms: C5_5  and  C6_6 
REMARK    3  A    between atoms: C6_6  and  C7_7 
REMARK    4  A    between atoms: C7_7  and  C9_9 
REMARK    5  A    between atoms: C18_18  and  O1_19 
REMARK    6  A    between atoms: O1_19  and  C19_20 
REMARK    7  A    between atoms: C19_20  and  C20_22 
ROOT
HETATM    1  C9  UNL     1       0.859   7.385  12.903  1.00  0.00    -0.002 C 
HETATM    2  C10 UNL     1       0.581   8.636  12.026  1.00  0.00     0.006 C 
HETATM    3  C11 UNL     1      -0.921   8.933  12.105  1.00  0.00     0.010 C 
HETATM    4  C12 UNL     1      -1.428   8.002  13.202  1.00  0.00     0.023 C 
HETATM    5  C13 UNL     1      -2.903   7.720  13.352  1.00  0.00    -0.070 C 
HETATM    6  C14 UNL     1      -3.860   8.410  12.713  1.00  0.00     0.004 C 
HETATM    7  C15 UNL     1      -5.252   8.281  13.056  1.00  0.00     0.004 C 
HETATM    8  C16 UNL     1      -5.716   7.302  13.850  1.00  0.00    -0.069 C 
HETATM    9  C17 UNL     1      -7.193   7.192  14.153  1.00  0.00     0.067 C 
HETATM   10  C18 UNL     1      -7.474   6.926  15.634  1.00  0.00     0.136 C 
HETATM   11  C26 UNL     1      -6.682   5.709  16.115  1.00  0.00     0.034 C 
HETATM   12  C27 UNL     1      -5.184   5.912  15.897  1.00  0.00     0.017 C 
HETATM   13  C28 UNL     1      -4.784   6.228  14.425  1.00  0.00    -0.013 C 
HETATM   14  C29 UNL     1      -4.995   4.964  13.554  1.00  0.00     0.021 C 
HETATM   15  C30 UNL     1      -3.257   6.699  14.434  1.00  0.00     0.027 C 
HETATM   16  C31 UNL     1      -2.260   5.507  14.485  1.00  0.00     0.011 C 
HETATM   17  C32 UNL     1      -0.784   5.895  14.311  1.00  0.00     0.011 C 
HETATM   18  C33 UNL     1      -0.557   6.732  13.034  1.00  0.00    -0.033 C 
HETATM   19  C34 UNL     1      -0.923   5.923  11.765  1.00  0.00     0.016 C 
ENDROOT
BRANCH  10  20
HETATM   20  O1  UNL     1      -8.885   6.667  15.772  1.00  0.00    -0.312 OA
BRANCH  20  21
HETATM   21  C19 UNL     1      -9.663   7.747  16.038  1.00  0.00     0.293 C 
HETATM   22  O2  UNL     1      -9.638   8.415  17.059  1.00  0.00    -0.259 OA
BRANCH  21  23
HETATM   23  C20 UNL     1     -10.575   8.028  14.896  1.00  0.00     0.039 A 
HETATM   24  C21 UNL     1     -11.277   6.952  14.331  1.00  0.00     0.017 A 
HETATM   25  C22 UNL     1     -12.145   7.163  13.259  1.00  0.00     0.001 A 
HETATM   26  C23 UNL     1     -12.316   8.447  12.742  1.00  0.00     0.000 A 
HETATM   27  C24 UNL     1     -11.619   9.522  13.295  1.00  0.00     0.001 A 
HETATM   28  C25 UNL     1     -10.751   9.316  14.371  1.00  0.00     0.017 A 
ENDBRANCH  21  23
ENDBRANCH  20  21
ENDBRANCH  10  20
BRANCH   1  29
HETATM   29  C7  UNL     1       2.054   6.535  12.373  1.00  0.00    -0.014 C 
HETATM   30  C8  UNL     1       3.386   7.292  12.467  1.00  0.00     0.010 C 
BRANCH  29  31
HETATM   31  C6  UNL     1       1.869   6.105  10.888  1.00  0.00     0.008 C 
BRANCH  31  32
HETATM   32  C5  UNL     1       3.131   6.217  10.023  1.00  0.00     0.028 C 
BRANCH  32  33
HETATM   33  C4  UNL     1       2.776   6.239   8.560  1.00  0.00    -0.025 C 
HETATM   34  C2  UNL     1       2.078   7.175   7.887  1.00  0.00    -0.091 C 
HETATM   35  C1  UNL     1       1.840   7.034   6.406  1.00  0.00     0.042 C 
HETATM   36  C3  UNL     1       1.470   8.411   8.491  1.00  0.00     0.042 C 
ENDBRANCH  32  33
ENDBRANCH  31  32
ENDBRANCH  29  31
ENDBRANCH   1  29
TORSDOF 7
ENDMDL
MODEL 4
REMARK minimizedAffinity -7.34434414
REMARK CNNscore 0.378609955
REMARK CNNaffinity 6.5446744
REMARK  7 active torsions:
REMARK  status: ('A' for Active; 'I' for Inactive)
REMARK    1  A    between atoms: C4_4  and  C5_5 
REMARK    2  A    between atoms: C5_5  and  C6_6 
REMARK    3  A    between atoms: C6_6  and  C7_7 
REMARK    4  A    between atoms: C7_7  and  C9_9 
REMARK    5  A    between atoms: C18_18  and  O1_19 
REMARK    6  A    between atoms: O1_19  and  C19_20 
REMARK    7  A    between atoms: C19_20  and  C20_22 
ROOT
HETATM    1  C9  UNL     1     -15.270   3.798  24.848  1.00  0.00    -0.002 C 
HETATM    2  C10 UNL     1     -15.338   3.349  23.363  1.00  0.00     0.006 C 
HETATM    3  C11 UNL     1     -14.664   4.436  22.519  1.00  0.00     0.010 C 
HETATM    4  C12 UNL     1     -14.020   5.360  23.545  1.00  0.00     0.023 C 
HETATM    5  C13 UNL     1     -13.561   6.745  23.156  1.00  0.00    -0.070 C 
HETATM    6  C14 UNL     1     -13.475   7.168  21.886  1.00  0.00     0.004 C 
HETATM    7  C15 UNL     1     -12.812   8.396  21.534  1.00  0.00     0.004 C 
HETATM    8  C16 UNL     1     -12.455   9.316  22.446  1.00  0.00    -0.069 C 
HETATM    9  C17 UNL     1     -11.790  10.605  22.021  1.00  0.00     0.067 C 
HETATM   10  C18 UNL     1     -10.592  10.969  22.902  1.00  0.00     0.136 C 
HETATM   11  C26 UNL     1     -10.999  10.976  24.376  1.00  0.00     0.034 C 
HETATM   12  C27 UNL     1     -11.558   9.618  24.794  1.00  0.00     0.017 C 
HETATM   13  C28 UNL     1     -12.763   9.126  23.937  1.00  0.00    -0.013 C 
HETATM   14  C29 UNL     1     -14.000  10.008  24.237  1.00  0.00     0.021 C 
HETATM   15  C30 UNL     1     -13.019   7.593  24.307  1.00  0.00     0.027 C 
HETATM   16  C31 UNL     1     -13.836   7.418  25.618  1.00  0.00     0.011 C 
HETATM   17  C32 UNL     1     -14.267   5.975  25.922  1.00  0.00     0.011 C 
HETATM   18  C33 UNL     1     -15.016   5.338  24.733  1.00  0.00    -0.033 C 
HETATM   19  C34 UNL     1     -16.327   6.102  24.424  1.00  0.00     0.016 C 
ENDROOT
BRANCH  10  20
HETATM   20  O1  UNL     1     -10.154  12.288  22.518  1.00  0.00    -0.312 OA
BRANCH  20  21
HETATM   21  C19 UNL     1      -9.082  12.776  23.194  1.00  0.00     0.293 C 
HETATM   22  O2  UNL     1      -9.020  12.971  24.397  1.00  0.00    -0.259 OA
BRANCH  21  23
HETATM   23  C20 UNL     1      -7.954  13.047  22.260  1.00  0.00     0.039 A 
HETATM   24  C21 UNL     1      -8.258  13.283  20.910  1.00  0.00     0.017 A 
HETATM   25  C22 UNL     1      -7.237  13.542  19.994  1.00  0.00     0.001 A 
HETATM   26  C23 UNL     1      -5.908  13.565  20.418  1.00  0.00     0.000 A 
HETATM   27  C24 UNL     1      -5.598  13.328  21.758  1.00  0.00     0.001 A 
HETATM   28  C25 UNL     1      -6.617  13.070  22.679  1.00  0.00     0.017 A 
ENDBRANCH  21  23
ENDBRANCH  20  21
ENDBRANCH  10  20
BRANCH   1  29
HETATM   29  C7  UNL     1     -16.476   3.276  25.688  1.00  0.00    -0.014 C 
HETATM   30  C8  UNL     1     -16.652   4.064  26.994  1.00  0.00     0.010 C 
BRANCH  29  31
HETATM   31  C6  UNL     1     -16.333   1.773  26.069  1.00  0.00     0.008 C 
BRANCH  31  32
HETATM   32  C5  UNL     1     -14.929   1.188  25.869  1.00  0.00     0.028 C 
BRANCH  32  33
HETATM   33  C4  UNL     1     -14.046   1.500  27.047  1.00  0.00    -0.025 C 
HETATM   34  C2  UNL     1     -12.722   1.754  27.051  1.00  0.00    -0.091 C 
HETATM   35  C1  UNL     1     -12.008   2.071  28.339  1.00  0.00     0.042 C 
HETATM   36  C3  UNL     1     -11.830   1.748  25.840  1.00  0.00     0.042 C 
ENDBRANCH  32  33
ENDBRANCH  31  32
ENDBRANCH  29  31
ENDBRANCH   1  29
TORSDOF 7
ENDMDL
MODEL 5
REMARK minimizedAffinity -7.2159152
REMARK CNNscore 0.369158298
REMARK CNNaffinity 6.29871511
REMARK  7 active torsions:
REMARK  status: ('A' for Active; 'I' for Inactive)
REMARK    1  A    between atoms: C4_4  and  C5_5 
REMARK    2  A    between atoms: C5_5  and  C6_6 
REMARK    3  A    between atoms: C6_6  and  C7_7 
REMARK    4  A    between atoms: C7_7  and  C9_9 
REMARK    5  A    between atoms: C18_18  and  O1_19 
REMARK    6  A    between atoms: O1_19  and  C19_20 
REMARK    7  A    between atoms: C19_20  and  C20_22 
ROOT
HETATM    1  C9  UNL     1      -9.484  13.315  20.908  1.00  0.00    -0.002 C 
HETATM    2  C10 UNL     1      -8.763  13.402  22.280  1.00  0.00     0.006 C 
HETATM    3  C11 UNL     1      -9.253  12.228  23.136  1.00  0.00     0.010 C 
HETATM    4  C12 UNL     1     -10.055  11.368  22.166  1.00  0.00     0.023 C 
HETATM    5  C13 UNL     1     -11.002  10.309  22.676  1.00  0.00    -0.070 C 
HETATM    6  C14 UNL     1     -11.040   9.901  23.954  1.00  0.00     0.004 C 
HETATM    7  C15 UNL     1     -11.776   8.734  24.361  1.00  0.00     0.004 C 
HETATM    8  C16 UNL     1     -12.662   8.118  23.560  1.00  0.00    -0.069 C 
HETATM    9  C17 UNL     1     -13.434   6.913  24.046  1.00  0.00     0.067 C 
HETATM   10  C18 UNL     1     -13.483   5.786  23.011  1.00  0.00     0.136 C 
HETATM   11  C26 UNL     1     -14.002   6.316  21.673  1.00  0.00     0.034 C 
HETATM   12  C27 UNL     1     -13.125   7.455  21.160  1.00  0.00     0.017 C 
HETATM   13  C28 UNL     1     -12.971   8.646  22.152  1.00  0.00    -0.013 C 
HETATM   14  C29 UNL     1     -14.320   9.400  22.263  1.00  0.00     0.021 C 
HETATM   15  C30 UNL     1     -11.806   9.588  21.595  1.00  0.00     0.027 C 
HETATM   16  C31 UNL     1     -12.291  10.543  20.469  1.00  0.00     0.011 C 
HETATM   17  C32 UNL     1     -11.261  11.592  20.026  1.00  0.00     0.011 C 
HETATM   18  C33 UNL     1     -10.716  12.403  21.222  1.00  0.00    -0.033 C 
HETATM   19  C34 UNL     1     -11.847  13.203  21.914  1.00  0.00     0.016 C 
ENDROOT
BRANCH  10  20
HETATM   20  O1  UNL     1     -14.381   4.774  23.509  1.00  0.00    -0.312 OA
BRANCH  20  21
HETATM   21  C19 UNL     1     -14.049   3.491  23.218  1.00  0.00     0.293 C 
HETATM   22  O2  UNL     1     -14.283   2.908  22.172  1.00  0.00    -0.259 OA
BRANCH  21  23
HETATM   23  C20 UNL     1     -13.335   2.864  24.365  1.00  0.00     0.039 A 
HETATM   24  C21 UNL     1     -12.194   2.094  24.091  1.00  0.00     0.017 A 
HETATM   25  C22 UNL     1     -11.489   1.485  25.130  1.00  0.00     0.001 A 
HETATM   26  C23 UNL     1     -11.919   1.638  26.448  1.00  0.00     0.000 A 
HETATM   27  C24 UNL     1     -13.054   2.400  26.729  1.00  0.00     0.001 A 
HETATM   28  C25 UNL     1     -13.762   3.013  25.691  1.00  0.00     0.017 A 
ENDBRANCH  21  23
ENDBRANCH  20  21
ENDBRANCH  10  20
BRANCH   1  29
HETATM   29  C7  UNL     1      -9.707  14.715  20.259  1.00  0.00    -0.014 C 
HETATM   30  C8  UNL     1     -11.041  14.794  19.503  1.00  0.00     0.010 C 
BRANCH  29  31
HETATM   31  C6  UNL     1      -8.582  15.094  19.252  1.00  0.00     0.008 C 
BRANCH  31  32
HETATM   32  C5  UNL     1      -7.217  15.386  19.890  1.00  0.00     0.028 C 
BRANCH  32  33
HETATM   33  C4  UNL     1      -6.173  14.426  19.384  1.00  0.00    -0.025 C 
HETATM   34  C2  UNL     1      -5.443  13.542  20.093  1.00  0.00    -0.091 C 
HETATM   35  C1  UNL     1      -4.452  12.641  19.401  1.00  0.00     0.042 C 
HETATM   36  C3  UNL     1      -5.509  13.352  21.583  1.00  0.00     0.042 C 
ENDBRANCH  32  33
ENDBRANCH  31  32
ENDBRANCH  29  31
ENDBRANCH   1  29
TORSDOF 7
ENDMDL
MODEL 6
REMARK minimizedAffinity -7.83858299
REMARK CNNscore 0.334746808
REMARK CNNaffinity 6.50055838
REMARK  7 active torsions:
REMARK  status: ('A' for Active; 'I' for Inactive)
REMARK    1  A    between atoms: C4_4  and  C5_5 
REMARK    2  A    between atoms: C5_5  and  C6_6 
REMARK    3  A    between atoms: C6_6  and  C7_7 
REMARK    4  A    between atoms: C7_7  and  C9_9 
REMARK    5  A    between atoms: C18_18  and  O1_19 
REMARK    6  A    between atoms: O1_19  and  C19_20 
REMARK    7  A    between atoms: C19_20  and  C20_22 
ROOT
HETATM    1  C9  UNL     1      -0.703  12.446  19.189  1.00  0.00    -0.002 C 
HETATM    2  C10 UNL     1      -1.924  13.399  19.290  1.00  0.00     0.006 C 
HETATM    3  C11 UNL     1      -3.038  12.820  18.411  1.00  0.00     0.010 C 
HETATM    4  C12 UNL     1      -2.524  11.440  18.018  1.00  0.00     0.023 C 
HETATM    5  C13 UNL     1      -3.150  10.681  16.873  1.00  0.00    -0.070 C 
HETATM    6  C14 UNL     1      -4.302  11.040  16.286  1.00  0.00     0.004 C 
HETATM    7  C15 UNL     1      -4.994  10.175  15.368  1.00  0.00     0.004 C 
HETATM    8  C16 UNL     1      -4.431   9.072  14.847  1.00  0.00    -0.069 C 
HETATM    9  C17 UNL     1      -5.189   8.212  13.861  1.00  0.00     0.067 C 
HETATM   10  C18 UNL     1      -5.061   6.716  14.160  1.00  0.00     0.136 C 
HETATM   11  C26 UNL     1      -3.587   6.322  14.272  1.00  0.00     0.034 C 
HETATM   12  C27 UNL     1      -2.887   7.133  15.360  1.00  0.00     0.017 C 
HETATM   13  C28 UNL     1      -2.986   8.676  15.178  1.00  0.00    -0.013 C 
HETATM   14  C29 UNL     1      -2.132   9.106  13.959  1.00  0.00     0.021 C 
HETATM   15  C30 UNL     1      -2.474   9.353  16.532  1.00  0.00     0.027 C 
HETATM   16  C31 UNL     1      -0.924   9.428  16.619  1.00  0.00     0.011 C 
HETATM   17  C32 UNL     1      -0.383  10.231  17.812  1.00  0.00     0.011 C 
HETATM   18  C33 UNL     1      -0.995  11.647  17.875  1.00  0.00    -0.033 C 
HETATM   19  C34 UNL     1      -0.621  12.473  16.620  1.00  0.00     0.016 C 
ENDROOT
BRANCH  10  20
HETATM   20  O1  UNL     1      -5.668   5.999  13.068  1.00  0.00    -0.312 OA
BRANCH  20  21
HETATM   21  C19 UNL     1      -6.575   5.050  13.414  1.00  0.00     0.293 C 
HETATM   22  O2  UNL     1      -7.502   5.194  14.195  1.00  0.00    -0.259 OA
BRANCH  21  23
HETATM   23  C20 UNL     1      -6.297   3.775  12.697  1.00  0.00     0.039 A 
HETATM   24  C21 UNL     1      -7.243   2.743  12.795  1.00  0.00     0.017 A 
HETATM   25  C22 UNL     1      -7.030   1.528  12.141  1.00  0.00     0.001 A 
HETATM   26  C23 UNL     1      -5.872   1.335  11.389  1.00  0.00     0.000 A 
HETATM   27  C24 UNL     1      -4.925   2.354  11.289  1.00  0.00     0.001 A 
HETATM   28  C25 UNL     1      -5.135   3.573  11.940  1.00  0.00     0.017 A 
ENDBRANCH  21  23
ENDBRANCH  20  21
ENDBRANCH  10  20
BRANCH   1  29
HETATM   29  C7  UNL     1       0.656  13.193  19.350  1.00  0.00    -0.014 C 
HETATM   30  C8  UNL     1       0.847  14.280  18.282  1.00  0.00     0.010 C 
BRANCH  29  31
HETATM   31  C6  UNL     1       1.880  12.235  19.259  1.00  0.00     0.008 C 
BRANCH  31  32
HETATM   32  C5  UNL     1       3.049  12.592  20.186  1.00  0.00     0.028 C 
BRANCH  32  33
HETATM   33  C4  UNL     1       2.813  12.059  21.574  1.00  0.00    -0.025 C 
HETATM   34  C2  UNL     1       3.514  11.116  22.233  1.00  0.00    -0.091 C 
HETATM   35  C1  UNL     1       3.137  10.725  23.639  1.00  0.00     0.042 C 
HETATM   36  C3  UNL     1       4.695  10.363  21.684  1.00  0.00     0.042 C 
ENDBRANCH  32  33
ENDBRANCH  31  32
ENDBRANCH  29  31
ENDBRANCH   1  29
TORSDOF 7
ENDMDL
MODEL 7
REMARK minimizedAffinity -9.97842026
REMARK CNNscore 0.331756741
REMARK CNNaffinity 6.97893667
REMARK  7 active torsions:
REMARK  status: ('A' for Active; 'I' for Inactive)
REMARK    1  A    between atoms: C4_4  and  C5_5 
REMARK    2  A    between atoms: C5_5  and  C6_6 
REMARK    3  A    between atoms: C6_6  and  C7_7 
REMARK    4  A    between atoms: C7_7  and  C9_9 
REMARK    5  A    between atoms: C18_18  and  O1_19 
REMARK    6  A    between atoms: O1_19  and  C19_20 
REMARK    7  A    between atoms: C19_20  and  C20_22 
ROOT
HETATM    1  C9  UNL     1      -5.726   6.181  14.955  1.00  0.00    -0.002 C 
HETATM    2  C10 UNL     1      -6.060   5.044  13.951  1.00  0.00     0.006 C 
HETATM    3  C11 UNL     1      -4.819   4.816  13.080  1.00  0.00     0.010 C 
HETATM    4  C12 UNL     1      -3.734   5.652  13.749  1.00  0.00     0.023 C 
HETATM    5  C13 UNL     1      -2.460   5.991  13.016  1.00  0.00    -0.070 C 
HETATM    6  C14 UNL     1      -2.095   5.419  11.857  1.00  0.00     0.004 C 
HETATM    7  C15 UNL     1      -0.775   5.582  11.308  1.00  0.00     0.004 C 
HETATM    8  C16 UNL     1       0.096   6.496  11.769  1.00  0.00    -0.069 C 
HETATM    9  C17 UNL     1       1.460   6.648  11.136  1.00  0.00     0.067 C 
HETATM   10  C18 UNL     1       2.581   6.772  12.171  1.00  0.00     0.136 C 
HETATM   11  C26 UNL     1       2.265   7.892  13.164  1.00  0.00     0.034 C 
HETATM   12  C27 UNL     1       0.934   7.638  13.867  1.00  0.00     0.017 C 
HETATM   13  C28 UNL     1      -0.278   7.457  12.905  1.00  0.00    -0.013 C 
HETATM   14  C29 UNL     1      -0.607   8.812  12.232  1.00  0.00     0.021 C 
HETATM   15  C30 UNL     1      -1.503   6.911  13.775  1.00  0.00     0.027 C 
HETATM   16  C31 UNL     1      -2.242   8.039  14.548  1.00  0.00     0.011 C 
HETATM   17  C32 UNL     1      -3.534   7.598  15.252  1.00  0.00     0.011 C 
HETATM   18  C33 UNL     1      -4.502   6.888  14.282  1.00  0.00    -0.033 C 
HETATM   19  C34 UNL     1      -4.956   7.841  13.149  1.00  0.00     0.016 C 
ENDROOT
BRANCH  10  20
HETATM   20  O1  UNL     1       3.796   7.087  11.462  1.00  0.00    -0.312 OA
BRANCH  20  21
HETATM   21  C19 UNL     1       4.102   6.274  10.419  1.00  0.00     0.293 C 
HETATM   22  O2  UNL     1       4.820   5.289  10.463  1.00  0.00    -0.259 OA
BRANCH  21  23
HETATM   23  C20 UNL     1       3.427   6.742   9.177  1.00  0.00     0.039 A 
HETATM   24  C21 UNL     1       3.397   8.122   8.922  1.00  0.00     0.017 A 
HETATM   25  C22 UNL     1       2.777   8.612   7.772  1.00  0.00     0.001 A 
HETATM   26  C23 UNL     1       2.182   7.730   6.870  1.00  0.00     0.000 A 
HETATM   27  C24 UNL     1       2.204   6.357   7.118  1.00  0.00     0.001 A 
HETATM   28  C25 UNL     1       2.825   5.862   8.268  1.00  0.00     0.017 A 
ENDBRANCH  21  23
ENDBRANCH  20  21
ENDBRANCH  10  20
BRANCH   1  29
HETATM   29  C7  UNL     1      -6.980   7.020  15.348  1.00  0.00    -0.014 C 
HETATM   30  C8  UNL     1      -7.431   6.743  16.789  1.00  0.00     0.010 C 
BRANCH  29  31
HETATM   31  C6  UNL     1      -8.200   6.744  14.420  1.00  0.00     0.008 C 
BRANCH  31  32
HETATM   32  C5  UNL     1      -9.570   6.934  15.083  1.00  0.00     0.028 C 
BRANCH  32  33
HETATM   33  C4  UNL     1     -10.165   8.265  14.710  1.00  0.00    -0.025 C 
HETATM   34  C2  UNL     1     -11.141   8.519  13.816  1.00  0.00    -0.091 C 
HETATM   35  C1  UNL     1     -11.625   9.929  13.591  1.00  0.00     0.042 C 
HETATM   36  C3  UNL     1     -11.834   7.491  12.964  1.00  0.00     0.042 C 
ENDBRANCH  32  33
ENDBRANCH  31  32
ENDBRANCH  29  31
ENDBRANCH   1  29
TORSDOF 7
ENDMDL
MODEL 8
REMARK minimizedAffinity -10.4708967
REMARK CNNscore 0.32787922
REMARK CNNaffinity 7.02722931
REMARK  7 active torsions:
REMARK  status: ('A' for Active; 'I' for Inactive)
REMARK    1  A    between atoms: C4_4  and  C5_5 
REMARK    2  A    between atoms: C5_5  and  C6_6 
REMARK    3  A    between atoms: C6_6  and  C7_7 
REMARK    4  A    between atoms: C7_7  and  C9_9 
REMARK    5  A    between atoms: C18_18  and  O1_19 
REMARK    6  A    between atoms: O1_19  and  C19_20 
REMARK    7  A    between atoms: C19_20  and  C20_22 
ROOT
HETATM    1  C9  UNL     1      -6.405   6.580  13.611  1.00  0.00    -0.002 C 
HETATM    2  C10 UNL     1      -6.413   8.093  13.958  1.00  0.00     0.006 C 
HETATM    3  C11 UNL     1      -4.978   8.610  13.810  1.00  0.00     0.010 C 
HETATM    4  C12 UNL     1      -4.230   7.452  13.159  1.00  0.00     0.023 C 
HETATM    5  C13 UNL     1      -2.721   7.409  13.163  1.00  0.00    -0.070 C 
HETATM    6  C14 UNL     1      -1.950   8.449  13.518  1.00  0.00     0.004 C 
HETATM    7  C15 UNL     1      -0.530   8.461  13.285  1.00  0.00     0.004 C 
HETATM    8  C16 UNL     1       0.157   7.362  12.931  1.00  0.00    -0.069 C 
HETATM    9  C17 UNL     1       1.654   7.421  12.729  1.00  0.00     0.067 C 
HETATM   10  C18 UNL     1       2.108   6.687  11.465  1.00  0.00     0.136 C 
HETATM   11  C26 UNL     1       1.570   5.255  11.459  1.00  0.00     0.034 C 
HETATM   12  C27 UNL     1       0.046   5.245  11.547  1.00  0.00     0.017 C 
HETATM   13  C28 UNL     1      -0.534   6.000  12.780  1.00  0.00    -0.013 C 
HETATM   14  C29 UNL     1      -0.204   5.206  14.069  1.00  0.00     0.021 C 
HETATM   15  C30 UNL     1      -2.109   6.147  12.557  1.00  0.00     0.027 C 
HETATM   16  C31 UNL     1      -2.893   4.858  12.933  1.00  0.00     0.011 C 
HETATM   17  C32 UNL     1      -4.422   5.005  12.911  1.00  0.00     0.011 C 
HETATM   18  C33 UNL     1      -4.897   6.195  13.772  1.00  0.00    -0.033 C 
HETATM   19  C34 UNL     1      -4.525   5.991  15.261  1.00  0.00     0.016 C 
ENDROOT
BRANCH  10  20
HETATM   20  O1  UNL     1       3.550   6.658  11.471  1.00  0.00    -0.312 OA
BRANCH  20  21
HETATM   21  C19 UNL     1       4.138   6.169  10.349  1.00  0.00     0.293 C 
HETATM   22  O2  UNL     1       5.100   5.420  10.312  1.00  0.00    -0.259 OA
BRANCH  21  23
HETATM   23  C20 UNL     1       3.439   6.669   9.133  1.00  0.00     0.039 A 
HETATM   24  C21 UNL     1       3.358   8.057   8.943  1.00  0.00     0.017 A 
HETATM   25  C22 UNL     1       2.714   8.577   7.819  1.00  0.00     0.001 A 
HETATM   26  C23 UNL     1       2.146   7.717   6.880  1.00  0.00     0.000 A 
HETATM   27  C24 UNL     1       2.220   6.335   7.063  1.00  0.00     0.001 A 
HETATM   28  C25 UNL     1       2.865   5.810   8.186  1.00  0.00     0.017 A 
ENDBRANCH  21  23
ENDBRANCH  20  21
ENDBRANCH  10  20
BRANCH   1  29
HETATM   29  C7  UNL     1      -7.492   5.780  14.392  1.00  0.00    -0.014 C 
HETATM   30  C8  UNL     1      -7.334   4.263  14.210  1.00  0.00     0.010 C 
BRANCH  29  31
HETATM   31  C6  UNL     1      -8.939   6.151  13.953  1.00  0.00     0.008 C 
BRANCH  31  32
HETATM   32  C5  UNL     1      -9.671   7.117  14.894  1.00  0.00     0.028 C 
BRANCH  32  33
HETATM   33  C4  UNL     1     -10.696   7.923  14.143  1.00  0.00    -0.025 C 
HETATM   34  C2  UNL     1     -11.987   7.615  13.908  1.00  0.00    -0.091 C 
HETATM   35  C1  UNL     1     -12.874   8.567  13.147  1.00  0.00     0.042 C 
HETATM   36  C3  UNL     1     -12.676   6.350  14.343  1.00  0.00     0.042 C 
ENDBRANCH  32  33
ENDBRANCH  31  32
ENDBRANCH  29  31
ENDBRANCH   1  29
TORSDOF 7
ENDMDL
MODEL 9
REMARK minimizedAffinity -8.82475758
REMARK CNNscore 0.310815692
REMARK CNNaffinity 6.54066229
REMARK  7 active torsions:
REMARK  status: ('A' for Active; 'I' for Inactive)
REMARK    1  A    between atoms: C4_4  and  C5_5 
REMARK    2  A    between atoms: C5_5  and  C6_6 
REMARK    3  A    between atoms: C6_6  and  C7_7 
REMARK    4  A    between atoms: C7_7  and  C9_9 
REMARK    5  A    between atoms: C18_18  and  O1_19 
REMARK    6  A    between atoms: O1_19  and  C19_20 
REMARK    7  A    between atoms: C19_20  and  C20_22 
ROOT
HETATM    1  C9  UNL     1      -0.122  10.926  18.645  1.00  0.00    -0.002 C 
HETATM    2  C10 UNL     1      -1.575  11.165  19.138  1.00  0.00     0.006 C 
HETATM    3  C11 UNL     1      -2.509  10.342  18.243  1.00  0.00     0.010 C 
HETATM    4  C12 UNL     1      -1.567   9.474  17.418  1.00  0.00     0.023 C 
HETATM    5  C13 UNL     1      -2.053   8.779  16.170  1.00  0.00    -0.070 C 
HETATM    6  C14 UNL     1      -3.348   8.684  15.830  1.00  0.00     0.004 C 
HETATM    7  C15 UNL     1      -3.799   7.818  14.773  1.00  0.00     0.004 C 
HETATM    8  C16 UNL     1      -2.957   7.238  13.901  1.00  0.00    -0.069 C 
HETATM    9  C17 UNL     1      -3.484   6.361  12.788  1.00  0.00     0.067 C 
HETATM   10  C18 UNL     1      -2.682   5.067  12.626  1.00  0.00     0.136 C 
HETATM   11  C26 UNL     1      -1.193   5.380  12.473  1.00  0.00     0.034 C 
HETATM   12  C27 UNL     1      -0.674   6.167  13.675  1.00  0.00     0.017 C 
HETATM   13  C28 UNL     1      -1.444   7.490  13.959  1.00  0.00    -0.013 C 
HETATM   14  C29 UNL     1      -1.136   8.515  12.839  1.00  0.00     0.021 C 
HETATM   15  C30 UNL     1      -0.978   8.018  15.394  1.00  0.00     0.027 C 
HETATM   16  C31 UNL     1       0.378   8.777  15.345  1.00  0.00     0.011 C 
HETATM   17  C32 UNL     1       0.781   9.461  16.660  1.00  0.00     0.011 C 
HETATM   18  C33 UNL     1      -0.335  10.386  17.191  1.00  0.00    -0.033 C 
HETATM   19  C34 UNL     1      -0.623  11.539  16.199  1.00  0.00     0.016 C 
ENDROOT
BRANCH  10  20
HETATM   20  O1  UNL     1      -3.158   4.404  11.438  1.00  0.00    -0.312 OA
BRANCH  20  21
HETATM   21  C19 UNL     1      -3.320   3.059  11.534  1.00  0.00     0.293 C 
HETATM   22  O2  UNL     1      -2.444   2.220  11.400  1.00  0.00    -0.259 OA
BRANCH  21  23
HETATM   23  C20 UNL     1      -4.738   2.723  11.839  1.00  0.00     0.039 A 
HETATM   24  C21 UNL     1      -5.488   3.644  12.586  1.00  0.00     0.017 A 
HETATM   25  C22 UNL     1      -6.822   3.377  12.898  1.00  0.00     0.001 A 
HETATM   26  C23 UNL     1      -7.414   2.189  12.469  1.00  0.00     0.000 A 
HETATM   27  C24 UNL     1      -6.675   1.267  11.727  1.00  0.00     0.001 A 
HETATM   28  C25 UNL     1      -5.339   1.532  11.411  1.00  0.00     0.017 A 
ENDBRANCH  21  23
ENDBRANCH  20  21
ENDBRANCH  10  20
BRANCH   1  29
HETATM   29  C7  UNL     1       0.801  12.160  18.880  1.00  0.00    -0.014 C 
HETATM   30  C8  UNL     1       2.040  12.135  17.973  1.00  0.00     0.010 C 
BRANCH  29  31
HETATM   31  C6  UNL     1       1.306  12.257  20.350  1.00  0.00     0.008 C 
BRANCH  31  32
HETATM   32  C5  UNL     1       1.916  10.965  20.909  1.00  0.00     0.028 C 
BRANCH  32  33
HETATM   33  C4  UNL     1       3.302  11.214  21.441  1.00  0.00    -0.025 C 
HETATM   34  C2  UNL     1       3.811  10.855  22.636  1.00  0.00    -0.091 C 
HETATM   35  C1  UNL     1       5.241  11.176  22.986  1.00  0.00     0.042 C 
HETATM   36  C3  UNL     1       3.061  10.133  23.723  1.00  0.00     0.042 C 
ENDBRANCH  32  33
ENDBRANCH  31  32
ENDBRANCH  29  31
ENDBRANCH   1  29
TORSDOF 7
ENDMDL
