MODEL 1
REMARK minimizedAffinity -6.98253489
REMARK CNNscore 0.695694447
REMARK CNNaffinity 6.77132845
REMARK  5 active torsions:
REMARK  status: ('A' for Active; 'I' for Inactive)
REMARK    1  A    between atoms: C2_2  and  C4_4 
REMARK    2  A    between atoms: C4_4  and  C6_6 
REMARK    3  A    between atoms: C7_7  and  C8_8 
REMARK    4  A    between atoms: C8_8  and  C10_10 
REMARK    5  A    between atoms: C19_20  and  O2_21 
ROOT
HETATM    1  C10 UNL     1      -2.364  12.224  18.847  1.00  0.00     0.001 C 
HETATM    2  C11 UNL     1      -0.820  12.104  19.038  1.00  0.00     0.006 C 
HETATM    3  C12 UNL     1      -0.369  10.903  18.214  1.00  0.00     0.006 C 
HETATM    4  C13 UNL     1      -1.289  11.025  17.012  1.00  0.00     0.001 C 
HETATM    5  C14 UNL     1      -1.192   9.986  15.894  1.00  0.00     0.033 C 
HETATM    6  C15 UNL     1      -0.741   8.567  16.253  1.00  0.00     0.089 C 
HETATM    7  C16 UNL     1      -0.871   7.727  14.982  1.00  0.00     0.162 C 
HETATM    8  O1  UNL     1      -0.058   6.831  14.735  1.00  0.00    -0.295 OA
HETATM    9  C17 UNL     1      -2.161   8.160  14.117  1.00  0.00     0.131 C 
HETATM   10  C18 UNL     1      -2.512   7.246  12.949  1.00  0.00     0.078 C 
HETATM   11  C19 UNL     1      -3.598   6.278  13.405  1.00  0.00     0.121 C 
HETATM   12  C20 UNL     1      -4.893   6.998  13.823  1.00  0.00     0.036 C 
HETATM   13  C21 UNL     1      -4.697   8.466  14.269  1.00  0.00    -0.006 C 
HETATM   14  C22 UNL     1      -5.868   8.906  15.143  1.00  0.00     0.010 C 
HETATM   15  C23 UNL     1      -3.368   8.597  15.018  1.00  0.00     0.067 C 
HETATM   16  C24 UNL     1      -2.511   9.946  15.054  1.00  0.00     0.074 C 
HETATM   17  C25 UNL     1      -3.227  11.292  15.054  1.00  0.00     0.040 C 
HETATM   18  C26 UNL     1      -3.606  11.783  16.473  1.00  0.00     0.013 C 
HETATM   19  C27 UNL     1      -2.689  11.271  17.616  1.00  0.00    -0.036 C 
HETATM   20  C28 UNL     1      -3.339  10.004  18.232  1.00  0.00     0.016 C 
HETATM   21  O3  UNL     1      -2.081   9.583  13.672  1.00  0.00    -0.360 OA
ENDROOT
BRANCH   1  22
HETATM   22  C8  UNL     1      -2.824  13.709  18.790  1.00  0.00     0.008 C 
HETATM   23  C9  UNL     1      -1.675  14.679  19.114  1.00  0.00     0.014 C 
BRANCH  22  24
HETATM   24  C7  UNL     1      -3.986  14.088  19.690  1.00  0.00    -0.026 C 
HETATM   25  C6  UNL     1      -4.967  13.288  20.144  1.00  0.00    -0.026 C 
BRANCH  25  26
HETATM   26  C4  UNL     1      -6.131  13.699  21.031  1.00  0.00     0.007 C 
HETATM   27  C5  UNL     1      -6.044  13.067  22.431  1.00  0.00     0.014 C 
BRANCH  26  28
HETATM   28  C2  UNL     1      -7.496  13.416  20.338  1.00  0.00    -0.015 C 
HETATM   29  C1  UNL     1      -7.850  14.481  19.289  1.00  0.00     0.010 C 
HETATM   30  C3  UNL     1      -8.653  13.319  21.342  1.00  0.00     0.010 C 
ENDBRANCH  26  28
ENDBRANCH  25  26
ENDBRANCH  22  24
ENDBRANCH   1  22
BRANCH  11  31
HETATM   31  O2  UNL     1      -3.117   5.554  14.535  1.00  0.00    -0.395 OA
HETATM   32  H30 UNL     1      -2.843   4.663  14.235  1.00  0.00     0.210 HD
ENDBRANCH  11  31
TORSDOF 5
ENDMDL
MODEL 2
REMARK minimizedAffinity -9.6634264
REMARK CNNscore 0.67932719
REMARK CNNaffinity 7.18344498
REMARK  5 active torsions:
REMARK  status: ('A' for Active; 'I' for Inactive)
REMARK    1  A    between atoms: C2_2  and  C4_4 
REMARK    2  A    between atoms: C4_4  and  C6_6 
REMARK    3  A    between atoms: C7_7  and  C8_8 
REMARK    4  A    between atoms: C8_8  and  C10_10 
REMARK    5  A    between atoms: C19_20  and  O2_21 
ROOT
HETATM    1  C10 UNL     1      -1.067   5.525  12.994  1.00  0.00     0.001 C 
HETATM    2  C11 UNL     1      -1.250   4.311  12.029  1.00  0.00     0.006 C 
HETATM    3  C12 UNL     1      -2.694   3.845  12.183  1.00  0.00     0.006 C 
HETATM    4  C13 UNL     1      -3.401   5.176  12.369  1.00  0.00     0.001 C 
HETATM    5  C14 UNL     1      -4.916   5.190  12.578  1.00  0.00     0.033 C 
HETATM    6  C15 UNL     1      -5.571   3.982  13.253  1.00  0.00     0.089 C 
HETATM    7  C16 UNL     1      -7.047   4.332  13.451  1.00  0.00     0.162 C 
HETATM    8  O1  UNL     1      -7.918   3.463  13.346  1.00  0.00    -0.295 OA
HETATM    9  C17 UNL     1      -7.241   5.890  13.818  1.00  0.00     0.131 C 
HETATM   10  C18 UNL     1      -8.643   6.298  14.252  1.00  0.00     0.078 C 
HETATM   11  C19 UNL     1      -8.691   6.310  15.776  1.00  0.00     0.121 C 
HETATM   12  C20 UNL     1      -7.712   7.326  16.390  1.00  0.00     0.036 C 
HETATM   13  C21 UNL     1      -6.510   7.688  15.486  1.00  0.00    -0.006 C 
HETATM   14  C22 UNL     1      -5.367   8.237  16.334  1.00  0.00     0.010 C 
HETATM   15  C23 UNL     1      -6.072   6.447  14.703  1.00  0.00     0.067 C 
HETATM   16  C24 UNL     1      -5.372   6.519  13.268  1.00  0.00     0.074 C 
HETATM   17  C25 UNL     1      -4.437   7.678  12.943  1.00  0.00     0.040 C 
HETATM   18  C26 UNL     1      -2.971   7.421  13.374  1.00  0.00     0.013 C 
HETATM   19  C27 UNL     1      -2.546   5.929  13.412  1.00  0.00    -0.036 C 
HETATM   20  C28 UNL     1      -2.724   5.408  14.864  1.00  0.00     0.016 C 
HETATM   21  O3  UNL     1      -6.739   6.785  12.733  1.00  0.00    -0.360 OA
ENDROOT
BRANCH   1  22
HETATM   22  C8  UNL     1      -0.136   6.610  12.382  1.00  0.00     0.008 C 
HETATM   23  C9  UNL     1      -0.907   7.892  12.022  1.00  0.00     0.014 C 
BRANCH  22  24
HETATM   24  C7  UNL     1       0.646   6.207  11.145  1.00  0.00    -0.026 C 
HETATM   25  C6  UNL     1       1.123   7.011  10.178  1.00  0.00    -0.026 C 
BRANCH  25  26
HETATM   26  C4  UNL     1       1.888   6.578   8.939  1.00  0.00     0.007 C 
HETATM   27  C5  UNL     1       3.321   6.127   9.270  1.00  0.00     0.014 C 
BRANCH  26  28
HETATM   28  C2  UNL     1       1.855   7.682   7.841  1.00  0.00    -0.015 C 
HETATM   29  C1  UNL     1       1.819   7.093   6.422  1.00  0.00     0.010 C 
HETATM   30  C3  UNL     1       3.050   8.641   7.939  1.00  0.00     0.010 C 
ENDBRANCH  26  28
ENDBRANCH  25  26
ENDBRANCH  22  24
ENDBRANCH   1  22
BRANCH  11  31
HETATM   31  O2  UNL     1      -8.331   5.015  16.253  1.00  0.00    -0.395 OA
HETATM   32  H30 UNL     1      -9.150   4.544  16.511  1.00  0.00     0.210 HD
ENDBRANCH  11  31
TORSDOF 5
ENDMDL
MODEL 3
REMARK minimizedAffinity -8.66649342
REMARK CNNscore 0.643009961
REMARK CNNaffinity 7.20188665
REMARK  5 active torsions:
REMARK  status: ('A' for Active; 'I' for Inactive)
REMARK    1  A    between atoms: C2_2  and  C4_4 
REMARK    2  A    between atoms: C4_4  and  C6_6 
REMARK    3  A    between atoms: C7_7  and  C8_8 
REMARK    4  A    between atoms: C8_8  and  C10_10 
REMARK    5  A    between atoms: C19_20  and  O2_21 
ROOT
HETATM    1  C10 UNL     1      -6.873   6.962  14.246  1.00  0.00     0.001 C 
HETATM    2  C11 UNL     1      -7.269   5.537  13.747  1.00  0.00     0.006 C 
HETATM    3  C12 UNL     1      -6.056   4.977  13.014  1.00  0.00     0.006 C 
HETATM    4  C13 UNL     1      -4.929   5.533  13.868  1.00  0.00     0.001 C 
HETATM    5  C14 UNL     1      -3.483   5.223  13.483  1.00  0.00     0.033 C 
HETATM    6  C15 UNL     1      -3.154   4.993  12.005  1.00  0.00     0.089 C 
HETATM    7  C16 UNL     1      -1.634   4.845  11.908  1.00  0.00     0.162 C 
HETATM    8  O1  UNL     1      -1.129   4.067  11.093  1.00  0.00    -0.295 OA
HETATM    9  C17 UNL     1      -0.878   5.823  12.944  1.00  0.00     0.131 C 
HETATM   10  C18 UNL     1       0.633   5.920  12.778  1.00  0.00     0.078 C 
HETATM   11  C19 UNL     1       0.948   7.158  11.947  1.00  0.00     0.121 C 
HETATM   12  C20 UNL     1       0.481   8.459  12.624  1.00  0.00     0.036 C 
HETATM   13  C21 UNL     1      -0.674   8.277  13.637  1.00  0.00    -0.006 C 
HETATM   14  C22 UNL     1      -1.407   9.600  13.835  1.00  0.00     0.010 C 
HETATM   15  C23 UNL     1      -1.625   7.188  13.133  1.00  0.00     0.067 C 
HETATM   16  C24 UNL     1      -2.502   6.271  14.106  1.00  0.00     0.074 C 
HETATM   17  C25 UNL     1      -3.046   6.856  15.405  1.00  0.00     0.040 C 
HETATM   18  C26 UNL     1      -4.416   7.560  15.232  1.00  0.00     0.013 C 
HETATM   19  C27 UNL     1      -5.294   7.020  14.072  1.00  0.00    -0.036 C 
HETATM   20  C28 UNL     1      -5.046   7.905  12.821  1.00  0.00     0.016 C 
HETATM   21  O3  UNL     1      -1.239   5.519  14.361  1.00  0.00    -0.360 OA
ENDROOT
BRANCH   1  22
HETATM   22  C8  UNL     1      -7.487   7.276  15.640  1.00  0.00     0.008 C 
HETATM   23  C9  UNL     1      -7.239   6.138  16.646  1.00  0.00     0.014 C 
BRANCH  22  24
HETATM   24  C7  UNL     1      -8.976   7.569  15.668  1.00  0.00    -0.026 C 
HETATM   25  C6  UNL     1      -9.855   7.447  14.658  1.00  0.00    -0.026 C 
BRANCH  25  26
HETATM   26  C4  UNL     1     -11.340   7.766  14.708  1.00  0.00     0.007 C 
HETATM   27  C5  UNL     1     -12.207   6.553  14.329  1.00  0.00     0.014 C 
BRANCH  26  28
HETATM   28  C2  UNL     1     -11.677   9.024  13.855  1.00  0.00    -0.015 C 
HETATM   29  C1  UNL     1     -11.453   8.787  12.353  1.00  0.00     0.010 C 
HETATM   30  C3  UNL     1     -10.864  10.254  14.280  1.00  0.00     0.010 C 
ENDBRANCH  26  28
ENDBRANCH  25  26
ENDBRANCH  22  24
ENDBRANCH   1  22
BRANCH  11  31
HETATM   31  O2  UNL     1       0.272   7.051  10.696  1.00  0.00    -0.395 OA
HETATM   32  H30 UNL     1       0.922   6.776  10.018  1.00  0.00     0.210 HD
ENDBRANCH  11  31
TORSDOF 5
ENDMDL
MODEL 4
REMARK minimizedAffinity -6.87597466
REMARK CNNscore 0.519097269
REMARK CNNaffinity 6.23138857
REMARK  5 active torsions:
REMARK  status: ('A' for Active; 'I' for Inactive)
REMARK    1  A    between atoms: C2_2  and  C4_4 
REMARK    2  A    between atoms: C4_4  and  C6_6 
REMARK    3  A    between atoms: C7_7  and  C8_8 
REMARK    4  A    between atoms: C8_8  and  C10_10 
REMARK    5  A    between atoms: C19_20  and  O2_21 
ROOT
HETATM    1  C10 UNL     1      -3.445  12.386  18.818  1.00  0.00     0.001 C 
HETATM    2  C11 UNL     1      -2.079  13.103  19.060  1.00  0.00     0.006 C 
HETATM    3  C12 UNL     1      -1.006  12.224  18.429  1.00  0.00     0.006 C 
HETATM    4  C13 UNL     1      -1.743  11.718  17.201  1.00  0.00     0.001 C 
HETATM    5  C14 UNL     1      -1.027  10.761  16.247  1.00  0.00     0.033 C 
HETATM    6  C15 UNL     1       0.046   9.829  16.817  1.00  0.00     0.089 C 
HETATM    7  C16 UNL     1       0.481   8.906  15.677  1.00  0.00     0.162 C 
HETATM    8  O1  UNL     1       1.655   8.536  15.581  1.00  0.00    -0.295 OA
HETATM    9  C17 UNL     1      -0.763   8.511  14.729  1.00  0.00     0.131 C 
HETATM   10  C18 UNL     1      -0.489   7.424  13.698  1.00  0.00     0.078 C 
HETATM   11  C19 UNL     1      -0.970   6.092  14.263  1.00  0.00     0.121 C 
HETATM   12  C20 UNL     1      -2.484   6.082  14.544  1.00  0.00     0.036 C 
HETATM   13  C21 UNL     1      -3.104   7.480  14.777  1.00  0.00    -0.006 C 
HETATM   14  C22 UNL     1      -4.411   7.347  15.551  1.00  0.00     0.010 C 
HETATM   15  C23 UNL     1      -2.102   8.360  15.530  1.00  0.00     0.067 C 
HETATM   16  C24 UNL     1      -2.057   9.952  15.391  1.00  0.00     0.074 C 
HETATM   17  C25 UNL     1      -3.354  10.726  15.180  1.00  0.00     0.040 C 
HETATM   18  C26 UNL     1      -4.061  11.107  16.505  1.00  0.00     0.013 C 
HETATM   19  C27 UNL     1      -3.123  11.272  17.731  1.00  0.00    -0.036 C 
HETATM   20  C28 UNL     1      -3.094   9.929  18.508  1.00  0.00     0.016 C 
HETATM   21  O3  UNL     1      -1.375   9.712  14.086  1.00  0.00    -0.360 OA
ENDROOT
BRANCH   1  22
HETATM   22  C8  UNL     1      -4.587  13.404  18.537  1.00  0.00     0.008 C 
HETATM   23  C9  UNL     1      -4.041  14.782  18.125  1.00  0.00     0.014 C 
BRANCH  22  24
HETATM   24  C7  UNL     1      -5.570  13.642  19.669  1.00  0.00    -0.026 C 
HETATM   25  C6  UNL     1      -5.476  13.213  20.940  1.00  0.00    -0.026 C 
BRANCH  25  26
HETATM   26  C4  UNL     1      -6.485  13.451  22.052  1.00  0.00     0.007 C 
HETATM   27  C5  UNL     1      -7.934  13.262  21.569  1.00  0.00     0.014 C 
BRANCH  26  28
HETATM   28  C2  UNL     1      -6.263  14.835  22.729  1.00  0.00    -0.015 C 
HETATM   29  C1  UNL     1      -4.784  15.095  23.055  1.00  0.00     0.010 C 
HETATM   30  C3  UNL     1      -7.080  14.993  24.019  1.00  0.00     0.010 C 
ENDBRANCH  26  28
ENDBRANCH  25  26
ENDBRANCH  22  24
ENDBRANCH   1  22
BRANCH  11  31
HETATM   31  O2  UNL     1      -0.296   5.851  15.497  1.00  0.00    -0.395 OA
HETATM   32  H30 UNL     1       0.418   5.203  15.335  1.00  0.00     0.210 HD
ENDBRANCH  11  31
TORSDOF 5
ENDMDL
MODEL 5
REMARK minimizedAffinity -7.52894497
REMARK CNNscore 0.442481309
REMARK CNNaffinity 6.65315866
REMARK  5 active torsions:
REMARK  status: ('A' for Active; 'I' for Inactive)
REMARK    1  A    between atoms: C2_2  and  C4_4 
REMARK    2  A    between atoms: C4_4  and  C6_6 
REMARK    3  A    between atoms: C7_7  and  C8_8 
REMARK    4  A    between atoms: C8_8  and  C10_10 
REMARK    5  A    between atoms: C19_20  and  O2_21 
ROOT
HETATM    1  C10 UNL     1      -6.063   6.663  15.225  1.00  0.00     0.001 C 
HETATM    2  C11 UNL     1      -6.588   8.118  15.429  1.00  0.00     0.006 C 
HETATM    3  C12 UNL     1      -5.374   9.037  15.347  1.00  0.00     0.006 C 
HETATM    4  C13 UNL     1      -4.564   8.336  14.270  1.00  0.00     0.001 C 
HETATM    5  C14 UNL     1      -3.213   8.922  13.857  1.00  0.00     0.033 C 
HETATM    6  C15 UNL     1      -2.410   9.708  14.897  1.00  0.00     0.089 C 
HETATM    7  C16 UNL     1      -1.064  10.048  14.253  1.00  0.00     0.162 C 
HETATM    8  O1  UNL     1      -0.502  11.119  14.499  1.00  0.00    -0.295 OA
HETATM    9  C17 UNL     1      -0.544   8.850  13.306  1.00  0.00     0.131 C 
HETATM   10  C18 UNL     1       0.883   8.987  12.791  1.00  0.00     0.078 C 
HETATM   11  C19 UNL     1       1.802   8.178  13.699  1.00  0.00     0.121 C 
HETATM   12  C20 UNL     1       1.461   6.677  13.698  1.00  0.00     0.036 C 
HETATM   13  C21 UNL     1      -0.001   6.350  13.309  1.00  0.00    -0.006 C 
HETATM   14  C22 UNL     1      -0.386   4.973  13.841  1.00  0.00     0.010 C 
HETATM   15  C23 UNL     1      -0.928   7.436  13.863  1.00  0.00     0.067 C 
HETATM   16  C24 UNL     1      -2.316   7.835  13.179  1.00  0.00     0.074 C 
HETATM   17  C25 UNL     1      -3.150   6.762  12.486  1.00  0.00     0.040 C 
HETATM   18  C26 UNL     1      -4.115   6.023  13.446  1.00  0.00     0.013 C 
HETATM   19  C27 UNL     1      -4.583   6.846  14.676  1.00  0.00    -0.036 C 
HETATM   20  C28 UNL     1      -3.652   6.509  15.871  1.00  0.00     0.016 C 
HETATM   21  O3  UNL     1      -1.490   8.578  12.183  1.00  0.00    -0.360 OA
ENDROOT
BRANCH   1  22
HETATM   22  C8  UNL     1      -7.066   5.799  14.408  1.00  0.00     0.008 C 
HETATM   23  C9  UNL     1      -6.470   5.343  13.064  1.00  0.00     0.014 C 
BRANCH  22  24
HETATM   24  C7  UNL     1      -8.408   6.438  14.098  1.00  0.00    -0.026 C 
HETATM   25  C6  UNL     1      -9.447   6.609  14.934  1.00  0.00    -0.026 C 
BRANCH  25  26
HETATM   26  C4  UNL     1     -10.788   7.236  14.592  1.00  0.00     0.007 C 
HETATM   27  C5  UNL     1     -11.018   7.321  13.073  1.00  0.00     0.014 C 
BRANCH  26  28
HETATM   28  C2  UNL     1     -10.962   8.615  15.294  1.00  0.00    -0.015 C 
HETATM   29  C1  UNL     1     -10.725   9.792  14.336  1.00  0.00     0.010 C 
HETATM   30  C3  UNL     1     -10.030   8.777  16.503  1.00  0.00     0.010 C 
ENDBRANCH  26  28
ENDBRANCH  25  26
ENDBRANCH  22  24
ENDBRANCH   1  22
BRANCH  11  31
HETATM   31  O2  UNL     1       1.659   8.656  15.034  1.00  0.00    -0.395 OA
HETATM   32  H30 UNL     1       2.427   9.228  15.239  1.00  0.00     0.210 HD
ENDBRANCH  11  31
TORSDOF 5
ENDMDL
MODEL 6
REMARK minimizedAffinity -7.31714487
REMARK CNNscore 0.435199589
REMARK CNNaffinity 6.48969126
REMARK  5 active torsions:
REMARK  status: ('A' for Active; 'I' for Inactive)
REMARK    1  A    between atoms: C2_2  and  C4_4 
REMARK    2  A    between atoms: C4_4  and  C6_6 
REMARK    3  A    between atoms: C7_7  and  C8_8 
REMARK    4  A    between atoms: C8_8  and  C10_10 
REMARK    5  A    between atoms: C19_20  and  O2_21 
ROOT
HETATM    1  C10 UNL     1      -3.398   9.790  15.037  1.00  0.00     0.001 C 
HETATM    2  C11 UNL     1      -4.841   9.698  15.624  1.00  0.00     0.006 C 
HETATM    3  C12 UNL     1      -5.482   8.454  15.018  1.00  0.00     0.006 C 
HETATM    4  C13 UNL     1      -4.287   7.517  14.972  1.00  0.00     0.001 C 
HETATM    5  C14 UNL     1      -4.470   6.109  14.405  1.00  0.00     0.033 C 
HETATM    6  C15 UNL     1      -5.540   5.887  13.332  1.00  0.00     0.089 C 
HETATM    7  C16 UNL     1      -5.402   4.437  12.863  1.00  0.00     0.162 C 
HETATM    8  O1  UNL     1      -6.398   3.780  12.549  1.00  0.00    -0.295 OA
HETATM    9  C17 UNL     1      -3.857   3.974  12.823  1.00  0.00     0.131 C 
HETATM   10  C18 UNL     1      -3.586   2.629  12.162  1.00  0.00     0.078 C 
HETATM   11  C19 UNL     1      -3.168   2.878  10.717  1.00  0.00     0.121 C 
HETATM   12  C20 UNL     1      -1.874   3.704  10.611  1.00  0.00     0.036 C 
HETATM   13  C21 UNL     1      -1.577   4.594  11.841  1.00  0.00    -0.006 C 
HETATM   14  C22 UNL     1      -0.635   5.728  11.448  1.00  0.00     0.010 C 
HETATM   15  C23 UNL     1      -2.893   5.138  12.404  1.00  0.00     0.067 C 
HETATM   16  C24 UNL     1      -3.100   5.510  13.945  1.00  0.00     0.074 C 
HETATM   17  C25 UNL     1      -1.933   6.079  14.745  1.00  0.00     0.040 C 
HETATM   18  C26 UNL     1      -1.815   7.620  14.642  1.00  0.00     0.013 C 
HETATM   19  C27 UNL     1      -3.147   8.368  14.371  1.00  0.00    -0.036 C 
HETATM   20  C28 UNL     1      -3.275   8.599  12.841  1.00  0.00     0.016 C 
HETATM   21  O3  UNL     1      -3.221   4.040  14.173  1.00  0.00    -0.360 OA
ENDROOT
BRANCH   1  22
HETATM   22  C8  UNL     1      -2.380  10.316  16.090  1.00  0.00     0.008 C 
HETATM   23  C9  UNL     1      -2.463   9.531  17.411  1.00  0.00     0.014 C 
BRANCH  22  24
HETATM   24  C7  UNL     1      -2.482  11.787  16.447  1.00  0.00    -0.026 C 
HETATM   25  C6  UNL     1      -2.611  12.326  17.672  1.00  0.00    -0.026 C 
BRANCH  25  26
HETATM   26  C4  UNL     1      -2.730  13.806  18.001  1.00  0.00     0.007 C 
HETATM   27  C5  UNL     1      -2.392  14.697  16.793  1.00  0.00     0.014 C 
BRANCH  26  28
HETATM   28  C2  UNL     1      -1.890  14.173  19.260  1.00  0.00    -0.015 C 
HETATM   29  C1  UNL     1      -1.463  15.649  19.265  1.00  0.00     0.010 C 
HETATM   30  C3  UNL     1      -0.632  13.303  19.398  1.00  0.00     0.010 C 
ENDBRANCH  26  28
ENDBRANCH  25  26
ENDBRANCH  22  24
ENDBRANCH   1  22
BRANCH  11  31
HETATM   31  O2  UNL     1      -4.205   3.605  10.062  1.00  0.00    -0.395 OA
HETATM   32  H30 UNL     1      -4.717   2.980   9.510  1.00  0.00     0.210 HD
ENDBRANCH  11  31
TORSDOF 5
ENDMDL
MODEL 7
REMARK minimizedAffinity -7.56357479
REMARK CNNscore 0.397485703
REMARK CNNaffinity 6.31975603
REMARK  5 active torsions:
REMARK  status: ('A' for Active; 'I' for Inactive)
REMARK    1  A    between atoms: C2_2  and  C4_4 
REMARK    2  A    between atoms: C4_4  and  C6_6 
REMARK    3  A    between atoms: C7_7  and  C8_8 
REMARK    4  A    between atoms: C8_8  and  C10_10 
REMARK    5  A    between atoms: C19_20  and  O2_21 
ROOT
HETATM    1  C10 UNL     1      -1.916   6.161  13.327  1.00  0.00     0.001 C 
HETATM    2  C11 UNL     1      -3.368   6.285  12.769  1.00  0.00     0.006 C 
HETATM    3  C12 UNL     1      -4.000   7.490  13.457  1.00  0.00     0.006 C 
HETATM    4  C13 UNL     1      -2.805   8.424  13.541  1.00  0.00     0.001 C 
HETATM    5  C14 UNL     1      -2.979   9.796  14.193  1.00  0.00     0.033 C 
HETATM    6  C15 UNL     1      -4.033   9.953  15.293  1.00  0.00     0.089 C 
HETATM    7  C16 UNL     1      -3.888  11.372  15.846  1.00  0.00     0.162 C 
HETATM    8  O1  UNL     1      -4.880  12.009  16.213  1.00  0.00    -0.295 OA
HETATM    9  C17 UNL     1      -2.343  11.834  15.889  1.00  0.00     0.131 C 
HETATM   10  C18 UNL     1      -2.063  13.138  16.625  1.00  0.00     0.078 C 
HETATM   11  C19 UNL     1      -1.623  12.804  18.045  1.00  0.00     0.121 C 
HETATM   12  C20 UNL     1      -0.326  11.975  18.083  1.00  0.00     0.036 C 
HETATM   13  C21 UNL     1      -0.048  11.159  16.798  1.00  0.00    -0.006 C 
HETATM   14  C22 UNL     1       0.900  10.005  17.108  1.00  0.00     0.010 C 
HETATM   15  C23 UNL     1      -1.373  10.649  16.223  1.00  0.00     0.067 C 
HETATM   16  C24 UNL     1      -1.602  10.369  14.667  1.00  0.00     0.074 C 
HETATM   17  C25 UNL     1      -0.448   9.849  13.816  1.00  0.00     0.040 C 
HETATM   18  C26 UNL     1      -0.328   8.305  13.826  1.00  0.00     0.013 C 
HETATM   19  C27 UNL     1      -1.656   7.540  14.073  1.00  0.00    -0.036 C 
HETATM   20  C28 UNL     1      -1.760   7.220  15.588  1.00  0.00     0.016 C 
HETATM   21  O3  UNL     1      -1.728  11.849  14.528  1.00  0.00    -0.360 OA
ENDROOT
BRANCH   1  22
HETATM   22  C8  UNL     1      -0.915   5.699  12.230  1.00  0.00     0.008 C 
HETATM   23  C9  UNL     1       0.373   5.115  12.836  1.00  0.00     0.014 C 
BRANCH  22  24
HETATM   24  C7  UNL     1      -0.486   6.752  11.224  1.00  0.00    -0.026 C 
HETATM   25  C6  UNL     1       0.654   6.789  10.511  1.00  0.00    -0.026 C 
BRANCH  25  26
HETATM   26  C4  UNL     1       1.066   7.867   9.522  1.00  0.00     0.007 C 
HETATM   27  C5  UNL     1      -0.129   8.399   8.712  1.00  0.00     0.014 C 
BRANCH  26  28
HETATM   28  C2  UNL     1       2.229   7.379   8.609  1.00  0.00    -0.015 C 
HETATM   29  C1  UNL     1       3.500   8.226   8.780  1.00  0.00     0.010 C 
HETATM   30  C3  UNL     1       1.844   7.376   7.123  1.00  0.00     0.010 C 
ENDBRANCH  26  28
ENDBRANCH  25  26
ENDBRANCH  22  24
ENDBRANCH   1  22
BRANCH  11  31
HETATM   31  O2  UNL     1      -2.649  12.038  18.672  1.00  0.00    -0.395 OA
HETATM   32  H30 UNL     1      -3.152  12.629  19.268  1.00  0.00     0.210 HD
ENDBRANCH  11  31
TORSDOF 5
ENDMDL
MODEL 8
REMARK minimizedAffinity -7.65958548
REMARK CNNscore 0.334905267
REMARK CNNaffinity 6.35640383
REMARK  5 active torsions:
REMARK  status: ('A' for Active; 'I' for Inactive)
REMARK    1  A    between atoms: C2_2  and  C4_4 
REMARK    2  A    between atoms: C4_4  and  C6_6 
REMARK    3  A    between atoms: C7_7  and  C8_8 
REMARK    4  A    between atoms: C8_8  and  C10_10 
REMARK    5  A    between atoms: C19_20  and  O2_21 
ROOT
HETATM    1  C10 UNL     1      -3.392   9.861  15.015  1.00  0.00     0.001 C 
HETATM    2  C11 UNL     1      -4.836   9.772  15.601  1.00  0.00     0.006 C 
HETATM    3  C12 UNL     1      -5.473   8.522  15.006  1.00  0.00     0.006 C 
HETATM    4  C13 UNL     1      -4.277   7.586  14.969  1.00  0.00     0.001 C 
HETATM    5  C14 UNL     1      -4.456   6.173  14.415  1.00  0.00     0.033 C 
HETATM    6  C15 UNL     1      -5.524   5.939  13.343  1.00  0.00     0.089 C 
HETATM    7  C16 UNL     1      -5.382   4.485  12.887  1.00  0.00     0.162 C 
HETATM    8  O1  UNL     1      -6.376   3.823  12.577  1.00  0.00    -0.295 OA
HETATM    9  C17 UNL     1      -3.836   4.025  12.853  1.00  0.00     0.131 C 
HETATM   10  C18 UNL     1      -3.561   2.675  12.205  1.00  0.00     0.078 C 
HETATM   11  C19 UNL     1      -3.142   2.911  10.759  1.00  0.00     0.121 C 
HETATM   12  C20 UNL     1      -1.849   3.739  10.647  1.00  0.00     0.036 C 
HETATM   13  C21 UNL     1      -1.556   4.641  11.869  1.00  0.00    -0.006 C 
HETATM   14  C22 UNL     1      -0.616   5.774  11.467  1.00  0.00     0.010 C 
HETATM   15  C23 UNL     1      -2.874   5.187  12.425  1.00  0.00     0.067 C 
HETATM   16  C24 UNL     1      -3.083   5.572  13.962  1.00  0.00     0.074 C 
HETATM   17  C25 UNL     1      -1.919   6.151  14.759  1.00  0.00     0.040 C 
HETATM   18  C26 UNL     1      -1.804   7.692  14.642  1.00  0.00     0.013 C 
HETATM   19  C27 UNL     1      -3.138   8.435  14.362  1.00  0.00    -0.036 C 
HETATM   20  C28 UNL     1      -3.264   8.651  12.830  1.00  0.00     0.016 C 
HETATM   21  O3  UNL     1      -3.202   4.105  14.204  1.00  0.00    -0.360 OA
ENDROOT
BRANCH   1  22
HETATM   22  C8  UNL     1      -2.377  10.399  16.064  1.00  0.00     0.008 C 
HETATM   23  C9  UNL     1      -2.356   9.536  17.339  1.00  0.00     0.014 C 
BRANCH  22  24
HETATM   24  C7  UNL     1      -2.570  11.837  16.512  1.00  0.00    -0.026 C 
HETATM   25  C6  UNL     1      -3.049  12.271  17.691  1.00  0.00    -0.026 C 
BRANCH  25  26
HETATM   26  C4  UNL     1      -3.249  13.719  18.107  1.00  0.00     0.007 C 
HETATM   27  C5  UNL     1      -2.185  14.185  19.116  1.00  0.00     0.014 C 
BRANCH  26  28
HETATM   28  C2  UNL     1      -4.698  13.963  18.622  1.00  0.00    -0.015 C 
HETATM   29  C1  UNL     1      -5.054  13.062  19.814  1.00  0.00     0.010 C 
HETATM   30  C3  UNL     1      -5.751  13.755  17.524  1.00  0.00     0.010 C 
ENDBRANCH  26  28
ENDBRANCH  25  26
ENDBRANCH  22  24
ENDBRANCH   1  22
BRANCH  11  31
HETATM   31  O2  UNL     1      -4.179   3.630  10.095  1.00  0.00    -0.395 OA
HETATM   32  H30 UNL     1      -4.689   2.999   9.548  1.00  0.00     0.210 HD
ENDBRANCH  11  31
TORSDOF 5
ENDMDL
MODEL 9
REMARK minimizedAffinity -7.35248232
REMARK CNNscore 0.319079697
REMARK CNNaffinity 6.55601931
REMARK  5 active torsions:
REMARK  status: ('A' for Active; 'I' for Inactive)
REMARK    1  A    between atoms: C2_2  and  C4_4 
REMARK    2  A    between atoms: C4_4  and  C6_6 
REMARK    3  A    between atoms: C7_7  and  C8_8 
REMARK    4  A    between atoms: C8_8  and  C10_10 
REMARK    5  A    between atoms: C19_20  and  O2_21 
ROOT
HETATM    1  C10 UNL     1      -9.899   8.241  14.470  1.00  0.00     0.001 C 
HETATM    2  C11 UNL     1      -9.450   9.604  15.084  1.00  0.00     0.006 C 
HETATM    3  C12 UNL     1     -10.592  10.586  14.851  1.00  0.00     0.006 C 
HETATM    4  C13 UNL     1     -11.792   9.674  15.040  1.00  0.00     0.001 C 
HETATM    5  C14 UNL     1     -13.198  10.253  14.882  1.00  0.00     0.033 C 
HETATM    6  C15 UNL     1     -13.397  11.435  13.928  1.00  0.00     0.089 C 
HETATM    7  C16 UNL     1     -14.902  11.706  13.868  1.00  0.00     0.162 C 
HETATM    8  O1  UNL     1     -15.329  12.859  13.762  1.00  0.00    -0.295 OA
HETATM    9  C17 UNL     1     -15.751  10.336  13.929  1.00  0.00     0.131 C 
HETATM   10  C18 UNL     1     -17.244  10.470  13.655  1.00  0.00     0.078 C 
HETATM   11  C19 UNL     1     -17.496  10.132  12.190  1.00  0.00     0.121 C 
HETATM   12  C20 UNL     1     -17.099   8.687  11.841  1.00  0.00     0.036 C 
HETATM   13  C21 UNL     1     -16.033   8.069  12.777  1.00  0.00    -0.006 C 
HETATM   14  C22 UNL     1     -15.331   6.912  12.074  1.00  0.00     0.010 C 
HETATM   15  C23 UNL     1     -15.034   9.152  13.193  1.00  0.00     0.067 C 
HETATM   16  C24 UNL     1     -14.236   9.122  14.578  1.00  0.00     0.074 C 
HETATM   17  C25 UNL     1     -13.810   7.785  15.173  1.00  0.00     0.040 C 
HETATM   18  C26 UNL     1     -12.436   7.293  14.652  1.00  0.00     0.013 C 
HETATM   19  C27 UNL     1     -11.458   8.414  14.211  1.00  0.00    -0.036 C 
HETATM   20  C28 UNL     1     -11.605   8.615  12.678  1.00  0.00     0.016 C 
HETATM   21  O3  UNL     1     -15.511   9.588  15.199  1.00  0.00    -0.360 OA
ENDROOT
BRANCH   1  22
HETATM   22  C8  UNL     1      -9.409   7.036  15.321  1.00  0.00     0.008 C 
HETATM   23  C9  UNL     1      -8.879   7.481  16.696  1.00  0.00     0.014 C 
BRANCH  22  24
HETATM   24  C7  UNL     1      -8.332   6.165  14.699  1.00  0.00    -0.026 C 
HETATM   25  C6  UNL     1      -8.280   5.704  13.437  1.00  0.00    -0.026 C 
BRANCH  25  26
HETATM   26  C4  UNL     1      -7.197   4.817  12.843  1.00  0.00     0.007 C 
HETATM   27  C5  UNL     1      -7.589   3.329  12.868  1.00  0.00     0.014 C 
BRANCH  26  28
HETATM   28  C2  UNL     1      -5.820   5.077  13.521  1.00  0.00    -0.015 C 
HETATM   29  C1  UNL     1      -5.364   6.537  13.374  1.00  0.00     0.010 C 
HETATM   30  C3  UNL     1      -4.715   4.165  12.968  1.00  0.00     0.010 C 
ENDBRANCH  26  28
ENDBRANCH  25  26
ENDBRANCH  22  24
ENDBRANCH   1  22
BRANCH  11  31
HETATM   31  O2  UNL     1     -16.715  11.007  11.379  1.00  0.00    -0.395 OA
HETATM   32  H30 UNL     1     -17.302  11.706  11.027  1.00  0.00     0.210 HD
ENDBRANCH  11  31
TORSDOF 5
ENDMDL
