MODEL 1
REMARK minimizedAffinity -8.80304623
REMARK CNNscore 0.831089854
REMARK CNNaffinity 6.87195444
REMARK  5 active torsions:
REMARK  status: ('A' for Active; 'I' for Inactive)
REMARK    1  A    between atoms: C2_2  and  C4_4 
REMARK    2  A    between atoms: C10_11  and  O2_12 
REMARK    3  A    between atoms: C13_15  and  O3_16 
REMARK    4  A    between atoms: C32_37  and  O5_38 
REMARK    5  A    between atoms: C37_44  and  O7_45 
ROOT
HETATM    1  C4  UNL     1      -0.666  49.150 -16.916  1.00  0.00     0.181 C 
HETATM    2  O1  UNL     1       0.449  50.023 -16.690  1.00  0.00    -0.370 OA
HETATM    3  C5  UNL     1       1.094  49.864 -15.405  1.00  0.00     0.163 C 
HETATM    4  C6  UNL     1       1.985  51.110 -15.281  1.00  0.00     0.036 C 
HETATM    5  C7  UNL     1       2.463  51.445 -13.867  1.00  0.00     0.016 C 
HETATM    6  C8  UNL     1       1.325  51.412 -12.801  1.00  0.00     0.006 C 
HETATM    7  C9  UNL     1       0.257  52.468 -13.225  1.00  0.00     0.020 C 
HETATM    8  C10 UNL     1       0.691  49.956 -12.843  1.00  0.00     0.102 C 
HETATM    9  C11 UNL     1      -0.286  49.658 -11.665  1.00  0.00     0.045 C 
HETATM   10  C12 UNL     1       0.274  49.999 -10.256  1.00  0.00     0.045 C 
HETATM   11  C13 UNL     1       0.730  51.447 -10.247  1.00  0.00     0.102 C 
HETATM   12  C14 UNL     1       1.289  52.135  -8.906  1.00  0.00     0.194 C 
HETATM   13  O4  UNL     1       0.134  52.534  -8.153  1.00  0.00    -0.367 OA
HETATM   14  C15 UNL     1       0.257  52.776  -6.741  1.00  0.00     0.061 C 
HETATM   15  C16 UNL     1      -1.213  52.898  -6.275  1.00  0.00     0.046 C 
HETATM   16  C17 UNL     1       0.867  51.590  -5.992  1.00  0.00     0.046 C 
HETATM   17  C18 UNL     1       0.920  54.141  -6.470  1.00  0.00     0.060 C 
HETATM   18  C19 UNL     1       1.078  54.638  -5.011  1.00  0.00     0.023 C 
HETATM   19  C20 UNL     1       2.402  55.338  -5.387  1.00  0.00     0.054 C 
HETATM   20  C21 UNL     1       2.432  56.812  -5.683  1.00  0.00    -0.078 C 
HETATM   21  C22 UNL     1       1.671  57.668  -4.982  1.00  0.00     0.015 C 
HETATM   22  C23 UNL     1       3.417  57.272  -6.747  1.00  0.00     0.073 C 
HETATM   23  C24 UNL     1       3.296  56.509  -8.049  1.00  0.00    -0.044 A 
HETATM   24  C25 UNL     1       3.705  57.073  -9.262  1.00  0.00     0.010 A 
HETATM   25  C26 UNL     1       3.612  56.359 -10.463  1.00  0.00     0.031 A 
HETATM   26  C27 UNL     1       3.052  55.076 -10.418  1.00  0.00     0.044 A 
HETATM   27  N1  UNL     1       2.850  54.152 -11.436  1.00  0.00    -0.358 N 
HETATM   28  C28 UNL     1       2.256  53.061 -10.898  1.00  0.00     0.032 A 
HETATM   29  C29 UNL     1       2.022  53.276  -9.557  1.00  0.00     0.010 A 
HETATM   30  C30 UNL     1       2.603  54.504  -9.217  1.00  0.00     0.011 A 
HETATM   31  C31 UNL     1       2.801  55.191  -8.006  1.00  0.00    -0.003 A 
HETATM   32  C32 UNL     1       2.453  54.419  -6.680  1.00  0.00     0.100 C 
HETATM   33  C33 UNL     1       1.883  51.677 -11.346  1.00  0.00     0.043 C 
HETATM   34  C34 UNL     1       3.157  50.822 -11.004  1.00  0.00     0.026 C 
HETATM   35  C35 UNL     1       0.117  49.686 -14.241  1.00  0.00     0.147 A 
HETATM   36  O6  UNL     1      -0.526  48.372 -14.259  1.00  0.00    -0.360 OA
HETATM   37  C36 UNL     1      -1.354  49.498 -14.542  1.00  0.00     0.194 A 
HETATM   38  C37 UNL     1      -1.812  49.590 -15.962  1.00  0.00     0.183 C 
HETATM   39  H38 UNL     1       3.123  54.281 -12.401  1.00  0.00     0.166 HD
ENDROOT
BRANCH   1  40
HETATM   40  C2  UNL     1      -1.064  49.201 -18.390  1.00  0.00    -0.062 C 
HETATM   41  C1  UNL     1      -1.877  48.309 -18.985  1.00  0.00     0.016 C 
HETATM   42  C3  UNL     1      -0.511  50.360 -19.175  1.00  0.00     0.045 C 
ENDBRANCH   1  40
BRANCH  38  43
HETATM   43  O7  UNL     1      -2.213  50.945 -16.181  1.00  0.00    -0.390 OA
HETATM   44  H45 UNL     1      -1.815  51.228 -17.027  1.00  0.00     0.210 HD
ENDBRANCH  38  43
BRANCH   8  45
HETATM   45  O2  UNL     1       1.732  48.968 -12.696  1.00  0.00    -0.386 OA
HETATM   46  H15 UNL     1       1.316  48.104 -12.882  1.00  0.00     0.210 HD
ENDBRANCH   8  45
BRANCH  11  47
HETATM   47  O3  UNL     1      -0.484  52.192 -10.577  1.00  0.00    -0.386 OA
HETATM   48  H20 UNL     1      -0.749  52.633  -9.741  1.00  0.00     0.210 HD
ENDBRANCH  11  47
BRANCH  32  49
HETATM   49  O5  UNL     1       3.331  53.277  -6.489  1.00  0.00    -0.384 OA
HETATM   50  H39 UNL     1       4.213  53.609  -6.738  1.00  0.00     0.211 HD
ENDBRANCH  32  49
TORSDOF 5
ENDMDL
MODEL 2
REMARK minimizedAffinity -8.07500267
REMARK CNNscore 0.696675658
REMARK CNNaffinity 6.87437582
REMARK  5 active torsions:
REMARK  status: ('A' for Active; 'I' for Inactive)
REMARK    1  A    between atoms: C2_2  and  C4_4 
REMARK    2  A    between atoms: C10_11  and  O2_12 
REMARK    3  A    between atoms: C13_15  and  O3_16 
REMARK    4  A    between atoms: C32_37  and  O5_38 
REMARK    5  A    between atoms: C37_44  and  O7_45 
ROOT
HETATM    1  C4  UNL     1      -1.856  50.127 -17.380  1.00  0.00     0.181 C 
HETATM    2  O1  UNL     1      -0.731  51.009 -17.258  1.00  0.00    -0.370 OA
HETATM    3  C5  UNL     1       0.300  50.557 -16.350  1.00  0.00     0.163 C 
HETATM    4  C6  UNL     1       1.177  51.800 -16.137  1.00  0.00     0.036 C 
HETATM    5  C7  UNL     1       2.091  51.765 -14.911  1.00  0.00     0.016 C 
HETATM    6  C8  UNL     1       1.365  51.313 -13.606  1.00  0.00     0.006 C 
HETATM    7  C9  UNL     1       0.213  52.330 -13.336  1.00  0.00     0.020 C 
HETATM    8  C10 UNL     1       0.757  49.872 -13.889  1.00  0.00     0.102 C 
HETATM    9  C11 UNL     1       0.221  49.152 -12.615  1.00  0.00     0.045 C 
HETATM   10  C12 UNL     1       1.211  49.132 -11.416  1.00  0.00     0.045 C 
HETATM   11  C13 UNL     1       1.639  50.556 -11.110  1.00  0.00     0.102 C 
HETATM   12  C14 UNL     1       2.604  50.885  -9.868  1.00  0.00     0.194 C 
HETATM   13  O4  UNL     1       1.757  50.933  -8.709  1.00  0.00    -0.367 OA
HETATM   14  C15 UNL     1       2.335  50.773  -7.403  1.00  0.00     0.061 C 
HETATM   15  C16 UNL     1       1.099  50.605  -6.489  1.00  0.00     0.046 C 
HETATM   16  C17 UNL     1       3.162  49.491  -7.277  1.00  0.00     0.046 C 
HETATM   17  C18 UNL     1       3.046  52.064  -6.950  1.00  0.00     0.060 C 
HETATM   18  C19 UNL     1       3.670  52.138  -5.535  1.00  0.00     0.023 C 
HETATM   19  C20 UNL     1       4.796  53.048  -6.073  1.00  0.00     0.054 C 
HETATM   20  C21 UNL     1       4.722  54.540  -5.903  1.00  0.00    -0.078 C 
HETATM   21  C22 UNL     1       4.230  55.077  -4.775  1.00  0.00     0.015 C 
HETATM   22  C23 UNL     1       5.303  55.384  -7.028  1.00  0.00     0.073 C 
HETATM   23  C24 UNL     1       4.764  55.016  -8.393  1.00  0.00    -0.044 A 
HETATM   24  C25 UNL     1       4.752  55.941  -9.442  1.00  0.00     0.010 A 
HETATM   25  C26 UNL     1       4.273  55.593 -10.712  1.00  0.00     0.031 A 
HETATM   26  C27 UNL     1       3.764  54.301 -10.887  1.00  0.00     0.044 A 
HETATM   27  N1  UNL     1       3.242  53.690 -12.021  1.00  0.00    -0.358 N 
HETATM   28  C28 UNL     1       2.862  52.436 -11.682  1.00  0.00     0.032 A 
HETATM   29  C29 UNL     1       3.079  52.234 -10.336  1.00  0.00     0.010 A 
HETATM   30  C30 UNL     1       3.735  53.367  -9.838  1.00  0.00     0.011 A 
HETATM   31  C31 UNL     1       4.316  53.696  -8.601  1.00  0.00    -0.003 A 
HETATM   32  C32 UNL     1       4.424  52.547  -7.532  1.00  0.00     0.100 C 
HETATM   33  C33 UNL     1       2.367  51.207 -12.390  1.00  0.00     0.043 C 
HETATM   34  C34 UNL     1       3.686  50.426 -12.737  1.00  0.00     0.026 C 
HETATM   35  C35 UNL     1      -0.242  49.955 -15.052  1.00  0.00     0.147 A 
HETATM   36  O6  UNL     1      -0.851  48.642 -15.266  1.00  0.00    -0.360 OA
HETATM   37  C36 UNL     1      -1.729  49.710 -14.923  1.00  0.00     0.194 A 
HETATM   38  C37 UNL     1      -2.628  50.156 -16.030  1.00  0.00     0.183 C 
HETATM   39  H38 UNL     1       3.184  54.117 -12.936  1.00  0.00     0.166 HD
ENDROOT
BRANCH   1  40
HETATM   40  C2  UNL     1      -2.715  50.555 -18.568  1.00  0.00    -0.062 C 
HETATM   41  C1  UNL     1      -3.789  49.875 -19.009  1.00  0.00     0.016 C 
HETATM   42  C3  UNL     1      -2.312  51.844 -19.234  1.00  0.00     0.045 C 
ENDBRANCH   1  40
BRANCH  38  43
HETATM   43  O7  UNL     1      -3.084  51.468 -15.692  1.00  0.00    -0.390 OA
HETATM   44  H45 UNL     1      -2.986  52.021 -16.492  1.00  0.00     0.210 HD
ENDBRANCH  38  43
BRANCH   8  45
HETATM   45  O2  UNL     1       1.792  48.996 -14.380  1.00  0.00    -0.386 OA
HETATM   46  H15 UNL     1       1.342  48.182 -14.680  1.00  0.00     0.210 HD
ENDBRANCH   8  45
BRANCH  11  47
HETATM   47  O3  UNL     1       0.381  51.235 -10.804  1.00  0.00    -0.386 OA
HETATM   48  H20 UNL     1       0.402  51.389  -9.835  1.00  0.00     0.210 HD
ENDBRANCH  11  47
BRANCH  32  49
HETATM   49  O5  UNL     1       5.321  51.494  -7.980  1.00  0.00    -0.384 OA
HETATM   50  H39 UNL     1       6.071  51.973  -8.378  1.00  0.00     0.211 HD
ENDBRANCH  32  49
TORSDOF 5
ENDMDL
MODEL 3
REMARK minimizedAffinity -8.77252293
REMARK CNNscore 0.693153739
REMARK CNNaffinity 6.45557547
REMARK  5 active torsions:
REMARK  status: ('A' for Active; 'I' for Inactive)
REMARK    1  A    between atoms: C2_2  and  C4_4 
REMARK    2  A    between atoms: C10_11  and  O2_12 
REMARK    3  A    between atoms: C13_15  and  O3_16 
REMARK    4  A    between atoms: C32_37  and  O5_38 
REMARK    5  A    between atoms: C37_44  and  O7_45 
ROOT
HETATM    1  C4  UNL     1      18.710  44.915 -26.213  1.00  0.00     0.181 C 
HETATM    2  O1  UNL     1      18.196  44.923 -24.875  1.00  0.00    -0.370 OA
HETATM    3  C5  UNL     1      17.688  43.651 -24.411  1.00  0.00     0.163 C 
HETATM    4  C6  UNL     1      16.900  44.006 -23.141  1.00  0.00     0.036 C 
HETATM    5  C7  UNL     1      15.903  42.951 -22.662  1.00  0.00     0.016 C 
HETATM    6  C8  UNL     1      14.989  42.397 -23.799  1.00  0.00     0.006 C 
HETATM    7  C9  UNL     1      14.191  43.603 -24.386  1.00  0.00     0.020 C 
HETATM    8  C10 UNL     1      15.949  41.792 -24.912  1.00  0.00     0.102 C 
HETATM    9  C11 UNL     1      15.205  40.960 -26.001  1.00  0.00     0.045 C 
HETATM   10  C12 UNL     1      14.226  39.889 -25.444  1.00  0.00     0.045 C 
HETATM   11  C13 UNL     1      13.248  40.564 -24.499  1.00  0.00     0.102 C 
HETATM   12  C14 UNL     1      12.051  39.740 -23.813  1.00  0.00     0.194 C 
HETATM   13  O4  UNL     1      11.001  39.678 -24.791  1.00  0.00    -0.367 OA
HETATM   14  C15 UNL     1       9.985  38.667 -24.676  1.00  0.00     0.061 C 
HETATM   15  C16 UNL     1       9.242  38.760 -26.029  1.00  0.00     0.046 C 
HETATM   16  C17 UNL     1      10.568  37.255 -24.583  1.00  0.00     0.046 C 
HETATM   17  C18 UNL     1       8.961  39.033 -23.584  1.00  0.00     0.060 C 
HETATM   18  C19 UNL     1       7.734  38.118 -23.348  1.00  0.00     0.023 C 
HETATM   19  C20 UNL     1       7.771  38.449 -21.840  1.00  0.00     0.054 C 
HETATM   20  C21 UNL     1       6.855  39.492 -21.262  1.00  0.00    -0.078 C 
HETATM   21  C22 UNL     1       5.594  39.618 -21.705  1.00  0.00     0.015 C 
HETATM   22  C23 UNL     1       7.408  40.322 -20.113  1.00  0.00     0.073 C 
HETATM   23  C24 UNL     1       8.747  40.956 -20.421  1.00  0.00    -0.044 A 
HETATM   24  C25 UNL     1       9.170  42.115 -19.762  1.00  0.00     0.010 A 
HETATM   25  C26 UNL     1      10.419  42.689 -20.032  1.00  0.00     0.031 A 
HETATM   26  C27 UNL     1      11.213  42.092 -21.018  1.00  0.00     0.044 A 
HETATM   27  N1  UNL     1      12.480  42.435 -21.476  1.00  0.00    -0.358 N 
HETATM   28  C28 UNL     1      12.819  41.564 -22.456  1.00  0.00     0.032 A 
HETATM   29  C29 UNL     1      11.777  40.690 -22.679  1.00  0.00     0.010 A 
HETATM   30  C30 UNL     1      10.793  40.948 -21.716  1.00  0.00     0.011 A 
HETATM   31  C31 UNL     1       9.586  40.323 -21.359  1.00  0.00    -0.003 A 
HETATM   32  C32 UNL     1       9.264  38.943 -22.044  1.00  0.00     0.100 C 
HETATM   33  C33 UNL     1      14.038  41.249 -23.275  1.00  0.00     0.043 C 
HETATM   34  C34 UNL     1      14.787  40.165 -22.419  1.00  0.00     0.026 C 
HETATM   35  C35 UNL     1      16.864  42.897 -25.457  1.00  0.00     0.147 A 
HETATM   36  O6  UNL     1      17.699  42.354 -26.528  1.00  0.00    -0.360 OA
HETATM   37  C36 UNL     1      16.823  43.423 -26.875  1.00  0.00     0.194 A 
HETATM   38  C37 UNL     1      17.509  44.714 -27.181  1.00  0.00     0.183 C 
HETATM   39  H38 UNL     1      13.042  43.194 -21.116  1.00  0.00     0.166 HD
ENDROOT
BRANCH   1  40
HETATM   40  C2  UNL     1      19.476  46.211 -26.474  1.00  0.00    -0.062 C 
HETATM   41  C1  UNL     1      19.174  47.395 -25.910  1.00  0.00     0.016 C 
HETATM   42  C3  UNL     1      20.652  46.097 -27.406  1.00  0.00     0.045 C 
ENDBRANCH   1  40
BRANCH  38  43
HETATM   43  O7  UNL     1      16.528  45.746 -27.052  1.00  0.00    -0.390 OA
HETATM   44  H45 UNL     1      16.933  46.463 -26.526  1.00  0.00     0.210 HD
ENDBRANCH  38  43
BRANCH   8  45
HETATM   45  O2  UNL     1      16.858  40.849 -24.309  1.00  0.00    -0.386 OA
HETATM   46  H15 UNL     1      17.517  40.627 -24.996  1.00  0.00     0.210 HD
ENDBRANCH   8  45
BRANCH  11  47
HETATM   47  O3  UNL     1      12.590  41.562 -25.339  1.00  0.00    -0.386 OA
HETATM   48  H20 UNL     1      11.680  41.219 -25.479  1.00  0.00     0.210 HD
ENDBRANCH  11  47
BRANCH  32  49
HETATM   49  O5  UNL     1      10.223  37.924 -21.650  1.00  0.00    -0.384 OA
HETATM   50  H39 UNL     1      10.347  38.069 -20.694  1.00  0.00     0.211 HD
ENDBRANCH  32  49
TORSDOF 5
ENDMDL
MODEL 4
REMARK minimizedAffinity -8.97313118
REMARK CNNscore 0.647197962
REMARK CNNaffinity 7.11942673
REMARK  5 active torsions:
REMARK  status: ('A' for Active; 'I' for Inactive)
REMARK    1  A    between atoms: C2_2  and  C4_4 
REMARK    2  A    between atoms: C10_11  and  O2_12 
REMARK    3  A    between atoms: C13_15  and  O3_16 
REMARK    4  A    between atoms: C32_37  and  O5_38 
REMARK    5  A    between atoms: C37_44  and  O7_45 
ROOT
HETATM    1  C4  UNL     1     -11.961  43.687 -27.492  1.00  0.00     0.181 C 
HETATM    2  O1  UNL     1     -11.423  43.360 -26.204  1.00  0.00    -0.370 OA
HETATM    3  C5  UNL     1     -11.185  44.495 -25.339  1.00  0.00     0.163 C 
HETATM    4  C6  UNL     1     -10.309  43.926 -24.213  1.00  0.00     0.036 C 
HETATM    5  C7  UNL     1      -9.546  44.958 -23.381  1.00  0.00     0.016 C 
HETATM    6  C8  UNL     1      -8.798  46.023 -24.243  1.00  0.00     0.006 C 
HETATM    7  C9  UNL     1      -7.778  45.260 -25.145  1.00  0.00     0.020 C 
HETATM    8  C10 UNL     1      -9.892  46.736 -25.149  1.00  0.00     0.102 C 
HETATM    9  C11 UNL     1      -9.368  48.007 -25.885  1.00  0.00     0.045 C 
HETATM   10  C12 UNL     1      -8.624  49.025 -24.975  1.00  0.00     0.045 C 
HETATM   11  C13 UNL     1      -7.503  48.303 -24.248  1.00  0.00     0.102 C 
HETATM   12  C14 UNL     1      -6.491  49.097 -23.285  1.00  0.00     0.194 C 
HETATM   13  O4  UNL     1      -5.503  49.684 -24.145  1.00  0.00    -0.367 OA
HETATM   14  C15 UNL     1      -4.721  50.794 -23.671  1.00  0.00     0.061 C 
HETATM   15  C16 UNL     1      -4.008  51.294 -24.949  1.00  0.00     0.046 C 
HETATM   16  C17 UNL     1      -5.587  51.949 -23.162  1.00  0.00     0.046 C 
HETATM   17  C18 UNL     1      -3.616  50.321 -22.706  1.00  0.00     0.060 C 
HETATM   18  C19 UNL     1      -2.605  51.348 -22.139  1.00  0.00     0.023 C 
HETATM   19  C20 UNL     1      -2.534  50.555 -20.816  1.00  0.00     0.054 C 
HETATM   20  C21 UNL     1      -1.404  49.597 -20.557  1.00  0.00    -0.078 C 
HETATM   21  C22 UNL     1      -0.156  49.884 -20.960  1.00  0.00     0.015 C 
HETATM   22  C23 UNL     1      -1.740  48.348 -19.756  1.00  0.00     0.073 C 
HETATM   23  C24 UNL     1      -2.922  47.581 -20.307  1.00  0.00    -0.044 A 
HETATM   24  C25 UNL     1      -3.074  46.211 -20.068  1.00  0.00     0.010 A 
HETATM   25  C26 UNL     1      -4.179  45.505 -20.561  1.00  0.00     0.031 A 
HETATM   26  C27 UNL     1      -5.106  46.206 -21.342  1.00  0.00     0.044 A 
HETATM   27  N1  UNL     1      -6.281  45.771 -21.942  1.00  0.00    -0.358 N 
HETATM   28  C28 UNL     1      -6.821  46.817 -22.610  1.00  0.00     0.032 A 
HETATM   29  C29 UNL     1      -5.995  47.914 -22.498  1.00  0.00     0.010 A 
HETATM   30  C30 UNL     1      -4.955  47.574 -21.624  1.00  0.00     0.011 A 
HETATM   31  C31 UNL     1      -3.899  48.290 -21.034  1.00  0.00    -0.003 A 
HETATM   32  C32 UNL     1      -3.893  49.851 -21.232  1.00  0.00     0.100 C 
HETATM   33  C33 UNL     1      -8.099  47.115 -23.340  1.00  0.00     0.043 C 
HETATM   34  C34 UNL     1      -9.040  47.690 -22.219  1.00  0.00     0.026 C 
HETATM   35  C35 UNL     1     -10.566  45.697 -26.055  1.00  0.00     0.147 A 
HETATM   36  O6  UNL     1     -11.523  46.366 -26.936  1.00  0.00    -0.360 OA
HETATM   37  C36 UNL     1     -10.449  45.671 -27.563  1.00  0.00     0.194 A 
HETATM   38  C37 UNL     1     -10.854  44.431 -28.292  1.00  0.00     0.183 C 
HETATM   39  H38 UNL     1      -6.662  44.837 -21.865  1.00  0.00     0.166 HD
ENDROOT
BRANCH   1  40
HETATM   40  C2  UNL     1     -12.440  42.412 -28.184  1.00  0.00    -0.062 C 
HETATM   41  C1  UNL     1     -13.730  42.142 -28.463  1.00  0.00     0.016 C 
HETATM   42  C3  UNL     1     -11.362  41.442 -28.586  1.00  0.00     0.045 C 
ENDBRANCH   1  40
BRANCH  38  43
HETATM   43  O7  UNL     1      -9.673  43.640 -28.453  1.00  0.00    -0.390 OA
HETATM   44  H45 UNL     1      -9.904  42.725 -28.200  1.00  0.00     0.210 HD
ENDBRANCH  38  43
BRANCH   8  45
HETATM   45  O2  UNL     1     -10.965  47.226 -24.320  1.00  0.00    -0.386 OA
HETATM   46  H15 UNL     1     -11.672  47.513 -24.930  1.00  0.00     0.210 HD
ENDBRANCH   8  45
BRANCH  11  47
HETATM   47  O3  UNL     1      -6.669  47.785 -25.331  1.00  0.00    -0.386 OA
HETATM   48  H20 UNL     1      -5.857  48.336 -25.315  1.00  0.00     0.210 HD
ENDBRANCH  11  47
BRANCH  32  49
HETATM   49  O5  UNL     1      -5.036  50.468 -20.579  1.00  0.00    -0.384 OA
HETATM   50  H39 UNL     1      -5.103  50.004 -19.725  1.00  0.00     0.211 HD
ENDBRANCH  32  49
TORSDOF 5
ENDMDL
MODEL 5
REMARK minimizedAffinity -7.80566025
REMARK CNNscore 0.470352978
REMARK CNNaffinity 6.62217951
REMARK  5 active torsions:
REMARK  status: ('A' for Active; 'I' for Inactive)
REMARK    1  A    between atoms: C2_2  and  C4_4 
REMARK    2  A    between atoms: C10_11  and  O2_12 
REMARK    3  A    between atoms: C13_15  and  O3_16 
REMARK    4  A    between atoms: C32_37  and  O5_38 
REMARK    5  A    between atoms: C37_44  and  O7_45 
ROOT
HETATM    1  C4  UNL     1      -0.441  50.609 -18.863  1.00  0.00     0.181 C 
HETATM    2  O1  UNL     1       0.353  51.567 -18.151  1.00  0.00    -0.370 OA
HETATM    3  C5  UNL     1       0.973  51.065 -16.945  1.00  0.00     0.163 C 
HETATM    4  C6  UNL     1       1.445  52.333 -16.215  1.00  0.00     0.036 C 
HETATM    5  C7  UNL     1       1.754  52.165 -14.727  1.00  0.00     0.016 C 
HETATM    6  C8  UNL     1       0.644  51.399 -13.942  1.00  0.00     0.006 C 
HETATM    7  C9  UNL     1      -0.677  52.219 -14.085  1.00  0.00     0.020 C 
HETATM    8  C10 UNL     1       0.478  49.981 -14.640  1.00  0.00     0.102 C 
HETATM    9  C11 UNL     1      -0.403  48.980 -13.832  1.00  0.00     0.045 C 
HETATM   10  C12 UNL     1      -0.018  48.840 -12.332  1.00  0.00     0.045 C 
HETATM   11  C13 UNL     1      -0.018  50.219 -11.696  1.00  0.00     0.102 C 
HETATM   12  C14 UNL     1       0.266  50.410 -10.126  1.00  0.00     0.194 C 
HETATM   13  O4  UNL     1      -0.980  50.147  -9.462  1.00  0.00    -0.367 OA
HETATM   14  C15 UNL     1      -0.981  49.806  -8.066  1.00  0.00     0.061 C 
HETATM   15  C16 UNL     1      -2.434  49.337  -7.819  1.00  0.00     0.046 C 
HETATM   16  C17 UNL     1      -0.069  48.619  -7.749  1.00  0.00     0.046 C 
HETATM   17  C18 UNL     1      -0.767  51.057  -7.191  1.00  0.00     0.060 C 
HETATM   18  C19 UNL     1      -0.814  50.929  -5.648  1.00  0.00     0.023 C 
HETATM   19  C20 UNL     1       0.251  52.039  -5.519  1.00  0.00     0.054 C 
HETATM   20  C21 UNL     1      -0.152  53.456  -5.215  1.00  0.00    -0.078 C 
HETATM   21  C22 UNL     1      -1.157  53.714  -4.363  1.00  0.00     0.015 C 
HETATM   22  C23 UNL     1       0.684  54.554  -5.855  1.00  0.00     0.073 C 
HETATM   23  C24 UNL     1       0.840  54.394  -7.352  1.00  0.00    -0.044 A 
HETATM   24  C25 UNL     1       1.101  55.494  -8.176  1.00  0.00     0.010 A 
HETATM   25  C26 UNL     1       1.265  55.343  -9.558  1.00  0.00     0.031 A 
HETATM   26  C27 UNL     1       1.115  54.060 -10.098  1.00  0.00     0.044 A 
HETATM   27  N1  UNL     1       1.232  53.622 -11.412  1.00  0.00    -0.358 N 
HETATM   28  C28 UNL     1       0.975  52.293 -11.433  1.00  0.00     0.032 A 
HETATM   29  C29 UNL     1       0.644  51.866 -10.166  1.00  0.00     0.010 A 
HETATM   30  C30 UNL     1       0.819  52.948  -9.294  1.00  0.00     0.011 A 
HETATM   31  C31 UNL     1       0.762  53.098  -7.898  1.00  0.00    -0.003 A 
HETATM   32  C32 UNL     1       0.618  51.785  -7.041  1.00  0.00     0.100 C 
HETATM   33  C33 UNL     1       1.049  51.174 -12.432  1.00  0.00     0.043 C 
HETATM   34  C34 UNL     1       2.508  50.618 -12.256  1.00  0.00     0.026 C 
HETATM   35  C35 UNL     1       0.057  50.175 -16.103  1.00  0.00     0.147 A 
HETATM   36  O6  UNL     1      -0.162  48.868 -16.725  1.00  0.00    -0.360 OA
HETATM   37  C36 UNL     1      -1.279  49.752 -16.674  1.00  0.00     0.194 A 
HETATM   38  C37 UNL     1      -1.698  50.300 -18.000  1.00  0.00     0.183 C 
HETATM   39  H38 UNL     1       1.485  54.205 -12.198  1.00  0.00     0.166 HD
ENDROOT
BRANCH   1  40
HETATM   40  C2  UNL     1      -0.788  51.159 -20.245  1.00  0.00    -0.062 C 
HETATM   41  C1  UNL     1      -1.980  50.992 -20.849  1.00  0.00     0.016 C 
HETATM   42  C3  UNL     1       0.294  51.959 -20.920  1.00  0.00     0.045 C 
ENDBRANCH   1  40
BRANCH  38  43
HETATM   43  O7  UNL     1      -2.479  51.469 -17.738  1.00  0.00    -0.390 OA
HETATM   44  H45 UNL     1      -2.157  52.169 -18.338  1.00  0.00     0.210 HD
ENDBRANCH  38  43
BRANCH   8  45
HETATM   45  O2  UNL     1       1.761  49.329 -14.728  1.00  0.00    -0.386 OA
HETATM   46  H15 UNL     1       1.630  48.544 -15.294  1.00  0.00     0.210 HD
ENDBRANCH   8  45
BRANCH  11  47
HETATM   47  O3  UNL     1      -1.387  50.689 -11.894  1.00  0.00    -0.386 OA
HETATM   48  H20 UNL     1      -1.800  50.659 -11.004  1.00  0.00     0.210 HD
ENDBRANCH  11  47
BRANCH  32  49
HETATM   49  O5  UNL     1       1.792  50.939  -7.175  1.00  0.00    -0.384 OA
HETATM   50  H39 UNL     1       2.541  51.561  -7.138  1.00  0.00     0.211 HD
ENDBRANCH  32  49
TORSDOF 5
ENDMDL
MODEL 6
REMARK minimizedAffinity -9.45213318
REMARK CNNscore 0.446821392
REMARK CNNaffinity 7.03049231
REMARK  5 active torsions:
REMARK  status: ('A' for Active; 'I' for Inactive)
REMARK    1  A    between atoms: C2_2  and  C4_4 
REMARK    2  A    between atoms: C10_11  and  O2_12 
REMARK    3  A    between atoms: C13_15  and  O3_16 
REMARK    4  A    between atoms: C32_37  and  O5_38 
REMARK    5  A    between atoms: C37_44  and  O7_45 
ROOT
HETATM    1  C4  UNL     1       2.789  48.084  -9.429  1.00  0.00     0.181 C 
HETATM    2  O1  UNL     1       2.955  49.315 -10.146  1.00  0.00    -0.370 OA
HETATM    3  C5  UNL     1       1.767  49.789 -10.821  1.00  0.00     0.163 C 
HETATM    4  C6  UNL     1       2.290  50.881 -11.769  1.00  0.00     0.036 C 
HETATM    5  C7  UNL     1       1.351  51.272 -12.911  1.00  0.00     0.016 C 
HETATM    6  C8  UNL     1       0.757  50.048 -13.675  1.00  0.00     0.006 C 
HETATM    7  C9  UNL     1       1.954  49.243 -14.271  1.00  0.00     0.020 C 
HETATM    8  C10 UNL     1      -0.011  49.161 -12.604  1.00  0.00     0.102 C 
HETATM    9  C11 UNL     1      -0.888  48.035 -13.230  1.00  0.00     0.045 C 
HETATM   10  C12 UNL     1      -1.836  48.507 -14.368  1.00  0.00     0.045 C 
HETATM   11  C13 UNL     1      -1.014  49.222 -15.425  1.00  0.00     0.102 C 
HETATM   12  C14 UNL     1      -1.690  49.765 -16.778  1.00  0.00     0.194 C 
HETATM   13  O4  UNL     1      -1.772  48.637 -17.662  1.00  0.00    -0.367 OA
HETATM   14  C15 UNL     1      -2.698  48.664 -18.761  1.00  0.00     0.061 C 
HETATM   15  C16 UNL     1      -2.681  47.204 -19.272  1.00  0.00     0.046 C 
HETATM   16  C17 UNL     1      -4.131  48.965 -18.316  1.00  0.00     0.046 C 
HETATM   17  C18 UNL     1      -2.166  49.540 -19.912  1.00  0.00     0.060 C 
HETATM   18  C19 UNL     1      -2.971  49.644 -21.231  1.00  0.00     0.023 C 
HETATM   19  C20 UNL     1      -2.506  51.106 -21.406  1.00  0.00     0.054 C 
HETATM   20  C21 UNL     1      -1.355  51.440 -22.314  1.00  0.00    -0.078 C 
HETATM   21  C22 UNL     1      -1.188  50.787 -23.476  1.00  0.00     0.015 C 
HETATM   22  C23 UNL     1      -0.462  52.594 -21.885  1.00  0.00     0.073 C 
HETATM   23  C24 UNL     1       0.051  52.460 -20.467  1.00  0.00    -0.044 A 
HETATM   24  C25 UNL     1       1.235  53.085 -20.062  1.00  0.00     0.010 A 
HETATM   25  C26 UNL     1       1.698  52.978 -18.744  1.00  0.00     0.031 A 
HETATM   26  C27 UNL     1       0.961  52.187 -17.854  1.00  0.00     0.044 A 
HETATM   27  N1  UNL     1       1.176  51.917 -16.508  1.00  0.00    -0.358 N 
HETATM   28  C28 UNL     1       0.198  51.080 -16.090  1.00  0.00     0.032 A 
HETATM   29  C29 UNL     1      -0.623  50.759 -17.150  1.00  0.00     0.010 A 
HETATM   30  C30 UNL     1      -0.212  51.523 -18.250  1.00  0.00     0.011 A 
HETATM   31  C31 UNL     1      -0.720  51.726 -19.544  1.00  0.00    -0.003 A 
HETATM   32  C32 UNL     1      -2.133  51.111 -19.864  1.00  0.00     0.100 C 
HETATM   33  C33 UNL     1      -0.272  50.500 -14.786  1.00  0.00     0.043 C 
HETATM   34  C34 UNL     1      -1.320  51.552 -14.271  1.00  0.00     0.026 C 
HETATM   35  C35 UNL     1       0.976  48.687 -11.528  1.00  0.00     0.147 A 
HETATM   36  O6  UNL     1       0.282  47.814 -10.580  1.00  0.00    -0.360 OA
HETATM   37  C36 UNL     1       1.370  47.243 -11.303  1.00  0.00     0.194 A 
HETATM   38  C37 UNL     1       2.580  46.952 -10.474  1.00  0.00     0.183 C 
HETATM   39  H38 UNL     1       1.925  52.303 -15.950  1.00  0.00     0.166 HD
ENDROOT
BRANCH   1  40
HETATM   40  C2  UNL     1       4.001  47.849  -8.531  1.00  0.00    -0.062 C 
HETATM   41  C1  UNL     1       4.072  46.887  -7.591  1.00  0.00     0.016 C 
HETATM   42  C3  UNL     1       5.177  48.757  -8.770  1.00  0.00     0.045 C 
ENDBRANCH   1  40
BRANCH  38  43
HETATM   43  O7  UNL     1       3.682  46.834 -11.378  1.00  0.00    -0.390 OA
HETATM   44  H45 UNL     1       4.416  47.360 -11.004  1.00  0.00     0.210 HD
ENDBRANCH  38  43
BRANCH   8  45
HETATM   45  O2  UNL     1      -0.952  49.979 -11.879  1.00  0.00    -0.386 OA
HETATM   46  H15 UNL     1      -1.280  49.429 -11.141  1.00  0.00     0.210 HD
ENDBRANCH   8  45
BRANCH  11  47
HETATM   47  O3  UNL     1      -0.056  48.207 -15.860  1.00  0.00    -0.386 OA
HETATM   48  H20 UNL     1      -0.349  47.948 -16.761  1.00  0.00     0.210 HD
ENDBRANCH  11  47
BRANCH  32  49
HETATM   49  O5  UNL     1      -3.172  51.738 -19.064  1.00  0.00    -0.384 OA
HETATM   50  H39 UNL     1      -2.949  52.687 -19.082  1.00  0.00     0.211 HD
ENDBRANCH  32  49
TORSDOF 5
ENDMDL
MODEL 7
REMARK minimizedAffinity -11.0164146
REMARK CNNscore 0.41964221
REMARK CNNaffinity 7.37120867
REMARK  5 active torsions:
REMARK  status: ('A' for Active; 'I' for Inactive)
REMARK    1  A    between atoms: C2_2  and  C4_4 
REMARK    2  A    between atoms: C10_11  and  O2_12 
REMARK    3  A    between atoms: C13_15  and  O3_16 
REMARK    4  A    between atoms: C32_37  and  O5_38 
REMARK    5  A    between atoms: C37_44  and  O7_45 
ROOT
HETATM    1  C4  UNL     1      -4.199  45.251 -15.795  1.00  0.00     0.181 C 
HETATM    2  O1  UNL     1      -3.669  46.583 -15.813  1.00  0.00    -0.370 OA
HETATM    3  C5  UNL     1      -4.218  47.442 -16.838  1.00  0.00     0.163 C 
HETATM    4  C6  UNL     1      -3.260  48.643 -16.868  1.00  0.00     0.036 C 
HETATM    5  C7  UNL     1      -3.326  49.512 -18.125  1.00  0.00     0.016 C 
HETATM    6  C8  UNL     1      -3.299  48.691 -19.452  1.00  0.00     0.006 C 
HETATM    7  C9  UNL     1      -1.963  47.885 -19.475  1.00  0.00     0.020 C 
HETATM    8  C10 UNL     1      -4.533  47.691 -19.402  1.00  0.00     0.102 C 
HETATM    9  C11 UNL     1      -4.818  46.974 -20.757  1.00  0.00     0.045 C 
HETATM   10  C12 UNL     1      -4.895  47.920 -21.988  1.00  0.00     0.045 C 
HETATM   11  C13 UNL     1      -3.622  48.743 -22.054  1.00  0.00     0.102 C 
HETATM   12  C14 UNL     1      -3.356  49.767 -23.264  1.00  0.00     0.194 C 
HETATM   13  O4  UNL     1      -2.852  48.976 -24.350  1.00  0.00    -0.367 OA
HETATM   14  C15 UNL     1      -2.923  49.488 -25.692  1.00  0.00     0.061 C 
HETATM   15  C16 UNL     1      -2.558  48.259 -26.557  1.00  0.00     0.046 C 
HETATM   16  C17 UNL     1      -4.341  49.907 -26.088  1.00  0.00     0.046 C 
HETATM   17  C18 UNL     1      -1.829  50.543 -25.940  1.00  0.00     0.060 C 
HETATM   18  C19 UNL     1      -1.673  51.168 -27.349  1.00  0.00     0.023 C 
HETATM   19  C20 UNL     1      -1.240  52.507 -26.713  1.00  0.00     0.054 C 
HETATM   20  C21 UNL     1       0.216  52.870 -26.608  1.00  0.00    -0.078 C 
HETATM   21  C22 UNL     1       1.072  52.559 -27.595  1.00  0.00     0.015 C 
HETATM   22  C23 UNL     1       0.633  53.666 -25.381  1.00  0.00     0.073 C 
HETATM   23  C24 UNL     1       0.185  53.039 -24.078  1.00  0.00    -0.044 A 
HETATM   24  C25 UNL     1       0.862  53.291 -22.880  1.00  0.00     0.010 A 
HETATM   25  C26 UNL     1       0.435  52.727 -21.672  1.00  0.00     0.031 A 
HETATM   26  C27 UNL     1      -0.667  51.864 -21.707  1.00  0.00     0.044 A 
HETATM   27  N1  UNL     1      -1.304  51.184 -20.676  1.00  0.00    -0.358 N 
HETATM   28  C28 UNL     1      -2.311  50.457 -21.215  1.00  0.00     0.032 A 
HETATM   29  C29 UNL     1      -2.311  50.612 -22.585  1.00  0.00     0.010 A 
HETATM   30  C30 UNL     1      -1.341  51.570 -22.904  1.00  0.00     0.011 A 
HETATM   31  C31 UNL     1      -0.966  52.226 -24.089  1.00  0.00    -0.003 A 
HETATM   32  C32 UNL     1      -1.877  52.000 -25.352  1.00  0.00     0.100 C 
HETATM   33  C33 UNL     1      -3.457  49.625 -20.717  1.00  0.00     0.043 C 
HETATM   34  C34 UNL     1      -4.633  50.659 -20.583  1.00  0.00     0.026 C 
HETATM   35  C35 UNL     1      -4.387  46.755 -18.195  1.00  0.00     0.147 A 
HETATM   36  O6  UNL     1      -5.487  45.790 -18.189  1.00  0.00    -0.360 OA
HETATM   37  C36 UNL     1      -4.167  45.260 -18.290  1.00  0.00     0.194 A 
HETATM   38  C37 UNL     1      -3.699  44.525 -17.076  1.00  0.00     0.183 C 
HETATM   39  H38 UNL     1      -1.058  51.248 -19.698  1.00  0.00     0.166 HD
ENDROOT
BRANCH   1  40
HETATM   40  C2  UNL     1      -3.773  44.548 -14.507  1.00  0.00    -0.062 C 
HETATM   41  C1  UNL     1      -4.116  43.287 -14.184  1.00  0.00     0.016 C 
HETATM   42  C3  UNL     1      -2.889  45.349 -13.589  1.00  0.00     0.045 C 
ENDBRANCH   1  40
BRANCH  38  43
HETATM   43  O7  UNL     1      -2.272  44.471 -17.149  1.00  0.00    -0.390 OA
HETATM   44  H45 UNL     1      -1.930  44.722 -16.269  1.00  0.00     0.210 HD
ENDBRANCH  38  43
BRANCH   8  45
HETATM   45  O2  UNL     1      -5.744  48.425 -19.130  1.00  0.00    -0.386 OA
HETATM   46  H15 UNL     1      -6.436  47.757 -18.959  1.00  0.00     0.210 HD
ENDBRANCH   8  45
BRANCH  11  47
HETATM   47  O3  UNL     1      -2.568  47.738 -22.168  1.00  0.00    -0.386 OA
HETATM   48  H20 UNL     1      -2.247  47.807 -23.094  1.00  0.00     0.210 HD
ENDBRANCH  11  47
BRANCH  32  49
HETATM   49  O5  UNL     1      -3.207  52.551 -25.146  1.00  0.00    -0.384 OA
HETATM   50  H39 UNL     1      -3.046  53.407 -24.707  1.00  0.00     0.211 HD
ENDBRANCH  32  49
TORSDOF 5
ENDMDL
MODEL 8
REMARK minimizedAffinity -10.7720432
REMARK CNNscore 0.418299943
REMARK CNNaffinity 7.17345619
REMARK  5 active torsions:
REMARK  status: ('A' for Active; 'I' for Inactive)
REMARK    1  A    between atoms: C2_2  and  C4_4 
REMARK    2  A    between atoms: C10_11  and  O2_12 
REMARK    3  A    between atoms: C13_15  and  O3_16 
REMARK    4  A    between atoms: C32_37  and  O5_38 
REMARK    5  A    between atoms: C37_44  and  O7_45 
ROOT
HETATM    1  C4  UNL     1      -0.142  47.701 -11.059  1.00  0.00     0.181 C 
HETATM    2  O1  UNL     1       0.127  48.994 -11.617  1.00  0.00    -0.370 OA
HETATM    3  C5  UNL     1      -0.836  49.445 -12.598  1.00  0.00     0.163 C 
HETATM    4  C6  UNL     1      -0.146  50.641 -13.272  1.00  0.00     0.036 C 
HETATM    5  C7  UNL     1      -0.722  51.063 -14.623  1.00  0.00     0.016 C 
HETATM    6  C8  UNL     1      -0.948  49.871 -15.604  1.00  0.00     0.006 C 
HETATM    7  C9  UNL     1       0.439  49.196 -15.846  1.00  0.00     0.020 C 
HETATM    8  C10 UNL     1      -1.926  48.851 -14.876  1.00  0.00     0.102 C 
HETATM    9  C11 UNL     1      -2.470  47.726 -15.808  1.00  0.00     0.045 C 
HETATM   10  C12 UNL     1      -3.063  48.228 -17.154  1.00  0.00     0.045 C 
HETATM   11  C13 UNL     1      -2.024  49.078 -17.861  1.00  0.00     0.102 C 
HETATM   12  C14 UNL     1      -2.300  49.686 -19.323  1.00  0.00     0.194 C 
HETATM   13  O4  UNL     1      -2.012  48.631 -20.253  1.00  0.00    -0.367 OA
HETATM   14  C15 UNL     1      -2.558  48.689 -21.581  1.00  0.00     0.061 C 
HETATM   15  C16 UNL     1      -2.260  47.280 -22.146  1.00  0.00     0.046 C 
HETATM   16  C17 UNL     1      -4.079  48.859 -21.585  1.00  0.00     0.046 C 
HETATM   17  C18 UNL     1      -1.779  49.689 -22.457  1.00  0.00     0.060 C 
HETATM   18  C19 UNL     1      -2.151  49.848 -23.953  1.00  0.00     0.023 C 
HETATM   19  C20 UNL     1      -1.783  51.346 -23.890  1.00  0.00     0.054 C 
HETATM   20  C21 UNL     1      -0.444  51.827 -24.377  1.00  0.00    -0.078 C 
HETATM   21  C22 UNL     1       0.125  51.284 -25.465  1.00  0.00     0.015 C 
HETATM   22  C23 UNL     1       0.174  52.997 -23.625  1.00  0.00     0.073 C 
HETATM   23  C24 UNL     1       0.240  52.781 -22.129  1.00  0.00    -0.044 A 
HETATM   24  C25 UNL     1       1.186  53.445 -21.341  1.00  0.00     0.010 A 
HETATM   25  C26 UNL     1       1.234  53.261 -19.953  1.00  0.00     0.031 A 
HETATM   26  C27 UNL     1       0.332  52.354 -19.383  1.00  0.00     0.044 A 
HETATM   27  N1  UNL     1       0.150  51.988 -18.055  1.00  0.00    -0.358 N 
HETATM   28  C28 UNL     1      -0.833  51.059 -18.009  1.00  0.00     0.032 A 
HETATM   29  C29 UNL     1      -1.261  50.774 -19.288  1.00  0.00     0.010 A 
HETATM   30  C30 UNL     1      -0.603  51.650 -20.160  1.00  0.00     0.011 A 
HETATM   31  C31 UNL     1      -0.709  51.926 -21.534  1.00  0.00    -0.003 A 
HETATM   32  C32 UNL     1      -1.898  51.249 -22.311  1.00  0.00     0.100 C 
HETATM   33  C33 UNL     1      -1.625  50.345 -16.951  1.00  0.00     0.043 C 
HETATM   34  C34 UNL     1      -2.867  51.281 -16.726  1.00  0.00     0.026 C 
HETATM   35  C35 UNL     1      -1.276  48.355 -13.577  1.00  0.00     0.147 A 
HETATM   36  O6  UNL     1      -2.147  47.365 -12.944  1.00  0.00    -0.360 OA
HETATM   37  C36 UNL     1      -0.845  46.927 -13.325  1.00  0.00     0.194 A 
HETATM   38  C37 UNL     1       0.076  46.647 -12.182  1.00  0.00     0.183 C 
HETATM   39  H38 UNL     1       0.658  52.375 -17.271  1.00  0.00     0.166 HD
ENDROOT
BRANCH   1  40
HETATM   40  C2  UNL     1       0.755  47.471  -9.845  1.00  0.00    -0.062 C 
HETATM   41  C1  UNL     1       0.396  47.745  -8.576  1.00  0.00     0.016 C 
HETATM   42  C3  UNL     1       2.105  46.871 -10.134  1.00  0.00     0.045 C 
ENDBRANCH   1  40
BRANCH  38  43
HETATM   43  O7  UNL     1       1.406  46.675 -12.705  1.00  0.00    -0.390 OA
HETATM   44  H45 UNL     1       1.943  47.214 -12.092  1.00  0.00     0.210 HD
ENDBRANCH  38  43
BRANCH   8  45
HETATM   45  O2  UNL     1      -3.109  49.545 -14.433  1.00  0.00    -0.386 OA
HETATM   46  H15 UNL     1      -3.597  48.917 -13.865  1.00  0.00     0.210 HD
ENDBRANCH   8  45
BRANCH  11  47
HETATM   47  O3  UNL     1      -0.895  48.167 -18.037  1.00  0.00    -0.386 OA
HETATM   48  H20 UNL     1      -0.876  47.964 -18.997  1.00  0.00     0.210 HD
ENDBRANCH  11  47
BRANCH  32  49
HETATM   49  O5  UNL     1      -3.182  51.740 -21.837  1.00  0.00    -0.384 OA
HETATM   50  H39 UNL     1      -3.047  52.699 -21.730  1.00  0.00     0.211 HD
ENDBRANCH  32  49
TORSDOF 5
ENDMDL
MODEL 9
REMARK minimizedAffinity -7.95045662
REMARK CNNscore 0.388593495
REMARK CNNaffinity 6.91519022
REMARK  5 active torsions:
REMARK  status: ('A' for Active; 'I' for Inactive)
REMARK    1  A    between atoms: C2_2  and  C4_4 
REMARK    2  A    between atoms: C10_11  and  O2_12 
REMARK    3  A    between atoms: C13_15  and  O3_16 
REMARK    4  A    between atoms: C32_37  and  O5_38 
REMARK    5  A    between atoms: C37_44  and  O7_45 
ROOT
HETATM    1  C4  UNL     1      -2.967  48.802 -17.513  1.00  0.00     0.181 C 
HETATM    2  O1  UNL     1      -1.967  48.091 -16.771  1.00  0.00    -0.370 OA
HETATM    3  C5  UNL     1      -1.879  48.450 -15.372  1.00  0.00     0.163 C 
HETATM    4  C6  UNL     1      -0.547  47.834 -14.915  1.00  0.00     0.036 C 
HETATM    5  C7  UNL     1       0.029  48.394 -13.614  1.00  0.00     0.016 C 
HETATM    6  C8  UNL     1       0.039  49.953 -13.556  1.00  0.00     0.006 C 
HETATM    7  C9  UNL     1       0.916  50.459 -14.744  1.00  0.00     0.020 C 
HETATM    8  C10 UNL     1      -1.464  50.433 -13.751  1.00  0.00     0.102 C 
HETATM    9  C11 UNL     1      -1.684  51.949 -13.461  1.00  0.00     0.045 C 
HETATM   10  C12 UNL     1      -1.094  52.444 -12.111  1.00  0.00     0.045 C 
HETATM   11  C13 UNL     1       0.378  52.077 -12.055  1.00  0.00     0.102 C 
HETATM   12  C14 UNL     1       1.300  52.520 -10.815  1.00  0.00     0.194 C 
HETATM   13  O4  UNL     1       1.689  53.878 -11.075  1.00  0.00    -0.367 OA
HETATM   14  C15 UNL     1       2.140  54.705  -9.990  1.00  0.00     0.061 C 
HETATM   15  C16 UNL     1       2.183  56.118 -10.619  1.00  0.00     0.046 C 
HETATM   16  C17 UNL     1       1.136  54.761  -8.836  1.00  0.00     0.046 C 
HETATM   17  C18 UNL     1       3.587  54.356  -9.591  1.00  0.00     0.060 C 
HETATM   18  C19 UNL     1       4.299  55.183  -8.492  1.00  0.00     0.023 C 
HETATM   19  C20 UNL     1       5.063  53.923  -8.031  1.00  0.00     0.054 C 
HETATM   20  C21 UNL     1       6.476  53.675  -8.482  1.00  0.00    -0.078 C 
HETATM   21  C22 UNL     1       7.345  54.692  -8.602  1.00  0.00     0.015 C 
HETATM   22  C23 UNL     1       6.874  52.225  -8.710  1.00  0.00     0.073 C 
HETATM   23  C24 UNL     1       5.926  51.479  -9.623  1.00  0.00    -0.044 A 
HETATM   24  C25 UNL     1       6.348  50.362 -10.353  1.00  0.00     0.010 A 
HETATM   25  C26 UNL     1       5.465  49.660 -11.182  1.00  0.00     0.031 A 
HETATM   26  C27 UNL     1       4.153  50.137 -11.293  1.00  0.00     0.044 A 
HETATM   27  N1  UNL     1       3.079  49.641 -12.022  1.00  0.00    -0.358 N 
HETATM   28  C28 UNL     1       2.023  50.465 -11.822  1.00  0.00     0.032 A 
HETATM   29  C29 UNL     1       2.403  51.516 -11.017  1.00  0.00     0.010 A 
HETATM   30  C30 UNL     1       3.717  51.276 -10.597  1.00  0.00     0.011 A 
HETATM   31  C31 UNL     1       4.585  51.907  -9.688  1.00  0.00    -0.003 A 
HETATM   32  C32 UNL     1       3.979  53.055  -8.799  1.00  0.00     0.100 C 
HETATM   33  C33 UNL     1       0.560  50.481 -12.161  1.00  0.00     0.043 C 
HETATM   34  C34 UNL     1      -0.110  49.762 -10.935  1.00  0.00     0.026 C 
HETATM   35  C35 UNL     1      -1.983  49.955 -15.113  1.00  0.00     0.147 A 
HETATM   36  O6  UNL     1      -3.342  50.455 -15.321  1.00  0.00    -0.360 OA
HETATM   37  C36 UNL     1      -2.354  50.871 -16.259  1.00  0.00     0.194 A 
HETATM   38  C37 UNL     1      -2.509  50.284 -17.625  1.00  0.00     0.183 C 
HETATM   39  H38 UNL     1       3.096  48.800 -12.582  1.00  0.00     0.166 HD
ENDROOT
BRANCH   1  40
HETATM   40  C2  UNL     1      -3.164  48.135 -18.873  1.00  0.00    -0.062 C 
HETATM   41  C1  UNL     1      -2.662  46.931 -19.205  1.00  0.00     0.016 C 
HETATM   42  C3  UNL     1      -4.007  48.899 -19.859  1.00  0.00     0.045 C 
ENDBRANCH   1  40
BRANCH  38  43
HETATM   43  O7  UNL     1      -1.244  50.415 -18.279  1.00  0.00    -0.390 OA
HETATM   44  H45 UNL     1      -1.046  49.554 -18.696  1.00  0.00     0.210 HD
ENDBRANCH  38  43
BRANCH   8  45
HETATM   45  O2  UNL     1      -2.315  49.765 -12.798  1.00  0.00    -0.386 OA
HETATM   46  H15 UNL     1      -3.233  49.974 -13.058  1.00  0.00     0.210 HD
ENDBRANCH   8  45
BRANCH  11  47
HETATM   47  O3  UNL     1       0.947  52.761 -13.215  1.00  0.00    -0.386 OA
HETATM   48  H20 UNL     1       1.475  53.500 -12.843  1.00  0.00     0.210 HD
ENDBRANCH  11  47
BRANCH  32  49
HETATM   49  O5  UNL     1       2.966  52.541  -7.893  1.00  0.00    -0.384 OA
HETATM   50  H39 UNL     1       3.344  51.705  -7.562  1.00  0.00     0.211 HD
ENDBRANCH  32  49
TORSDOF 5
ENDMDL
