MODEL 1
REMARK minimizedAffinity -7.12451935
REMARK CNNscore 0.721950471
REMARK CNNaffinity 6.57321024
REMARK  16 active torsions:
REMARK  status: ('A' for Active; 'I' for Inactive)
REMARK    1  A    between atoms: S1_2  and  C2_3 
REMARK    2  A    between atoms: C2_3  and  C3_4 
REMARK    3  A    between atoms: C3_4  and  C4_5 
REMARK    4  A    between atoms: C4_5  and  N1_6 
REMARK    5  A    between atoms: C4_5  and  C33_44 
REMARK       I    between atoms: N1_6  and  C5_7 
REMARK    6  A    between atoms: C5_7  and  C6_9 
REMARK    7  A    between atoms: C6_9  and  N2_11 
REMARK       I    between atoms: N2_11  and  C8_12 
REMARK    8  A    between atoms: C8_12  and  C9_14 
REMARK    9  A    between atoms: C9_14  and  C10_15 
REMARK   10  A    between atoms: C10_15  and  C11_16 
REMARK   11  A    between atoms: C11_16  and  O4_18 
REMARK   12  A    between atoms: O4_18  and  C12_19 
REMARK   13  A    between atoms: C12_19  and  C13_20 
REMARK   14  A    between atoms: C13_20  and  C14_22 
REMARK   15  A    between atoms: C14_22  and  O6_23 
REMARK   16  A    between atoms: C33_44  and  O10_46 
ROOT
HETATM    1  C12 UNL     1     -12.669  11.074  20.003  1.00  0.00     0.260 C 
ENDROOT
BRANCH   1   2
HETATM    2  O4  UNL     1     -11.316  11.486  19.834  1.00  0.00    -0.314 OA
BRANCH   2   3
HETATM    3  C11 UNL     1     -10.867  11.515  18.553  1.00  0.00     0.259 C 
HETATM    4  O3  UNL     1     -10.044  12.313  18.126  1.00  0.00    -0.265 OA
BRANCH   3   5
HETATM    5  C10 UNL     1     -11.580  10.492  17.707  1.00  0.00     0.120 C 
BRANCH   5   6
HETATM    6  C9  UNL     1     -10.782   9.195  17.652  1.00  0.00     0.112 C 
BRANCH   6   7
HETATM    7  C8  UNL     1     -10.297   8.910  16.247  1.00  0.00     0.218 C 
HETATM    8  N2  UNL     1      -9.713   7.677  16.096  1.00  0.00    -0.348 N 
HETATM    9  H14 UNL     1      -9.464   7.147  16.923  1.00  0.00     0.163 HD
HETATM   10  O2  UNL     1     -10.373   9.722  15.330  1.00  0.00    -0.274 OA
BRANCH   8  11
HETATM   11  C6  UNL     1      -9.151   7.236  14.816  1.00  0.00     0.172 C 
HETATM   12  C7  UNL     1     -10.270   6.803  13.878  1.00  0.00     0.042 C 
BRANCH  11  13
HETATM   13  C5  UNL     1      -8.125   6.098  15.021  1.00  0.00     0.240 C 
HETATM   14  N1  UNL     1      -8.009   5.229  13.954  1.00  0.00    -0.345 N 
HETATM   15  H9  UNL     1      -8.755   5.242  13.259  1.00  0.00     0.163 HD
HETATM   16  O1  UNL     1      -7.531   5.910  16.081  1.00  0.00    -0.271 OA
BRANCH  14  17
HETATM   17  C4  UNL     1      -7.163   4.040  14.020  1.00  0.00     0.183 C 
BRANCH  17  18
HETATM   18  C3  UNL     1      -5.729   4.322  13.548  1.00  0.00     0.046 C 
BRANCH  18  19
HETATM   19  C2  UNL     1      -5.565   4.190  12.032  1.00  0.00     0.076 C 
BRANCH  19  20
HETATM   20  S1  UNL     1      -3.859   3.761  11.542  1.00  0.00    -0.173 SA
HETATM   21  C1  UNL     1      -3.925   1.962  11.712  1.00  0.00     0.089 C 
ENDBRANCH  19  20
ENDBRANCH  18  19
ENDBRANCH  17  18
BRANCH  17  22
HETATM   22  C33 UNL     1      -7.802   2.918  13.205  1.00  0.00     0.163 C 
HETATM   23  O9  UNL     1      -7.332   1.807  13.013  1.00  0.00    -0.648 OA
BRANCH  22  24
HETATM   24  O10 UNL     1      -9.009   3.248  12.701  1.00  0.00    -0.775 OA
HETATM   25  H46 UNL     1      -9.285   2.457  12.190  1.00  0.00     0.167 HD
ENDBRANCH  22  24
ENDBRANCH  17  22
ENDBRANCH  14  17
ENDBRANCH  11  13
ENDBRANCH   8  11
ENDBRANCH   6   7
ENDBRANCH   5   6
ENDBRANCH   3   5
ENDBRANCH   2   3
ENDBRANCH   1   2
BRANCH   1  26
HETATM   26  C13 UNL     1     -13.234  10.738  21.389  1.00  0.00     0.185 C 
HETATM   27  O5  UNL     1     -14.269  11.290  21.776  1.00  0.00    -0.292 OA
BRANCH  26  28
HETATM   28  C14 UNL     1     -12.504   9.706  22.280  1.00  0.00     0.128 C 
HETATM   29  C15 UNL     1     -11.986  10.238  23.645  1.00  0.00     0.047 C 
HETATM   30  C16 UNL     1     -12.083   9.074  24.657  1.00  0.00     0.009 C 
HETATM   31  C17 UNL     1     -12.472   7.879  23.802  1.00  0.00     0.002 C 
HETATM   32  C18 UNL     1     -12.950   6.581  24.475  1.00  0.00     0.003 C 
HETATM   33  C31 UNL     1     -13.396   8.491  22.709  1.00  0.00     0.005 C 
HETATM   34  C19 UNL     1     -14.039   6.740  25.554  1.00  0.00     0.010 C 
HETATM   35  C28 UNL     1     -13.282   5.518  23.381  1.00  0.00     0.072 C 
HETATM   36  C20 UNL     1     -15.032   5.578  25.608  1.00  0.00     0.035 C 
HETATM   37  C21 UNL     1     -14.291   4.290  25.392  1.00  0.00    -0.067 C 
HETATM   38  C22 UNL     1     -14.126   3.409  26.393  1.00  0.00     0.053 C 
HETATM   39  C26 UNL     1     -13.674   4.121  24.004  1.00  0.00    -0.009 C 
HETATM   40  C23 UNL     1     -13.288   2.196  26.235  1.00  0.00     0.149 C 
HETATM   41  O7  UNL     1     -13.235   1.381  27.152  1.00  0.00    -0.293 OA
HETATM   42  C24 UNL     1     -12.533   1.993  24.945  1.00  0.00     0.084 C 
HETATM   43  C25 UNL     1     -12.359   3.296  24.169  1.00  0.00     0.022 C 
HETATM   44  C27 UNL     1     -14.643   3.309  23.120  1.00  0.00     0.021 C 
HETATM   45  C29 UNL     1     -14.208   6.178  22.339  1.00  0.00     0.133 C 
HETATM   46  O8  UNL     1     -15.343   5.789  22.078  1.00  0.00    -0.297 OA
HETATM   47  C30 UNL     1     -13.637   7.410  21.643  1.00  0.00     0.091 C 
HETATM   48  C32 UNL     1     -14.770   8.992  23.226  1.00  0.00     0.019 C 
BRANCH  28  49
HETATM   49  O6  UNL     1     -11.374   9.199  21.551  1.00  0.00    -0.381 OA
HETATM   50  H21 UNL     1     -11.069   9.890  20.922  1.00  0.00     0.211 HD
ENDBRANCH  28  49
ENDBRANCH  26  28
ENDBRANCH   1  26
TORSDOF 16
ENDMDL
MODEL 2
REMARK minimizedAffinity -8.44758606
REMARK CNNscore 0.494828671
REMARK CNNaffinity 7.2184124
REMARK  16 active torsions:
REMARK  status: ('A' for Active; 'I' for Inactive)
REMARK    1  A    between atoms: S1_2  and  C2_3 
REMARK    2  A    between atoms: C2_3  and  C3_4 
REMARK    3  A    between atoms: C3_4  and  C4_5 
REMARK    4  A    between atoms: C4_5  and  N1_6 
REMARK    5  A    between atoms: C4_5  and  C33_44 
REMARK       I    between atoms: N1_6  and  C5_7 
REMARK    6  A    between atoms: C5_7  and  C6_9 
REMARK    7  A    between atoms: C6_9  and  N2_11 
REMARK       I    between atoms: N2_11  and  C8_12 
REMARK    8  A    between atoms: C8_12  and  C9_14 
REMARK    9  A    between atoms: C9_14  and  C10_15 
REMARK   10  A    between atoms: C10_15  and  C11_16 
REMARK   11  A    between atoms: C11_16  and  O4_18 
REMARK   12  A    between atoms: O4_18  and  C12_19 
REMARK   13  A    between atoms: C12_19  and  C13_20 
REMARK   14  A    between atoms: C13_20  and  C14_22 
REMARK   15  A    between atoms: C14_22  and  O6_23 
REMARK   16  A    between atoms: C33_44  and  O10_46 
ROOT
HETATM    1  C12 UNL     1      -4.926   6.548  13.939  1.00  0.00     0.260 C 
ENDROOT
BRANCH   1   2
HETATM    2  O4  UNL     1      -5.619   5.839  14.961  1.00  0.00    -0.314 OA
BRANCH   2   3
HETATM    3  C11 UNL     1      -6.964   5.745  14.802  1.00  0.00     0.259 C 
HETATM    4  O3  UNL     1      -7.769   5.709  15.722  1.00  0.00    -0.265 OA
BRANCH   3   5
HETATM    5  C10 UNL     1      -7.327   5.600  13.346  1.00  0.00     0.120 C 
BRANCH   5   6
HETATM    6  C9  UNL     1      -8.182   4.356  13.131  1.00  0.00     0.112 C 
BRANCH   6   7
HETATM    7  C8  UNL     1      -7.349   3.201  12.619  1.00  0.00     0.218 C 
HETATM    8  N2  UNL     1      -6.338   3.573  11.769  1.00  0.00    -0.348 N 
HETATM    9  H14 UNL     1      -6.337   4.513  11.389  1.00  0.00     0.163 HD
HETATM   10  O2  UNL     1      -7.580   2.028  12.898  1.00  0.00    -0.274 OA
BRANCH   8  11
HETATM   11  C6  UNL     1      -5.449   2.590  11.143  1.00  0.00     0.172 C 
HETATM   12  C7  UNL     1      -6.013   1.187  11.328  1.00  0.00     0.042 C 
BRANCH  11  13
HETATM   13  C5  UNL     1      -4.016   2.693  11.714  1.00  0.00     0.240 C 
HETATM   14  N1  UNL     1      -3.015   2.381  10.816  1.00  0.00    -0.345 N 
HETATM   15  H9  UNL     1      -3.286   1.876   9.972  1.00  0.00     0.163 HD
HETATM   16  O1  UNL     1      -3.778   2.931  12.897  1.00  0.00    -0.271 OA
BRANCH  14  17
HETATM   17  C4  UNL     1      -1.612   2.326  11.218  1.00  0.00     0.183 C 
BRANCH  17  18
HETATM   18  C3  UNL     1      -0.902   3.676  11.030  1.00  0.00     0.046 C 
BRANCH  18  19
HETATM   19  C2  UNL     1       0.086   3.991  12.156  1.00  0.00     0.076 C 
BRANCH  19  20
HETATM   20  S1  UNL     1       0.798   5.667  12.021  1.00  0.00    -0.173 SA
HETATM   21  C1  UNL     1       2.048   5.377  10.747  1.00  0.00     0.089 C 
ENDBRANCH  19  20
ENDBRANCH  18  19
ENDBRANCH  17  18
BRANCH  17  22
HETATM   22  C33 UNL     1      -0.905   1.219  10.440  1.00  0.00     0.163 C 
HETATM   23  O9  UNL     1      -0.939   1.051   9.230  1.00  0.00    -0.648 OA
BRANCH  22  24
HETATM   24  O10 UNL     1      -0.171   0.403  11.224  1.00  0.00    -0.775 OA
HETATM   25  H46 UNL     1       0.200  -0.262  10.605  1.00  0.00     0.167 HD
ENDBRANCH  22  24
ENDBRANCH  17  22
ENDBRANCH  14  17
ENDBRANCH  11  13
ENDBRANCH   8  11
ENDBRANCH   6   7
ENDBRANCH   5   6
ENDBRANCH   3   5
ENDBRANCH   2   3
ENDBRANCH   1   2
BRANCH   1  26
HETATM   26  C13 UNL     1      -3.399   6.474  13.809  1.00  0.00     0.185 C 
HETATM   27  O5  UNL     1      -2.895   6.056  12.762  1.00  0.00    -0.292 OA
BRANCH  26  28
HETATM   28  C14 UNL     1      -2.511   6.931  14.991  1.00  0.00     0.128 C 
HETATM   29  C15 UNL     1      -1.077   6.333  15.028  1.00  0.00     0.047 C 
HETATM   30  C16 UNL     1      -0.148   7.410  15.633  1.00  0.00     0.009 C 
HETATM   31  C17 UNL     1      -1.104   8.502  16.088  1.00  0.00     0.002 C 
HETATM   32  C18 UNL     1      -0.553   9.882  16.488  1.00  0.00     0.003 C 
HETATM   33  C31 UNL     1      -2.235   8.473  15.019  1.00  0.00     0.005 C 
HETATM   34  C19 UNL     1       0.435  10.527  15.496  1.00  0.00     0.010 C 
HETATM   35  C28 UNL     1      -1.733  10.810  16.914  1.00  0.00     0.072 C 
HETATM   36  C20 UNL     1       0.333  12.052  15.425  1.00  0.00     0.035 C 
HETATM   37  C21 UNL     1       0.106  12.593  16.807  1.00  0.00    -0.067 C 
HETATM   38  C22 UNL     1       1.063  13.285  17.446  1.00  0.00     0.053 C 
HETATM   39  C26 UNL     1      -1.231  12.210  17.442  1.00  0.00    -0.009 C 
HETATM   40  C23 UNL     1       0.907  13.714  18.857  1.00  0.00     0.149 C 
HETATM   41  O7  UNL     1       1.774  14.415  19.370  1.00  0.00    -0.293 OA
HETATM   42  C24 UNL     1      -0.322  13.285  19.619  1.00  0.00     0.084 C 
HETATM   43  C25 UNL     1      -1.001  12.076  18.980  1.00  0.00     0.022 C 
HETATM   44  C27 UNL     1      -2.242  13.351  17.206  1.00  0.00     0.021 C 
HETATM   45  C29 UNL     1      -2.810  10.750  15.812  1.00  0.00     0.133 C 
HETATM   46  O8  UNL     1      -3.192  11.721  15.164  1.00  0.00    -0.297 OA
HETATM   47  C30 UNL     1      -3.379   9.363  15.528  1.00  0.00     0.091 C 
HETATM   48  C32 UNL     1      -1.810   8.967  13.611  1.00  0.00     0.019 C 
BRANCH  28  49
HETATM   49  O6  UNL     1      -3.168   6.568  16.216  1.00  0.00    -0.381 OA
HETATM   50  H21 UNL     1      -3.725   5.776  16.053  1.00  0.00     0.211 HD
ENDBRANCH  28  49
ENDBRANCH  26  28
ENDBRANCH   1  26
TORSDOF 16
ENDMDL
MODEL 3
REMARK minimizedAffinity -7.55193138
REMARK CNNscore 0.402294189
REMARK CNNaffinity 7.13882685
REMARK  16 active torsions:
REMARK  status: ('A' for Active; 'I' for Inactive)
REMARK    1  A    between atoms: S1_2  and  C2_3 
REMARK    2  A    between atoms: C2_3  and  C3_4 
REMARK    3  A    between atoms: C3_4  and  C4_5 
REMARK    4  A    between atoms: C4_5  and  N1_6 
REMARK    5  A    between atoms: C4_5  and  C33_44 
REMARK       I    between atoms: N1_6  and  C5_7 
REMARK    6  A    between atoms: C5_7  and  C6_9 
REMARK    7  A    between atoms: C6_9  and  N2_11 
REMARK       I    between atoms: N2_11  and  C8_12 
REMARK    8  A    between atoms: C8_12  and  C9_14 
REMARK    9  A    between atoms: C9_14  and  C10_15 
REMARK   10  A    between atoms: C10_15  and  C11_16 
REMARK   11  A    between atoms: C11_16  and  O4_18 
REMARK   12  A    between atoms: O4_18  and  C12_19 
REMARK   13  A    between atoms: C12_19  and  C13_20 
REMARK   14  A    between atoms: C13_20  and  C14_22 
REMARK   15  A    between atoms: C14_22  and  O6_23 
REMARK   16  A    between atoms: C33_44  and  O10_46 
ROOT
HETATM    1  C12 UNL     1      -3.969   5.285  13.214  1.00  0.00     0.260 C 
ENDROOT
BRANCH   1   2
HETATM    2  O4  UNL     1      -4.253   4.445  12.101  1.00  0.00    -0.314 OA
BRANCH   2   3
HETATM    3  C11 UNL     1      -3.173   4.014  11.399  1.00  0.00     0.259 C 
HETATM    4  O3  UNL     1      -3.132   3.919  10.180  1.00  0.00    -0.265 OA
BRANCH   3   5
HETATM    5  C10 UNL     1      -2.064   3.584  12.324  1.00  0.00     0.120 C 
BRANCH   5   6
HETATM    6  C9  UNL     1      -0.834   3.169  11.525  1.00  0.00     0.112 C 
BRANCH   6   7
HETATM    7  C8  UNL     1       0.344   4.071  11.827  1.00  0.00     0.218 C 
HETATM    8  N2  UNL     1       0.154   4.898  12.904  1.00  0.00    -0.348 N 
HETATM    9  H14 UNL     1      -0.779   5.005  13.284  1.00  0.00     0.163 HD
HETATM   10  O2  UNL     1       1.364   4.098  11.144  1.00  0.00    -0.274 OA
BRANCH   8  11
HETATM   11  C6  UNL     1       1.170   5.867  13.327  1.00  0.00     0.172 C 
HETATM   12  C7  UNL     1       0.588   6.805  14.377  1.00  0.00     0.042 C 
BRANCH  11  13
HETATM   13  C5  UNL     1       1.722   6.658  12.119  1.00  0.00     0.240 C 
HETATM   14  N1  UNL     1       3.057   6.437  11.849  1.00  0.00    -0.345 N 
HETATM   15  H9  UNL     1       3.617   6.003  12.583  1.00  0.00     0.163 HD
HETATM   16  O1  UNL     1       1.063   7.496  11.506  1.00  0.00    -0.271 OA
BRANCH  14  17
HETATM   17  C4  UNL     1       3.764   7.181  10.808  1.00  0.00     0.183 C 
BRANCH  17  18
HETATM   18  C3  UNL     1       3.295   6.791   9.398  1.00  0.00     0.046 C 
BRANCH  18  19
HETATM   19  C2  UNL     1       2.990   8.003   8.516  1.00  0.00     0.076 C 
BRANCH  19  20
HETATM   20  S1  UNL     1       1.331   7.925   7.757  1.00  0.00    -0.173 SA
HETATM   21  C1  UNL     1       1.726   7.048   6.226  1.00  0.00     0.089 C 
ENDBRANCH  19  20
ENDBRANCH  18  19
ENDBRANCH  17  18
BRANCH  17  22
HETATM   22  C33 UNL     1       5.267   6.970  10.967  1.00  0.00     0.163 C 
HETATM   23  O9  UNL     1       6.148   7.579  10.379  1.00  0.00    -0.648 OA
BRANCH  22  24
HETATM   24  O10 UNL     1       5.579   6.025  11.878  1.00  0.00    -0.775 OA
HETATM   25  H46 UNL     1       6.559   5.979  11.858  1.00  0.00     0.167 HD
ENDBRANCH  22  24
ENDBRANCH  17  22
ENDBRANCH  14  17
ENDBRANCH  11  13
ENDBRANCH   8  11
ENDBRANCH   6   7
ENDBRANCH   5   6
ENDBRANCH   3   5
ENDBRANCH   2   3
ENDBRANCH   1   2
BRANCH   1  26
HETATM   26  C13 UNL     1      -3.349   6.677  13.027  1.00  0.00     0.185 C 
HETATM   27  O5  UNL     1      -2.276   6.791  12.427  1.00  0.00    -0.292 OA
BRANCH  26  28
HETATM   28  C14 UNL     1      -4.084   7.918  13.586  1.00  0.00     0.128 C 
HETATM   29  C15 UNL     1      -5.374   7.628  14.403  1.00  0.00     0.047 C 
HETATM   30  C16 UNL     1      -5.475   8.711  15.500  1.00  0.00     0.009 C 
HETATM   31  C17 UNL     1      -4.354   9.679  15.160  1.00  0.00     0.002 C 
HETATM   32  C18 UNL     1      -3.933  10.751  16.181  1.00  0.00     0.003 C 
HETATM   33  C31 UNL     1      -3.231   8.762  14.593  1.00  0.00     0.005 C 
HETATM   34  C19 UNL     1      -3.682  10.252  17.618  1.00  0.00     0.010 C 
HETATM   35  C28 UNL     1      -2.772  11.609  15.588  1.00  0.00     0.072 C 
HETATM   36  C20 UNL     1      -2.568  11.005  18.348  1.00  0.00     0.035 C 
HETATM   37  C21 UNL     1      -2.653  12.463  18.002  1.00  0.00    -0.067 C 
HETATM   38  C22 UNL     1      -3.042  13.370  18.913  1.00  0.00     0.053 C 
HETATM   39  C26 UNL     1      -2.364  12.801  16.540  1.00  0.00    -0.009 C 
HETATM   40  C23 UNL     1      -3.257  14.793  18.556  1.00  0.00     0.149 C 
HETATM   41  O7  UNL     1      -3.533  15.599  19.440  1.00  0.00    -0.293 OA
HETATM   42  C24 UNL     1      -3.119  15.213  17.113  1.00  0.00     0.084 C 
HETATM   43  C25 UNL     1      -3.245  14.030  16.156  1.00  0.00     0.022 C 
HETATM   44  C27 UNL     1      -0.883  13.211  16.403  1.00  0.00     0.021 C 
HETATM   45  C29 UNL     1      -1.690  10.647  15.058  1.00  0.00     0.133 C 
HETATM   46  O8  UNL     1      -0.532  10.617  15.466  1.00  0.00    -0.297 OA
HETATM   47  C30 UNL     1      -2.153   9.670  13.982  1.00  0.00     0.091 C 
HETATM   48  C32 UNL     1      -2.562   7.832  15.640  1.00  0.00     0.019 C 
BRANCH  28  49
HETATM   49  O6  UNL     1      -4.446   8.764  12.483  1.00  0.00    -0.381 OA
HETATM   50  H21 UNL     1      -4.569   8.205  11.684  1.00  0.00     0.211 HD
ENDBRANCH  28  49
ENDBRANCH  26  28
ENDBRANCH   1  26
TORSDOF 16
ENDMDL
MODEL 4
REMARK minimizedAffinity -7.77443027
REMARK CNNscore 0.381871074
REMARK CNNaffinity 6.83774328
REMARK  16 active torsions:
REMARK  status: ('A' for Active; 'I' for Inactive)
REMARK    1  A    between atoms: S1_2  and  C2_3 
REMARK    2  A    between atoms: C2_3  and  C3_4 
REMARK    3  A    between atoms: C3_4  and  C4_5 
REMARK    4  A    between atoms: C4_5  and  N1_6 
REMARK    5  A    between atoms: C4_5  and  C33_44 
REMARK       I    between atoms: N1_6  and  C5_7 
REMARK    6  A    between atoms: C5_7  and  C6_9 
REMARK    7  A    between atoms: C6_9  and  N2_11 
REMARK       I    between atoms: N2_11  and  C8_12 
REMARK    8  A    between atoms: C8_12  and  C9_14 
REMARK    9  A    between atoms: C9_14  and  C10_15 
REMARK   10  A    between atoms: C10_15  and  C11_16 
REMARK   11  A    between atoms: C11_16  and  O4_18 
REMARK   12  A    between atoms: O4_18  and  C12_19 
REMARK   13  A    between atoms: C12_19  and  C13_20 
REMARK   14  A    between atoms: C13_20  and  C14_22 
REMARK   15  A    between atoms: C14_22  and  O6_23 
REMARK   16  A    between atoms: C33_44  and  O10_46 
ROOT
HETATM    1  C12 UNL     1      -4.617   7.943  14.981  1.00  0.00     0.260 C 
ENDROOT
BRANCH   1   2
HETATM    2  O4  UNL     1      -4.817   6.545  15.166  1.00  0.00    -0.314 OA
BRANCH   2   3
HETATM    3  C11 UNL     1      -6.017   6.064  14.749  1.00  0.00     0.259 C 
HETATM    4  O3  UNL     1      -6.366   5.996  13.579  1.00  0.00    -0.265 OA
BRANCH   3   5
HETATM    5  C10 UNL     1      -6.894   5.709  15.922  1.00  0.00     0.120 C 
BRANCH   5   6
HETATM    6  C9  UNL     1      -7.468   6.969  16.559  1.00  0.00     0.112 C 
BRANCH   6   7
HETATM    7  C8  UNL     1      -8.599   7.537  15.728  1.00  0.00     0.218 C 
HETATM    8  N2  UNL     1      -9.685   6.708  15.620  1.00  0.00    -0.348 N 
HETATM    9  H14 UNL     1      -9.595   5.739  15.905  1.00  0.00     0.163 HD
HETATM   10  O2  UNL     1      -8.537   8.624  15.159  1.00  0.00    -0.274 OA
BRANCH   8  11
HETATM   11  C6  UNL     1     -10.863   7.070  14.826  1.00  0.00     0.172 C 
HETATM   12  C7  UNL     1     -10.504   7.095  13.346  1.00  0.00     0.042 C 
BRANCH  11  13
HETATM   13  C5  UNL     1     -11.444   8.429  15.280  1.00  0.00     0.240 C 
HETATM   14  N1  UNL     1     -11.145   8.776  16.582  1.00  0.00    -0.345 N 
HETATM   15  H9  UNL     1     -10.811   8.034  17.198  1.00  0.00     0.163 HD
HETATM   16  O1  UNL     1     -12.197   9.107  14.582  1.00  0.00    -0.271 OA
BRANCH  14  17
HETATM   17  C4  UNL     1     -11.699   9.976  17.204  1.00  0.00     0.183 C 
BRANCH  17  18
HETATM   18  C3  UNL     1     -10.790  11.200  17.013  1.00  0.00     0.046 C 
BRANCH  18  19
HETATM   19  C2  UNL     1     -11.155  12.025  15.777  1.00  0.00     0.076 C 
BRANCH  19  20
HETATM   20  S1  UNL     1     -10.417  13.695  15.800  1.00  0.00    -0.173 SA
HETATM   21  C1  UNL     1      -8.961  13.381  16.825  1.00  0.00     0.089 C 
ENDBRANCH  19  20
ENDBRANCH  18  19
ENDBRANCH  17  18
BRANCH  17  22
HETATM   22  C33 UNL     1     -11.956   9.706  18.685  1.00  0.00     0.163 C 
HETATM   23  O9  UNL     1     -12.729  10.318  19.407  1.00  0.00    -0.648 OA
BRANCH  22  24
HETATM   24  O10 UNL     1     -11.249   8.664  19.167  1.00  0.00    -0.775 OA
HETATM   25  H46 UNL     1     -11.490   8.621  20.117  1.00  0.00     0.167 HD
ENDBRANCH  22  24
ENDBRANCH  17  22
ENDBRANCH  14  17
ENDBRANCH  11  13
ENDBRANCH   8  11
ENDBRANCH   6   7
ENDBRANCH   5   6
ENDBRANCH   3   5
ENDBRANCH   2   3
ENDBRANCH   1   2
BRANCH   1  26
HETATM   26  C13 UNL     1      -3.702   8.479  13.873  1.00  0.00     0.185 C 
HETATM   27  O5  UNL     1      -4.193   8.848  12.802  1.00  0.00    -0.292 OA
BRANCH  26  28
HETATM   28  C14 UNL     1      -2.176   8.558  14.117  1.00  0.00     0.128 C 
HETATM   29  C15 UNL     1      -1.647   7.763  15.343  1.00  0.00     0.047 C 
HETATM   30  C16 UNL     1      -0.232   7.257  14.985  1.00  0.00     0.009 C 
HETATM   31  C17 UNL     1       0.070   7.929  13.655  1.00  0.00     0.002 C 
HETATM   32  C18 UNL     1       1.272   7.460  12.817  1.00  0.00     0.003 C 
HETATM   33  C31 UNL     1      -1.313   7.980  12.944  1.00  0.00     0.005 C 
HETATM   34  C19 UNL     1       1.386   5.939  12.593  1.00  0.00     0.010 C 
HETATM   35  C28 UNL     1       1.359   8.309  11.510  1.00  0.00     0.072 C 
HETATM   36  C20 UNL     1       1.967   5.556  11.231  1.00  0.00     0.035 C 
HETATM   37  C21 UNL     1       3.074   6.509  10.884  1.00  0.00    -0.067 C 
HETATM   38  C22 UNL     1       4.356   6.108  10.873  1.00  0.00     0.053 C 
HETATM   39  C26 UNL     1       2.636   7.955  10.652  1.00  0.00    -0.009 C 
HETATM   40  C23 UNL     1       5.471   7.062  10.662  1.00  0.00     0.149 C 
HETATM   41  O7  UNL     1       6.619   6.635  10.578  1.00  0.00    -0.293 OA
HETATM   42  C24 UNL     1       5.160   8.534  10.544  1.00  0.00     0.084 C 
HETATM   43  C25 UNL     1       3.795   8.883  11.133  1.00  0.00     0.022 C 
HETATM   44  C27 UNL     1       2.437   8.182   9.139  1.00  0.00     0.021 C 
HETATM   45  C29 UNL     1      -0.033   8.309  10.847  1.00  0.00     0.133 C 
HETATM   46  O8  UNL     1      -0.264   7.870   9.723  1.00  0.00    -0.297 OA
HETATM   47  C30 UNL     1      -1.166   8.871  11.701  1.00  0.00     0.091 C 
HETATM   48  C32 UNL     1      -1.867   6.599  12.501  1.00  0.00     0.019 C 
BRANCH  28  49
HETATM   49  O6  UNL     1      -1.818   9.936  14.302  1.00  0.00    -0.381 OA
HETATM   50  H21 UNL     1      -2.591  10.415  14.675  1.00  0.00     0.211 HD
ENDBRANCH  28  49
ENDBRANCH  26  28
ENDBRANCH   1  26
TORSDOF 16
ENDMDL
MODEL 5
REMARK minimizedAffinity -8.426054
REMARK CNNscore 0.338417113
REMARK CNNaffinity 7.30654526
REMARK  16 active torsions:
REMARK  status: ('A' for Active; 'I' for Inactive)
REMARK    1  A    between atoms: S1_2  and  C2_3 
REMARK    2  A    between atoms: C2_3  and  C3_4 
REMARK    3  A    between atoms: C3_4  and  C4_5 
REMARK    4  A    between atoms: C4_5  and  N1_6 
REMARK    5  A    between atoms: C4_5  and  C33_44 
REMARK       I    between atoms: N1_6  and  C5_7 
REMARK    6  A    between atoms: C5_7  and  C6_9 
REMARK    7  A    between atoms: C6_9  and  N2_11 
REMARK       I    between atoms: N2_11  and  C8_12 
REMARK    8  A    between atoms: C8_12  and  C9_14 
REMARK    9  A    between atoms: C9_14  and  C10_15 
REMARK   10  A    between atoms: C10_15  and  C11_16 
REMARK   11  A    between atoms: C11_16  and  O4_18 
REMARK   12  A    between atoms: O4_18  and  C12_19 
REMARK   13  A    between atoms: C12_19  and  C13_20 
REMARK   14  A    between atoms: C13_20  and  C14_22 
REMARK   15  A    between atoms: C14_22  and  O6_23 
REMARK   16  A    between atoms: C33_44  and  O10_46 
ROOT
HETATM    1  C12 UNL     1       1.705   8.179  13.164  1.00  0.00     0.260 C 
ENDROOT
BRANCH   1   2
HETATM    2  O4  UNL     1       1.462   8.725  11.871  1.00  0.00    -0.314 OA
BRANCH   2   3
HETATM    3  C11 UNL     1       0.729   7.947  11.034  1.00  0.00     0.259 C 
HETATM    4  O3  UNL     1       0.917   6.751  10.857  1.00  0.00    -0.265 OA
BRANCH   3   5
HETATM    5  C10 UNL     1      -0.288   8.768  10.285  1.00  0.00     0.120 C 
BRANCH   5   6
HETATM    6  C9  UNL     1      -0.233   8.456   8.794  1.00  0.00     0.112 C 
BRANCH   6   7
HETATM    7  C8  UNL     1       1.188   8.191   8.343  1.00  0.00     0.218 C 
HETATM    8  N2  UNL     1       1.498   6.860   8.224  1.00  0.00    -0.348 N 
HETATM    9  H14 UNL     1       0.869   6.172   8.622  1.00  0.00     0.163 HD
HETATM   10  O2  UNL     1       2.009   9.082   8.144  1.00  0.00    -0.274 OA
BRANCH   8  11
HETATM   11  C6  UNL     1       2.837   6.407   7.833  1.00  0.00     0.172 C 
HETATM   12  C7  UNL     1       2.732   5.400   6.695  1.00  0.00     0.042 C 
BRANCH  11  13
HETATM   13  C5  UNL     1       3.595   5.806   9.039  1.00  0.00     0.240 C 
HETATM   14  N1  UNL     1       4.012   6.732   9.975  1.00  0.00    -0.345 N 
HETATM   15  H9  UNL     1       4.026   7.711   9.688  1.00  0.00     0.163 HD
HETATM   16  O1  UNL     1       3.898   4.617   9.120  1.00  0.00    -0.271 OA
BRANCH  14  17
HETATM   17  C4  UNL     1       4.831   6.349  11.122  1.00  0.00     0.183 C 
BRANCH  17  18
HETATM   18  C3  UNL     1       4.686   7.334  12.292  1.00  0.00     0.046 C 
BRANCH  18  19
HETATM   19  C2  UNL     1       5.834   8.343  12.365  1.00  0.00     0.076 C 
BRANCH  19  20
HETATM   20  S1  UNL     1       5.302  10.047  11.979  1.00  0.00    -0.173 SA
HETATM   21  C1  UNL     1       6.824  10.697  11.252  1.00  0.00     0.089 C 
ENDBRANCH  19  20
ENDBRANCH  18  19
ENDBRANCH  17  18
BRANCH  17  22
HETATM   22  C33 UNL     1       6.288   6.222  10.685  1.00  0.00     0.163 C 
HETATM   23  O9  UNL     1       7.049   7.144  10.432  1.00  0.00    -0.648 OA
BRANCH  22  24
HETATM   24  O10 UNL     1       6.714   4.944  10.619  1.00  0.00    -0.775 OA
HETATM   25  H46 UNL     1       7.643   5.011  10.308  1.00  0.00     0.167 HD
ENDBRANCH  22  24
ENDBRANCH  17  22
ENDBRANCH  14  17
ENDBRANCH  11  13
ENDBRANCH   8  11
ENDBRANCH   6   7
ENDBRANCH   5   6
ENDBRANCH   3   5
ENDBRANCH   2   3
ENDBRANCH   1   2
BRANCH   1  26
HETATM   26  C13 UNL     1       0.852   7.031  13.719  1.00  0.00     0.185 C 
HETATM   27  O5  UNL     1       1.087   5.871  13.368  1.00  0.00    -0.292 OA
BRANCH  26  28
HETATM   28  C14 UNL     1      -0.286   7.344  14.720  1.00  0.00     0.128 C 
HETATM   29  C15 UNL     1      -0.349   8.809  15.234  1.00  0.00     0.047 C 
HETATM   30  C16 UNL     1      -1.838   9.150  15.463  1.00  0.00     0.009 C 
HETATM   31  C17 UNL     1      -2.552   7.824  15.254  1.00  0.00     0.002 C 
HETATM   32  C18 UNL     1      -4.084   7.795  15.112  1.00  0.00     0.003 C 
HETATM   33  C31 UNL     1      -1.723   7.130  14.134  1.00  0.00     0.005 C 
HETATM   34  C19 UNL     1      -4.688   8.798  14.111  1.00  0.00     0.010 C 
HETATM   35  C28 UNL     1      -4.560   6.322  14.911  1.00  0.00     0.072 C 
HETATM   36  C20 UNL     1      -5.929   8.276  13.385  1.00  0.00     0.035 C 
HETATM   37  C21 UNL     1      -6.770   7.494  14.351  1.00  0.00    -0.067 C 
HETATM   38  C22 UNL     1      -7.954   7.964  14.779  1.00  0.00     0.053 C 
HETATM   39  C26 UNL     1      -6.134   6.204  14.868  1.00  0.00    -0.009 C 
HETATM   40  C23 UNL     1      -8.736   7.270  15.830  1.00  0.00     0.149 C 
HETATM   41  O7  UNL     1      -9.849   7.693  16.128  1.00  0.00    -0.293 OA
HETATM   42  C24 UNL     1      -8.144   6.052  16.497  1.00  0.00     0.084 C 
HETATM   43  C25 UNL     1      -6.628   5.987  16.333  1.00  0.00     0.022 C 
HETATM   44  C27 UNL     1      -6.634   5.021  14.013  1.00  0.00     0.021 C 
HETATM   45  C29 UNL     1      -3.714   5.696  13.784  1.00  0.00     0.133 C 
HETATM   46  O8  UNL     1      -4.177   5.258  12.734  1.00  0.00    -0.297 OA
HETATM   47  C30 UNL     1      -2.209   5.676  14.029  1.00  0.00     0.091 C 
HETATM   48  C32 UNL     1      -1.837   7.794  12.737  1.00  0.00     0.019 C 
BRANCH  28  49
HETATM   49  O6  UNL     1      -0.132   6.486  15.862  1.00  0.00    -0.381 OA
HETATM   50  H21 UNL     1       0.820   6.265  15.964  1.00  0.00     0.211 HD
ENDBRANCH  28  49
ENDBRANCH  26  28
ENDBRANCH   1  26
TORSDOF 16
ENDMDL
MODEL 6
REMARK minimizedAffinity -6.94711351
REMARK CNNscore 0.326764375
REMARK CNNaffinity 6.37784958
REMARK  16 active torsions:
REMARK  status: ('A' for Active; 'I' for Inactive)
REMARK    1  A    between atoms: S1_2  and  C2_3 
REMARK    2  A    between atoms: C2_3  and  C3_4 
REMARK    3  A    between atoms: C3_4  and  C4_5 
REMARK    4  A    between atoms: C4_5  and  N1_6 
REMARK    5  A    between atoms: C4_5  and  C33_44 
REMARK       I    between atoms: N1_6  and  C5_7 
REMARK    6  A    between atoms: C5_7  and  C6_9 
REMARK    7  A    between atoms: C6_9  and  N2_11 
REMARK       I    between atoms: N2_11  and  C8_12 
REMARK    8  A    between atoms: C8_12  and  C9_14 
REMARK    9  A    between atoms: C9_14  and  C10_15 
REMARK   10  A    between atoms: C10_15  and  C11_16 
REMARK   11  A    between atoms: C11_16  and  O4_18 
REMARK   12  A    between atoms: O4_18  and  C12_19 
REMARK   13  A    between atoms: C12_19  and  C13_20 
REMARK   14  A    between atoms: C13_20  and  C14_22 
REMARK   15  A    between atoms: C14_22  and  O6_23 
REMARK   16  A    between atoms: C33_44  and  O10_46 
ROOT
HETATM    1  C12 UNL     1       1.132   9.540  16.037  1.00  0.00     0.260 C 
ENDROOT
BRANCH   1   2
HETATM    2  O4  UNL     1       1.645  10.745  16.597  1.00  0.00    -0.314 OA
BRANCH   2   3
HETATM    3  C11 UNL     1       2.311  10.608  17.773  1.00  0.00     0.259 C 
HETATM    4  O3  UNL     1       2.346   9.579  18.433  1.00  0.00    -0.265 OA
BRANCH   3   5
HETATM    5  C10 UNL     1       2.925  11.916  18.201  1.00  0.00     0.120 C 
BRANCH   5   6
HETATM    6  C9  UNL     1       2.981  12.005  19.721  1.00  0.00     0.112 C 
BRANCH   6   7
HETATM    7  C8  UNL     1       4.402  12.199  20.207  1.00  0.00     0.218 C 
HETATM    8  N2  UNL     1       4.495  12.729  21.469  1.00  0.00    -0.348 N 
HETATM    9  H14 UNL     1       3.668  13.132  21.895  1.00  0.00     0.163 HD
HETATM   10  O2  UNL     1       5.388  11.951  19.519  1.00  0.00    -0.274 OA
BRANCH   8  11
HETATM   11  C6  UNL     1       5.789  13.021  22.094  1.00  0.00     0.172 C 
HETATM   12  C7  UNL     1       6.199  11.869  23.002  1.00  0.00     0.042 C 
BRANCH  11  13
HETATM   13  C5  UNL     1       5.740  14.355  22.875  1.00  0.00     0.240 C 
HETATM   14  N1  UNL     1       6.968  14.959  23.058  1.00  0.00    -0.345 N 
HETATM   15  H9  UNL     1       7.798  14.384  22.910  1.00  0.00     0.163 HD
HETATM   16  O1  UNL     1       4.713  14.799  23.385  1.00  0.00    -0.271 OA
BRANCH  14  17
HETATM   17  C4  UNL     1       7.117  16.170  23.861  1.00  0.00     0.183 C 
BRANCH  17  18
HETATM   18  C3  UNL     1       6.934  17.446  23.025  1.00  0.00     0.046 C 
BRANCH  18  19
HETATM   19  C2  UNL     1       5.658  18.213  23.381  1.00  0.00     0.076 C 
BRANCH  19  20
HETATM   20  S1  UNL     1       5.735  18.980  25.036  1.00  0.00    -0.173 SA
HETATM   21  C1  UNL     1       5.553  20.722  24.584  1.00  0.00     0.089 C 
ENDBRANCH  19  20
ENDBRANCH  18  19
ENDBRANCH  17  18
BRANCH  17  22
HETATM   22  C33 UNL     1       8.477  16.154  24.554  1.00  0.00     0.163 C 
HETATM   23  O9  UNL     1       9.095  15.162  24.911  1.00  0.00    -0.648 OA
BRANCH  22  24
HETATM   24  O10 UNL     1       8.997  17.385  24.733  1.00  0.00    -0.775 OA
HETATM   25  H46 UNL     1       9.845  17.228  25.202  1.00  0.00     0.167 HD
ENDBRANCH  22  24
ENDBRANCH  17  22
ENDBRANCH  14  17
ENDBRANCH  11  13
ENDBRANCH   8  11
ENDBRANCH   6   7
ENDBRANCH   5   6
ENDBRANCH   3   5
ENDBRANCH   2   3
ENDBRANCH   1   2
BRANCH   1  26
HETATM   26  C13 UNL     1       1.293   9.221  14.545  1.00  0.00     0.185 C 
HETATM   27  O5  UNL     1       2.425   9.072  14.072  1.00  0.00    -0.292 OA
BRANCH  26  28
HETATM   28  C14 UNL     1       0.035   9.081  13.656  1.00  0.00     0.128 C 
HETATM   29  C15 UNL     1       0.296   8.703  12.171  1.00  0.00     0.047 C 
HETATM   30  C16 UNL     1      -0.892   7.832  11.705  1.00  0.00     0.009 C 
HETATM   31  C17 UNL     1      -1.870   7.897  12.867  1.00  0.00     0.002 C 
HETATM   32  C18 UNL     1      -3.063   6.927  12.917  1.00  0.00     0.003 C 
HETATM   33  C31 UNL     1      -0.951   7.956  14.122  1.00  0.00     0.005 C 
HETATM   34  C19 UNL     1      -2.733   5.439  12.685  1.00  0.00     0.010 C 
HETATM   35  C28 UNL     1      -3.906   7.204  14.201  1.00  0.00     0.072 C 
HETATM   36  C20 UNL     1      -3.610   4.478  13.489  1.00  0.00     0.035 C 
HETATM   37  C21 UNL     1      -5.018   5.000  13.510  1.00  0.00    -0.067 C 
HETATM   38  C22 UNL     1      -5.998   4.378  12.834  1.00  0.00     0.053 C 
HETATM   39  C26 UNL     1      -5.210   6.316  14.263  1.00  0.00    -0.009 C 
HETATM   40  C23 UNL     1      -7.363   4.949  12.736  1.00  0.00     0.149 C 
HETATM   41  O7  UNL     1      -8.244   4.303  12.177  1.00  0.00    -0.293 OA
HETATM   42  C24 UNL     1      -7.632   6.306  13.339  1.00  0.00     0.084 C 
HETATM   43  C25 UNL     1      -6.349   7.107  13.546  1.00  0.00     0.022 C 
HETATM   44  C27 UNL     1      -5.672   6.008  15.702  1.00  0.00     0.021 C 
HETATM   45  C29 UNL     1      -2.944   7.235  15.407  1.00  0.00     0.133 C 
HETATM   46  O8  UNL     1      -3.012   6.471  16.365  1.00  0.00    -0.297 OA
HETATM   47  C30 UNL     1      -1.837   8.283  15.333  1.00  0.00     0.091 C 
HETATM   48  C32 UNL     1      -0.170   6.648  14.416  1.00  0.00     0.019 C 
BRANCH  28  49
HETATM   49  O6  UNL     1      -0.670  10.332  13.671  1.00  0.00    -0.381 OA
HETATM   50  H21 UNL     1      -0.024  11.057  13.823  1.00  0.00     0.211 HD
ENDBRANCH  28  49
ENDBRANCH  26  28
ENDBRANCH   1  26
TORSDOF 16
ENDMDL
MODEL 7
REMARK minimizedAffinity -7.52342415
REMARK CNNscore 0.302304596
REMARK CNNaffinity 6.38005114
REMARK  16 active torsions:
REMARK  status: ('A' for Active; 'I' for Inactive)
REMARK    1  A    between atoms: S1_2  and  C2_3 
REMARK    2  A    between atoms: C2_3  and  C3_4 
REMARK    3  A    between atoms: C3_4  and  C4_5 
REMARK    4  A    between atoms: C4_5  and  N1_6 
REMARK    5  A    between atoms: C4_5  and  C33_44 
REMARK       I    between atoms: N1_6  and  C5_7 
REMARK    6  A    between atoms: C5_7  and  C6_9 
REMARK    7  A    between atoms: C6_9  and  N2_11 
REMARK       I    between atoms: N2_11  and  C8_12 
REMARK    8  A    between atoms: C8_12  and  C9_14 
REMARK    9  A    between atoms: C9_14  and  C10_15 
REMARK   10  A    between atoms: C10_15  and  C11_16 
REMARK   11  A    between atoms: C11_16  and  O4_18 
REMARK   12  A    between atoms: O4_18  and  C12_19 
REMARK   13  A    between atoms: C12_19  and  C13_20 
REMARK   14  A    between atoms: C13_20  and  C14_22 
REMARK   15  A    between atoms: C14_22  and  O6_23 
REMARK   16  A    between atoms: C33_44  and  O10_46 
ROOT
HETATM    1  C12 UNL     1       2.553   9.758  13.599  1.00  0.00     0.260 C 
ENDROOT
BRANCH   1   2
HETATM    2  O4  UNL     1       3.623   8.822  13.680  1.00  0.00    -0.314 OA
BRANCH   2   3
HETATM    3  C11 UNL     1       4.262   8.559  12.511  1.00  0.00     0.259 C 
HETATM    4  O3  UNL     1       3.833   8.856  11.405  1.00  0.00    -0.265 OA
BRANCH   3   5
HETATM    5  C10 UNL     1       5.526   7.774  12.751  1.00  0.00     0.120 C 
BRANCH   5   6
HETATM    6  C9  UNL     1       5.804   7.655  14.244  1.00  0.00     0.112 C 
BRANCH   6   7
HETATM    7  C8  UNL     1       7.159   8.231  14.597  1.00  0.00     0.218 C 
HETATM    8  N2  UNL     1       7.988   7.353  15.248  1.00  0.00    -0.348 N 
HETATM    9  H14 UNL     1       7.599   6.495  15.622  1.00  0.00     0.163 HD
HETATM   10  O2  UNL     1       7.478   9.393  14.365  1.00  0.00    -0.274 OA
BRANCH   8  11
HETATM   11  C6  UNL     1       9.327   7.741  15.702  1.00  0.00     0.172 C 
HETATM   12  C7  UNL     1       9.220   8.801  16.792  1.00  0.00     0.042 C 
BRANCH  11  13
HETATM   13  C5  UNL     1      10.191   8.243  14.522  1.00  0.00     0.240 C 
HETATM   14  N1  UNL     1      10.691   9.520  14.678  1.00  0.00    -0.345 N 
HETATM   15  H9  UNL     1      10.260  10.106  15.393  1.00  0.00     0.163 HD
HETATM   16  O1  UNL     1      10.343   7.607  13.481  1.00  0.00    -0.271 OA
BRANCH  14  17
HETATM   17  C4  UNL     1      11.440  10.187  13.616  1.00  0.00     0.183 C 
BRANCH  17  18
HETATM   18  C3  UNL     1      12.438  11.216  14.168  1.00  0.00     0.046 C 
BRANCH  18  19
HETATM   19  C2  UNL     1      12.191  11.552  15.641  1.00  0.00     0.076 C 
BRANCH  19  20
HETATM   20  S1  UNL     1      13.135  13.013  16.198  1.00  0.00    -0.173 SA
HETATM   21  C1  UNL     1      13.562  13.741  14.599  1.00  0.00     0.089 C 
ENDBRANCH  19  20
ENDBRANCH  18  19
ENDBRANCH  17  18
BRANCH  17  22
HETATM   22  C33 UNL     1      10.463  10.836  12.638  1.00  0.00     0.163 C 
HETATM   23  O9  UNL     1      10.562  10.849  11.420  1.00  0.00    -0.648 OA
BRANCH  22  24
HETATM   24  O10 UNL     1       9.403  11.407  13.245  1.00  0.00    -0.775 OA
HETATM   25  H46 UNL     1       8.881  11.798  12.512  1.00  0.00     0.167 HD
ENDBRANCH  22  24
ENDBRANCH  17  22
ENDBRANCH  14  17
ENDBRANCH  11  13
ENDBRANCH   8  11
ENDBRANCH   6   7
ENDBRANCH   5   6
ENDBRANCH   3   5
ENDBRANCH   2   3
ENDBRANCH   1   2
BRANCH   1  26
HETATM   26  C13 UNL     1       1.200   9.485  14.269  1.00  0.00     0.185 C 
HETATM   27  O5  UNL     1       1.119   9.486  15.501  1.00  0.00    -0.292 OA
BRANCH  26  28
HETATM   28  C14 UNL     1      -0.045   9.223  13.390  1.00  0.00     0.128 C 
HETATM   29  C15 UNL     1       0.241   8.737  11.942  1.00  0.00     0.047 C 
HETATM   30  C16 UNL     1      -0.907   7.783  11.543  1.00  0.00     0.009 C 
HETATM   31  C17 UNL     1      -1.895   7.901  12.692  1.00  0.00     0.002 C 
HETATM   32  C18 UNL     1      -3.047   6.889  12.817  1.00  0.00     0.003 C 
HETATM   33  C31 UNL     1      -0.987   8.098  13.941  1.00  0.00     0.005 C 
HETATM   34  C19 UNL     1      -2.655   5.403  12.706  1.00  0.00     0.010 C 
HETATM   35  C28 UNL     1      -3.910   7.234  14.072  1.00  0.00     0.072 C 
HETATM   36  C20 UNL     1      -3.497   4.474  13.582  1.00  0.00     0.035 C 
HETATM   37  C21 UNL     1      -4.925   4.937  13.557  1.00  0.00    -0.067 C 
HETATM   38  C22 UNL     1      -5.874   4.223  12.930  1.00  0.00     0.053 C 
HETATM   39  C26 UNL     1      -5.177   6.300  14.200  1.00  0.00    -0.009 C 
HETATM   40  C23 UNL     1      -7.261   4.726  12.782  1.00  0.00     0.149 C 
HETATM   41  O7  UNL     1      -8.112   4.002  12.273  1.00  0.00    -0.293 OA
HETATM   42  C24 UNL     1      -7.590   6.115  13.272  1.00  0.00     0.084 C 
HETATM   43  C25 UNL     1      -6.342   6.983  13.418  1.00  0.00     0.022 C 
HETATM   44  C27 UNL     1      -5.635   6.090  15.658  1.00  0.00     0.021 C 
HETATM   45  C29 UNL     1      -2.958   7.402  15.274  1.00  0.00     0.133 C 
HETATM   46  O8  UNL     1      -3.001   6.714  16.291  1.00  0.00    -0.297 OA
HETATM   47  C30 UNL     1      -1.894   8.485  15.120  1.00  0.00     0.091 C 
HETATM   48  C32 UNL     1      -0.156   6.852  14.343  1.00  0.00     0.019 C 
BRANCH  28  49
HETATM   49  O6  UNL     1      -0.802  10.440  13.301  1.00  0.00    -0.381 OA
HETATM   50  H21 UNL     1      -0.187  11.201  13.397  1.00  0.00     0.211 HD
ENDBRANCH  28  49
ENDBRANCH  26  28
ENDBRANCH   1  26
TORSDOF 16
ENDMDL
MODEL 8
REMARK minimizedAffinity -7.66596031
REMARK CNNscore 0.26981914
REMARK CNNaffinity 6.46606588
REMARK  16 active torsions:
REMARK  status: ('A' for Active; 'I' for Inactive)
REMARK    1  A    between atoms: S1_2  and  C2_3 
REMARK    2  A    between atoms: C2_3  and  C3_4 
REMARK    3  A    between atoms: C3_4  and  C4_5 
REMARK    4  A    between atoms: C4_5  and  N1_6 
REMARK    5  A    between atoms: C4_5  and  C33_44 
REMARK       I    between atoms: N1_6  and  C5_7 
REMARK    6  A    between atoms: C5_7  and  C6_9 
REMARK    7  A    between atoms: C6_9  and  N2_11 
REMARK       I    between atoms: N2_11  and  C8_12 
REMARK    8  A    between atoms: C8_12  and  C9_14 
REMARK    9  A    between atoms: C9_14  and  C10_15 
REMARK   10  A    between atoms: C10_15  and  C11_16 
REMARK   11  A    between atoms: C11_16  and  O4_18 
REMARK   12  A    between atoms: O4_18  and  C12_19 
REMARK   13  A    between atoms: C12_19  and  C13_20 
REMARK   14  A    between atoms: C13_20  and  C14_22 
REMARK   15  A    between atoms: C14_22  and  O6_23 
REMARK   16  A    between atoms: C33_44  and  O10_46 
ROOT
HETATM    1  C12 UNL     1      -5.711   6.729  14.590  1.00  0.00     0.260 C 
ENDROOT
BRANCH   1   2
HETATM    2  O4  UNL     1      -7.030   6.450  15.047  1.00  0.00    -0.314 OA
BRANCH   2   3
HETATM    3  C11 UNL     1      -7.849   5.849  14.145  1.00  0.00     0.259 C 
HETATM    4  O3  UNL     1      -7.514   4.928  13.413  1.00  0.00    -0.265 OA
BRANCH   3   5
HETATM    5  C10 UNL     1      -9.194   6.525  14.102  1.00  0.00     0.120 C 
BRANCH   5   6
HETATM    6  C9  UNL     1      -9.355   7.469  15.287  1.00  0.00     0.112 C 
BRANCH   6   7
HETATM    7  C8  UNL     1     -10.452   8.482  15.036  1.00  0.00     0.218 C 
HETATM    8  N2  UNL     1     -11.717   8.006  15.271  1.00  0.00    -0.348 N 
HETATM    9  H14 UNL     1     -11.854   7.009  15.387  1.00  0.00     0.163 HD
HETATM   10  O2  UNL     1     -10.240   9.615  14.614  1.00  0.00    -0.274 OA
BRANCH   8  11
HETATM   11  C6  UNL     1     -12.910   8.830  15.049  1.00  0.00     0.172 C 
HETATM   12  C7  UNL     1     -13.647   9.044  16.365  1.00  0.00     0.042 C 
BRANCH  11  13
HETATM   13  C5  UNL     1     -13.838   8.191  13.990  1.00  0.00     0.240 C 
HETATM   14  N1  UNL     1     -15.186   8.389  14.212  1.00  0.00    -0.345 N 
HETATM   15  H9  UNL     1     -15.465   8.692  15.145  1.00  0.00     0.163 HD
HETATM   16  O1  UNL     1     -13.426   7.477  13.077  1.00  0.00    -0.271 OA
BRANCH  14  17
HETATM   17  C4  UNL     1     -16.203   7.767  13.368  1.00  0.00     0.183 C 
BRANCH  17  18
HETATM   18  C3  UNL     1     -16.120   6.234  13.394  1.00  0.00     0.046 C 
BRANCH  18  19
HETATM   19  C2  UNL     1     -17.128   5.599  14.354  1.00  0.00     0.076 C 
BRANCH  19  20
HETATM   20  S1  UNL     1     -17.436   3.836  13.991  1.00  0.00    -0.173 SA
HETATM   21  C1  UNL     1     -16.471   3.069  15.313  1.00  0.00     0.089 C 
ENDBRANCH  19  20
ENDBRANCH  18  19
ENDBRANCH  17  18
BRANCH  17  22
HETATM   22  C33 UNL     1     -16.075   8.303  11.944  1.00  0.00     0.163 C 
HETATM   23  O9  UNL     1     -16.255   9.457  11.587  1.00  0.00    -0.648 OA
BRANCH  22  24
HETATM   24  O10 UNL     1     -15.698   7.362  11.054  1.00  0.00    -0.775 OA
HETATM   25  H46 UNL     1     -15.680   7.832  10.193  1.00  0.00     0.167 HD
ENDBRANCH  22  24
ENDBRANCH  17  22
ENDBRANCH  14  17
ENDBRANCH  11  13
ENDBRANCH   8  11
ENDBRANCH   6   7
ENDBRANCH   5   6
ENDBRANCH   3   5
ENDBRANCH   2   3
ENDBRANCH   1   2
BRANCH   1  26
HETATM   26  C13 UNL     1      -5.040   8.082  14.862  1.00  0.00     0.185 C 
HETATM   27  O5  UNL     1      -5.371   8.738  15.855  1.00  0.00    -0.292 OA
BRANCH  26  28
HETATM   28  C14 UNL     1      -3.954   8.602  13.891  1.00  0.00     0.128 C 
HETATM   29  C15 UNL     1      -3.337   9.984  14.245  1.00  0.00     0.047 C 
HETATM   30  C16 UNL     1      -1.861   9.957  13.792  1.00  0.00     0.009 C 
HETATM   31  C17 UNL     1      -1.736   8.644  13.034  1.00  0.00     0.002 C 
HETATM   32  C18 UNL     1      -0.344   8.104  12.664  1.00  0.00     0.003 C 
HETATM   33  C31 UNL     1      -2.688   7.682  13.802  1.00  0.00     0.005 C 
HETATM   34  C19 UNL     1       0.692   8.070  13.806  1.00  0.00     0.010 C 
HETATM   35  C28 UNL     1      -0.496   6.755  11.894  1.00  0.00     0.072 C 
HETATM   36  C20 UNL     1       1.663   6.891  13.724  1.00  0.00     0.035 C 
HETATM   37  C21 UNL     1       2.036   6.661  12.288  1.00  0.00    -0.067 C 
HETATM   38  C22 UNL     1       3.272   6.936  11.840  1.00  0.00     0.053 C 
HETATM   39  C26 UNL     1       0.891   6.197  11.387  1.00  0.00    -0.009 C 
HETATM   40  C23 UNL     1       3.621   6.839  10.402  1.00  0.00     0.149 C 
HETATM   41  O7  UNL     1       4.784   7.021  10.053  1.00  0.00    -0.293 OA
HETATM   42  C24 UNL     1       2.535   6.509   9.407  1.00  0.00     0.084 C 
HETATM   43  C25 UNL     1       1.141   6.788   9.964  1.00  0.00     0.022 C 
HETATM   44  C27 UNL     1       0.929   4.658  11.281  1.00  0.00     0.021 C 
HETATM   45  C29 UNL     1      -1.435   5.843  12.710  1.00  0.00     0.133 C 
HETATM   46  O8  UNL     1      -1.113   4.749  13.166  1.00  0.00    -0.297 OA
HETATM   47  C30 UNL     1      -2.832   6.402  12.964  1.00  0.00     0.091 C 
HETATM   48  C32 UNL     1      -2.208   7.292  15.225  1.00  0.00     0.019 C 
BRANCH  28  49
HETATM   49  O6  UNL     1      -4.530   8.703  12.580  1.00  0.00    -0.381 OA
HETATM   50  H21 UNL     1      -5.494   8.870  12.671  1.00  0.00     0.211 HD
ENDBRANCH  28  49
ENDBRANCH  26  28
ENDBRANCH   1  26
TORSDOF 16
ENDMDL
MODEL 9
REMARK minimizedAffinity -7.32300997
REMARK CNNscore 0.264435291
REMARK CNNaffinity 5.77540255
REMARK  16 active torsions:
REMARK  status: ('A' for Active; 'I' for Inactive)
REMARK    1  A    between atoms: S1_2  and  C2_3 
REMARK    2  A    between atoms: C2_3  and  C3_4 
REMARK    3  A    between atoms: C3_4  and  C4_5 
REMARK    4  A    between atoms: C4_5  and  N1_6 
REMARK    5  A    between atoms: C4_5  and  C33_44 
REMARK       I    between atoms: N1_6  and  C5_7 
REMARK    6  A    between atoms: C5_7  and  C6_9 
REMARK    7  A    between atoms: C6_9  and  N2_11 
REMARK       I    between atoms: N2_11  and  C8_12 
REMARK    8  A    between atoms: C8_12  and  C9_14 
REMARK    9  A    between atoms: C9_14  and  C10_15 
REMARK   10  A    between atoms: C10_15  and  C11_16 
REMARK   11  A    between atoms: C11_16  and  O4_18 
REMARK   12  A    between atoms: O4_18  and  C12_19 
REMARK   13  A    between atoms: C12_19  and  C13_20 
REMARK   14  A    between atoms: C13_20  and  C14_22 
REMARK   15  A    between atoms: C14_22  and  O6_23 
REMARK   16  A    between atoms: C33_44  and  O10_46 
ROOT
HETATM    1  C12 UNL     1       1.466  11.491  18.644  1.00  0.00     0.260 C 
ENDROOT
BRANCH   1   2
HETATM    2  O4  UNL     1       1.876  11.574  17.283  1.00  0.00    -0.314 OA
BRANCH   2   3
HETATM    3  C11 UNL     1       0.984  11.109  16.371  1.00  0.00     0.259 C 
HETATM    4  O3  UNL     1       0.473  11.790  15.493  1.00  0.00    -0.265 OA
BRANCH   3   5
HETATM    5  C10 UNL     1       0.638   9.667  16.640  1.00  0.00     0.120 C 
BRANCH   5   6
HETATM    6  C9  UNL     1       1.651   8.743  15.974  1.00  0.00     0.112 C 
BRANCH   6   7
HETATM    7  C8  UNL     1       1.045   8.037  14.779  1.00  0.00     0.218 C 
HETATM    8  N2  UNL     1       1.309   6.692  14.731  1.00  0.00    -0.348 N 
HETATM    9  H14 UNL     1       2.023   6.309  15.340  1.00  0.00     0.163 HD
HETATM   10  O2  UNL     1       0.412   8.619  13.903  1.00  0.00    -0.274 OA
BRANCH   8  11
HETATM   11  C6  UNL     1       0.837   5.847  13.630  1.00  0.00     0.172 C 
HETATM   12  C7  UNL     1       1.469   6.300  12.320  1.00  0.00     0.042 C 
BRANCH  11  13
HETATM   13  C5  UNL     1      -0.706   5.864  13.538  1.00  0.00     0.240 C 
HETATM   14  N1  UNL     1      -1.355   5.426  14.676  1.00  0.00    -0.345 N 
HETATM   15  H9  UNL     1      -0.803   4.902  15.355  1.00  0.00     0.163 HD
HETATM   16  O1  UNL     1      -1.316   6.143  12.507  1.00  0.00    -0.271 OA
BRANCH  14  17
HETATM   17  C4  UNL     1      -2.807   5.280  14.724  1.00  0.00     0.183 C 
BRANCH  17  18
HETATM   18  C3  UNL     1      -3.399   4.919  13.352  1.00  0.00     0.046 C 
BRANCH  18  19
HETATM   19  C2  UNL     1      -4.854   5.368  13.195  1.00  0.00     0.076 C 
BRANCH  19  20
HETATM   20  S1  UNL     1      -5.979   3.986  12.799  1.00  0.00    -0.173 SA
HETATM   21  C1  UNL     1      -7.554   4.701  13.324  1.00  0.00     0.089 C 
ENDBRANCH  19  20
ENDBRANCH  18  19
ENDBRANCH  17  18
BRANCH  17  22
HETATM   22  C33 UNL     1      -3.428   6.563  15.271  1.00  0.00     0.163 C 
HETATM   23  O9  UNL     1      -3.165   7.702  14.914  1.00  0.00    -0.648 OA
BRANCH  22  24
HETATM   24  O10 UNL     1      -4.364   6.340  16.216  1.00  0.00    -0.775 OA
HETATM   25  H46 UNL     1      -4.654   7.237  16.490  1.00  0.00     0.167 HD
ENDBRANCH  22  24
ENDBRANCH  17  22
ENDBRANCH  14  17
ENDBRANCH  11  13
ENDBRANCH   8  11
ENDBRANCH   6   7
ENDBRANCH   5   6
ENDBRANCH   3   5
ENDBRANCH   2   3
ENDBRANCH   1   2
BRANCH   1  26
HETATM   26  C13 UNL     1       2.306  10.744  19.688  1.00  0.00     0.185 C 
HETATM   27  O5  UNL     1       2.691   9.595  19.452  1.00  0.00    -0.292 OA
BRANCH  26  28
HETATM   28  C14 UNL     1       2.665  11.445  21.019  1.00  0.00     0.128 C 
HETATM   29  C15 UNL     1       2.792  10.516  22.259  1.00  0.00     0.047 C 
HETATM   30  C16 UNL     1       3.882  11.119  23.173  1.00  0.00     0.009 C 
HETATM   31  C17 UNL     1       4.205  12.455  22.523  1.00  0.00     0.002 C 
HETATM   32  C18 UNL     1       5.451  13.240  22.969  1.00  0.00     0.003 C 
HETATM   33  C31 UNL     1       4.053  12.173  21.000  1.00  0.00     0.005 C 
HETATM   34  C19 UNL     1       6.766  12.439  23.036  1.00  0.00     0.010 C 
HETATM   35  C28 UNL     1       5.549  14.568  22.153  1.00  0.00     0.072 C 
HETATM   36  C20 UNL     1       8.006  13.253  22.665  1.00  0.00     0.035 C 
HETATM   37  C21 UNL     1       7.873  14.637  23.233  1.00  0.00    -0.067 C 
HETATM   38  C22 UNL     1       8.647  15.044  24.253  1.00  0.00     0.053 C 
HETATM   39  C26 UNL     1       6.746  15.478  22.636  1.00  0.00    -0.009 C 
HETATM   40  C23 UNL     1       8.442  16.356  24.912  1.00  0.00     0.149 C 
HETATM   41  O7  UNL     1       9.227  16.718  25.785  1.00  0.00    -0.293 OA
HETATM   42  C24 UNL     1       7.279  17.216  24.483  1.00  0.00     0.084 C 
HETATM   43  C25 UNL     1       6.201  16.408  23.765  1.00  0.00     0.022 C 
HETATM   44  C27 UNL     1       7.324  16.370  21.517  1.00  0.00     0.021 C 
HETATM   45  C29 UNL     1       5.406  14.221  20.657  1.00  0.00     0.133 C 
HETATM   46  O8  UNL     1       6.266  14.447  19.810  1.00  0.00    -0.297 OA
HETATM   47  C30 UNL     1       4.106  13.523  20.269  1.00  0.00     0.091 C 
HETATM   48  C32 UNL     1       5.139  11.240  20.401  1.00  0.00     0.019 C 
BRANCH  28  49
HETATM   49  O6  UNL     1       1.650  12.420  21.305  1.00  0.00    -0.381 OA
HETATM   50  H21 UNL     1       0.805  12.123  20.901  1.00  0.00     0.211 HD
ENDBRANCH  28  49
ENDBRANCH  26  28
ENDBRANCH   1  26
TORSDOF 16
ENDMDL
