MODEL 1
REMARK minimizedAffinity -7.42546558
REMARK CNNscore 0.376545876
REMARK CNNaffinity 6.64112425
REMARK  14 active torsions:
REMARK  status: ('A' for Active; 'I' for Inactive)
REMARK    1  A    between atoms: C2_2  and  C3_3 
REMARK    2  A    between atoms: C4_4  and  C5_5 
REMARK    3  A    between atoms: C5_5  and  C6_6 
REMARK    4  A    between atoms: C6_6  and  O2_8 
REMARK    5  A    between atoms: C7_9  and  C8_10 
REMARK    6  A    between atoms: C8_10  and  O4_12 
REMARK    7  A    between atoms: C22_29  and  O8_30 
REMARK    8  A    between atoms: C28_36  and  C29_37 
REMARK    9  A    between atoms: C29_37  and  C31_39 
REMARK   10  A    between atoms: C37_46  and  C38_47 
REMARK   11  A    between atoms: C38_47  and  C39_48 
REMARK   12  A    between atoms: C39_48  and  C40_49 
REMARK   13  A    between atoms: C40_49  and  O9_50 
REMARK   14  A    between atoms: C42_53  and  O11_54 
ROOT
HETATM    1  C3  UNL     1       6.915  12.744  19.574  1.00  0.00     0.046 C 
HETATM    2  C4  UNL     1       7.764  13.284  20.807  1.00  0.00     0.044 C 
HETATM    3  C7  UNL     1       7.507  12.540  22.124  1.00  0.00     0.019 C 
HETATM    4  C10 UNL     1       6.287  12.024  22.400  1.00  0.00    -0.000 C 
HETATM    5  C11 UNL     1       5.127  12.146  21.392  1.00  0.00     0.012 C 
HETATM    6  C12 UNL     1       3.978  11.177  21.727  1.00  0.00     0.017 C 
HETATM    7  C13 UNL     1       3.283  11.769  22.945  1.00  0.00     0.002 C 
HETATM    8  C14 UNL     1       3.509  13.275  22.874  1.00  0.00     0.010 C 
HETATM    9  C15 UNL     1       4.463  13.549  21.682  1.00  0.00     0.025 C 
HETATM   10  C16 UNL     1       3.861  14.319  20.542  1.00  0.00     0.003 C 
HETATM   11  C17 UNL     1       2.568  14.476  20.237  1.00  0.00     0.131 C 
HETATM   12  O5  UNL     1       2.176  15.160  19.111  1.00  0.00    -0.361 OA
HETATM   13  C18 UNL     1       1.595  14.266  18.133  1.00  0.00     0.210 C 
HETATM   14  C19 UNL     1       2.705  13.462  17.427  1.00  0.00     0.191 C 
HETATM   15  O6  UNL     1       3.315  12.618  18.413  1.00  0.00    -0.347 OA
HETATM   16  C20 UNL     1       4.451  11.914  17.962  1.00  0.00     0.297 C 
HETATM   17  O7  UNL     1       4.950  11.149  19.041  1.00  0.00    -0.351 OA
HETATM   18  C21 UNL     1       5.798  11.754  20.031  1.00  0.00     0.146 C 
HETATM   19  C22 UNL     1       4.037  10.976  16.781  1.00  0.00     0.136 C 
HETATM   20  C23 UNL     1       2.990   9.916  17.189  1.00  0.00     0.050 C 
HETATM   21  C24 UNL     1       1.619  10.490  17.571  1.00  0.00     0.041 C 
HETATM   22  C25 UNL     1       1.156  11.583  16.636  1.00  0.00    -0.027 C 
HETATM   23  C26 UNL     1      -0.087  11.703  16.159  1.00  0.00     0.001 A 
HETATM   24  C27 UNL     1      -1.290  10.932  16.406  1.00  0.00     0.039 A 
HETATM   25  C28 UNL     1      -2.265  11.502  15.663  1.00  0.00     0.014 A 
HETATM   26  N1  UNL     1      -1.751  12.586  14.959  1.00  0.00    -0.357 N 
HETATM   27  C36 UNL     1      -0.414  12.750  15.203  1.00  0.00     0.072 A 
HETATM   28  C37 UNL     1       0.517  13.579  14.728  1.00  0.00     0.075 C 
HETATM   29  O10 UNL     1       1.830  13.536  15.158  1.00  0.00    -0.332 OA
HETATM   30  C41 UNL     1       2.214  12.617  16.214  1.00  0.00     0.148 C 
HETATM   31  C42 UNL     1       3.450  11.864  15.671  1.00  0.00     0.199 C 
HETATM   32  H46 UNL     1      -2.264  13.089  14.251  1.00  0.00     0.166 HD
ENDROOT
BRANCH  25  33
HETATM   33  C29 UNL     1      -3.694  11.041  15.556  1.00  0.00     0.035 C 
HETATM   34  C30 UNL     1      -4.327  10.945  16.948  1.00  0.00     0.017 C 
BRANCH  33  35
HETATM   35  C31 UNL     1      -3.930   9.750  14.740  1.00  0.00    -0.005 C 
HETATM   36  C32 UNL     1      -2.911   9.474  13.631  1.00  0.00     0.005 C 
HETATM   37  C33 UNL     1      -3.254   8.060  13.186  1.00  0.00     0.000 C 
HETATM   38  C34 UNL     1      -3.818   7.359  14.419  1.00  0.00     0.000 C 
HETATM   39  C35 UNL     1      -3.931   8.427  15.509  1.00  0.00     0.005 C 
ENDBRANCH  33  35
ENDBRANCH  25  33
BRANCH  28  40
HETATM   40  C38 UNL     1       0.251  14.623  13.677  1.00  0.00     0.069 C 
BRANCH  40  41
HETATM   41  C39 UNL     1      -0.691  15.707  14.213  1.00  0.00     0.033 C 
BRANCH  41  42
HETATM   42  C40 UNL     1      -1.810  16.018  13.231  1.00  0.00     0.164 C 
BRANCH  42  43
HETATM   43  O9  UNL     1      -2.476  14.820  12.851  1.00  0.00    -0.401 OA
HETATM   44  H53 UNL     1      -1.859  14.308  12.303  1.00  0.00     0.209 HD
ENDBRANCH  42  43
ENDBRANCH  41  42
ENDBRANCH  40  41
ENDBRANCH  28  40
BRANCH  31  45
HETATM   45  O11 UNL     1       3.144  11.059  14.511  1.00  0.00    -0.389 OA
HETATM   46  H55 UNL     1       2.464  11.551  14.008  1.00  0.00     0.210 HD
ENDBRANCH  31  45
BRANCH  19  47
HETATM   47  O8  UNL     1       5.182  10.295  16.241  1.00  0.00    -0.382 OA
HETATM   48  H27 UNL     1       4.891   9.956  15.367  1.00  0.00     0.210 HD
ENDBRANCH  19  47
BRANCH   1  49
HETATM   49  C2  UNL     1       7.748  12.097  18.477  1.00  0.00    -0.029 C 
HETATM   50  C1  UNL     1       7.897  10.780  18.300  1.00  0.00     0.007 C 
ENDBRANCH   1  49
BRANCH   2  51
HETATM   51  C5  UNL     1       9.226  13.647  20.444  1.00  0.00     0.120 C 
BRANCH  51  52
HETATM   52  C6  UNL     1      10.172  12.532  20.084  1.00  0.00     0.140 C 
HETATM   53  O1  UNL     1      10.982  12.564  19.171  1.00  0.00    -0.650 OA
BRANCH  52  54
HETATM   54  O2  UNL     1      10.105  11.448  20.873  1.00  0.00    -0.776 OA
HETATM   55  H8  UNL     1      10.795  10.854  20.511  1.00  0.00     0.167 HD
ENDBRANCH  52  54
ENDBRANCH  51  52
ENDBRANCH   2  51
BRANCH   3  56
HETATM   56  C8  UNL     1       8.560  12.477  23.173  1.00  0.00     0.289 C 
HETATM   57  O3  UNL     1       9.166  11.457  23.461  1.00  0.00    -0.260 OA
BRANCH  56  58
HETATM   58  O4  UNL     1       8.714  13.688  23.766  1.00  0.00    -0.323 OA
HETATM   59  C9  UNL     1       7.697  14.639  23.458  1.00  0.00     0.213 C 
ENDBRANCH  56  58
ENDBRANCH   3  56
TORSDOF 14
ENDMDL
MODEL 2
REMARK minimizedAffinity -7.77441883
REMARK CNNscore 0.326747328
REMARK CNNaffinity 6.65794992
REMARK  14 active torsions:
REMARK  status: ('A' for Active; 'I' for Inactive)
REMARK    1  A    between atoms: C2_2  and  C3_3 
REMARK    2  A    between atoms: C4_4  and  C5_5 
REMARK    3  A    between atoms: C5_5  and  C6_6 
REMARK    4  A    between atoms: C6_6  and  O2_8 
REMARK    5  A    between atoms: C7_9  and  C8_10 
REMARK    6  A    between atoms: C8_10  and  O4_12 
REMARK    7  A    between atoms: C22_29  and  O8_30 
REMARK    8  A    between atoms: C28_36  and  C29_37 
REMARK    9  A    between atoms: C29_37  and  C31_39 
REMARK   10  A    between atoms: C37_46  and  C38_47 
REMARK   11  A    between atoms: C38_47  and  C39_48 
REMARK   12  A    between atoms: C39_48  and  C40_49 
REMARK   13  A    between atoms: C40_49  and  O9_50 
REMARK   14  A    between atoms: C42_53  and  O11_54 
ROOT
HETATM    1  C3  UNL     1       1.382   9.655  13.926  1.00  0.00     0.046 C 
HETATM    2  C4  UNL     1       2.910   9.667  13.480  1.00  0.00     0.044 C 
HETATM    3  C7  UNL     1       3.894   9.292  14.595  1.00  0.00     0.019 C 
HETATM    4  C10 UNL     1       3.630   9.604  15.885  1.00  0.00    -0.000 C 
HETATM    5  C11 UNL     1       2.324  10.323  16.276  1.00  0.00     0.012 C 
HETATM    6  C12 UNL     1       2.055  10.231  17.790  1.00  0.00     0.017 C 
HETATM    7  C13 UNL     1       3.044  11.187  18.442  1.00  0.00     0.002 C 
HETATM    8  C14 UNL     1       3.335  12.268  17.408  1.00  0.00     0.010 C 
HETATM    9  C15 UNL     1       2.620  11.863  16.093  1.00  0.00     0.025 C 
HETATM   10  C16 UNL     1       1.506  12.773  15.662  1.00  0.00     0.003 C 
HETATM   11  C17 UNL     1       0.806  13.638  16.404  1.00  0.00     0.131 C 
HETATM   12  O5  UNL     1      -0.240  14.355  15.873  1.00  0.00    -0.361 OA
HETATM   13  C18 UNL     1      -1.505  13.915  16.418  1.00  0.00     0.210 C 
HETATM   14  C19 UNL     1      -1.918  12.575  15.779  1.00  0.00     0.191 C 
HETATM   15  O6  UNL     1      -0.956  11.592  16.185  1.00  0.00    -0.347 OA
HETATM   16  C20 UNL     1      -1.108  10.332  15.570  1.00  0.00     0.297 C 
HETATM   17  O7  UNL     1      -0.083   9.484  16.049  1.00  0.00    -0.351 OA
HETATM   18  C21 UNL     1       1.232   9.535  15.474  1.00  0.00     0.146 C 
HETATM   19  C22 UNL     1      -2.511   9.747  15.939  1.00  0.00     0.136 C 
HETATM   20  C23 UNL     1      -2.693   9.525  17.456  1.00  0.00     0.050 C 
HETATM   21  C24 UNL     1      -2.711  10.814  18.290  1.00  0.00     0.041 C 
HETATM   22  C25 UNL     1      -3.529  11.914  17.656  1.00  0.00    -0.027 C 
HETATM   23  C26 UNL     1      -4.376  12.712  18.315  1.00  0.00     0.001 A 
HETATM   24  C27 UNL     1      -4.708  12.807  19.724  1.00  0.00     0.039 A 
HETATM   25  C28 UNL     1      -5.624  13.794  19.832  1.00  0.00     0.014 A 
HETATM   26  N1  UNL     1      -5.894  14.330  18.577  1.00  0.00    -0.357 N 
HETATM   27  C36 UNL     1      -5.176  13.695  17.601  1.00  0.00     0.072 A 
HETATM   28  C37 UNL     1      -5.137  13.794  16.270  1.00  0.00     0.075 C 
HETATM   29  O10 UNL     1      -4.295  13.016  15.498  1.00  0.00    -0.332 OA
HETATM   30  C41 UNL     1      -3.360  12.108  16.139  1.00  0.00     0.148 C 
HETATM   31  C42 UNL     1      -3.570  10.744  15.443  1.00  0.00     0.199 C 
HETATM   32  H46 UNL     1      -6.630  14.996  18.399  1.00  0.00     0.166 HD
ENDROOT
BRANCH  25  33
HETATM   33  C29 UNL     1      -6.303  14.251  21.096  1.00  0.00     0.035 C 
HETATM   34  C30 UNL     1      -5.261  14.698  22.127  1.00  0.00     0.017 C 
BRANCH  33  35
HETATM   35  C31 UNL     1      -7.318  13.264  21.715  1.00  0.00    -0.005 C 
HETATM   36  C32 UNL     1      -7.651  13.499  23.191  1.00  0.00     0.005 C 
HETATM   37  C33 UNL     1      -8.820  12.557  23.438  1.00  0.00     0.000 C 
HETATM   38  C34 UNL     1      -9.555  12.444  22.105  1.00  0.00     0.000 C 
HETATM   39  C35 UNL     1      -8.708  13.199  21.080  1.00  0.00     0.005 C 
ENDBRANCH  33  35
ENDBRANCH  25  33
BRANCH  28  40
HETATM   40  C38 UNL     1      -6.003  14.733  15.475  1.00  0.00     0.069 C 
BRANCH  40  41
HETATM   41  C39 UNL     1      -7.488  14.426  15.701  1.00  0.00     0.033 C 
BRANCH  41  42
HETATM   42  C40 UNL     1      -8.339  14.854  14.516  1.00  0.00     0.164 C 
BRANCH  42  43
HETATM   43  O9  UNL     1      -8.895  13.714  13.872  1.00  0.00    -0.401 OA
HETATM   44  H53 UNL     1      -8.164  13.242  13.440  1.00  0.00     0.209 HD
ENDBRANCH  42  43
ENDBRANCH  41  42
ENDBRANCH  40  41
ENDBRANCH  28  40
BRANCH  31  45
HETATM   45  O11 UNL     1      -4.892  10.205  15.665  1.00  0.00    -0.389 OA
HETATM   46  H55 UNL     1      -5.499  10.972  15.694  1.00  0.00     0.210 HD
ENDBRANCH  31  45
BRANCH  19  47
HETATM   47  O8  UNL     1      -2.736   8.496  15.269  1.00  0.00    -0.382 OA
HETATM   48  H27 UNL     1      -3.703   8.340  15.332  1.00  0.00     0.210 HD
ENDBRANCH  19  47
BRANCH   1  49
HETATM   49  C2  UNL     1       0.543   8.581  13.249  1.00  0.00    -0.029 C 
HETATM   50  C1  UNL     1      -0.453   8.813  12.387  1.00  0.00     0.007 C 
ENDBRANCH   1  49
BRANCH   2  51
HETATM   51  C5  UNL     1       3.149   9.085  12.064  1.00  0.00     0.120 C 
BRANCH  51  52
HETATM   52  C6  UNL     1       3.596   7.651  11.947  1.00  0.00     0.140 C 
HETATM   53  O1  UNL     1       4.483   7.250  11.210  1.00  0.00    -0.650 OA
BRANCH  52  54
HETATM   54  O2  UNL     1       2.963   6.787  12.755  1.00  0.00    -0.776 OA
HETATM   55  H8  UNL     1       3.396   5.929  12.562  1.00  0.00     0.167 HD
ENDBRANCH  52  54
ENDBRANCH  51  52
ENDBRANCH   2  51
BRANCH   3  56
HETATM   56  C8  UNL     1       5.212   8.686  14.265  1.00  0.00     0.289 C 
HETATM   57  O3  UNL     1       5.506   7.528  14.520  1.00  0.00    -0.260 OA
BRANCH  56  58
HETATM   58  O4  UNL     1       6.026   9.602  13.683  1.00  0.00    -0.323 OA
HETATM   59  C9  UNL     1       7.060   9.053  12.867  1.00  0.00     0.213 C 
ENDBRANCH  56  58
ENDBRANCH   3  56
TORSDOF 14
ENDMDL
MODEL 3
REMARK minimizedAffinity -6.13213968
REMARK CNNscore 0.287852317
REMARK CNNaffinity 6.31039429
REMARK  14 active torsions:
REMARK  status: ('A' for Active; 'I' for Inactive)
REMARK    1  A    between atoms: C2_2  and  C3_3 
REMARK    2  A    between atoms: C4_4  and  C5_5 
REMARK    3  A    between atoms: C5_5  and  C6_6 
REMARK    4  A    between atoms: C6_6  and  O2_8 
REMARK    5  A    between atoms: C7_9  and  C8_10 
REMARK    6  A    between atoms: C8_10  and  O4_12 
REMARK    7  A    between atoms: C22_29  and  O8_30 
REMARK    8  A    between atoms: C28_36  and  C29_37 
REMARK    9  A    between atoms: C29_37  and  C31_39 
REMARK   10  A    between atoms: C37_46  and  C38_47 
REMARK   11  A    between atoms: C38_47  and  C39_48 
REMARK   12  A    between atoms: C39_48  and  C40_49 
REMARK   13  A    between atoms: C40_49  and  O9_50 
REMARK   14  A    between atoms: C42_53  and  O11_54 
ROOT
HETATM    1  C3  UNL     1     -15.430   9.154  14.330  1.00  0.00     0.046 C 
HETATM    2  C4  UNL     1     -16.713   9.356  13.411  1.00  0.00     0.044 C 
HETATM    3  C7  UNL     1     -16.532  10.391  12.294  1.00  0.00     0.019 C 
HETATM    4  C10 UNL     1     -15.730  11.467  12.471  1.00  0.00    -0.000 C 
HETATM    5  C11 UNL     1     -14.957  11.672  13.789  1.00  0.00     0.012 C 
HETATM    6  C12 UNL     1     -13.836  12.716  13.633  1.00  0.00     0.017 C 
HETATM    7  C13 UNL     1     -14.537  14.066  13.569  1.00  0.00     0.002 C 
HETATM    8  C14 UNL     1     -15.836  13.909  14.350  1.00  0.00     0.010 C 
HETATM    9  C15 UNL     1     -15.961  12.417  14.754  1.00  0.00     0.025 C 
HETATM   10  C16 UNL     1     -15.892  12.142  16.228  1.00  0.00     0.003 C 
HETATM   11  C17 UNL     1     -15.379  12.914  17.193  1.00  0.00     0.131 C 
HETATM   12  O5  UNL     1     -15.327  12.489  18.499  1.00  0.00    -0.361 OA
HETATM   13  C18 UNL     1     -13.964  12.241  18.915  1.00  0.00     0.210 C 
HETATM   14  C19 UNL     1     -13.462  10.912  18.316  1.00  0.00     0.191 C 
HETATM   15  O6  UNL     1     -13.413  11.075  16.892  1.00  0.00    -0.347 OA
HETATM   16  C20 UNL     1     -13.107   9.898  16.177  1.00  0.00     0.297 C 
HETATM   17  O7  UNL     1     -13.116  10.209  14.798  1.00  0.00    -0.351 OA
HETATM   18  C21 UNL     1     -14.353  10.254  14.070  1.00  0.00     0.146 C 
HETATM   19  C22 UNL     1     -11.692   9.390  16.607  1.00  0.00     0.136 C 
HETATM   20  C23 UNL     1     -10.566  10.402  16.300  1.00  0.00     0.050 C 
HETATM   21  C24 UNL     1     -10.643  11.704  17.110  1.00  0.00     0.041 C 
HETATM   22  C25 UNL     1     -10.977  11.473  18.565  1.00  0.00    -0.027 C 
HETATM   23  C26 UNL     1     -10.385  12.092  19.591  1.00  0.00     0.001 A 
HETATM   24  C27 UNL     1      -9.369  13.127  19.633  1.00  0.00     0.039 A 
HETATM   25  C28 UNL     1      -9.145  13.386  20.940  1.00  0.00     0.014 A 
HETATM   26  N1  UNL     1      -9.957  12.578  21.730  1.00  0.00    -0.357 N 
HETATM   27  C36 UNL     1     -10.726  11.745  20.962  1.00  0.00     0.072 A 
HETATM   28  C37 UNL     1     -11.589  10.766  21.242  1.00  0.00     0.075 C 
HETATM   29  O10 UNL     1     -12.254  10.067  20.253  1.00  0.00    -0.332 OA
HETATM   30  C41 UNL     1     -12.080  10.442  18.860  1.00  0.00     0.148 C 
HETATM   31  C42 UNL     1     -11.737   9.129  18.122  1.00  0.00     0.199 C 
HETATM   32  H46 UNL     1      -9.878  12.513  22.733  1.00  0.00     0.166 HD
ENDROOT
BRANCH  25  33
HETATM   33  C29 UNL     1      -8.150  14.366  21.501  1.00  0.00     0.035 C 
HETATM   34  C30 UNL     1      -6.756  13.732  21.562  1.00  0.00     0.017 C 
BRANCH  33  35
HETATM   35  C31 UNL     1      -8.528  15.021  22.849  1.00  0.00    -0.005 C 
HETATM   36  C32 UNL     1      -7.860  14.418  24.087  1.00  0.00     0.005 C 
HETATM   37  C33 UNL     1      -8.226  15.397  25.192  1.00  0.00     0.000 C 
HETATM   38  C34 UNL     1      -8.360  16.759  24.517  1.00  0.00     0.000 C 
HETATM   39  C35 UNL     1      -8.221  16.511  23.014  1.00  0.00     0.005 C 
ENDBRANCH  33  35
ENDBRANCH  25  33
BRANCH  28  40
HETATM   40  C38 UNL     1     -11.915  10.310  22.638  1.00  0.00     0.069 C 
BRANCH  40  41
HETATM   41  C39 UNL     1     -10.866   9.311  23.142  1.00  0.00     0.033 C 
BRANCH  41  42
HETATM   42  C40 UNL     1     -11.254   8.718  24.487  1.00  0.00     0.164 C 
BRANCH  42  43
HETATM   43  O9  UNL     1     -12.664   8.782  24.664  1.00  0.00    -0.401 OA
HETATM   44  H53 UNL     1     -12.899   9.717  24.777  1.00  0.00     0.209 HD
ENDBRANCH  42  43
ENDBRANCH  41  42
ENDBRANCH  40  41
ENDBRANCH  28  40
BRANCH  31  45
HETATM   45  O11 UNL     1     -10.484   8.558  18.558  1.00  0.00    -0.389 OA
HETATM   46  H55 UNL     1     -10.412   8.753  19.514  1.00  0.00     0.210 HD
ENDBRANCH  31  45
BRANCH  19  47
HETATM   47  O8  UNL     1     -11.373   8.149  15.956  1.00  0.00    -0.382 OA
HETATM   48  H27 UNL     1     -10.624   7.774  16.468  1.00  0.00     0.210 HD
ENDBRANCH  19  47
BRANCH   1  49
HETATM   49  C2  UNL     1     -14.789   7.779  14.214  1.00  0.00    -0.029 C 
HETATM   50  C1  UNL     1     -14.664   6.902  15.215  1.00  0.00     0.007 C 
ENDBRANCH   1  49
BRANCH   2  51
HETATM   51  C5  UNL     1     -17.451   8.035  13.075  1.00  0.00     0.120 C 
BRANCH  51  52
HETATM   52  C6  UNL     1     -16.744   7.021  12.215  1.00  0.00     0.140 C 
HETATM   53  O1  UNL     1     -16.921   5.813  12.263  1.00  0.00    -0.650 OA
BRANCH  52  54
HETATM   54  O2  UNL     1     -15.883   7.530  11.320  1.00  0.00    -0.776 OA
HETATM   55  H8  UNL     1     -15.548   6.741  10.845  1.00  0.00     0.167 HD
ENDBRANCH  52  54
ENDBRANCH  51  52
ENDBRANCH   2  51
BRANCH   3  56
HETATM   56  C8  UNL     1     -17.327  10.295  11.040  1.00  0.00     0.289 C 
HETATM   57  O3  UNL     1     -17.003   9.605  10.086  1.00  0.00    -0.260 OA
BRANCH  56  58
HETATM   58  O4  UNL     1     -18.419  11.098  11.106  1.00  0.00    -0.323 OA
HETATM   59  C9  UNL     1     -18.904  11.341  12.426  1.00  0.00     0.213 C 
ENDBRANCH  56  58
ENDBRANCH   3  56
TORSDOF 14
ENDMDL
MODEL 4
REMARK minimizedAffinity -6.72230434
REMARK CNNscore 0.250869185
REMARK CNNaffinity 6.08013773
REMARK  14 active torsions:
REMARK  status: ('A' for Active; 'I' for Inactive)
REMARK    1  A    between atoms: C2_2  and  C3_3 
REMARK    2  A    between atoms: C4_4  and  C5_5 
REMARK    3  A    between atoms: C5_5  and  C6_6 
REMARK    4  A    between atoms: C6_6  and  O2_8 
REMARK    5  A    between atoms: C7_9  and  C8_10 
REMARK    6  A    between atoms: C8_10  and  O4_12 
REMARK    7  A    between atoms: C22_29  and  O8_30 
REMARK    8  A    between atoms: C28_36  and  C29_37 
REMARK    9  A    between atoms: C29_37  and  C31_39 
REMARK   10  A    between atoms: C37_46  and  C38_47 
REMARK   11  A    between atoms: C38_47  and  C39_48 
REMARK   12  A    between atoms: C39_48  and  C40_49 
REMARK   13  A    between atoms: C40_49  and  O9_50 
REMARK   14  A    between atoms: C42_53  and  O11_54 
ROOT
HETATM    1  C3  UNL     1     -15.302  10.383  14.419  1.00  0.00     0.046 C 
HETATM    2  C4  UNL     1     -16.551  10.843  13.548  1.00  0.00     0.044 C 
HETATM    3  C7  UNL     1     -16.381  12.211  12.875  1.00  0.00     0.019 C 
HETATM    4  C10 UNL     1     -15.654  13.187  13.467  1.00  0.00    -0.000 C 
HETATM    5  C11 UNL     1     -14.957  12.947  14.821  1.00  0.00     0.012 C 
HETATM    6  C12 UNL     1     -13.895  14.023  15.112  1.00  0.00     0.017 C 
HETATM    7  C13 UNL     1     -14.672  15.280  15.477  1.00  0.00     0.002 C 
HETATM    8  C14 UNL     1     -15.995  14.806  16.069  1.00  0.00     0.010 C 
HETATM    9  C15 UNL     1     -16.048  13.264  15.918  1.00  0.00     0.025 C 
HETATM   10  C16 UNL     1     -16.031  12.492  17.206  1.00  0.00     0.003 C 
HETATM   11  C17 UNL     1     -15.610  12.895  18.410  1.00  0.00     0.131 C 
HETATM   12  O5  UNL     1     -15.594  12.040  19.487  1.00  0.00    -0.361 OA
HETATM   13  C18 UNL     1     -14.239  11.718  19.877  1.00  0.00     0.210 C 
HETATM   14  C19 UNL     1     -13.631  10.705  18.887  1.00  0.00     0.191 C 
HETATM   15  O6  UNL     1     -13.525  11.360  17.615  1.00  0.00    -0.347 OA
HETATM   16  C20 UNL     1     -13.116  10.523  16.556  1.00  0.00     0.297 C 
HETATM   17  O7  UNL     1     -13.080  11.298  15.374  1.00  0.00    -0.351 OA
HETATM   18  C21 UNL     1     -14.283  11.546  14.629  1.00  0.00     0.146 C 
HETATM   19  C22 UNL     1     -11.694   9.953  16.872  1.00  0.00     0.136 C 
HETATM   20  C23 UNL     1     -10.619  11.053  17.011  1.00  0.00     0.050 C 
HETATM   21  C24 UNL     1     -10.812  11.983  18.217  1.00  0.00     0.041 C 
HETATM   22  C25 UNL     1     -11.198  11.242  19.476  1.00  0.00    -0.027 C 
HETATM   23  C26 UNL     1     -10.693  11.485  20.689  1.00  0.00     0.001 A 
HETATM   24  C27 UNL     1      -9.744  12.479  21.154  1.00  0.00     0.039 A 
HETATM   25  C28 UNL     1      -9.598  12.271  22.482  1.00  0.00     0.014 A 
HETATM   26  N1  UNL     1     -10.395  11.205  22.886  1.00  0.00    -0.357 N 
HETATM   27  C36 UNL     1     -11.076  10.665  21.828  1.00  0.00     0.072 A 
HETATM   28  C37 UNL     1     -11.890   9.617  21.692  1.00  0.00     0.075 C 
HETATM   29  O10 UNL     1     -12.465   9.283  20.481  1.00  0.00    -0.332 OA
HETATM   30  C41 UNL     1     -12.250  10.130  19.321  1.00  0.00     0.148 C 
HETATM   31  C42 UNL     1     -11.794   9.175  18.195  1.00  0.00     0.199 C 
HETATM   32  H46 UNL     1     -10.358  10.795  23.806  1.00  0.00     0.166 HD
ENDROOT
BRANCH  25  33
HETATM   33  C29 UNL     1      -8.690  13.031  23.412  1.00  0.00     0.035 C 
HETATM   34  C30 UNL     1      -9.319  14.379  23.784  1.00  0.00     0.017 C 
BRANCH  33  35
HETATM   35  C31 UNL     1      -7.228  13.204  22.942  1.00  0.00    -0.005 C 
HETATM   36  C32 UNL     1      -7.022  13.236  21.425  1.00  0.00     0.005 C 
HETATM   37  C33 UNL     1      -5.565  13.649  21.280  1.00  0.00     0.000 C 
HETATM   38  C34 UNL     1      -5.256  14.522  22.493  1.00  0.00     0.000 C 
HETATM   39  C35 UNL     1      -6.493  14.468  23.390  1.00  0.00     0.005 C 
ENDBRANCH  33  35
ENDBRANCH  25  33
BRANCH  28  40
HETATM   40  C38 UNL     1     -12.252   8.686  22.818  1.00  0.00     0.069 C 
BRANCH  40  41
HETATM   41  C39 UNL     1     -12.572   9.474  24.094  1.00  0.00     0.033 C 
BRANCH  41  42
HETATM   42  C40 UNL     1     -11.820   8.928  25.297  1.00  0.00     0.164 C 
BRANCH  42  43
HETATM   43  O9  UNL     1     -10.658   9.710  25.546  1.00  0.00    -0.401 OA
HETATM   44  H53 UNL     1     -10.035   9.540  24.821  1.00  0.00     0.209 HD
ENDBRANCH  42  43
ENDBRANCH  41  42
ENDBRANCH  40  41
ENDBRANCH  28  40
BRANCH  31  45
HETATM   45  O11 UNL     1     -10.530   8.538  18.485  1.00  0.00    -0.389 OA
HETATM   46  H55 UNL     1     -10.515   8.388  19.452  1.00  0.00     0.210 HD
ENDBRANCH  31  45
BRANCH  19  47
HETATM   47  O8  UNL     1     -11.272   9.034  15.852  1.00  0.00    -0.382 OA
HETATM   48  H27 UNL     1     -10.526   8.534  16.248  1.00  0.00     0.210 HD
ENDBRANCH  19  47
BRANCH   1  49
HETATM   49  C2  UNL     1     -14.574   9.163  13.873  1.00  0.00    -0.029 C 
HETATM   50  C1  UNL     1     -13.420   9.194  13.198  1.00  0.00     0.007 C 
ENDBRANCH   1  49
BRANCH   2  51
HETATM   51  C5  UNL     1     -17.191   9.696  12.725  1.00  0.00     0.120 C 
BRANCH  51  52
HETATM   52  C6  UNL     1     -16.623   9.389  11.364  1.00  0.00     0.140 C 
HETATM   53  O1  UNL     1     -15.455   9.536  11.041  1.00  0.00    -0.650 OA
BRANCH  52  54
HETATM   54  O2  UNL     1     -17.499   8.888  10.478  1.00  0.00    -0.776 OA
HETATM   55  H8  UNL     1     -16.955   8.730   9.678  1.00  0.00     0.167 HD
ENDBRANCH  52  54
ENDBRANCH  51  52
ENDBRANCH   2  51
BRANCH   3  56
HETATM   56  C8  UNL     1     -17.109  12.530  11.618  1.00  0.00     0.289 C 
HETATM   57  O3  UNL     1     -17.655  11.689  10.921  1.00  0.00    -0.260 OA
BRANCH  56  58
HETATM   58  O4  UNL     1     -17.046  13.860  11.356  1.00  0.00    -0.323 OA
HETATM   59  C9  UNL     1     -17.143  14.203   9.974  1.00  0.00     0.213 C 
ENDBRANCH  56  58
ENDBRANCH   3  56
TORSDOF 14
ENDMDL
MODEL 5
REMARK minimizedAffinity -6.35544825
REMARK CNNscore 0.229239285
REMARK CNNaffinity 7.04876852
REMARK  14 active torsions:
REMARK  status: ('A' for Active; 'I' for Inactive)
REMARK    1  A    between atoms: C2_2  and  C3_3 
REMARK    2  A    between atoms: C4_4  and  C5_5 
REMARK    3  A    between atoms: C5_5  and  C6_6 
REMARK    4  A    between atoms: C6_6  and  O2_8 
REMARK    5  A    between atoms: C7_9  and  C8_10 
REMARK    6  A    between atoms: C8_10  and  O4_12 
REMARK    7  A    between atoms: C22_29  and  O8_30 
REMARK    8  A    between atoms: C28_36  and  C29_37 
REMARK    9  A    between atoms: C29_37  and  C31_39 
REMARK   10  A    between atoms: C37_46  and  C38_47 
REMARK   11  A    between atoms: C38_47  and  C39_48 
REMARK   12  A    between atoms: C39_48  and  C40_49 
REMARK   13  A    between atoms: C40_49  and  O9_50 
REMARK   14  A    between atoms: C42_53  and  O11_54 
ROOT
HETATM    1  C3  UNL     1     -12.795  16.686   6.446  1.00  0.00     0.046 C 
HETATM    2  C4  UNL     1     -12.149  16.925   7.880  1.00  0.00     0.044 C 
HETATM    3  C7  UNL     1     -11.121  18.063   7.927  1.00  0.00     0.019 C 
HETATM    4  C10 UNL     1     -10.346  18.340   6.852  1.00  0.00    -0.000 C 
HETATM    5  C11 UNL     1     -10.489  17.538   5.543  1.00  0.00     0.012 C 
HETATM    6  C12 UNL     1      -9.809  18.254   4.361  1.00  0.00     0.017 C 
HETATM    7  C13 UNL     1      -8.313  18.073   4.576  1.00  0.00     0.002 C 
HETATM    8  C14 UNL     1      -8.149  16.775   5.358  1.00  0.00     0.010 C 
HETATM    9  C15 UNL     1      -9.568  16.268   5.725  1.00  0.00     0.025 C 
HETATM   10  C16 UNL     1      -9.975  14.976   5.079  1.00  0.00     0.003 C 
HETATM   11  C17 UNL     1      -9.473  14.403   3.979  1.00  0.00     0.131 C 
HETATM   12  O5  UNL     1     -10.004  13.242   3.469  1.00  0.00    -0.361 OA
HETATM   13  C18 UNL     1     -10.674  13.483   2.210  1.00  0.00     0.210 C 
HETATM   14  C19 UNL     1     -12.036  14.161   2.458  1.00  0.00     0.191 C 
HETATM   15  O6  UNL     1     -11.774  15.457   3.015  1.00  0.00    -0.347 OA
HETATM   16  C20 UNL     1     -12.923  16.159   3.435  1.00  0.00     0.297 C 
HETATM   17  O7  UNL     1     -12.507  17.397   3.976  1.00  0.00    -0.351 OA
HETATM   18  C21 UNL     1     -12.040  17.478   5.332  1.00  0.00     0.146 C 
HETATM   19  C22 UNL     1     -13.858  16.394   2.203  1.00  0.00     0.136 C 
HETATM   20  C23 UNL     1     -13.197  17.245   1.096  1.00  0.00     0.050 C 
HETATM   21  C24 UNL     1     -12.004  16.571   0.404  1.00  0.00     0.041 C 
HETATM   22  C25 UNL     1     -12.250  15.114   0.092  1.00  0.00    -0.027 C 
HETATM   23  C26 UNL     1     -11.921  14.514  -1.057  1.00  0.00     0.001 A 
HETATM   24  C27 UNL     1     -11.236  15.006  -2.237  1.00  0.00     0.039 A 
HETATM   25  C28 UNL     1     -11.166  13.965  -3.096  1.00  0.00     0.014 A 
HETATM   26  N1  UNL     1     -11.765  12.844  -2.532  1.00  0.00    -0.357 N 
HETATM   27  C36 UNL     1     -12.268  13.120  -1.290  1.00  0.00     0.072 A 
HETATM   28  C37 UNL     1     -12.971  12.417  -0.400  1.00  0.00     0.075 C 
HETATM   29  O10 UNL     1     -13.359  12.946   0.816  1.00  0.00    -0.332 OA
HETATM   30  C41 UNL     1     -12.933  14.283   1.191  1.00  0.00     0.148 C 
HETATM   31  C42 UNL     1     -14.222  15.014   1.631  1.00  0.00     0.199 C 
HETATM   32  H46 UNL     1     -11.935  11.986  -3.035  1.00  0.00     0.166 HD
ENDROOT
BRANCH  25  33
HETATM   33  C29 UNL     1     -10.571  13.985  -4.479  1.00  0.00     0.035 C 
HETATM   34  C30 UNL     1     -10.336  15.428  -4.936  1.00  0.00     0.017 C 
BRANCH  33  35
HETATM   35  C31 UNL     1     -11.327  13.171  -5.554  1.00  0.00    -0.005 C 
HETATM   36  C32 UNL     1     -11.253  11.649  -5.403  1.00  0.00     0.005 C 
HETATM   37  C33 UNL     1     -12.260  11.148  -6.427  1.00  0.00     0.000 C 
HETATM   38  C34 UNL     1     -13.328  12.235  -6.528  1.00  0.00     0.000 C 
HETATM   39  C35 UNL     1     -12.834  13.406  -5.678  1.00  0.00     0.005 C 
ENDBRANCH  33  35
ENDBRANCH  25  33
BRANCH  28  40
HETATM   40  C38 UNL     1     -13.429  11.001  -0.625  1.00  0.00     0.069 C 
BRANCH  40  41
HETATM   41  C39 UNL     1     -14.060  10.848  -2.014  1.00  0.00     0.033 C 
BRANCH  41  42
HETATM   42  C40 UNL     1     -14.065   9.399  -2.474  1.00  0.00     0.164 C 
BRANCH  42  43
HETATM   43  O9  UNL     1     -12.791   9.045  -2.997  1.00  0.00    -0.401 OA
HETATM   44  H53 UNL     1     -12.679   9.525  -3.834  1.00  0.00     0.209 HD
ENDBRANCH  42  43
ENDBRANCH  41  42
ENDBRANCH  40  41
ENDBRANCH  28  40
BRANCH  31  45
HETATM   45  O11 UNL     1     -15.170  15.167   0.551  1.00  0.00    -0.389 OA
HETATM   46  H55 UNL     1     -15.086  14.364  -0.002  1.00  0.00     0.210 HD
ENDBRANCH  31  45
BRANCH  19  47
HETATM   47  O8  UNL     1     -15.078  17.041   2.602  1.00  0.00    -0.382 OA
HETATM   48  H27 UNL     1     -15.697  16.908   1.853  1.00  0.00     0.210 HD
ENDBRANCH  19  47
BRANCH   1  49
HETATM   49  C2  UNL     1     -14.283  16.998   6.371  1.00  0.00    -0.029 C 
HETATM   50  C1  UNL     1     -14.805  18.219   6.213  1.00  0.00     0.007 C 
ENDBRANCH   1  49
BRANCH   2  51
HETATM   51  C5  UNL     1     -13.162  16.805   9.047  1.00  0.00     0.120 C 
BRANCH  51  52
HETATM   52  C6  UNL     1     -13.481  15.431   9.577  1.00  0.00     0.140 C 
HETATM   53  O1  UNL     1     -12.749  14.767  10.294  1.00  0.00    -0.650 OA
BRANCH  52  54
HETATM   54  O2  UNL     1     -14.687  14.952   9.235  1.00  0.00    -0.776 OA
HETATM   55  H8  UNL     1     -14.726  14.081   9.683  1.00  0.00     0.167 HD
ENDBRANCH  52  54
ENDBRANCH  51  52
ENDBRANCH   2  51
BRANCH   3  56
HETATM   56  C8  UNL     1     -10.873  18.805   9.192  1.00  0.00     0.289 C 
HETATM   57  O3  UNL     1     -11.424  19.856   9.478  1.00  0.00    -0.260 OA
BRANCH  56  58
HETATM   58  O4  UNL     1      -9.940  18.167   9.943  1.00  0.00    -0.323 OA
HETATM   59  C9  UNL     1     -10.380  17.784  11.246  1.00  0.00     0.213 C 
ENDBRANCH  56  58
ENDBRANCH   3  56
TORSDOF 14
ENDMDL
MODEL 6
REMARK minimizedAffinity -8.84440613
REMARK CNNscore 0.219202161
REMARK CNNaffinity 7.03224039
REMARK  14 active torsions:
REMARK  status: ('A' for Active; 'I' for Inactive)
REMARK    1  A    between atoms: C2_2  and  C3_3 
REMARK    2  A    between atoms: C4_4  and  C5_5 
REMARK    3  A    between atoms: C5_5  and  C6_6 
REMARK    4  A    between atoms: C6_6  and  O2_8 
REMARK    5  A    between atoms: C7_9  and  C8_10 
REMARK    6  A    between atoms: C8_10  and  O4_12 
REMARK    7  A    between atoms: C22_29  and  O8_30 
REMARK    8  A    between atoms: C28_36  and  C29_37 
REMARK    9  A    between atoms: C29_37  and  C31_39 
REMARK   10  A    between atoms: C37_46  and  C38_47 
REMARK   11  A    between atoms: C38_47  and  C39_48 
REMARK   12  A    between atoms: C39_48  and  C40_49 
REMARK   13  A    between atoms: C40_49  and  O9_50 
REMARK   14  A    between atoms: C42_53  and  O11_54 
ROOT
HETATM    1  C3  UNL     1       1.961  12.423  17.415  1.00  0.00     0.046 C 
HETATM    2  C4  UNL     1       1.645  13.772  18.196  1.00  0.00     0.044 C 
HETATM    3  C7  UNL     1       0.771  13.589  19.444  1.00  0.00     0.019 C 
HETATM    4  C10 UNL     1      -0.171  12.618  19.491  1.00  0.00    -0.000 C 
HETATM    5  C11 UNL     1      -0.378  11.654  18.306  1.00  0.00     0.012 C 
HETATM    6  C12 UNL     1      -1.203  10.420  18.715  1.00  0.00     0.017 C 
HETATM    7  C13 UNL     1      -2.636  10.912  18.860  1.00  0.00     0.002 C 
HETATM    8  C14 UNL     1      -2.774  12.104  17.920  1.00  0.00     0.010 C 
HETATM    9  C15 UNL     1      -1.370  12.398  17.328  1.00  0.00     0.025 C 
HETATM   10  C16 UNL     1      -1.238  12.174  15.849  1.00  0.00     0.003 C 
HETATM   11  C17 UNL     1      -2.008  11.426  15.050  1.00  0.00     0.131 C 
HETATM   12  O5  UNL     1      -1.713  11.266  13.717  1.00  0.00    -0.361 OA
HETATM   13  C18 UNL     1      -1.288   9.912  13.436  1.00  0.00     0.210 C 
HETATM   14  C19 UNL     1       0.158   9.700  13.924  1.00  0.00     0.191 C 
HETATM   15  O6  UNL     1       0.150   9.817  15.353  1.00  0.00    -0.347 OA
HETATM   16  C20 UNL     1       1.426   9.790  15.952  1.00  0.00     0.297 C 
HETATM   17  O7  UNL     1       1.258   9.935  17.348  1.00  0.00    -0.351 OA
HETATM   18  C21 UNL     1       1.084  11.238  17.928  1.00  0.00     0.146 C 
HETATM   19  C22 UNL     1       2.114   8.422  15.631  1.00  0.00     0.136 C 
HETATM   20  C23 UNL     1       1.337   7.209  16.186  1.00  0.00     0.050 C 
HETATM   21  C24 UNL     1      -0.035   6.980  15.535  1.00  0.00     0.041 C 
HETATM   22  C25 UNL     1      -0.009   7.148  14.034  1.00  0.00    -0.027 C 
HETATM   23  C26 UNL     1      -0.623   6.338  13.165  1.00  0.00     0.001 A 
HETATM   24  C27 UNL     1      -1.476   5.182  13.366  1.00  0.00     0.039 A 
HETATM   25  C28 UNL     1      -1.825   4.749  12.134  1.00  0.00     0.014 A 
HETATM   26  N1  UNL     1      -1.244   5.561  11.165  1.00  0.00    -0.357 N 
HETATM   27  C36 UNL     1      -0.477   6.541  11.732  1.00  0.00     0.072 A 
HETATM   28  C37 UNL     1       0.314   7.496  11.239  1.00  0.00     0.075 C 
HETATM   29  O10 UNL     1       0.991   8.385  12.053  1.00  0.00    -0.332 OA
HETATM   30  C41 UNL     1       0.791   8.344  13.491  1.00  0.00     0.148 C 
HETATM   31  C42 UNL     1       2.211   8.304  14.101  1.00  0.00     0.199 C 
HETATM   32  H46 UNL     1      -1.269   5.359  10.177  1.00  0.00     0.166 HD
ENDROOT
BRANCH  25  33
HETATM   33  C29 UNL     1      -2.680   3.552  11.815  1.00  0.00     0.035 C 
HETATM   34  C30 UNL     1      -2.798   3.373  10.297  1.00  0.00     0.017 C 
BRANCH  33  35
HETATM   35  C31 UNL     1      -4.067   3.509  12.495  1.00  0.00    -0.005 C 
HETATM   36  C32 UNL     1      -4.694   4.872  12.803  1.00  0.00     0.005 C 
HETATM   37  C33 UNL     1      -6.110   4.515  13.229  1.00  0.00     0.000 C 
HETATM   38  C34 UNL     1      -6.467   3.240  12.470  1.00  0.00     0.000 C 
HETATM   39  C35 UNL     1      -5.195   2.803  11.741  1.00  0.00     0.005 C 
ENDBRANCH  33  35
ENDBRANCH  25  33
BRANCH  28  40
HETATM   40  C38 UNL     1       0.568   7.698   9.769  1.00  0.00     0.069 C 
BRANCH  40  41
HETATM   41  C39 UNL     1       2.053   7.976   9.507  1.00  0.00     0.033 C 
BRANCH  41  42
HETATM   42  C40 UNL     1       2.407   7.809   8.038  1.00  0.00     0.164 C 
BRANCH  42  43
HETATM   43  O9  UNL     1       3.119   8.948   7.572  1.00  0.00    -0.401 OA
HETATM   44  H53 UNL     1       2.493   9.691   7.549  1.00  0.00     0.209 HD
ENDBRANCH  42  43
ENDBRANCH  41  42
ENDBRANCH  40  41
ENDBRANCH  28  40
BRANCH  31  45
HETATM   45  O11 UNL     1       2.933   7.103  13.747  1.00  0.00    -0.389 OA
HETATM   46  H55 UNL     1       2.657   6.876  12.836  1.00  0.00     0.210 HD
ENDBRANCH  31  45
BRANCH  19  47
HETATM   47  O8  UNL     1       3.450   8.383  16.160  1.00  0.00    -0.382 OA
HETATM   48  H27 UNL     1       3.889   7.637  15.698  1.00  0.00     0.210 HD
ENDBRANCH  19  47
BRANCH   1  49
HETATM   49  C2  UNL     1       3.428  12.017  17.438  1.00  0.00    -0.029 C 
HETATM   50  C1  UNL     1       4.224  11.949  16.366  1.00  0.00     0.007 C 
ENDBRANCH   1  49
BRANCH   2  51
HETATM   51  C5  UNL     1       2.853  14.739  18.284  1.00  0.00     0.120 C 
BRANCH  51  52
HETATM   52  C6  UNL     1       2.974  15.829  17.251  1.00  0.00     0.140 C 
HETATM   53  O1  UNL     1       2.634  16.991  17.413  1.00  0.00    -0.650 OA
BRANCH  52  54
HETATM   54  O2  UNL     1       3.531  15.456  16.089  1.00  0.00    -0.776 OA
HETATM   55  H8  UNL     1       3.550  16.284  15.564  1.00  0.00     0.167 HD
ENDBRANCH  52  54
ENDBRANCH  51  52
ENDBRANCH   2  51
BRANCH   3  56
HETATM   56  C8  UNL     1       0.861  14.549  20.576  1.00  0.00     0.289 C 
HETATM   57  O3  UNL     1       0.379  15.671  20.551  1.00  0.00    -0.260 OA
BRANCH  56  58
HETATM   58  O4  UNL     1       1.570  14.011  21.601  1.00  0.00    -0.323 OA
HETATM   59  C9  UNL     1       2.793  14.681  21.900  1.00  0.00     0.213 C 
ENDBRANCH  56  58
ENDBRANCH   3  56
TORSDOF 14
ENDMDL
MODEL 7
REMARK minimizedAffinity -7.17088366
REMARK CNNscore 0.217709363
REMARK CNNaffinity 6.96628571
REMARK  14 active torsions:
REMARK  status: ('A' for Active; 'I' for Inactive)
REMARK    1  A    between atoms: C2_2  and  C3_3 
REMARK    2  A    between atoms: C4_4  and  C5_5 
REMARK    3  A    between atoms: C5_5  and  C6_6 
REMARK    4  A    between atoms: C6_6  and  O2_8 
REMARK    5  A    between atoms: C7_9  and  C8_10 
REMARK    6  A    between atoms: C8_10  and  O4_12 
REMARK    7  A    between atoms: C22_29  and  O8_30 
REMARK    8  A    between atoms: C28_36  and  C29_37 
REMARK    9  A    between atoms: C29_37  and  C31_39 
REMARK   10  A    between atoms: C37_46  and  C38_47 
REMARK   11  A    between atoms: C38_47  and  C39_48 
REMARK   12  A    between atoms: C39_48  and  C40_49 
REMARK   13  A    between atoms: C40_49  and  O9_50 
REMARK   14  A    between atoms: C42_53  and  O11_54 
ROOT
HETATM    1  C3  UNL     1       0.579  14.818  19.108  1.00  0.00     0.046 C 
HETATM    2  C4  UNL     1       0.752  16.336  19.554  1.00  0.00     0.044 C 
HETATM    3  C7  UNL     1      -0.323  16.833  20.528  1.00  0.00     0.019 C 
HETATM    4  C10 UNL     1      -1.587  16.353  20.467  1.00  0.00    -0.000 C 
HETATM    5  C11 UNL     1      -1.978  15.276  19.435  1.00  0.00     0.012 C 
HETATM    6  C12 UNL     1      -3.320  14.610  19.789  1.00  0.00     0.017 C 
HETATM    7  C13 UNL     1      -4.391  15.640  19.459  1.00  0.00     0.002 C 
HETATM    8  C14 UNL     1      -3.818  16.507  18.344  1.00  0.00     0.010 C 
HETATM    9  C15 UNL     1      -2.347  16.069  18.120  1.00  0.00     0.025 C 
HETATM   10  C16 UNL     1      -2.061  15.440  16.787  1.00  0.00     0.003 C 
HETATM   11  C17 UNL     1      -2.922  14.873  15.934  1.00  0.00     0.131 C 
HETATM   12  O5  UNL     1      -2.492  14.274  14.774  1.00  0.00    -0.361 OA
HETATM   13  C18 UNL     1      -2.662  12.839  14.833  1.00  0.00     0.210 C 
HETATM   14  C19 UNL     1      -1.570  12.214  15.725  1.00  0.00     0.191 C 
HETATM   15  O6  UNL     1      -1.786  12.687  17.061  1.00  0.00    -0.347 OA
HETATM   16  C20 UNL     1      -0.783  12.321  17.983  1.00  0.00     0.297 C 
HETATM   17  O7  UNL     1      -1.120  12.873  19.240  1.00  0.00    -0.351 OA
HETATM   18  C21 UNL     1      -0.806  14.243  19.540  1.00  0.00     0.146 C 
HETATM   19  C22 UNL     1      -0.720  10.761  18.078  1.00  0.00     0.136 C 
HETATM   20  C23 UNL     1      -2.038  10.132  18.581  1.00  0.00     0.050 C 
HETATM   21  C24 UNL     1      -3.227  10.296  17.624  1.00  0.00     0.041 C 
HETATM   22  C25 UNL     1      -2.859  10.049  16.180  1.00  0.00    -0.027 C 
HETATM   23  C26 UNL     1      -3.598   9.348  15.313  1.00  0.00     0.001 A 
HETATM   24  C27 UNL     1      -4.892   8.708  15.451  1.00  0.00     0.039 A 
HETATM   25  C28 UNL     1      -5.166   8.145  14.253  1.00  0.00     0.014 A 
HETATM   26  N1  UNL     1      -4.123   8.388  13.366  1.00  0.00    -0.357 N 
HETATM   27  C36 UNL     1      -3.119   9.103  13.961  1.00  0.00     0.072 A 
HETATM   28  C37 UNL     1      -1.915   9.514  13.561  1.00  0.00     0.075 C 
HETATM   29  O10 UNL     1      -1.076  10.246  14.380  1.00  0.00    -0.332 OA
HETATM   30  C41 UNL     1      -1.531  10.657  15.697  1.00  0.00     0.148 C 
HETATM   31  C42 UNL     1      -0.410  10.226  16.670  1.00  0.00     0.199 C 
HETATM   32  H46 UNL     1      -4.054   7.966  12.453  1.00  0.00     0.166 HD
ENDROOT
BRANCH  25  33
HETATM   33  C29 UNL     1      -6.387   7.337  13.903  1.00  0.00     0.035 C 
HETATM   34  C30 UNL     1      -7.536   7.666  14.861  1.00  0.00     0.017 C 
BRANCH  33  35
HETATM   35  C31 UNL     1      -6.176   5.811  13.781  1.00  0.00    -0.005 C 
HETATM   36  C32 UNL     1      -7.265   5.053  13.015  1.00  0.00     0.005 C 
HETATM   37  C33 UNL     1      -6.675   3.660  12.856  1.00  0.00     0.000 C 
HETATM   38  C34 UNL     1      -5.161   3.852  12.799  1.00  0.00     0.000 C 
HETATM   39  C35 UNL     1      -4.903   5.333  13.080  1.00  0.00     0.005 C 
ENDBRANCH  33  35
ENDBRANCH  25  33
BRANCH  28  40
HETATM   40  C38 UNL     1      -1.336   9.216  12.204  1.00  0.00     0.069 C 
BRANCH  40  41
HETATM   41  C39 UNL     1       0.080   8.643  12.331  1.00  0.00     0.033 C 
BRANCH  41  42
HETATM   42  C40 UNL     1       0.638   8.216  10.982  1.00  0.00     0.164 C 
BRANCH  42  43
HETATM   43  O9  UNL     1      -0.053   8.882   9.932  1.00  0.00    -0.401 OA
HETATM   44  H53 UNL     1      -0.954   8.521   9.905  1.00  0.00     0.209 HD
ENDBRANCH  42  43
ENDBRANCH  41  42
ENDBRANCH  40  41
ENDBRANCH  28  40
BRANCH  31  45
HETATM   45  O11 UNL     1      -0.238   8.792  16.718  1.00  0.00    -0.389 OA
HETATM   46  H55 UNL     1      -0.415   8.464  15.814  1.00  0.00     0.210 HD
ENDBRANCH  31  45
BRANCH  19  47
HETATM   47  O8  UNL     1       0.342  10.342  18.951  1.00  0.00    -0.382 OA
HETATM   48  H27 UNL     1       0.484   9.393  18.748  1.00  0.00     0.210 HD
ENDBRANCH  19  47
BRANCH   1  49
HETATM   49  C2  UNL     1       1.687  13.895  19.594  1.00  0.00    -0.029 C 
HETATM   50  C1  UNL     1       1.631  13.141  20.697  1.00  0.00     0.007 C 
ENDBRANCH   1  49
BRANCH   2  51
HETATM   51  C5  UNL     1       2.224  16.743  19.817  1.00  0.00     0.120 C 
BRANCH  51  52
HETATM   52  C6  UNL     1       2.680  16.893  21.245  1.00  0.00     0.140 C 
HETATM   53  O1  UNL     1       3.184  17.899  21.720  1.00  0.00    -0.650 OA
BRANCH  52  54
HETATM   54  O2  UNL     1       2.468  15.824  22.028  1.00  0.00    -0.776 OA
HETATM   55  H8  UNL     1       2.796  16.111  22.906  1.00  0.00     0.167 HD
ENDBRANCH  52  54
ENDBRANCH  51  52
ENDBRANCH   2  51
BRANCH   3  56
HETATM   56  C8  UNL     1      -0.028  17.939  21.479  1.00  0.00     0.289 C 
HETATM   57  O3  UNL     1       0.152  19.096  21.134  1.00  0.00    -0.260 OA
BRANCH  56  58
HETATM   58  O4  UNL     1       0.041  17.467  22.750  1.00  0.00    -0.323 OA
HETATM   59  C9  UNL     1      -0.165  18.449  23.764  1.00  0.00     0.213 C 
ENDBRANCH  56  58
ENDBRANCH   3  56
TORSDOF 14
ENDMDL
MODEL 8
REMARK minimizedAffinity -7.17094231
REMARK CNNscore 0.211287856
REMARK CNNaffinity 6.25444937
REMARK  14 active torsions:
REMARK  status: ('A' for Active; 'I' for Inactive)
REMARK    1  A    between atoms: C2_2  and  C3_3 
REMARK    2  A    between atoms: C4_4  and  C5_5 
REMARK    3  A    between atoms: C5_5  and  C6_6 
REMARK    4  A    between atoms: C6_6  and  O2_8 
REMARK    5  A    between atoms: C7_9  and  C8_10 
REMARK    6  A    between atoms: C8_10  and  O4_12 
REMARK    7  A    between atoms: C22_29  and  O8_30 
REMARK    8  A    between atoms: C28_36  and  C29_37 
REMARK    9  A    between atoms: C29_37  and  C31_39 
REMARK   10  A    between atoms: C37_46  and  C38_47 
REMARK   11  A    between atoms: C38_47  and  C39_48 
REMARK   12  A    between atoms: C39_48  and  C40_49 
REMARK   13  A    between atoms: C40_49  and  O9_50 
REMARK   14  A    between atoms: C42_53  and  O11_54 
ROOT
HETATM    1  C3  UNL     1     -13.339  -6.087  15.438  1.00  0.00     0.046 C 
HETATM    2  C4  UNL     1     -13.089  -7.109  16.631  1.00  0.00     0.044 C 
HETATM    3  C7  UNL     1     -13.950  -8.377  16.566  1.00  0.00     0.019 C 
HETATM    4  C10 UNL     1     -15.198  -8.339  16.043  1.00  0.00    -0.000 C 
HETATM    5  C11 UNL     1     -15.782  -7.030  15.476  1.00  0.00     0.012 C 
HETATM    6  C12 UNL     1     -17.022  -7.292  14.602  1.00  0.00     0.017 C 
HETATM    7  C13 UNL     1     -18.143  -7.639  15.572  1.00  0.00     0.002 C 
HETATM    8  C14 UNL     1     -17.810  -6.930  16.879  1.00  0.00     0.010 C 
HETATM    9  C15 UNL     1     -16.411  -6.279  16.715  1.00  0.00     0.025 C 
HETATM   10  C16 UNL     1     -16.395  -4.778  16.741  1.00  0.00     0.003 C 
HETATM   11  C17 UNL     1     -17.406  -3.932  16.514  1.00  0.00     0.131 C 
HETATM   12  O5  UNL     1     -17.214  -2.571  16.507  1.00  0.00    -0.361 OA
HETATM   13  C18 UNL     1     -17.360  -2.030  15.174  1.00  0.00     0.210 C 
HETATM   14  C19 UNL     1     -16.109  -2.350  14.333  1.00  0.00     0.191 C 
HETATM   15  O6  UNL     1     -16.054  -3.774  14.171  1.00  0.00    -0.347 OA
HETATM   16  C20 UNL     1     -14.886  -4.250  13.542  1.00  0.00     0.297 C 
HETATM   17  O7  UNL     1     -14.967  -5.660  13.474  1.00  0.00    -0.351 OA
HETATM   18  C21 UNL     1     -14.606  -6.465  14.609  1.00  0.00     0.146 C 
HETATM   19  C22 UNL     1     -14.796  -3.645  12.102  1.00  0.00     0.136 C 
HETATM   20  C23 UNL     1     -15.983  -4.050  11.201  1.00  0.00     0.050 C 
HETATM   21  C24 UNL     1     -17.341  -3.489  11.646  1.00  0.00     0.041 C 
HETATM   22  C25 UNL     1     -17.268  -2.041  12.071  1.00  0.00    -0.027 C 
HETATM   23  C26 UNL     1     -18.161  -1.103  11.740  1.00  0.00     0.001 A 
HETATM   24  C27 UNL     1     -19.399  -1.177  10.986  1.00  0.00     0.039 A 
HETATM   25  C28 UNL     1     -19.904   0.076  10.963  1.00  0.00     0.014 A 
HETATM   26  N1  UNL     1     -19.061   0.940  11.655  1.00  0.00    -0.357 N 
HETATM   27  C36 UNL     1     -17.962   0.282  12.138  1.00  0.00     0.072 A 
HETATM   28  C37 UNL     1     -16.865   0.672  12.789  1.00  0.00     0.075 C 
HETATM   29  O10 UNL     1     -15.883  -0.220  13.177  1.00  0.00    -0.332 OA
HETATM   30  C41 UNL     1     -16.067  -1.643  12.946  1.00  0.00     0.148 C 
HETATM   31  C42 UNL     1     -14.771  -2.114  12.247  1.00  0.00     0.199 C 
HETATM   32  H46 UNL     1     -19.174   1.942  11.669  1.00  0.00     0.166 HD
ENDROOT
BRANCH  25  33
HETATM   33  C29 UNL     1     -21.165   0.520  10.271  1.00  0.00     0.035 C 
HETATM   34  C30 UNL     1     -21.895  -0.686   9.671  1.00  0.00     0.017 C 
BRANCH  33  35
HETATM   35  C31 UNL     1     -21.006   1.654   9.233  1.00  0.00    -0.005 C 
HETATM   36  C32 UNL     1     -21.373   1.287   7.793  1.00  0.00     0.005 C 
HETATM   37  C33 UNL     1     -21.350   2.627   7.075  1.00  0.00     0.000 C 
HETATM   38  C34 UNL     1     -21.738   3.669   8.121  1.00  0.00     0.000 C 
HETATM   39  C35 UNL     1     -21.825   2.927   9.456  1.00  0.00     0.005 C 
ENDBRANCH  33  35
ENDBRANCH  25  33
BRANCH  28  40
HETATM   40  C38 UNL     1     -16.568   2.102  13.150  1.00  0.00     0.069 C 
BRANCH  40  41
HETATM   41  C39 UNL     1     -16.164   2.218  14.625  1.00  0.00     0.033 C 
BRANCH  41  42
HETATM   42  C40 UNL     1     -14.658   2.109  14.806  1.00  0.00     0.164 C 
BRANCH  42  43
HETATM   43  O9  UNL     1     -14.336   0.940  15.550  1.00  0.00    -0.401 OA
HETATM   44  H53 UNL     1     -14.642   1.085  16.460  1.00  0.00     0.209 HD
ENDBRANCH  42  43
ENDBRANCH  41  42
ENDBRANCH  40  41
ENDBRANCH  28  40
BRANCH  31  45
HETATM   45  O11 UNL     1     -14.585  -1.503  10.951  1.00  0.00    -0.389 OA
HETATM   46  H55 UNL     1     -14.939  -0.593  11.024  1.00  0.00     0.210 HD
ENDBRANCH  31  45
BRANCH  19  47
HETATM   47  O8  UNL     1     -13.578  -4.045  11.452  1.00  0.00    -0.382 OA
HETATM   48  H27 UNL     1     -13.474  -3.427  10.697  1.00  0.00     0.210 HD
ENDBRANCH  19  47
BRANCH   1  49
HETATM   49  C2  UNL     1     -12.151  -5.916  14.502  1.00  0.00    -0.029 C 
HETATM   50  C1  UNL     1     -11.548  -4.755  14.228  1.00  0.00     0.007 C 
ENDBRANCH   1  49
BRANCH   2  51
HETATM   51  C5  UNL     1     -11.596  -7.256  17.022  1.00  0.00     0.120 C 
BRANCH  51  52
HETATM   52  C6  UNL     1     -10.791  -8.350  16.370  1.00  0.00     0.140 C 
HETATM   53  O1  UNL     1     -10.814  -8.626  15.181  1.00  0.00    -0.650 OA
BRANCH  52  54
HETATM   54  O2  UNL     1      -9.977  -9.029  17.193  1.00  0.00    -0.776 OA
HETATM   55  H8  UNL     1      -9.526  -9.666  16.600  1.00  0.00     0.167 HD
ENDBRANCH  52  54
ENDBRANCH  51  52
ENDBRANCH   2  51
BRANCH   3  56
HETATM   56  C8  UNL     1     -13.476  -9.644  17.185  1.00  0.00     0.289 C 
HETATM   57  O3  UNL     1     -13.187 -10.642  16.544  1.00  0.00    -0.260 OA
BRANCH  56  58
HETATM   58  O4  UNL     1     -13.448  -9.532  18.537  1.00  0.00    -0.323 OA
HETATM   59  C9  UNL     1     -12.588 -10.460  19.197  1.00  0.00     0.213 C 
ENDBRANCH  56  58
ENDBRANCH   3  56
TORSDOF 14
ENDMDL
MODEL 9
REMARK minimizedAffinity -6.5584054
REMARK CNNscore 0.201409832
REMARK CNNaffinity 5.87218475
REMARK  14 active torsions:
REMARK  status: ('A' for Active; 'I' for Inactive)
REMARK    1  A    between atoms: C2_2  and  C3_3 
REMARK    2  A    between atoms: C4_4  and  C5_5 
REMARK    3  A    between atoms: C5_5  and  C6_6 
REMARK    4  A    between atoms: C6_6  and  O2_8 
REMARK    5  A    between atoms: C7_9  and  C8_10 
REMARK    6  A    between atoms: C8_10  and  O4_12 
REMARK    7  A    between atoms: C22_29  and  O8_30 
REMARK    8  A    between atoms: C28_36  and  C29_37 
REMARK    9  A    between atoms: C29_37  and  C31_39 
REMARK   10  A    between atoms: C37_46  and  C38_47 
REMARK   11  A    between atoms: C38_47  and  C39_48 
REMARK   12  A    between atoms: C39_48  and  C40_49 
REMARK   13  A    between atoms: C40_49  and  O9_50 
REMARK   14  A    between atoms: C42_53  and  O11_54 
ROOT
HETATM    1  C3  UNL     1       3.285   9.304  13.583  1.00  0.00     0.046 C 
HETATM    2  C4  UNL     1       4.718   9.260  12.895  1.00  0.00     0.044 C 
HETATM    3  C7  UNL     1       5.893   9.346  13.878  1.00  0.00     0.019 C 
HETATM    4  C10 UNL     1       5.785  10.058  15.024  1.00  0.00    -0.000 C 
HETATM    5  C11 UNL     1       4.474  10.783  15.387  1.00  0.00     0.012 C 
HETATM    6  C12 UNL     1       4.442  11.191  16.871  1.00  0.00     0.017 C 
HETATM    7  C13 UNL     1       5.396  12.371  16.994  1.00  0.00     0.002 C 
HETATM    8  C14 UNL     1       5.403  13.056  15.633  1.00  0.00     0.010 C 
HETATM    9  C15 UNL     1       4.556  12.187  14.667  1.00  0.00     0.025 C 
HETATM   10  C16 UNL     1       3.291  12.825  14.171  1.00  0.00     0.003 C 
HETATM   11  C17 UNL     1       2.610  13.845  14.705  1.00  0.00     0.131 C 
HETATM   12  O5  UNL     1       1.421  14.274  14.165  1.00  0.00    -0.361 OA
HETATM   13  C18 UNL     1       0.310  13.965  15.038  1.00  0.00     0.210 C 
HETATM   14  C19 UNL     1      -0.031  12.464  14.949  1.00  0.00     0.191 C 
HETATM   15  O6  UNL     1       1.089  11.739  15.474  1.00  0.00    -0.347 OA
HETATM   16  C20 UNL     1       0.999  10.338  15.335  1.00  0.00     0.297 C 
HETATM   17  O7  UNL     1       2.176   9.768  15.873  1.00  0.00    -0.351 OA
HETATM   18  C21 UNL     1       3.378   9.704  15.089  1.00  0.00     0.146 C 
HETATM   19  C22 UNL     1      -0.256   9.825  16.115  1.00  0.00     0.136 C 
HETATM   20  C23 UNL     1      -0.187  10.118  17.630  1.00  0.00     0.050 C 
HETATM   21  C24 UNL     1      -0.235  11.609  17.992  1.00  0.00     0.041 C 
HETATM   22  C25 UNL     1      -1.262  12.377  17.193  1.00  0.00    -0.027 C 
HETATM   23  C26 UNL     1      -2.091  13.295  17.698  1.00  0.00     0.001 A 
HETATM   24  C27 UNL     1      -2.223  13.840  19.037  1.00  0.00     0.039 A 
HETATM   25  C28 UNL     1      -3.223  14.746  18.980  1.00  0.00     0.014 A 
HETATM   26  N1  UNL     1      -3.735  14.808  17.688  1.00  0.00    -0.357 N 
HETATM   27  C36 UNL     1      -3.097  13.927  16.858  1.00  0.00     0.072 A 
HETATM   28  C37 UNL     1      -3.265  13.573  15.582  1.00  0.00     0.075 C 
HETATM   29  O10 UNL     1      -2.459  12.635  14.966  1.00  0.00    -0.332 OA
HETATM   30  C41 UNL     1      -1.339  12.057  15.690  1.00  0.00     0.148 C 
HETATM   31  C42 UNL     1      -1.487  10.528  15.519  1.00  0.00     0.199 C 
HETATM   32  H46 UNL     1      -4.562  15.327  17.438  1.00  0.00     0.166 HD
ENDROOT
BRANCH  25  33
HETATM   33  C29 UNL     1      -3.759  15.559  20.128  1.00  0.00     0.035 C 
HETATM   34  C30 UNL     1      -2.665  16.475  20.688  1.00  0.00     0.017 C 
BRANCH  33  35
HETATM   35  C31 UNL     1      -4.457  14.764  21.255  1.00  0.00    -0.005 C 
HETATM   36  C32 UNL     1      -5.435  15.564  22.120  1.00  0.00     0.005 C 
HETATM   37  C33 UNL     1      -6.123  14.492  22.952  1.00  0.00     0.000 C 
HETATM   38  C34 UNL     1      -6.129  13.233  22.088  1.00  0.00     0.000 C 
HETATM   39  C35 UNL     1      -5.309  13.563  20.840  1.00  0.00     0.005 C 
ENDBRANCH  33  35
ENDBRANCH  25  33
BRANCH  28  40
HETATM   40  C38 UNL     1      -4.343  14.132  14.693  1.00  0.00     0.069 C 
BRANCH  40  41
HETATM   41  C39 UNL     1      -3.983  15.547  14.227  1.00  0.00     0.033 C 
BRANCH  41  42
HETATM   42  C40 UNL     1      -2.543  15.633  13.748  1.00  0.00     0.164 C 
BRANCH  42  43
HETATM   43  O9  UNL     1      -2.327  14.728  12.672  1.00  0.00    -0.401 OA
HETATM   44  H53 UNL     1      -2.368  13.830  13.038  1.00  0.00     0.209 HD
ENDBRANCH  42  43
ENDBRANCH  41  42
ENDBRANCH  40  41
ENDBRANCH  28  40
BRANCH  31  45
HETATM   45  O11 UNL     1      -2.689  10.014  16.134  1.00  0.00    -0.389 OA
HETATM   46  H55 UNL     1      -3.372  10.706  16.021  1.00  0.00     0.210 HD
ENDBRANCH  31  45
BRANCH  19  47
HETATM   47  O8  UNL     1      -0.428   8.410  15.936  1.00  0.00    -0.382 OA
HETATM   48  H27 UNL     1      -1.350   8.225  16.216  1.00  0.00     0.210 HD
ENDBRANCH  19  47
BRANCH   1  49
HETATM   49  C2  UNL     1       2.488   8.014  13.450  1.00  0.00    -0.029 C 
HETATM   50  C1  UNL     1       1.357   7.878  12.750  1.00  0.00     0.007 C 
ENDBRANCH   1  49
BRANCH   2  51
HETATM   51  C5  UNL     1       4.816   8.250  11.723  1.00  0.00     0.120 C 
BRANCH  51  52
HETATM   52  C6  UNL     1       4.561   8.750  10.325  1.00  0.00     0.140 C 
HETATM   53  O1  UNL     1       5.262   9.551   9.727  1.00  0.00    -0.650 OA
BRANCH  52  54
HETATM   54  O2  UNL     1       3.487   8.223   9.716  1.00  0.00    -0.776 OA
HETATM   55  H8  UNL     1       3.498   8.637   8.828  1.00  0.00     0.167 HD
ENDBRANCH  52  54
ENDBRANCH  51  52
ENDBRANCH   2  51
BRANCH   3  56
HETATM   56  C8  UNL     1       7.211   8.748  13.534  1.00  0.00     0.289 C 
HETATM   57  O3  UNL     1       7.929   9.165  12.639  1.00  0.00    -0.260 OA
BRANCH  56  58
HETATM   58  O4  UNL     1       7.468   7.676  14.326  1.00  0.00    -0.323 OA
HETATM   59  C9  UNL     1       8.699   7.744  15.045  1.00  0.00     0.213 C 
ENDBRANCH  56  58
ENDBRANCH   3  56
TORSDOF 14
ENDMDL
