MODEL 1
REMARK minimizedAffinity -9.257617
REMARK CNNscore 0.385754049
REMARK CNNaffinity 7.73291397
REMARK  14 active torsions:
REMARK  status: ('A' for Active; 'I' for Inactive)
REMARK    1  A    between atoms: C2_2  and  O2_4 
REMARK    2  A    between atoms: O2_4  and  C3_5 
REMARK    3  A    between atoms: C3_5  and  C4_6 
REMARK    4  A    between atoms: C4_6  and  C5_8 
REMARK    5  A    between atoms: C5_8  and  O4_9 
REMARK    6  A    between atoms: O4_9  and  C6_10 
REMARK    7  A    between atoms: C6_10  and  C7_12 
REMARK    8  A    between atoms: C7_12  and  C8_13 
REMARK    9  A    between atoms: C8_13  and  C9_14 
REMARK       I    between atoms: C9_14  and  N1_16 
REMARK   10  A    between atoms: N1_16  and  C10_17 
REMARK   11  A    between atoms: C10_17  and  C11_18 
REMARK   12  A    between atoms: C10_17  and  C18_25 
REMARK   13  A    between atoms: C11_18  and  C12_19 
REMARK   14  A    between atoms: C18_25  and  O8_27 
ROOT
HETATM    1  C3  UNL     1      -1.916  50.153 -19.413  1.00  0.00     0.140 C 
HETATM    2  C19 UNL     1      -1.812  51.677 -19.751  1.00  0.00     0.048 C 
HETATM    3  C20 UNL     1      -0.842  52.307 -18.730  1.00  0.00     0.009 C 
HETATM    4  C21 UNL     1      -0.317  51.128 -17.917  1.00  0.00     0.002 C 
HETATM    5  C22 UNL     1       0.291  51.390 -16.530  1.00  0.00    -0.004 C 
HETATM    6  C23 UNL     1       1.410  52.451 -16.519  1.00  0.00     0.010 C 
HETATM    7  C24 UNL     1       2.788  51.909 -16.152  1.00  0.00     0.035 C 
HETATM    8  C25 UNL     1       2.807  51.022 -14.925  1.00  0.00    -0.068 C 
HETATM    9  C26 UNL     1       3.954  50.884 -14.234  1.00  0.00     0.053 C 
HETATM   10  C27 UNL     1       4.088  49.917 -13.120  1.00  0.00     0.149 C 
HETATM   11  O9  UNL     1       5.120  49.912 -12.453  1.00  0.00    -0.293 OA
HETATM   12  C28 UNL     1       2.943  48.976 -12.829  1.00  0.00     0.084 C 
HETATM   13  C29 UNL     1       1.976  48.852 -14.004  1.00  0.00     0.022 C 
HETATM   14  C30 UNL     1       1.544  50.219 -14.599  1.00  0.00    -0.016 C 
HETATM   15  C31 UNL     1       0.704  50.981 -13.548  1.00  0.00     0.020 C 
HETATM   16  C32 UNL     1       0.757  50.022 -15.937  1.00  0.00     0.002 C 
HETATM   17  C33 UNL     1      -0.420  49.020 -15.882  1.00  0.00     0.007 C 
HETATM   18  C34 UNL     1      -1.064  48.828 -17.271  1.00  0.00     0.013 C 
HETATM   19  C35 UNL     1      -1.537  50.160 -17.882  1.00  0.00    -0.001 C 
HETATM   20  C36 UNL     1      -2.706  50.716 -17.009  1.00  0.00     0.019 C 
ENDROOT
BRANCH   1  21
HETATM   21  O2  UNL     1      -0.852  49.548 -20.196  1.00  0.00    -0.301 OA
BRANCH  21  22
HETATM   22  C2  UNL     1      -1.094  49.115 -21.460  1.00  0.00     0.256 C 
HETATM   23  C1  UNL     1      -1.336  47.639 -21.452  1.00  0.00     0.126 C 
HETATM   24  O1  UNL     1      -1.114  49.808 -22.464  1.00  0.00    -0.266 OA
ENDBRANCH  21  22
ENDBRANCH   1  21
BRANCH   1  25
HETATM   25  C4  UNL     1      -3.342  49.644 -19.774  1.00  0.00     0.186 C 
HETATM   26  O3  UNL     1      -3.844  48.644 -19.250  1.00  0.00    -0.292 OA
BRANCH  25  27
HETATM   27  C5  UNL     1      -4.172  50.466 -20.759  1.00  0.00     0.260 C 
BRANCH  27  28
HETATM   28  O4  UNL     1      -4.282  49.862 -22.044  1.00  0.00    -0.314 OA
BRANCH  28  29
HETATM   29  C6  UNL     1      -5.562  49.631 -22.449  1.00  0.00     0.259 C 
HETATM   30  O5  UNL     1      -6.528  50.325 -22.163  1.00  0.00    -0.265 OA
BRANCH  29  31
HETATM   31  C7  UNL     1      -5.609  48.366 -23.271  1.00  0.00     0.120 C 
BRANCH  31  32
HETATM   32  C8  UNL     1      -5.236  48.642 -24.721  1.00  0.00     0.112 C 
BRANCH  32  33
HETATM   33  C9  UNL     1      -3.784  49.052 -24.858  1.00  0.00     0.218 C 
HETATM   34  O6  UNL     1      -2.847  48.328 -24.538  1.00  0.00    -0.274 OA
HETATM   35  N1  UNL     1      -3.622  50.289 -25.425  1.00  0.00    -0.346 N 
HETATM   36  H10 UNL     1      -4.422  50.902 -25.552  1.00  0.00     0.163 HD
BRANCH  35  37
HETATM   37  C10 UNL     1      -2.307  50.909 -25.601  1.00  0.00     0.186 C 
BRANCH  37  38
HETATM   38  C11 UNL     1      -1.696  50.641 -26.986  1.00  0.00     0.074 C 
BRANCH  38  39
HETATM   39  C12 UNL     1      -0.234  51.017 -27.109  1.00  0.00    -0.056 A 
HETATM   40  C13 UNL     1       0.245  51.638 -28.270  1.00  0.00     0.007 A 
HETATM   41  C14 UNL     1       1.586  52.007 -28.375  1.00  0.00     0.001 A 
HETATM   42  C15 UNL     1       2.462  51.758 -27.320  1.00  0.00     0.000 A 
HETATM   43  C16 UNL     1       1.999  51.136 -26.162  1.00  0.00     0.001 A 
HETATM   44  C17 UNL     1       0.657  50.765 -26.056  1.00  0.00     0.007 A 
ENDBRANCH  38  39
ENDBRANCH  37  38
BRANCH  37  45
HETATM   45  C18 UNL     1      -2.376  52.414 -25.322  1.00  0.00     0.163 C 
HETATM   46  O7  UNL     1      -1.671  53.043 -24.549  1.00  0.00    -0.648 OA
BRANCH  45  47
HETATM   47  O8  UNL     1      -3.336  53.054 -26.034  1.00  0.00    -0.775 OA
HETATM   48  H19 UNL     1      -3.251  53.988 -25.749  1.00  0.00     0.167 HD
ENDBRANCH  45  47
ENDBRANCH  37  45
ENDBRANCH  35  37
ENDBRANCH  32  33
ENDBRANCH  31  32
ENDBRANCH  29  31
ENDBRANCH  28  29
ENDBRANCH  27  28
ENDBRANCH  25  27
ENDBRANCH   1  25
TORSDOF 14
ENDMDL
MODEL 2
REMARK minimizedAffinity -7.99754381
REMARK CNNscore 0.354825377
REMARK CNNaffinity 6.1911602
REMARK  14 active torsions:
REMARK  status: ('A' for Active; 'I' for Inactive)
REMARK    1  A    between atoms: C2_2  and  O2_4 
REMARK    2  A    between atoms: O2_4  and  C3_5 
REMARK    3  A    between atoms: C3_5  and  C4_6 
REMARK    4  A    between atoms: C4_6  and  C5_8 
REMARK    5  A    between atoms: C5_8  and  O4_9 
REMARK    6  A    between atoms: O4_9  and  C6_10 
REMARK    7  A    between atoms: C6_10  and  C7_12 
REMARK    8  A    between atoms: C7_12  and  C8_13 
REMARK    9  A    between atoms: C8_13  and  C9_14 
REMARK       I    between atoms: C9_14  and  N1_16 
REMARK   10  A    between atoms: N1_16  and  C10_17 
REMARK   11  A    between atoms: C10_17  and  C11_18 
REMARK   12  A    between atoms: C10_17  and  C18_25 
REMARK   13  A    between atoms: C11_18  and  C12_19 
REMARK   14  A    between atoms: C18_25  and  O8_27 
ROOT
HETATM    1  C3  UNL     1      -5.444  48.179 -21.965  1.00  0.00     0.140 C 
HETATM    2  C19 UNL     1      -6.285  47.773 -23.220  1.00  0.00     0.048 C 
HETATM    3  C20 UNL     1      -5.573  48.361 -24.457  1.00  0.00     0.009 C 
HETATM    4  C21 UNL     1      -4.290  48.976 -23.909  1.00  0.00     0.002 C 
HETATM    5  C22 UNL     1      -3.563  50.048 -24.737  1.00  0.00    -0.004 C 
HETATM    6  C23 UNL     1      -3.251  49.624 -26.186  1.00  0.00     0.010 C 
HETATM    7  C24 UNL     1      -1.763  49.499 -26.499  1.00  0.00     0.035 C 
HETATM    8  C25 UNL     1      -0.923  50.669 -26.035  1.00  0.00    -0.068 C 
HETATM    9  C26 UNL     1       0.253  50.913 -26.643  1.00  0.00     0.053 C 
HETATM   10  C27 UNL     1       1.196  51.941 -26.143  1.00  0.00     0.149 C 
HETATM   11  O9  UNL     1       2.203  52.199 -26.800  1.00  0.00    -0.293 OA
HETATM   12  C28 UNL     1       0.883  52.652 -24.848  1.00  0.00     0.084 C 
HETATM   13  C29 UNL     1      -0.144  51.900 -24.004  1.00  0.00     0.022 C 
HETATM   14  C30 UNL     1      -1.395  51.450 -24.804  1.00  0.00    -0.016 C 
HETATM   15  C31 UNL     1      -2.180  52.703 -25.256  1.00  0.00     0.020 C 
HETATM   16  C32 UNL     1      -2.285  50.485 -23.952  1.00  0.00     0.002 C 
HETATM   17  C33 UNL     1      -2.657  50.988 -22.537  1.00  0.00     0.007 C 
HETATM   18  C34 UNL     1      -3.451  49.925 -21.750  1.00  0.00     0.013 C 
HETATM   19  C35 UNL     1      -4.720  49.475 -22.496  1.00  0.00    -0.001 C 
HETATM   20  C36 UNL     1      -5.703  50.686 -22.573  1.00  0.00     0.019 C 
ENDROOT
BRANCH   1  21
HETATM   21  O2  UNL     1      -4.492  47.091 -21.815  1.00  0.00    -0.301 OA
BRANCH  21  22
HETATM   22  C2  UNL     1      -3.568  47.123 -20.821  1.00  0.00     0.256 C 
HETATM   23  C1  UNL     1      -2.196  46.988 -21.401  1.00  0.00     0.126 C 
HETATM   24  O1  UNL     1      -3.800  47.242 -19.629  1.00  0.00    -0.266 OA
ENDBRANCH  21  22
ENDBRANCH   1  21
BRANCH   1  25
HETATM   25  C4  UNL     1      -6.397  48.365 -20.748  1.00  0.00     0.186 C 
HETATM   26  O3  UNL     1      -6.478  49.427 -20.123  1.00  0.00    -0.292 OA
BRANCH  25  27
HETATM   27  C5  UNL     1      -7.318  47.205 -20.371  1.00  0.00     0.260 C 
BRANCH  27  28
HETATM   28  O4  UNL     1      -8.580  47.252 -21.028  1.00  0.00    -0.314 OA
BRANCH  28  29
HETATM   29  C6  UNL     1      -8.984  46.062 -21.554  1.00  0.00     0.259 C 
HETATM   30  O5  UNL     1      -8.239  45.160 -21.911  1.00  0.00    -0.265 OA
BRANCH  29  31
HETATM   31  C7  UNL     1     -10.489  46.045 -21.664  1.00  0.00     0.120 C 
BRANCH  31  32
HETATM   32  C8  UNL     1     -10.945  46.583 -23.014  1.00  0.00     0.112 C 
BRANCH  32  33
HETATM   33  C9  UNL     1     -12.200  45.887 -23.499  1.00  0.00     0.218 C 
HETATM   34  O6  UNL     1     -12.395  44.682 -23.368  1.00  0.00    -0.274 OA
HETATM   35  N1  UNL     1     -13.116  46.743 -24.049  1.00  0.00    -0.346 N 
HETATM   36  H10 UNL     1     -12.860  47.705 -24.255  1.00  0.00     0.163 HD
BRANCH  35  37
HETATM   37  C10 UNL     1     -14.377  46.280 -24.634  1.00  0.00     0.186 C 
BRANCH  37  38
HETATM   38  C11 UNL     1     -15.512  47.309 -24.506  1.00  0.00     0.074 C 
BRANCH  38  39
HETATM   39  C12 UNL     1     -16.825  46.733 -24.014  1.00  0.00    -0.056 A 
HETATM   40  C13 UNL     1     -16.865  45.949 -22.854  1.00  0.00     0.007 A 
HETATM   41  C14 UNL     1     -18.077  45.439 -22.386  1.00  0.00     0.001 A 
HETATM   42  C15 UNL     1     -19.259  45.707 -23.074  1.00  0.00     0.000 A 
HETATM   43  C16 UNL     1     -19.230  46.481 -24.232  1.00  0.00     0.001 A 
HETATM   44  C17 UNL     1     -18.019  46.991 -24.702  1.00  0.00     0.007 A 
ENDBRANCH  38  39
ENDBRANCH  37  38
BRANCH  37  45
HETATM   45  C18 UNL     1     -14.177  45.873 -26.098  1.00  0.00     0.163 C 
HETATM   46  O7  UNL     1     -14.414  46.558 -27.081  1.00  0.00    -0.648 OA
BRANCH  45  47
HETATM   47  O8  UNL     1     -13.688  44.619 -26.250  1.00  0.00    -0.775 OA
HETATM   48  H19 UNL     1     -13.618  44.514 -27.222  1.00  0.00     0.167 HD
ENDBRANCH  45  47
ENDBRANCH  37  45
ENDBRANCH  35  37
ENDBRANCH  32  33
ENDBRANCH  31  32
ENDBRANCH  29  31
ENDBRANCH  28  29
ENDBRANCH  27  28
ENDBRANCH  25  27
ENDBRANCH   1  25
TORSDOF 14
ENDMDL
MODEL 3
REMARK minimizedAffinity -8.38527489
REMARK CNNscore 0.339381695
REMARK CNNaffinity 5.93228006
REMARK  14 active torsions:
REMARK  status: ('A' for Active; 'I' for Inactive)
REMARK    1  A    between atoms: C2_2  and  O2_4 
REMARK    2  A    between atoms: O2_4  and  C3_5 
REMARK    3  A    between atoms: C3_5  and  C4_6 
REMARK    4  A    between atoms: C4_6  and  C5_8 
REMARK    5  A    between atoms: C5_8  and  O4_9 
REMARK    6  A    between atoms: O4_9  and  C6_10 
REMARK    7  A    between atoms: C6_10  and  C7_12 
REMARK    8  A    between atoms: C7_12  and  C8_13 
REMARK    9  A    between atoms: C8_13  and  C9_14 
REMARK       I    between atoms: C9_14  and  N1_16 
REMARK   10  A    between atoms: N1_16  and  C10_17 
REMARK   11  A    between atoms: C10_17  and  C11_18 
REMARK   12  A    between atoms: C10_17  and  C18_25 
REMARK   13  A    between atoms: C11_18  and  C12_19 
REMARK   14  A    between atoms: C18_25  and  O8_27 
ROOT
HETATM    1  C3  UNL     1      -7.919  48.278 -23.976  1.00  0.00     0.140 C 
HETATM    2  C19 UNL     1      -8.321  48.957 -22.624  1.00  0.00     0.048 C 
HETATM    3  C20 UNL     1      -7.143  49.857 -22.196  1.00  0.00     0.009 C 
HETATM    4  C21 UNL     1      -6.154  49.776 -23.355  1.00  0.00     0.002 C 
HETATM    5  C22 UNL     1      -4.683  50.144 -23.107  1.00  0.00    -0.004 C 
HETATM    6  C23 UNL     1      -4.477  51.530 -22.463  1.00  0.00     0.010 C 
HETATM    7  C24 UNL     1      -3.760  52.540 -23.354  1.00  0.00     0.035 C 
HETATM    8  C25 UNL     1      -2.509  52.010 -24.022  1.00  0.00    -0.068 C 
HETATM    9  C26 UNL     1      -1.559  52.879 -24.416  1.00  0.00     0.053 C 
HETATM   10  C27 UNL     1      -0.385  52.450 -25.211  1.00  0.00     0.149 C 
HETATM   11  O9  UNL     1       0.506  53.263 -25.448  1.00  0.00    -0.293 OA
HETATM   12  C28 UNL     1      -0.312  51.021 -25.693  1.00  0.00     0.084 C 
HETATM   13  C29 UNL     1      -1.672  50.326 -25.669  1.00  0.00     0.022 C 
HETATM   14  C30 UNL     1      -2.439  50.512 -24.332  1.00  0.00    -0.016 C 
HETATM   15  C31 UNL     1      -1.668  49.785 -23.205  1.00  0.00     0.020 C 
HETATM   16  C32 UNL     1      -3.909  49.990 -24.455  1.00  0.00     0.002 C 
HETATM   17  C33 UNL     1      -4.069  48.558 -25.018  1.00  0.00     0.007 C 
HETATM   18  C34 UNL     1      -5.555  48.181 -25.189  1.00  0.00     0.013 C 
HETATM   19  C35 UNL     1      -6.346  48.320 -23.875  1.00  0.00    -0.001 C 
HETATM   20  C36 UNL     1      -5.811  47.258 -22.862  1.00  0.00     0.019 C 
ENDROOT
BRANCH   1  21
HETATM   21  O2  UNL     1      -8.388  49.208 -24.988  1.00  0.00    -0.301 OA
BRANCH  21  22
HETATM   22  C2  UNL     1      -9.283  48.806 -25.926  1.00  0.00     0.256 C 
HETATM   23  C1  UNL     1      -8.558  48.276 -27.123  1.00  0.00     0.126 C 
HETATM   24  O1  UNL     1     -10.498  48.859 -25.828  1.00  0.00    -0.266 OA
ENDBRANCH  21  22
ENDBRANCH   1  21
BRANCH   1  25
HETATM   25  C4  UNL     1      -8.573  46.867 -24.054  1.00  0.00     0.186 C 
HETATM   26  O3  UNL     1      -8.200  46.005 -24.856  1.00  0.00    -0.292 OA
BRANCH  25  27
HETATM   27  C5  UNL     1      -9.666  46.522 -23.044  1.00  0.00     0.260 C 
BRANCH  27  28
HETATM   28  O4  UNL     1     -10.910  47.157 -23.322  1.00  0.00    -0.314 OA
BRANCH  28  29
HETATM   29  C6  UNL     1     -11.849  46.335 -23.870  1.00  0.00     0.259 C 
HETATM   30  O5  UNL     1     -11.622  45.440 -24.671  1.00  0.00    -0.265 OA
BRANCH  29  31
HETATM   31  C7  UNL     1     -13.216  46.727 -23.364  1.00  0.00     0.120 C 
BRANCH  31  32
HETATM   32  C8  UNL     1     -14.197  46.900 -24.515  1.00  0.00     0.112 C 
BRANCH  32  33
HETATM   33  C9  UNL     1     -15.304  45.867 -24.468  1.00  0.00     0.218 C 
HETATM   34  O6  UNL     1     -15.118  44.671 -24.667  1.00  0.00    -0.274 OA
HETATM   35  N1  UNL     1     -16.522  46.394 -24.126  1.00  0.00    -0.346 N 
HETATM   36  H10 UNL     1     -16.654  47.401 -24.098  1.00  0.00     0.163 HD
BRANCH  35  37
HETATM   37  C10 UNL     1     -17.743  45.587 -24.075  1.00  0.00     0.186 C 
BRANCH  37  38
HETATM   38  C11 UNL     1     -17.931  44.865 -22.730  1.00  0.00     0.074 C 
BRANCH  38  39
HETATM   39  C12 UNL     1     -17.797  45.761 -21.515  1.00  0.00    -0.056 A 
HETATM   40  C13 UNL     1     -16.542  45.982 -20.932  1.00  0.00     0.007 A 
HETATM   41  C14 UNL     1     -16.414  46.826 -19.828  1.00  0.00     0.001 A 
HETATM   42  C15 UNL     1     -17.538  47.455 -19.296  1.00  0.00     0.000 A 
HETATM   43  C16 UNL     1     -18.792  47.237 -19.864  1.00  0.00     0.001 A 
HETATM   44  C17 UNL     1     -18.922  46.393 -20.968  1.00  0.00     0.007 A 
ENDBRANCH  38  39
ENDBRANCH  37  38
BRANCH  37  45
HETATM   45  C18 UNL     1     -18.971  46.442 -24.406  1.00  0.00     0.163 C 
HETATM   46  O7  UNL     1     -18.970  47.617 -24.739  1.00  0.00    -0.648 OA
BRANCH  45  47
HETATM   47  O8  UNL     1     -20.143  45.771 -24.300  1.00  0.00    -0.775 OA
HETATM   48  H19 UNL     1     -20.817  46.442 -24.541  1.00  0.00     0.167 HD
ENDBRANCH  45  47
ENDBRANCH  37  45
ENDBRANCH  35  37
ENDBRANCH  32  33
ENDBRANCH  31  32
ENDBRANCH  29  31
ENDBRANCH  28  29
ENDBRANCH  27  28
ENDBRANCH  25  27
ENDBRANCH   1  25
TORSDOF 14
ENDMDL
MODEL 4
REMARK minimizedAffinity -9.6015358
REMARK CNNscore 0.326420546
REMARK CNNaffinity 7.64915133
REMARK  14 active torsions:
REMARK  status: ('A' for Active; 'I' for Inactive)
REMARK    1  A    between atoms: C2_2  and  O2_4 
REMARK    2  A    between atoms: O2_4  and  C3_5 
REMARK    3  A    between atoms: C3_5  and  C4_6 
REMARK    4  A    between atoms: C4_6  and  C5_8 
REMARK    5  A    between atoms: C5_8  and  O4_9 
REMARK    6  A    between atoms: O4_9  and  C6_10 
REMARK    7  A    between atoms: C6_10  and  C7_12 
REMARK    8  A    between atoms: C7_12  and  C8_13 
REMARK    9  A    between atoms: C8_13  and  C9_14 
REMARK       I    between atoms: C9_14  and  N1_16 
REMARK   10  A    between atoms: N1_16  and  C10_17 
REMARK   11  A    between atoms: C10_17  and  C11_18 
REMARK   12  A    between atoms: C10_17  and  C18_25 
REMARK   13  A    between atoms: C11_18  and  C12_19 
REMARK   14  A    between atoms: C18_25  and  O8_27 
ROOT
HETATM    1  C3  UNL     1      -2.002  50.202 -19.384  1.00  0.00     0.140 C 
HETATM    2  C19 UNL     1      -1.883  51.724 -19.728  1.00  0.00     0.048 C 
HETATM    3  C20 UNL     1      -0.882  52.342 -18.729  1.00  0.00     0.009 C 
HETATM    4  C21 UNL     1      -0.359  51.157 -17.923  1.00  0.00     0.002 C 
HETATM    5  C22 UNL     1       0.281  51.413 -16.549  1.00  0.00    -0.004 C 
HETATM    6  C23 UNL     1       1.416  52.457 -16.565  1.00  0.00     0.010 C 
HETATM    7  C24 UNL     1       2.794  51.897 -16.224  1.00  0.00     0.035 C 
HETATM    8  C25 UNL     1       2.825  51.012 -14.996  1.00  0.00    -0.068 C 
HETATM    9  C26 UNL     1       3.984  50.859 -14.328  1.00  0.00     0.053 C 
HETATM   10  C27 UNL     1       4.126  49.892 -13.215  1.00  0.00     0.149 C 
HETATM   11  O9  UNL     1       5.171  49.873 -12.569  1.00  0.00    -0.293 OA
HETATM   12  C28 UNL     1       2.973  48.969 -12.897  1.00  0.00     0.084 C 
HETATM   13  C29 UNL     1       1.981  48.856 -14.053  1.00  0.00     0.022 C 
HETATM   14  C30 UNL     1       1.557  50.228 -14.642  1.00  0.00    -0.016 C 
HETATM   15  C31 UNL     1       0.749  51.005 -13.576  1.00  0.00     0.020 C 
HETATM   16  C32 UNL     1       0.739  50.040 -15.963  1.00  0.00     0.002 C 
HETATM   17  C33 UNL     1      -0.451  49.055 -15.882  1.00  0.00     0.007 C 
HETATM   18  C34 UNL     1      -1.126  48.870 -17.256  1.00  0.00     0.013 C 
HETATM   19  C35 UNL     1      -1.592  50.207 -17.861  1.00  0.00    -0.001 C 
HETATM   20  C36 UNL     1      -2.735  50.783 -16.966  1.00  0.00     0.019 C 
ENDROOT
BRANCH   1  21
HETATM   21  O2  UNL     1      -0.964  49.580 -20.187  1.00  0.00    -0.301 OA
BRANCH  21  22
HETATM   22  C2  UNL     1      -1.250  49.102 -21.424  1.00  0.00     0.256 C 
HETATM   23  C1  UNL     1      -1.386  47.613 -21.373  1.00  0.00     0.126 C 
HETATM   24  O1  UNL     1      -1.380  49.767 -22.439  1.00  0.00    -0.266 OA
ENDBRANCH  21  22
ENDBRANCH   1  21
BRANCH   1  25
HETATM   25  C4  UNL     1      -3.443  49.714 -19.714  1.00  0.00     0.186 C 
HETATM   26  O3  UNL     1      -3.865  48.606 -19.367  1.00  0.00    -0.292 OA
BRANCH  25  27
HETATM   27  C5  UNL     1      -4.385  50.681 -20.430  1.00  0.00     0.260 C 
BRANCH  27  28
HETATM   28  O4  UNL     1      -5.454  50.028 -21.107  1.00  0.00    -0.314 OA
BRANCH  28  29
HETATM   29  C6  UNL     1      -5.649  50.450 -22.388  1.00  0.00     0.259 C 
HETATM   30  O5  UNL     1      -6.523  50.042 -23.139  1.00  0.00    -0.265 OA
BRANCH  29  31
HETATM   31  C7  UNL     1      -4.597  51.470 -22.747  1.00  0.00     0.120 C 
BRANCH  31  32
HETATM   32  C8  UNL     1      -4.987  52.240 -24.001  1.00  0.00     0.112 C 
BRANCH  32  33
HETATM   33  C9  UNL     1      -3.964  52.067 -25.105  1.00  0.00     0.218 C 
HETATM   34  O6  UNL     1      -3.252  52.980 -25.513  1.00  0.00    -0.274 OA
HETATM   35  N1  UNL     1      -3.875  50.779 -25.564  1.00  0.00    -0.346 N 
HETATM   36  H10 UNL     1      -4.569  50.090 -25.291  1.00  0.00     0.163 HD
BRANCH  35  37
HETATM   37  C10 UNL     1      -2.992  50.394 -26.667  1.00  0.00     0.186 C 
BRANCH  37  38
HETATM   38  C11 UNL     1      -1.606  49.926 -26.193  1.00  0.00     0.074 C 
BRANCH  38  39
HETATM   39  C12 UNL     1      -0.450  50.732 -26.748  1.00  0.00    -0.056 A 
HETATM   40  C13 UNL     1      -0.655  51.638 -27.797  1.00  0.00     0.007 A 
HETATM   41  C14 UNL     1       0.405  52.399 -28.293  1.00  0.00     0.001 A 
HETATM   42  C15 UNL     1       1.678  52.261 -27.745  1.00  0.00     0.000 A 
HETATM   43  C16 UNL     1       1.896  51.359 -26.706  1.00  0.00     0.001 A 
HETATM   44  C17 UNL     1       0.837  50.596 -26.209  1.00  0.00     0.007 A 
ENDBRANCH  38  39
ENDBRANCH  37  38
BRANCH  37  45
HETATM   45  C18 UNL     1      -3.654  49.325 -27.542  1.00  0.00     0.163 C 
HETATM   46  O7  UNL     1      -3.940  48.186 -27.207  1.00  0.00    -0.648 OA
BRANCH  45  47
HETATM   47  O8  UNL     1      -3.923  49.746 -28.802  1.00  0.00    -0.775 OA
HETATM   48  H19 UNL     1      -4.338  48.964 -29.224  1.00  0.00     0.167 HD
ENDBRANCH  45  47
ENDBRANCH  37  45
ENDBRANCH  35  37
ENDBRANCH  32  33
ENDBRANCH  31  32
ENDBRANCH  29  31
ENDBRANCH  28  29
ENDBRANCH  27  28
ENDBRANCH  25  27
ENDBRANCH   1  25
TORSDOF 14
ENDMDL
MODEL 5
REMARK minimizedAffinity -7.76170635
REMARK CNNscore 0.315500259
REMARK CNNaffinity 7.23501635
REMARK  14 active torsions:
REMARK  status: ('A' for Active; 'I' for Inactive)
REMARK    1  A    between atoms: C2_2  and  O2_4 
REMARK    2  A    between atoms: O2_4  and  C3_5 
REMARK    3  A    between atoms: C3_5  and  C4_6 
REMARK    4  A    between atoms: C4_6  and  C5_8 
REMARK    5  A    between atoms: C5_8  and  O4_9 
REMARK    6  A    between atoms: O4_9  and  C6_10 
REMARK    7  A    between atoms: C6_10  and  C7_12 
REMARK    8  A    between atoms: C7_12  and  C8_13 
REMARK    9  A    between atoms: C8_13  and  C9_14 
REMARK       I    between atoms: C9_14  and  N1_16 
REMARK   10  A    between atoms: N1_16  and  C10_17 
REMARK   11  A    between atoms: C10_17  and  C11_18 
REMARK   12  A    between atoms: C10_17  and  C18_25 
REMARK   13  A    between atoms: C11_18  and  C12_19 
REMARK   14  A    between atoms: C18_25  and  O8_27 
ROOT
HETATM    1  C3  UNL     1       0.351  51.446 -14.408  1.00  0.00     0.140 C 
HETATM    2  C19 UNL     1      -1.076  51.848 -13.908  1.00  0.00     0.048 C 
HETATM    3  C20 UNL     1      -0.899  52.590 -12.566  1.00  0.00     0.009 C 
HETATM    4  C21 UNL     1       0.611  52.709 -12.387  1.00  0.00     0.002 C 
HETATM    5  C22 UNL     1       1.179  52.956 -10.980  1.00  0.00    -0.004 C 
HETATM    6  C23 UNL     1       0.563  54.170 -10.254  1.00  0.00     0.010 C 
HETATM    7  C24 UNL     1       1.542  55.311  -9.992  1.00  0.00     0.035 C 
HETATM    8  C25 UNL     1       2.866  54.878  -9.397  1.00  0.00    -0.068 C 
HETATM    9  C26 UNL     1       3.590  55.769  -8.695  1.00  0.00     0.053 C 
HETATM   10  C27 UNL     1       4.959  55.464  -8.217  1.00  0.00     0.149 C 
HETATM   11  O9  UNL     1       5.530  56.271  -7.487  1.00  0.00    -0.293 OA
HETATM   12  C28 UNL     1       5.604  54.164  -8.631  1.00  0.00     0.084 C 
HETATM   13  C29 UNL     1       4.926  53.536  -9.847  1.00  0.00     0.022 C 
HETATM   14  C30 UNL     1       3.379  53.474  -9.731  1.00  0.00    -0.016 C 
HETATM   15  C31 UNL     1       3.000  52.500  -8.592  1.00  0.00     0.020 C 
HETATM   16  C32 UNL     1       2.734  53.051 -11.093  1.00  0.00     0.002 C 
HETATM   17  C33 UNL     1       3.315  51.774 -11.744  1.00  0.00     0.007 C 
HETATM   18  C34 UNL     1       2.678  51.502 -13.122  1.00  0.00     0.013 C 
HETATM   19  C35 UNL     1       1.144  51.400 -13.045  1.00  0.00    -0.001 C 
HETATM   20  C36 UNL     1       0.774  50.131 -12.213  1.00  0.00     0.019 C 
ENDROOT
BRANCH   1  21
HETATM   21  O2  UNL     1       0.776  52.584 -15.204  1.00  0.00    -0.301 OA
BRANCH  21  22
HETATM   22  C2  UNL     1       1.401  52.391 -16.393  1.00  0.00     0.256 C 
HETATM   23  C1  UNL     1       2.884  52.438 -16.199  1.00  0.00     0.126 C 
HETATM   24  O1  UNL     1       0.856  52.206 -17.469  1.00  0.00    -0.266 OA
ENDBRANCH  21  22
ENDBRANCH   1  21
BRANCH   1  25
HETATM   25  C4  UNL     1       0.258  50.110 -15.202  1.00  0.00     0.186 C 
HETATM   26  O3  UNL     1       1.192  49.305 -15.260  1.00  0.00    -0.292 OA
BRANCH  25  27
HETATM   27  C5  UNL     1      -1.072  49.759 -15.867  1.00  0.00     0.260 C 
BRANCH  27  28
HETATM   28  O4  UNL     1      -1.772  50.896 -16.361  1.00  0.00    -0.314 OA
BRANCH  28  29
HETATM   29  C6  UNL     1      -2.564  50.643 -17.441  1.00  0.00     0.259 C 
HETATM   30  O5  UNL     1      -2.895  51.468 -18.280  1.00  0.00    -0.265 OA
BRANCH  29  31
HETATM   31  C7  UNL     1      -2.999  49.198 -17.418  1.00  0.00     0.120 C 
BRANCH  31  32
HETATM   32  C8  UNL     1      -4.112  48.946 -18.427  1.00  0.00     0.112 C 
BRANCH  32  33
HETATM   33  C9  UNL     1      -3.561  48.659 -19.808  1.00  0.00     0.218 C 
HETATM   34  O6  UNL     1      -2.819  47.713 -20.054  1.00  0.00    -0.274 OA
HETATM   35  N1  UNL     1      -4.018  49.527 -20.764  1.00  0.00    -0.346 N 
HETATM   36  H10 UNL     1      -4.523  50.366 -20.495  1.00  0.00     0.163 HD
BRANCH  35  37
HETATM   37  C10 UNL     1      -3.572  49.470 -22.159  1.00  0.00     0.186 C 
BRANCH  37  38
HETATM   38  C11 UNL     1      -2.071  49.167 -22.298  1.00  0.00     0.074 C 
BRANCH  38  39
HETATM   39  C12 UNL     1      -1.174  50.384 -22.189  1.00  0.00    -0.056 A 
HETATM   40  C13 UNL     1      -0.499  50.663 -20.994  1.00  0.00     0.007 A 
HETATM   41  C14 UNL     1       0.347  51.770 -20.901  1.00  0.00     0.001 A 
HETATM   42  C15 UNL     1       0.524  52.607 -22.001  1.00  0.00     0.000 A 
HETATM   43  C16 UNL     1      -0.147  52.342 -23.193  1.00  0.00     0.001 A 
HETATM   44  C17 UNL     1      -0.994  51.236 -23.288  1.00  0.00     0.007 A 
ENDBRANCH  38  39
ENDBRANCH  37  38
BRANCH  37  45
HETATM   45  C18 UNL     1      -4.405  48.459 -22.953  1.00  0.00     0.163 C 
HETATM   46  O7  UNL     1      -4.621  48.481 -24.155  1.00  0.00    -0.648 OA
BRANCH  45  47
HETATM   47  O8  UNL     1      -4.925  47.468 -22.190  1.00  0.00    -0.775 OA
HETATM   48  H19 UNL     1      -5.418  46.915 -22.834  1.00  0.00     0.167 HD
ENDBRANCH  45  47
ENDBRANCH  37  45
ENDBRANCH  35  37
ENDBRANCH  32  33
ENDBRANCH  31  32
ENDBRANCH  29  31
ENDBRANCH  28  29
ENDBRANCH  27  28
ENDBRANCH  25  27
ENDBRANCH   1  25
TORSDOF 14
ENDMDL
MODEL 6
REMARK minimizedAffinity -8.02024746
REMARK CNNscore 0.29926306
REMARK CNNaffinity 6.4554677
REMARK  14 active torsions:
REMARK  status: ('A' for Active; 'I' for Inactive)
REMARK    1  A    between atoms: C2_2  and  O2_4 
REMARK    2  A    between atoms: O2_4  and  C3_5 
REMARK    3  A    between atoms: C3_5  and  C4_6 
REMARK    4  A    between atoms: C4_6  and  C5_8 
REMARK    5  A    between atoms: C5_8  and  O4_9 
REMARK    6  A    between atoms: O4_9  and  C6_10 
REMARK    7  A    between atoms: C6_10  and  C7_12 
REMARK    8  A    between atoms: C7_12  and  C8_13 
REMARK    9  A    between atoms: C8_13  and  C9_14 
REMARK       I    between atoms: C9_14  and  N1_16 
REMARK   10  A    between atoms: N1_16  and  C10_17 
REMARK   11  A    between atoms: C10_17  and  C11_18 
REMARK   12  A    between atoms: C10_17  and  C18_25 
REMARK   13  A    between atoms: C11_18  and  C12_19 
REMARK   14  A    between atoms: C18_25  and  O8_27 
ROOT
HETATM    1  C3  UNL     1      -2.008  50.078 -19.381  1.00  0.00     0.140 C 
HETATM    2  C19 UNL     1      -1.894  51.594 -19.754  1.00  0.00     0.048 C 
HETATM    3  C20 UNL     1      -0.899  52.235 -18.764  1.00  0.00     0.009 C 
HETATM    4  C21 UNL     1      -0.373  51.068 -17.934  1.00  0.00     0.002 C 
HETATM    5  C22 UNL     1       0.261  51.353 -16.563  1.00  0.00    -0.004 C 
HETATM    6  C23 UNL     1       1.392  52.401 -16.595  1.00  0.00     0.010 C 
HETATM    7  C24 UNL     1       2.770  51.853 -16.240  1.00  0.00     0.035 C 
HETATM    8  C25 UNL     1       2.801  50.992 -14.994  1.00  0.00    -0.068 C 
HETATM    9  C26 UNL     1       3.959  50.857 -14.321  1.00  0.00     0.053 C 
HETATM   10  C27 UNL     1       4.101  49.912 -13.188  1.00  0.00     0.149 C 
HETATM   11  O9  UNL     1       5.145  49.911 -12.539  1.00  0.00    -0.293 OA
HETATM   12  C28 UNL     1       2.952  48.991 -12.857  1.00  0.00     0.084 C 
HETATM   13  C29 UNL     1       1.964  48.852 -14.013  1.00  0.00     0.022 C 
HETATM   14  C30 UNL     1       1.536  50.210 -14.629  1.00  0.00    -0.016 C 
HETATM   15  C31 UNL     1       0.722  51.004 -13.581  1.00  0.00     0.020 C 
HETATM   16  C32 UNL     1       0.723  49.993 -15.949  1.00  0.00     0.002 C 
HETATM   17  C33 UNL     1      -0.463  49.005 -15.853  1.00  0.00     0.007 C 
HETATM   18  C34 UNL     1      -1.133  48.791 -17.226  1.00  0.00     0.013 C 
HETATM   19  C35 UNL     1      -1.603  50.114 -17.857  1.00  0.00    -0.001 C 
HETATM   20  C36 UNL     1      -2.751  50.702 -16.976  1.00  0.00     0.019 C 
ENDROOT
BRANCH   1  21
HETATM   21  O2  UNL     1      -0.965  49.445 -20.169  1.00  0.00    -0.301 OA
BRANCH  21  22
HETATM   22  C2  UNL     1      -1.232  48.990 -21.419  1.00  0.00     0.256 C 
HETATM   23  C1  UNL     1      -1.341  47.498 -21.403  1.00  0.00     0.126 C 
HETATM   24  O1  UNL     1      -1.366  49.677 -22.419  1.00  0.00    -0.266 OA
ENDBRANCH  21  22
ENDBRANCH   1  21
BRANCH   1  25
HETATM   25  C4  UNL     1      -3.446  49.577 -19.706  1.00  0.00     0.186 C 
HETATM   26  O3  UNL     1      -3.883  48.498 -19.295  1.00  0.00    -0.292 OA
BRANCH  25  27
HETATM   27  C5  UNL     1      -4.367  50.500 -20.502  1.00  0.00     0.260 C 
BRANCH  27  28
HETATM   28  O4  UNL     1      -5.131  49.817 -21.490  1.00  0.00    -0.314 OA
BRANCH  28  29
HETATM   29  C6  UNL     1      -6.444  49.645 -21.166  1.00  0.00     0.259 C 
HETATM   30  O5  UNL     1      -7.016  50.189 -20.232  1.00  0.00    -0.265 OA
BRANCH  29  31
HETATM   31  C7  UNL     1      -7.070  48.653 -22.114  1.00  0.00     0.120 C 
BRANCH  31  32
HETATM   32  C8  UNL     1      -7.395  49.304 -23.452  1.00  0.00     0.112 C 
BRANCH  32  33
HETATM   33  C9  UNL     1      -8.366  48.468 -24.261  1.00  0.00     0.218 C 
HETATM   34  O6  UNL     1      -8.984  47.515 -23.795  1.00  0.00    -0.274 OA
HETATM   35  N1  UNL     1      -8.526  48.916 -25.545  1.00  0.00    -0.346 N 
HETATM   36  H10 UNL     1      -7.902  49.622 -25.923  1.00  0.00     0.163 HD
BRANCH  35  37
HETATM   37  C10 UNL     1      -9.374  48.226 -26.520  1.00  0.00     0.186 C 
BRANCH  37  38
HETATM   38  C11 UNL     1     -10.766  48.863 -26.663  1.00  0.00     0.074 C 
BRANCH  38  39
HETATM   39  C12 UNL     1     -11.809  47.956 -27.283  1.00  0.00    -0.056 A 
HETATM   40  C13 UNL     1     -11.809  47.714 -28.663  1.00  0.00     0.007 A 
HETATM   41  C14 UNL     1     -12.754  46.858 -29.232  1.00  0.00     0.001 A 
HETATM   42  C15 UNL     1     -13.707  46.238 -28.428  1.00  0.00     0.000 A 
HETATM   43  C16 UNL     1     -13.721  46.476 -27.055  1.00  0.00     0.001 A 
HETATM   44  C17 UNL     1     -12.778  47.332 -26.484  1.00  0.00     0.007 A 
ENDBRANCH  38  39
ENDBRANCH  37  38
BRANCH  37  45
HETATM   45  C18 UNL     1      -8.676  48.142 -27.881  1.00  0.00     0.163 C 
HETATM   46  O7  UNL     1      -8.093  47.172 -28.340  1.00  0.00    -0.648 OA
BRANCH  45  47
HETATM   47  O8  UNL     1      -8.747  49.289 -28.599  1.00  0.00    -0.775 OA
HETATM   48  H19 UNL     1      -8.265  49.075 -29.426  1.00  0.00     0.167 HD
ENDBRANCH  45  47
ENDBRANCH  37  45
ENDBRANCH  35  37
ENDBRANCH  32  33
ENDBRANCH  31  32
ENDBRANCH  29  31
ENDBRANCH  28  29
ENDBRANCH  27  28
ENDBRANCH  25  27
ENDBRANCH   1  25
TORSDOF 14
ENDMDL
MODEL 7
REMARK minimizedAffinity -8.82914448
REMARK CNNscore 0.222375721
REMARK CNNaffinity 5.9397831
REMARK  14 active torsions:
REMARK  status: ('A' for Active; 'I' for Inactive)
REMARK    1  A    between atoms: C2_2  and  O2_4 
REMARK    2  A    between atoms: O2_4  and  C3_5 
REMARK    3  A    between atoms: C3_5  and  C4_6 
REMARK    4  A    between atoms: C4_6  and  C5_8 
REMARK    5  A    between atoms: C5_8  and  O4_9 
REMARK    6  A    between atoms: O4_9  and  C6_10 
REMARK    7  A    between atoms: C6_10  and  C7_12 
REMARK    8  A    between atoms: C7_12  and  C8_13 
REMARK    9  A    between atoms: C8_13  and  C9_14 
REMARK       I    between atoms: C9_14  and  N1_16 
REMARK   10  A    between atoms: N1_16  and  C10_17 
REMARK   11  A    between atoms: C10_17  and  C11_18 
REMARK   12  A    between atoms: C10_17  and  C18_25 
REMARK   13  A    between atoms: C11_18  and  C12_19 
REMARK   14  A    between atoms: C18_25  and  O8_27 
ROOT
HETATM    1  C3  UNL     1      -4.717  48.048 -20.767  1.00  0.00     0.140 C 
HETATM    2  C19 UNL     1      -5.729  47.589 -21.869  1.00  0.00     0.048 C 
HETATM    3  C20 UNL     1      -5.268  48.215 -23.202  1.00  0.00     0.009 C 
HETATM    4  C21 UNL     1      -3.950  48.908 -22.869  1.00  0.00     0.002 C 
HETATM    5  C22 UNL     1      -3.435  50.019 -23.798  1.00  0.00    -0.004 C 
HETATM    6  C23 UNL     1      -3.342  49.611 -25.282  1.00  0.00     0.010 C 
HETATM    7  C24 UNL     1      -1.921  49.573 -25.838  1.00  0.00     0.035 C 
HETATM    8  C25 UNL     1      -1.087  50.793 -25.509  1.00  0.00    -0.068 C 
HETATM    9  C26 UNL     1      -0.044  51.105 -26.302  1.00  0.00     0.053 C 
HETATM   10  C27 UNL     1       0.906  52.188 -25.957  1.00  0.00     0.149 C 
HETATM   11  O9  UNL     1       1.773  52.504 -26.769  1.00  0.00    -0.293 OA
HETATM   12  C28 UNL     1       0.770  52.883 -24.623  1.00  0.00     0.084 C 
HETATM   13  C29 UNL     1      -0.057  52.073 -23.626  1.00  0.00     0.022 C 
HETATM   14  C30 UNL     1      -1.394  51.547 -24.212  1.00  0.00    -0.016 C 
HETATM   15  C31 UNL     1      -2.317  52.750 -24.519  1.00  0.00     0.020 C 
HETATM   16  C32 UNL     1      -2.073  50.533 -23.232  1.00  0.00     0.002 C 
HETATM   17  C33 UNL     1      -2.235  51.017 -21.771  1.00  0.00     0.007 C 
HETATM   18  C34 UNL     1      -2.823  49.910 -20.871  1.00  0.00     0.013 C 
HETATM   19  C35 UNL     1      -4.169  49.384 -21.401  1.00  0.00    -0.001 C 
HETATM   20  C36 UNL     1      -5.222  50.533 -21.306  1.00  0.00     0.019 C 
ENDROOT
BRANCH   1  21
HETATM   21  O2  UNL     1      -3.691  47.019 -20.784  1.00  0.00    -0.301 OA
BRANCH  21  22
HETATM   22  C2  UNL     1      -2.380  47.362 -20.847  1.00  0.00     0.256 C 
HETATM   23  C1  UNL     1      -1.862  47.641 -19.472  1.00  0.00     0.126 C 
HETATM   24  O1  UNL     1      -1.706  47.438 -21.862  1.00  0.00    -0.266 OA
ENDBRANCH  21  22
ENDBRANCH   1  21
BRANCH   1  25
HETATM   25  C4  UNL     1      -5.466  48.180 -19.409  1.00  0.00     0.186 C 
HETATM   26  O3  UNL     1      -4.916  48.598 -18.385  1.00  0.00    -0.292 OA
BRANCH  25  27
HETATM   27  C5  UNL     1      -6.957  47.846 -19.372  1.00  0.00     0.260 C 
BRANCH  27  28
HETATM   28  O4  UNL     1      -7.652  48.494 -18.313  1.00  0.00    -0.314 OA
BRANCH  28  29
HETATM   29  C6  UNL     1      -8.456  47.671 -17.582  1.00  0.00     0.259 C 
HETATM   30  O5  UNL     1      -8.080  46.942 -16.675  1.00  0.00    -0.265 OA
BRANCH  29  31
HETATM   31  C7  UNL     1      -9.873  47.772 -18.091  1.00  0.00     0.120 C 
BRANCH  31  32
HETATM   32  C8  UNL     1     -10.822  46.946 -17.233  1.00  0.00     0.112 C 
BRANCH  32  33
HETATM   33  C9  UNL     1     -12.270  47.189 -17.607  1.00  0.00     0.218 C 
HETATM   34  O6  UNL     1     -13.100  47.644 -16.825  1.00  0.00    -0.274 OA
HETATM   35  N1  UNL     1     -12.546  46.903 -18.917  1.00  0.00    -0.346 N 
HETATM   36  H10 UNL     1     -11.866  46.409 -19.488  1.00  0.00     0.163 HD
BRANCH  35  37
HETATM   37  C10 UNL     1     -13.894  47.011 -19.481  1.00  0.00     0.186 C 
BRANCH  37  38
HETATM   38  C11 UNL     1     -14.998  46.972 -18.412  1.00  0.00     0.074 C 
BRANCH  38  39
HETATM   39  C12 UNL     1     -16.395  46.770 -18.962  1.00  0.00    -0.056 A 
HETATM   40  C13 UNL     1     -17.300  47.838 -19.012  1.00  0.00     0.007 A 
HETATM   41  C14 UNL     1     -18.579  47.659 -19.541  1.00  0.00     0.001 A 
HETATM   42  C15 UNL     1     -18.965  46.411 -20.025  1.00  0.00     0.000 A 
HETATM   43  C16 UNL     1     -18.076  45.340 -19.975  1.00  0.00     0.001 A 
HETATM   44  C17 UNL     1     -16.797  45.516 -19.445  1.00  0.00     0.007 A 
ENDBRANCH  38  39
ENDBRANCH  37  38
BRANCH  37  45
HETATM   45  C18 UNL     1     -14.021  48.271 -20.344  1.00  0.00     0.163 C 
HETATM   46  O7  UNL     1     -13.791  49.417 -19.994  1.00  0.00    -0.648 OA
BRANCH  45  47
HETATM   47  O8  UNL     1     -14.433  48.021 -21.610  1.00  0.00    -0.775 OA
HETATM   48  H19 UNL     1     -14.461  48.910 -22.024  1.00  0.00     0.167 HD
ENDBRANCH  45  47
ENDBRANCH  37  45
ENDBRANCH  35  37
ENDBRANCH  32  33
ENDBRANCH  31  32
ENDBRANCH  29  31
ENDBRANCH  28  29
ENDBRANCH  27  28
ENDBRANCH  25  27
ENDBRANCH   1  25
TORSDOF 14
ENDMDL
MODEL 8
REMARK minimizedAffinity -8.57066917
REMARK CNNscore 0.219666332
REMARK CNNaffinity 6.21459723
REMARK  14 active torsions:
REMARK  status: ('A' for Active; 'I' for Inactive)
REMARK    1  A    between atoms: C2_2  and  O2_4 
REMARK    2  A    between atoms: O2_4  and  C3_5 
REMARK    3  A    between atoms: C3_5  and  C4_6 
REMARK    4  A    between atoms: C4_6  and  C5_8 
REMARK    5  A    between atoms: C5_8  and  O4_9 
REMARK    6  A    between atoms: O4_9  and  C6_10 
REMARK    7  A    between atoms: C6_10  and  C7_12 
REMARK    8  A    between atoms: C7_12  and  C8_13 
REMARK    9  A    between atoms: C8_13  and  C9_14 
REMARK       I    between atoms: C9_14  and  N1_16 
REMARK   10  A    between atoms: N1_16  and  C10_17 
REMARK   11  A    between atoms: C10_17  and  C11_18 
REMARK   12  A    between atoms: C10_17  and  C18_25 
REMARK   13  A    between atoms: C11_18  and  C12_19 
REMARK   14  A    between atoms: C18_25  and  O8_27 
ROOT
HETATM    1  C3  UNL     1      -5.646  47.803 -21.880  1.00  0.00     0.140 C 
HETATM    2  C19 UNL     1      -6.474  47.485 -23.170  1.00  0.00     0.048 C 
HETATM    3  C20 UNL     1      -5.760  48.173 -24.353  1.00  0.00     0.009 C 
HETATM    4  C21 UNL     1      -4.487  48.757 -23.749  1.00  0.00     0.002 C 
HETATM    5  C22 UNL     1      -3.766  49.896 -24.488  1.00  0.00    -0.004 C 
HETATM    6  C23 UNL     1      -3.439  49.587 -25.962  1.00  0.00     0.010 C 
HETATM    7  C24 UNL     1      -1.948  49.500 -26.273  1.00  0.00     0.035 C 
HETATM    8  C25 UNL     1      -1.123  50.641 -25.714  1.00  0.00    -0.068 C 
HETATM    9  C26 UNL     1       0.054  50.942 -26.293  1.00  0.00     0.053 C 
HETATM   10  C27 UNL     1       0.983  51.938 -25.709  1.00  0.00     0.149 C 
HETATM   11  O9  UNL     1       1.991  52.255 -26.337  1.00  0.00    -0.293 OA
HETATM   12  C28 UNL     1       0.653  52.545 -24.366  1.00  0.00     0.084 C 
HETATM   13  C29 UNL     1      -0.372  51.721 -23.589  1.00  0.00     0.022 C 
HETATM   14  C30 UNL     1      -1.612  51.320 -24.431  1.00  0.00    -0.016 C 
HETATM   15  C31 UNL     1      -2.408  52.596 -24.793  1.00  0.00     0.020 C 
HETATM   16  C32 UNL     1      -2.499  50.285 -23.662  1.00  0.00     0.002 C 
HETATM   17  C33 UNL     1      -2.885  50.675 -22.216  1.00  0.00     0.007 C 
HETATM   18  C34 UNL     1      -3.674  49.548 -21.518  1.00  0.00     0.013 C 
HETATM   19  C35 UNL     1      -4.932  49.143 -22.306  1.00  0.00    -0.001 C 
HETATM   20  C36 UNL     1      -5.928  50.346 -22.299  1.00  0.00     0.019 C 
ENDROOT
BRANCH   1  21
HETATM   21  O2  UNL     1      -4.685  46.717 -21.806  1.00  0.00    -0.301 OA
BRANCH  21  22
HETATM   22  C2  UNL     1      -4.978  45.589 -21.110  1.00  0.00     0.256 C 
HETATM   23  C1  UNL     1      -4.117  45.508 -19.890  1.00  0.00     0.126 C 
HETATM   24  O1  UNL     1      -5.814  44.754 -21.416  1.00  0.00    -0.266 OA
ENDBRANCH  21  22
ENDBRANCH   1  21
BRANCH   1  25
HETATM   25  C4  UNL     1      -6.610  47.887 -20.661  1.00  0.00     0.186 C 
HETATM   26  O3  UNL     1      -6.251  48.308 -19.557  1.00  0.00    -0.292 OA
BRANCH  25  27
HETATM   27  C5  UNL     1      -8.074  47.500 -20.871  1.00  0.00     0.260 C 
BRANCH  27  28
HETATM   28  O4  UNL     1      -8.961  48.138 -19.959  1.00  0.00    -0.314 OA
BRANCH  28  29
HETATM   29  C6  UNL     1      -9.984  47.349 -19.525  1.00  0.00     0.259 C 
HETATM   30  O5  UNL     1      -9.893  46.157 -19.266  1.00  0.00    -0.265 OA
BRANCH  29  31
HETATM   31  C7  UNL     1     -11.251  48.164 -19.451  1.00  0.00     0.120 C 
BRANCH  31  32
HETATM   32  C8  UNL     1     -12.440  47.294 -19.066  1.00  0.00     0.112 C 
BRANCH  32  33
HETATM   33  C9  UNL     1     -13.657  47.600 -19.914  1.00  0.00     0.218 C 
HETATM   34  O6  UNL     1     -13.679  48.483 -20.767  1.00  0.00    -0.274 OA
HETATM   35  N1  UNL     1     -14.711  46.759 -19.674  1.00  0.00    -0.346 N 
HETATM   36  H10 UNL     1     -14.693  46.132 -18.875  1.00  0.00     0.163 HD
BRANCH  35  37
HETATM   37  C10 UNL     1     -16.006  46.907 -20.341  1.00  0.00     0.186 C 
BRANCH  37  38
HETATM   38  C11 UNL     1     -16.343  45.728 -21.269  1.00  0.00     0.074 C 
BRANCH  38  39
HETATM   39  C12 UNL     1     -17.175  46.103 -22.479  1.00  0.00    -0.056 A 
HETATM   40  C13 UNL     1     -16.575  46.703 -23.594  1.00  0.00     0.007 A 
HETATM   41  C14 UNL     1     -17.336  47.026 -24.719  1.00  0.00     0.001 A 
HETATM   42  C15 UNL     1     -18.702  46.753 -24.739  1.00  0.00     0.000 A 
HETATM   43  C16 UNL     1     -19.310  46.163 -23.633  1.00  0.00     0.001 A 
HETATM   44  C17 UNL     1     -18.551  45.840 -22.507  1.00  0.00     0.007 A 
ENDBRANCH  38  39
ENDBRANCH  37  38
BRANCH  37  45
HETATM   45  C18 UNL     1     -17.122  47.122 -19.313  1.00  0.00     0.163 C 
HETATM   46  O7  UNL     1     -18.025  46.344 -19.046  1.00  0.00    -0.648 OA
BRANCH  45  47
HETATM   47  O8  UNL     1     -17.045  48.313 -18.671  1.00  0.00    -0.775 OA
HETATM   48  H19 UNL     1     -17.812  48.296 -18.060  1.00  0.00     0.167 HD
ENDBRANCH  45  47
ENDBRANCH  37  45
ENDBRANCH  35  37
ENDBRANCH  32  33
ENDBRANCH  31  32
ENDBRANCH  29  31
ENDBRANCH  28  29
ENDBRANCH  27  28
ENDBRANCH  25  27
ENDBRANCH   1  25
TORSDOF 14
ENDMDL
MODEL 9
REMARK minimizedAffinity -8.52800751
REMARK CNNscore 0.20639357
REMARK CNNaffinity 6.85074615
REMARK  14 active torsions:
REMARK  status: ('A' for Active; 'I' for Inactive)
REMARK    1  A    between atoms: C2_2  and  O2_4 
REMARK    2  A    between atoms: O2_4  and  C3_5 
REMARK    3  A    between atoms: C3_5  and  C4_6 
REMARK    4  A    between atoms: C4_6  and  C5_8 
REMARK    5  A    between atoms: C5_8  and  O4_9 
REMARK    6  A    between atoms: O4_9  and  C6_10 
REMARK    7  A    between atoms: C6_10  and  C7_12 
REMARK    8  A    between atoms: C7_12  and  C8_13 
REMARK    9  A    between atoms: C8_13  and  C9_14 
REMARK       I    between atoms: C9_14  and  N1_16 
REMARK   10  A    between atoms: N1_16  and  C10_17 
REMARK   11  A    between atoms: C10_17  and  C11_18 
REMARK   12  A    between atoms: C10_17  and  C18_25 
REMARK   13  A    between atoms: C11_18  and  C12_19 
REMARK   14  A    between atoms: C18_25  and  O8_27 
ROOT
HETATM    1  C3  UNL     1      -3.300  49.759 -20.213  1.00  0.00     0.140 C 
HETATM    2  C19 UNL     1      -4.601  50.624 -20.297  1.00  0.00     0.048 C 
HETATM    3  C20 UNL     1      -4.470  51.529 -21.540  1.00  0.00     0.009 C 
HETATM    4  C21 UNL     1      -3.171  51.084 -22.207  1.00  0.00     0.002 C 
HETATM    5  C22 UNL     1      -2.467  52.040 -23.183  1.00  0.00    -0.004 C 
HETATM    6  C23 UNL     1      -3.372  52.568 -24.314  1.00  0.00     0.010 C 
HETATM    7  C24 UNL     1      -2.968  52.106 -25.712  1.00  0.00     0.035 C 
HETATM    8  C25 UNL     1      -1.493  52.254 -26.020  1.00  0.00    -0.068 C 
HETATM    9  C26 UNL     1      -1.099  52.347 -27.303  1.00  0.00     0.053 C 
HETATM   10  C27 UNL     1       0.332  52.338 -27.687  1.00  0.00     0.149 C 
HETATM   11  O9  UNL     1       0.638  52.538 -28.860  1.00  0.00    -0.293 OA
HETATM   12  C28 UNL     1       1.373  52.099 -26.619  1.00  0.00     0.084 C 
HETATM   13  C29 UNL     1       0.784  51.461 -25.363  1.00  0.00     0.022 C 
HETATM   14  C30 UNL     1      -0.503  52.164 -24.855  1.00  0.00    -0.016 C 
HETATM   15  C31 UNL     1      -0.140  53.588 -24.373  1.00  0.00     0.020 C 
HETATM   16  C32 UNL     1      -1.187  51.327 -23.723  1.00  0.00     0.002 C 
HETATM   17  C33 UNL     1      -0.267  50.897 -22.556  1.00  0.00     0.007 C 
HETATM   18  C34 UNL     1      -1.014  49.999 -21.549  1.00  0.00     0.013 C 
HETATM   19  C35 UNL     1      -2.281  50.675 -20.995  1.00  0.00    -0.001 C 
HETATM   20  C36 UNL     1      -1.850  51.907 -20.138  1.00  0.00     0.019 C 
ENDROOT
BRANCH   1  21
HETATM   21  O2  UNL     1      -3.617  48.574 -20.990  1.00  0.00    -0.301 OA
BRANCH  21  22
HETATM   22  C2  UNL     1      -2.756  48.127 -21.940  1.00  0.00     0.256 C 
HETATM   23  C1  UNL     1      -1.692  47.289 -21.305  1.00  0.00     0.126 C 
HETATM   24  O1  UNL     1      -2.821  48.363 -23.135  1.00  0.00    -0.266 OA
ENDBRANCH  21  22
ENDBRANCH   1  21
BRANCH   1  25
HETATM   25  C4  UNL     1      -2.971  49.473 -18.719  1.00  0.00     0.186 C 
HETATM   26  O3  UNL     1      -3.820  49.549 -17.825  1.00  0.00    -0.292 OA
BRANCH  25  27
HETATM   27  C5  UNL     1      -1.558  49.008 -18.368  1.00  0.00     0.260 C 
BRANCH  27  28
HETATM   28  O4  UNL     1      -1.360  48.815 -16.972  1.00  0.00    -0.314 OA
BRANCH  28  29
HETATM   29  C6  UNL     1      -0.856  49.901 -16.320  1.00  0.00     0.259 C 
HETATM   30  O5  UNL     1      -1.515  50.701 -15.670  1.00  0.00    -0.265 OA
BRANCH  29  31
HETATM   31  C7  UNL     1       0.631  49.986 -16.558  1.00  0.00     0.120 C 
BRANCH  31  32
HETATM   32  C8  UNL     1       1.112  51.430 -16.510  1.00  0.00     0.112 C 
BRANCH  32  33
HETATM   33  C9  UNL     1       2.224  51.616 -15.498  1.00  0.00     0.218 C 
HETATM   34  O6  UNL     1       3.192  52.346 -15.688  1.00  0.00    -0.274 OA
HETATM   35  N1  UNL     1       2.013  50.932 -14.330  1.00  0.00    -0.346 N 
HETATM   36  H10 UNL     1       1.270  50.243 -14.268  1.00  0.00     0.163 HD
BRANCH  35  37
HETATM   37  C10 UNL     1       2.986  50.923 -13.235  1.00  0.00     0.186 C 
BRANCH  37  38
HETATM   38  C11 UNL     1       2.334  51.075 -11.851  1.00  0.00     0.074 C 
BRANCH  38  39
HETATM   39  C12 UNL     1       2.200  52.508 -11.376  1.00  0.00    -0.056 A 
HETATM   40  C13 UNL     1       3.334  53.241 -11.003  1.00  0.00     0.007 A 
HETATM   41  C14 UNL     1       3.215  54.568 -10.589  1.00  0.00     0.001 A 
HETATM   42  C15 UNL     1       1.961  55.174 -10.542  1.00  0.00     0.000 A 
HETATM   43  C16 UNL     1       0.825  54.453 -10.905  1.00  0.00     0.001 A 
HETATM   44  C17 UNL     1       0.942  53.125 -11.318  1.00  0.00     0.007 A 
ENDBRANCH  38  39
ENDBRANCH  37  38
BRANCH  37  45
HETATM   45  C18 UNL     1       3.852  49.661 -13.290  1.00  0.00     0.163 C 
HETATM   46  O7  UNL     1       3.522  48.572 -13.735  1.00  0.00    -0.648 OA
BRANCH  45  47
HETATM   47  O8  UNL     1       5.095  49.834 -12.779  1.00  0.00    -0.775 OA
HETATM   48  H19 UNL     1       5.514  48.954 -12.888  1.00  0.00     0.167 HD
ENDBRANCH  45  47
ENDBRANCH  37  45
ENDBRANCH  35  37
ENDBRANCH  32  33
ENDBRANCH  31  32
ENDBRANCH  29  31
ENDBRANCH  28  29
ENDBRANCH  27  28
ENDBRANCH  25  27
ENDBRANCH   1  25
TORSDOF 14
ENDMDL
