MODEL 1
REMARK minimizedAffinity -6.65153646
REMARK CNNscore 0.231395975
REMARK CNNaffinity 6.77331114
REMARK  14 active torsions:
REMARK  status: ('A' for Active; 'I' for Inactive)
REMARK    1  A    between atoms: C2_2  and  C4_4 
REMARK    2  A    between atoms: C5_6  and  C6_7 
REMARK    3  A    between atoms: C7_8  and  C8_9 
REMARK    4  A    between atoms: C9_10  and  C10_11 
REMARK    5  A    between atoms: C10_11  and  C11_12 
REMARK    6  A    between atoms: C11_12  and  C12_13 
REMARK    7  A    between atoms: C12_13  and  C13_14 
REMARK    8  A    between atoms: C18_21  and  C19_22 
REMARK    9  A    between atoms: C19_22  and  O4_23 
REMARK   10  A    between atoms: C20_24  and  O5_25 
REMARK   11  A    between atoms: C21_26  and  O6_27 
REMARK   12  A    between atoms: C30_38  and  O9_39 
REMARK   13  A    between atoms: O9_39  and  C31_40 
REMARK   14  A    between atoms: C31_40  and  C32_41 
ROOT
HETATM    1  C4  UNL     1     -11.727   8.724  14.742  1.00  0.00     0.142 C 
HETATM    2  O1  UNL     1     -11.044   8.041  15.818  1.00  0.00    -0.308 OA
HETATM    3  C5  UNL     1      -9.898   8.834  16.065  1.00  0.00     0.306 C 
HETATM    4  O2  UNL     1      -9.488   9.381  14.827  1.00  0.00    -0.320 OA
HETATM    5  C15 UNL     1     -10.742   9.857  14.326  1.00  0.00     0.179 C 
HETATM    6  C16 UNL     1     -10.972  11.199  15.056  1.00  0.00     0.086 C 
HETATM    7  C17 UNL     1      -9.853  12.161  14.706  1.00  0.00     0.172 A 
HETATM    8  O3  UNL     1      -8.924  12.514  15.726  1.00  0.00    -0.363 OA
HETATM    9  C18 UNL     1      -9.710  13.605  15.206  1.00  0.00     0.138 A 
HETATM   10  C20 UNL     1     -10.613  14.270  16.238  1.00  0.00     0.200 C 
HETATM   11  C21 UNL     1     -11.640  13.383  16.962  1.00  0.00     0.161 C 
HETATM   12  C22 UNL     1     -12.163  14.010  18.252  1.00  0.00     0.192 C 
HETATM   13  O7  UNL     1     -12.689  15.111  18.332  1.00  0.00    -0.289 OA
HETATM   14  C23 UNL     1     -12.111  13.069  19.385  1.00  0.00    -0.016 C 
HETATM   15  C24 UNL     1     -12.638  13.386  20.728  1.00  0.00     0.052 C 
HETATM   16  C25 UNL     1     -11.510  11.971  18.920  1.00  0.00    -0.005 C 
HETATM   17  C26 UNL     1     -11.040  12.061  17.490  1.00  0.00     0.090 C 
HETATM   18  C27 UNL     1     -11.225  10.828  16.552  1.00  0.00     0.092 C 
HETATM   19  O8  UNL     1     -10.218   9.875  16.996  1.00  0.00    -0.316 OA
HETATM   20  C28 UNL     1     -12.672  10.165  16.646  1.00  0.00     0.050 C 
HETATM   21  C29 UNL     1     -12.911   9.289  17.892  1.00  0.00     0.016 C 
HETATM   22  C30 UNL     1     -13.016   9.321  15.366  1.00  0.00     0.170 C 
ENDROOT
BRANCH   3  23
HETATM   23  C6  UNL     1      -8.854   7.967  16.693  1.00  0.00     0.074 C 
HETATM   24  C7  UNL     1      -8.284   6.820  16.288  1.00  0.00     0.004 C 
BRANCH  24  25
HETATM   25  C8  UNL     1      -8.608   6.051  15.109  1.00  0.00    -0.004 C 
HETATM   26  C9  UNL     1      -8.044   6.282  13.914  1.00  0.00    -0.027 C 
BRANCH  26  27
HETATM   27  C10 UNL     1      -8.335   5.471  12.684  1.00  0.00     0.027 C 
BRANCH  27  28
HETATM   28  C11 UNL     1      -7.732   4.065  12.778  1.00  0.00     0.004 C 
BRANCH  28  29
HETATM   29  C12 UNL     1      -6.212   4.133  12.944  1.00  0.00    -0.000 C 
BRANCH  29  30
HETATM   30  C13 UNL     1      -5.443   3.404  11.839  1.00  0.00    -0.005 C 
HETATM   31  C14 UNL     1      -6.024   2.042  11.491  1.00  0.00     0.005 C 
ENDBRANCH  29  30
ENDBRANCH  28  29
ENDBRANCH  27  28
ENDBRANCH  26  27
ENDBRANCH  24  25
ENDBRANCH   3  23
BRANCH   1  32
HETATM   32  C2  UNL     1     -12.034   7.660  13.675  1.00  0.00    -0.054 C 
HETATM   33  C1  UNL     1     -11.715   7.756  12.370  1.00  0.00     0.017 C 
HETATM   34  C3  UNL     1     -12.766   6.426  14.154  1.00  0.00     0.046 C 
ENDBRANCH   1  32
BRANCH  22  35
HETATM   35  O9  UNL     1     -13.673  10.146  14.384  1.00  0.00    -0.377 OA
BRANCH  35  36
HETATM   36  C31 UNL     1     -15.101  10.051  14.412  1.00  0.00     0.207 C 
BRANCH  36  37
HETATM   37  C32 UNL     1     -15.580   8.759  13.798  1.00  0.00    -0.035 A 
HETATM   38  C33 UNL     1     -15.376   8.497  12.437  1.00  0.00     0.009 A 
HETATM   39  C34 UNL     1     -15.825   7.302  11.871  1.00  0.00     0.001 A 
HETATM   40  C35 UNL     1     -16.477   6.357  12.661  1.00  0.00     0.000 A 
HETATM   41  C36 UNL     1     -16.680   6.605  14.016  1.00  0.00     0.001 A 
HETATM   42  C37 UNL     1     -16.232   7.799  14.584  1.00  0.00     0.009 A 
ENDBRANCH  36  37
ENDBRANCH  35  36
ENDBRANCH  22  35
BRANCH  11  43
HETATM   43  O6  UNL     1     -12.813  13.230  16.139  1.00  0.00    -0.378 OA
HETATM   44  H29 UNL     1     -13.329  14.055  16.261  1.00  0.00     0.211 HD
ENDBRANCH  11  43
BRANCH   9  45
HETATM   45  C19 UNL     1      -8.901  14.543  14.332  1.00  0.00     0.207 C 
BRANCH  45  46
HETATM   46  O4  UNL     1      -7.510  14.454  14.619  1.00  0.00    -0.398 OA
HETATM   47  H26 UNL     1      -7.391  14.837  15.511  1.00  0.00     0.209 HD
ENDBRANCH  45  46
ENDBRANCH   9  45
BRANCH  10  48
HETATM   48  O5  UNL     1     -11.307  15.335  15.556  1.00  0.00    -0.389 OA
HETATM   49  H28 UNL     1     -11.932  14.903  14.944  1.00  0.00     0.210 HD
ENDBRANCH  10  48
TORSDOF 14
ENDMDL
MODEL 2
REMARK minimizedAffinity -6.51940298
REMARK CNNscore 0.167023346
REMARK CNNaffinity 5.24111509
REMARK  14 active torsions:
REMARK  status: ('A' for Active; 'I' for Inactive)
REMARK    1  A    between atoms: C2_2  and  C4_4 
REMARK    2  A    between atoms: C5_6  and  C6_7 
REMARK    3  A    between atoms: C7_8  and  C8_9 
REMARK    4  A    between atoms: C9_10  and  C10_11 
REMARK    5  A    between atoms: C10_11  and  C11_12 
REMARK    6  A    between atoms: C11_12  and  C12_13 
REMARK    7  A    between atoms: C12_13  and  C13_14 
REMARK    8  A    between atoms: C18_21  and  C19_22 
REMARK    9  A    between atoms: C19_22  and  O4_23 
REMARK   10  A    between atoms: C20_24  and  O5_25 
REMARK   11  A    between atoms: C21_26  and  O6_27 
REMARK   12  A    between atoms: C30_38  and  O9_39 
REMARK   13  A    between atoms: O9_39  and  C31_40 
REMARK   14  A    between atoms: C31_40  and  C32_41 
ROOT
HETATM    1  C4  UNL     1       6.998  14.424  21.384  1.00  0.00     0.142 C 
HETATM    2  O1  UNL     1       6.650  15.534  20.525  1.00  0.00    -0.308 OA
HETATM    3  C5  UNL     1       7.657  15.536  19.530  1.00  0.00     0.306 C 
HETATM    4  O2  UNL     1       8.856  15.101  20.141  1.00  0.00    -0.320 OA
HETATM    5  C15 UNL     1       8.382  13.950  20.849  1.00  0.00     0.179 C 
HETATM    6  C16 UNL     1       8.304  12.837  19.780  1.00  0.00     0.086 C 
HETATM    7  C17 UNL     1       9.686  12.587  19.210  1.00  0.00     0.172 A 
HETATM    8  O3  UNL     1       9.937  12.963  17.860  1.00  0.00    -0.363 OA
HETATM    9  C18 UNL     1      10.050  11.553  18.136  1.00  0.00     0.138 A 
HETATM   10  C20 UNL     1       9.052  10.687  17.376  1.00  0.00     0.200 C 
HETATM   11  C21 UNL     1       7.556  10.986  17.574  1.00  0.00     0.161 C 
HETATM   12  C22 UNL     1       6.681  10.399  16.469  1.00  0.00     0.192 C 
HETATM   13  O7  UNL     1       6.656   9.219  16.149  1.00  0.00    -0.289 OA
HETATM   14  C23 UNL     1       5.737  11.391  15.925  1.00  0.00    -0.016 C 
HETATM   15  C24 UNL     1       4.715  11.067  14.910  1.00  0.00     0.052 C 
HETATM   16  C25 UNL     1       6.034  12.546  16.527  1.00  0.00    -0.005 C 
HETATM   17  C26 UNL     1       7.215  12.488  17.464  1.00  0.00     0.090 C 
HETATM   18  C27 UNL     1       7.143  13.254  18.821  1.00  0.00     0.092 C 
HETATM   19  O8  UNL     1       7.287  14.656  18.460  1.00  0.00    -0.316 OA
HETATM   20  C28 UNL     1       5.771  13.038  19.604  1.00  0.00     0.050 C 
HETATM   21  C29 UNL     1       4.572  13.839  19.058  1.00  0.00     0.016 C 
HETATM   22  C30 UNL     1       5.916  13.340  21.139  1.00  0.00     0.170 C 
ENDROOT
BRANCH   3  23
HETATM   23  C6  UNL     1       7.758  16.918  18.967  1.00  0.00     0.074 C 
HETATM   24  C7  UNL     1       8.340  18.034  19.439  1.00  0.00     0.004 C 
BRANCH  24  25
HETATM   25  C8  UNL     1       8.989  18.207  20.718  1.00  0.00    -0.004 C 
HETATM   26  C9  UNL     1       9.850  19.206  20.965  1.00  0.00    -0.027 C 
BRANCH  26  27
HETATM   27  C10 UNL     1      10.506  19.431  22.297  1.00  0.00     0.027 C 
BRANCH  27  28
HETATM   28  C11 UNL     1      11.733  20.341  22.177  1.00  0.00     0.004 C 
BRANCH  28  29
HETATM   29  C12 UNL     1      12.851  19.876  23.114  1.00  0.00    -0.000 C 
BRANCH  29  30
HETATM   30  C13 UNL     1      13.848  20.981  23.471  1.00  0.00    -0.005 C 
HETATM   31  C14 UNL     1      15.107  20.467  24.152  1.00  0.00     0.005 C 
ENDBRANCH  29  30
ENDBRANCH  28  29
ENDBRANCH  27  28
ENDBRANCH  26  27
ENDBRANCH  24  25
ENDBRANCH   3  23
BRANCH   1  32
HETATM   32  C2  UNL     1       6.970  14.962  22.824  1.00  0.00    -0.054 C 
HETATM   33  C1  UNL     1       8.019  14.970  23.669  1.00  0.00     0.017 C 
HETATM   34  C3  UNL     1       5.645  15.507  23.308  1.00  0.00     0.046 C 
ENDBRANCH   1  32
BRANCH  22  35
HETATM   35  O9  UNL     1       6.284  12.142  21.852  1.00  0.00    -0.377 OA
BRANCH  35  36
HETATM   36  C31 UNL     1       5.446  11.859  22.978  1.00  0.00     0.207 C 
BRANCH  36  37
HETATM   37  C32 UNL     1       4.374  10.857  22.629  1.00  0.00    -0.035 A 
HETATM   38  C33 UNL     1       3.908  10.740  21.312  1.00  0.00     0.009 A 
HETATM   39  C34 UNL     1       2.912   9.815  20.994  1.00  0.00     0.001 A 
HETATM   40  C35 UNL     1       2.377   8.995  21.985  1.00  0.00     0.000 A 
HETATM   41  C36 UNL     1       2.837   9.099  23.296  1.00  0.00     0.001 A 
HETATM   42  C37 UNL     1       3.833  10.023  23.617  1.00  0.00     0.009 A 
ENDBRANCH  36  37
ENDBRANCH  35  36
ENDBRANCH  22  35
BRANCH  11  43
HETATM   43  O6  UNL     1       7.089  10.346  18.777  1.00  0.00    -0.378 OA
HETATM   44  H29 UNL     1       6.945   9.406  18.536  1.00  0.00     0.211 HD
ENDBRANCH  11  43
BRANCH   9  45
HETATM   45  C19 UNL     1      11.486  11.070  18.126  1.00  0.00     0.207 C 
BRANCH  45  46
HETATM   46  O4  UNL     1      11.768  10.244  19.251  1.00  0.00    -0.398 OA
HETATM   47  H26 UNL     1      11.746  10.832  20.032  1.00  0.00     0.209 HD
ENDBRANCH  45  46
ENDBRANCH   9  45
BRANCH  10  48
HETATM   48  O5  UNL     1       9.314   9.321  17.759  1.00  0.00    -0.389 OA
HETATM   49  H28 UNL     1       9.031   9.240  18.689  1.00  0.00     0.210 HD
ENDBRANCH  10  48
TORSDOF 14
ENDMDL
MODEL 3
REMARK minimizedAffinity -7.57581806
REMARK CNNscore 0.158508897
REMARK CNNaffinity 5.8657608
REMARK  14 active torsions:
REMARK  status: ('A' for Active; 'I' for Inactive)
REMARK    1  A    between atoms: C2_2  and  C4_4 
REMARK    2  A    between atoms: C5_6  and  C6_7 
REMARK    3  A    between atoms: C7_8  and  C8_9 
REMARK    4  A    between atoms: C9_10  and  C10_11 
REMARK    5  A    between atoms: C10_11  and  C11_12 
REMARK    6  A    between atoms: C11_12  and  C12_13 
REMARK    7  A    between atoms: C12_13  and  C13_14 
REMARK    8  A    between atoms: C18_21  and  C19_22 
REMARK    9  A    between atoms: C19_22  and  O4_23 
REMARK   10  A    between atoms: C20_24  and  O5_25 
REMARK   11  A    between atoms: C21_26  and  O6_27 
REMARK   12  A    between atoms: C30_38  and  O9_39 
REMARK   13  A    between atoms: O9_39  and  C31_40 
REMARK   14  A    between atoms: C31_40  and  C32_41 
ROOT
HETATM    1  C4  UNL     1      -0.261   9.120  15.704  1.00  0.00     0.142 C 
HETATM    2  O1  UNL     1      -0.833   9.969  16.725  1.00  0.00    -0.308 OA
HETATM    3  C5  UNL     1       0.277  10.379  17.502  1.00  0.00     0.306 C 
HETATM    4  O2  UNL     1       1.203   9.310  17.513  1.00  0.00    -0.320 OA
HETATM    5  C15 UNL     1       1.233   8.979  16.121  1.00  0.00     0.179 C 
HETATM    6  C16 UNL     1       2.172  10.031  15.488  1.00  0.00     0.086 C 
HETATM    7  C17 UNL     1       3.553   9.907  16.101  1.00  0.00     0.172 A 
HETATM    8  O3  UNL     1       4.013  10.959  16.944  1.00  0.00    -0.363 OA
HETATM    9  C18 UNL     1       4.783  10.753  15.742  1.00  0.00     0.138 A 
HETATM   10  C20 UNL     1       4.782  11.944  14.791  1.00  0.00     0.200 C 
HETATM   11  C21 UNL     1       3.421  12.446  14.281  1.00  0.00     0.161 C 
HETATM   12  C22 UNL     1       3.481  13.866  13.724  1.00  0.00     0.192 C 
HETATM   13  O7  UNL     1       4.231  14.237  12.831  1.00  0.00    -0.289 OA
HETATM   14  C23 UNL     1       2.414  14.721  14.273  1.00  0.00    -0.016 C 
HETATM   15  C24 UNL     1       2.187  16.114  13.838  1.00  0.00     0.052 C 
HETATM   16  C25 UNL     1       1.783  13.978  15.185  1.00  0.00    -0.005 C 
HETATM   17  C26 UNL     1       2.370  12.605  15.401  1.00  0.00     0.090 C 
HETATM   18  C27 UNL     1       1.408  11.390  15.586  1.00  0.00     0.092 C 
HETATM   19  O8  UNL     1       0.867  11.552  16.928  1.00  0.00    -0.316 OA
HETATM   20  C28 UNL     1       0.217  11.351  14.527  1.00  0.00     0.050 C 
HETATM   21  C29 UNL     1      -0.934  12.340  14.799  1.00  0.00     0.016 C 
HETATM   22  C30 UNL     1      -0.386   9.909  14.374  1.00  0.00     0.170 C 
ENDROOT
BRANCH   3  23
HETATM   23  C6  UNL     1      -0.213  10.739  18.868  1.00  0.00     0.074 C 
HETATM   24  C7  UNL     1       0.429  10.870  20.041  1.00  0.00     0.004 C 
BRANCH  24  25
HETATM   25  C8  UNL     1       1.824  10.609  20.308  1.00  0.00    -0.004 C 
HETATM   26  C9  UNL     1       2.247   9.993  21.422  1.00  0.00    -0.027 C 
BRANCH  26  27
HETATM   27  C10 UNL     1       3.687   9.674  21.704  1.00  0.00     0.027 C 
BRANCH  27  28
HETATM   28  C11 UNL     1       4.131  10.216  23.066  1.00  0.00     0.004 C 
BRANCH  28  29
HETATM   29  C12 UNL     1       4.130  11.746  23.073  1.00  0.00    -0.000 C 
BRANCH  29  30
HETATM   30  C13 UNL     1       5.319  12.362  22.329  1.00  0.00    -0.005 C 
HETATM   31  C14 UNL     1       6.637  12.225  23.074  1.00  0.00     0.005 C 
ENDBRANCH  29  30
ENDBRANCH  28  29
ENDBRANCH  27  28
ENDBRANCH  26  27
ENDBRANCH  24  25
ENDBRANCH   3  23
BRANCH   1  32
HETATM   32  C2  UNL     1      -1.093   7.827  15.696  1.00  0.00    -0.054 C 
HETATM   33  C1  UNL     1      -0.665   6.632  15.244  1.00  0.00     0.017 C 
HETATM   34  C3  UNL     1      -2.504   7.936  16.230  1.00  0.00     0.046 C 
ENDBRANCH   1  32
BRANCH  22  35
HETATM   35  O9  UNL     1       0.301   9.186  13.334  1.00  0.00    -0.377 OA
BRANCH  35  36
HETATM   36  C31 UNL     1      -0.522   8.875  12.205  1.00  0.00     0.207 C 
BRANCH  36  37
HETATM   37  C32 UNL     1       0.309   8.535  10.993  1.00  0.00    -0.035 A 
HETATM   38  C33 UNL     1       1.655   8.168  11.132  1.00  0.00     0.009 A 
HETATM   39  C34 UNL     1       2.423   7.858  10.008  1.00  0.00     0.001 A 
HETATM   40  C35 UNL     1       1.854   7.906   8.737  1.00  0.00     0.000 A 
HETATM   41  C36 UNL     1       0.516   8.264   8.588  1.00  0.00     0.001 A 
HETATM   42  C37 UNL     1      -0.255   8.575   9.711  1.00  0.00     0.009 A 
ENDBRANCH  36  37
ENDBRANCH  35  36
ENDBRANCH  22  35
BRANCH  11  43
HETATM   43  O6  UNL     1       2.997  11.642  13.162  1.00  0.00    -0.378 OA
HETATM   44  H29 UNL     1       3.495  11.983  12.389  1.00  0.00     0.211 HD
ENDBRANCH  11  43
BRANCH   9  45
HETATM   45  C19 UNL     1       6.135  10.125  16.015  1.00  0.00     0.207 C 
BRANCH  45  46
HETATM   46  O4  UNL     1       6.581  10.399  17.339  1.00  0.00    -0.398 OA
HETATM   47  H26 UNL     1       6.780  11.356  17.366  1.00  0.00     0.209 HD
ENDBRANCH  45  46
ENDBRANCH   9  45
BRANCH  10  48
HETATM   48  O5  UNL     1       5.601  11.572  13.663  1.00  0.00    -0.389 OA
HETATM   49  H28 UNL     1       5.102  10.888  13.179  1.00  0.00     0.210 HD
ENDBRANCH  10  48
TORSDOF 14
ENDMDL
MODEL 4
REMARK minimizedAffinity -7.97431087
REMARK CNNscore 0.150203928
REMARK CNNaffinity 5.84753466
REMARK  14 active torsions:
REMARK  status: ('A' for Active; 'I' for Inactive)
REMARK    1  A    between atoms: C2_2  and  C4_4 
REMARK    2  A    between atoms: C5_6  and  C6_7 
REMARK    3  A    between atoms: C7_8  and  C8_9 
REMARK    4  A    between atoms: C9_10  and  C10_11 
REMARK    5  A    between atoms: C10_11  and  C11_12 
REMARK    6  A    between atoms: C11_12  and  C12_13 
REMARK    7  A    between atoms: C12_13  and  C13_14 
REMARK    8  A    between atoms: C18_21  and  C19_22 
REMARK    9  A    between atoms: C19_22  and  O4_23 
REMARK   10  A    between atoms: C20_24  and  O5_25 
REMARK   11  A    between atoms: C21_26  and  O6_27 
REMARK   12  A    between atoms: C30_38  and  O9_39 
REMARK   13  A    between atoms: O9_39  and  C31_40 
REMARK   14  A    between atoms: C31_40  and  C32_41 
ROOT
HETATM    1  C4  UNL     1      -1.160   9.717  16.089  1.00  0.00     0.142 C 
HETATM    2  O1  UNL     1      -1.261  10.798  17.043  1.00  0.00    -0.308 OA
HETATM    3  C5  UNL     1       0.015  10.846  17.654  1.00  0.00     0.306 C 
HETATM    4  O2  UNL     1       0.505   9.521  17.715  1.00  0.00    -0.320 OA
HETATM    5  C15 UNL     1       0.234   9.084  16.379  1.00  0.00     0.179 C 
HETATM    6  C16 UNL     1       1.387   9.671  15.533  1.00  0.00     0.086 C 
HETATM    7  C17 UNL     1       2.707   9.111  16.025  1.00  0.00     0.172 A 
HETATM    8  O3  UNL     1       3.611   9.994  16.681  1.00  0.00    -0.363 OA
HETATM    9  C18 UNL     1       4.095   9.424  15.449  1.00  0.00     0.138 A 
HETATM   10  C20 UNL     1       4.382  10.450  14.358  1.00  0.00     0.200 C 
HETATM   11  C21 UNL     1       3.224  11.362  13.917  1.00  0.00     0.161 C 
HETATM   12  C22 UNL     1       3.700  12.613  13.182  1.00  0.00     0.192 C 
HETATM   13  O7  UNL     1       4.406  12.611  12.183  1.00  0.00    -0.289 OA
HETATM   14  C23 UNL     1       3.079  13.838  13.715  1.00  0.00    -0.016 C 
HETATM   15  C24 UNL     1       3.293  15.177  13.130  1.00  0.00     0.052 C 
HETATM   16  C25 UNL     1       2.355  13.452  14.769  1.00  0.00    -0.005 C 
HETATM   17  C26 UNL     1       2.452  11.983  15.102  1.00  0.00     0.090 C 
HETATM   18  C27 UNL     1       1.162  11.217  15.529  1.00  0.00     0.092 C 
HETATM   19  O8  UNL     1       0.894  11.675  16.883  1.00  0.00    -0.316 OA
HETATM   20  C28 UNL     1      -0.097  11.518  14.599  1.00  0.00     0.050 C 
HETATM   21  C29 UNL     1      -0.787  12.874  14.849  1.00  0.00     0.016 C 
HETATM   22  C30 UNL     1      -1.178  10.382  14.687  1.00  0.00     0.170 C 
ENDROOT
BRANCH   3  23
HETATM   23  C6  UNL     1      -0.135  11.474  19.004  1.00  0.00     0.074 C 
HETATM   24  C7  UNL     1       0.635  11.419  20.104  1.00  0.00     0.004 C 
BRANCH  24  25
HETATM   25  C8  UNL     1       1.833  10.634  20.295  1.00  0.00    -0.004 C 
HETATM   26  C9  UNL     1       2.336  10.363  21.509  1.00  0.00    -0.027 C 
BRANCH  26  27
HETATM   27  C10 UNL     1       3.555   9.516  21.735  1.00  0.00     0.027 C 
BRANCH  27  28
HETATM   28  C11 UNL     1       4.293   9.917  23.016  1.00  0.00     0.004 C 
BRANCH  28  29
HETATM   29  C12 UNL     1       4.552  11.426  23.048  1.00  0.00    -0.000 C 
BRANCH  29  30
HETATM   30  C13 UNL     1       6.037  11.793  22.979  1.00  0.00    -0.005 C 
HETATM   31  C14 UNL     1       6.290  13.291  22.915  1.00  0.00     0.005 C 
ENDBRANCH  29  30
ENDBRANCH  28  29
ENDBRANCH  27  28
ENDBRANCH  26  27
ENDBRANCH  24  25
ENDBRANCH   3  23
BRANCH   1  32
HETATM   32  C2  UNL     1      -2.382   8.814  16.323  1.00  0.00    -0.054 C 
HETATM   33  C1  UNL     1      -2.333   7.489  16.560  1.00  0.00     0.017 C 
HETATM   34  C3  UNL     1      -3.734   9.489  16.261  1.00  0.00     0.046 C 
ENDBRANCH   1  32
BRANCH  22  35
HETATM   35  O9  UNL     1      -0.929   9.374  13.687  1.00  0.00    -0.377 OA
BRANCH  35  36
HETATM   36  C31 UNL     1      -1.924   9.320  12.660  1.00  0.00     0.207 C 
BRANCH  36  37
HETATM   37  C32 UNL     1      -2.902   8.195  12.898  1.00  0.00    -0.035 A 
HETATM   38  C33 UNL     1      -4.263   8.463  13.094  1.00  0.00     0.009 A 
HETATM   39  C34 UNL     1      -5.164   7.420  13.318  1.00  0.00     0.001 A 
HETATM   40  C35 UNL     1      -4.715   6.102  13.343  1.00  0.00     0.000 A 
HETATM   41  C36 UNL     1      -3.364   5.824  13.144  1.00  0.00     0.001 A 
HETATM   42  C37 UNL     1      -2.461   6.865  12.919  1.00  0.00     0.009 A 
ENDBRANCH  36  37
ENDBRANCH  35  36
ENDBRANCH  22  35
BRANCH  11  43
HETATM   43  O6  UNL     1       2.403  10.672  12.954  1.00  0.00    -0.378 OA
HETATM   44  H29 UNL     1       2.882  10.744  12.101  1.00  0.00     0.211 HD
ENDBRANCH  11  43
BRANCH   9  45
HETATM   45  C19 UNL     1       5.168   8.378  15.671  1.00  0.00     0.207 C 
BRANCH  45  46
HETATM   46  O4  UNL     1       4.621   7.064  15.692  1.00  0.00    -0.398 OA
HETATM   47  H26 UNL     1       4.090   7.004  16.511  1.00  0.00     0.209 HD
ENDBRANCH  45  46
ENDBRANCH   9  45
BRANCH  10  48
HETATM   48  O5  UNL     1       4.863   9.714  13.215  1.00  0.00    -0.389 OA
HETATM   49  H28 UNL     1       4.099   9.216  12.870  1.00  0.00     0.210 HD
ENDBRANCH  10  48
TORSDOF 14
ENDMDL
MODEL 5
REMARK minimizedAffinity -8.10198498
REMARK CNNscore 0.127931282
REMARK CNNaffinity 6.98483086
REMARK  14 active torsions:
REMARK  status: ('A' for Active; 'I' for Inactive)
REMARK    1  A    between atoms: C2_2  and  C4_4 
REMARK    2  A    between atoms: C5_6  and  C6_7 
REMARK    3  A    between atoms: C7_8  and  C8_9 
REMARK    4  A    between atoms: C9_10  and  C10_11 
REMARK    5  A    between atoms: C10_11  and  C11_12 
REMARK    6  A    between atoms: C11_12  and  C12_13 
REMARK    7  A    between atoms: C12_13  and  C13_14 
REMARK    8  A    between atoms: C18_21  and  C19_22 
REMARK    9  A    between atoms: C19_22  and  O4_23 
REMARK   10  A    between atoms: C20_24  and  O5_25 
REMARK   11  A    between atoms: C21_26  and  O6_27 
REMARK   12  A    between atoms: C30_38  and  O9_39 
REMARK   13  A    between atoms: O9_39  and  C31_40 
REMARK   14  A    between atoms: C31_40  and  C32_41 
ROOT
HETATM    1  C4  UNL     1      -1.044   6.653  12.866  1.00  0.00     0.142 C 
HETATM    2  O1  UNL     1      -2.222   6.197  13.569  1.00  0.00    -0.308 OA
HETATM    3  C5  UNL     1      -1.928   6.430  14.934  1.00  0.00     0.306 C 
HETATM    4  O2  UNL     1      -0.539   6.231  15.106  1.00  0.00    -0.320 OA
HETATM    5  C15 UNL     1      -0.030   6.985  14.001  1.00  0.00     0.179 C 
HETATM    6  C16 UNL     1      -0.068   8.454  14.478  1.00  0.00     0.086 C 
HETATM    7  C17 UNL     1       0.825   8.613  15.693  1.00  0.00     0.172 A 
HETATM    8  O3  UNL     1       0.210   8.873  16.951  1.00  0.00    -0.363 OA
HETATM    9  C18 UNL     1       1.081   9.914  16.465  1.00  0.00     0.138 A 
HETATM   10  C20 UNL     1       0.379  11.242  16.206  1.00  0.00     0.200 C 
HETATM   11  C21 UNL     1      -0.794  11.244  15.212  1.00  0.00     0.161 C 
HETATM   12  C22 UNL     1      -1.694  12.469  15.355  1.00  0.00     0.192 C 
HETATM   13  O7  UNL     1      -1.312  13.630  15.287  1.00  0.00    -0.289 OA
HETATM   14  C23 UNL     1      -3.119  12.104  15.426  1.00  0.00    -0.016 C 
HETATM   15  C24 UNL     1      -4.210  13.099  15.477  1.00  0.00     0.052 C 
HETATM   16  C25 UNL     1      -3.154  10.769  15.444  1.00  0.00    -0.005 C 
HETATM   17  C26 UNL     1      -1.802  10.100  15.455  1.00  0.00     0.090 C 
HETATM   18  C27 UNL     1      -1.582   8.824  14.584  1.00  0.00     0.092 C 
HETATM   19  O8  UNL     1      -2.294   7.769  15.289  1.00  0.00    -0.316 OA
HETATM   20  C28 UNL     1      -2.150   8.958  13.100  1.00  0.00     0.050 C 
HETATM   21  C29 UNL     1      -3.680   8.816  12.970  1.00  0.00     0.016 C 
HETATM   22  C30 UNL     1      -1.467   7.943  12.115  1.00  0.00     0.170 C 
ENDROOT
BRANCH   3  23
HETATM   23  C6  UNL     1      -2.757   5.498  15.759  1.00  0.00     0.074 C 
HETATM   24  C7  UNL     1      -4.087   5.394  15.923  1.00  0.00     0.004 C 
BRANCH  24  25
HETATM   25  C8  UNL     1      -5.107   6.254  15.368  1.00  0.00    -0.004 C 
HETATM   26  C9  UNL     1      -5.756   5.967  14.229  1.00  0.00    -0.027 C 
BRANCH  26  27
HETATM   27  C10 UNL     1      -6.847   6.824  13.654  1.00  0.00     0.027 C 
BRANCH  27  28
HETATM   28  C11 UNL     1      -8.023   5.981  13.150  1.00  0.00     0.004 C 
BRANCH  28  29
HETATM   29  C12 UNL     1      -7.526   4.715  12.447  1.00  0.00    -0.000 C 
BRANCH  29  30
HETATM   30  C13 UNL     1      -8.210   3.436  12.935  1.00  0.00    -0.005 C 
HETATM   31  C14 UNL     1      -7.400   2.176  12.674  1.00  0.00     0.005 C 
ENDBRANCH  29  30
ENDBRANCH  28  29
ENDBRANCH  27  28
ENDBRANCH  26  27
ENDBRANCH  24  25
ENDBRANCH   3  23
BRANCH   1  32
HETATM   32  C2  UNL     1      -0.646   5.521  11.904  1.00  0.00    -0.054 C 
HETATM   33  C1  UNL     1       0.617   5.123  11.655  1.00  0.00     0.017 C 
HETATM   34  C3  UNL     1      -1.780   4.828  11.182  1.00  0.00     0.046 C 
ENDBRANCH   1  32
BRANCH  22  35
HETATM   35  O9  UNL     1      -0.301   8.537  11.512  1.00  0.00    -0.377 OA
BRANCH  35  36
HETATM   36  C31 UNL     1      -0.442   8.795  10.111  1.00  0.00     0.207 C 
BRANCH  36  37
HETATM   37  C32 UNL     1       0.701   8.205   9.324  1.00  0.00    -0.035 A 
HETATM   38  C33 UNL     1       0.575   7.973   7.947  1.00  0.00     0.009 A 
HETATM   39  C34 UNL     1       1.634   7.422   7.223  1.00  0.00     0.001 A 
HETATM   40  C35 UNL     1       2.829   7.104   7.864  1.00  0.00     0.000 A 
HETATM   41  C36 UNL     1       2.968   7.337   9.231  1.00  0.00     0.001 A 
HETATM   42  C37 UNL     1       1.910   7.887   9.958  1.00  0.00     0.009 A 
ENDBRANCH  36  37
ENDBRANCH  35  36
ENDBRANCH  22  35
BRANCH  11  43
HETATM   43  O6  UNL     1      -0.288  11.329  13.865  1.00  0.00    -0.378 OA
HETATM   44  H29 UNL     1      -0.072  12.275  13.725  1.00  0.00     0.211 HD
ENDBRANCH  11  43
BRANCH   9  45
HETATM   45  C19 UNL     1       2.382   9.994  17.237  1.00  0.00     0.207 C 
BRANCH  45  46
HETATM   46  O4  UNL     1       2.173   9.827  18.635  1.00  0.00    -0.398 OA
HETATM   47  H26 UNL     1       1.696  10.626  18.936  1.00  0.00     0.209 HD
ENDBRANCH  45  46
ENDBRANCH   9  45
BRANCH  10  48
HETATM   48  O5  UNL     1       1.391  12.161  15.743  1.00  0.00    -0.389 OA
HETATM   49  H28 UNL     1       1.648  11.856  14.853  1.00  0.00     0.210 HD
ENDBRANCH  10  48
TORSDOF 14
ENDMDL
MODEL 6
REMARK minimizedAffinity -6.19518566
REMARK CNNscore 0.124118261
REMARK CNNaffinity 5.46209335
REMARK  14 active torsions:
REMARK  status: ('A' for Active; 'I' for Inactive)
REMARK    1  A    between atoms: C2_2  and  C4_4 
REMARK    2  A    between atoms: C5_6  and  C6_7 
REMARK    3  A    between atoms: C7_8  and  C8_9 
REMARK    4  A    between atoms: C9_10  and  C10_11 
REMARK    5  A    between atoms: C10_11  and  C11_12 
REMARK    6  A    between atoms: C11_12  and  C12_13 
REMARK    7  A    between atoms: C12_13  and  C13_14 
REMARK    8  A    between atoms: C18_21  and  C19_22 
REMARK    9  A    between atoms: C19_22  and  O4_23 
REMARK   10  A    between atoms: C20_24  and  O5_25 
REMARK   11  A    between atoms: C21_26  and  O6_27 
REMARK   12  A    between atoms: C30_38  and  O9_39 
REMARK   13  A    between atoms: O9_39  and  C31_40 
REMARK   14  A    between atoms: C31_40  and  C32_41 
ROOT
HETATM    1  C4  UNL     1      -0.926  11.044  16.902  1.00  0.00     0.142 C 
HETATM    2  O1  UNL     1      -0.721  11.241  18.319  1.00  0.00    -0.308 OA
HETATM    3  C5  UNL     1      -0.705  12.648  18.479  1.00  0.00     0.306 C 
HETATM    4  O2  UNL     1      -0.125  13.199  17.313  1.00  0.00    -0.320 OA
HETATM    5  C15 UNL     1      -0.841  12.481  16.303  1.00  0.00     0.179 C 
HETATM    6  C16 UNL     1      -2.201  13.206  16.195  1.00  0.00     0.086 C 
HETATM    7  C17 UNL     1      -1.972  14.644  15.773  1.00  0.00     0.172 A 
HETATM    8  O3  UNL     1      -2.236  15.675  16.719  1.00  0.00    -0.363 OA
HETATM    9  C18 UNL     1      -3.058  15.702  15.535  1.00  0.00     0.138 A 
HETATM   10  C20 UNL     1      -4.546  15.510  15.805  1.00  0.00     0.200 C 
HETATM   11  C21 UNL     1      -4.977  14.222  16.528  1.00  0.00     0.161 C 
HETATM   12  C22 UNL     1      -6.372  14.322  17.141  1.00  0.00     0.192 C 
HETATM   13  O7  UNL     1      -7.388  14.610  16.524  1.00  0.00    -0.289 OA
HETATM   14  C23 UNL     1      -6.392  13.873  18.544  1.00  0.00    -0.016 C 
HETATM   15  C24 UNL     1      -7.628  13.782  19.348  1.00  0.00     0.052 C 
HETATM   16  C25 UNL     1      -5.122  13.612  18.863  1.00  0.00    -0.005 C 
HETATM   17  C26 UNL     1      -4.121  13.906  17.774  1.00  0.00     0.090 C 
HETATM   18  C27 UNL     1      -2.945  12.909  17.536  1.00  0.00     0.092 C 
HETATM   19  O8  UNL     1      -2.042  13.133  18.656  1.00  0.00    -0.316 OA
HETATM   20  C28 UNL     1      -3.398  11.381  17.507  1.00  0.00     0.050 C 
HETATM   21  C29 UNL     1      -3.685  10.757  18.888  1.00  0.00     0.016 C 
HETATM   22  C30 UNL     1      -2.361  10.474  16.753  1.00  0.00     0.170 C 
ENDROOT
BRANCH   3  23
HETATM   23  C6  UNL     1       0.063  12.970  19.721  1.00  0.00     0.074 C 
HETATM   24  C7  UNL     1       1.375  12.894  20.005  1.00  0.00     0.004 C 
BRANCH  24  25
HETATM   25  C8  UNL     1       2.425  12.381  19.155  1.00  0.00    -0.004 C 
HETATM   26  C9  UNL     1       3.693  12.247  19.570  1.00  0.00    -0.027 C 
BRANCH  26  27
HETATM   27  C10 UNL     1       4.793  11.678  18.720  1.00  0.00     0.027 C 
BRANCH  27  28
HETATM   28  C11 UNL     1       6.176  11.983  19.305  1.00  0.00     0.004 C 
BRANCH  28  29
HETATM   29  C12 UNL     1       6.058  12.830  20.575  1.00  0.00    -0.000 C 
BRANCH  29  30
HETATM   30  C13 UNL     1       6.980  12.367  21.706  1.00  0.00    -0.005 C 
HETATM   31  C14 UNL     1       6.273  12.218  23.044  1.00  0.00     0.005 C 
ENDBRANCH  29  30
ENDBRANCH  28  29
ENDBRANCH  27  28
ENDBRANCH  26  27
ENDBRANCH  24  25
ENDBRANCH   3  23
BRANCH   1  32
HETATM   32  C2  UNL     1       0.149  10.047  16.440  1.00  0.00    -0.054 C 
HETATM   33  C1  UNL     1      -0.027   8.717  16.318  1.00  0.00     0.017 C 
HETATM   34  C3  UNL     1       1.507  10.631  16.117  1.00  0.00     0.046 C 
ENDBRANCH   1  32
BRANCH  22  35
HETATM   35  O9  UNL     1      -2.691  10.394  15.353  1.00  0.00    -0.377 OA
BRANCH  35  36
HETATM   36  C31 UNL     1      -4.055  10.044  15.099  1.00  0.00     0.207 C 
BRANCH  36  37
HETATM   37  C32 UNL     1      -4.163   8.700  14.422  1.00  0.00    -0.035 A 
HETATM   38  C33 UNL     1      -3.016   7.932  14.174  1.00  0.00     0.009 A 
HETATM   39  C34 UNL     1      -3.119   6.691  13.543  1.00  0.00     0.001 A 
HETATM   40  C35 UNL     1      -4.366   6.203  13.160  1.00  0.00     0.000 A 
HETATM   41  C36 UNL     1      -5.513   6.955  13.407  1.00  0.00     0.001 A 
HETATM   42  C37 UNL     1      -5.413   8.197  14.038  1.00  0.00     0.009 A 
ENDBRANCH  36  37
ENDBRANCH  35  36
ENDBRANCH  22  35
BRANCH  11  43
HETATM   43  O6  UNL     1      -5.082  13.144  15.577  1.00  0.00    -0.378 OA
HETATM   44  H29 UNL     1      -5.946  13.271  15.130  1.00  0.00     0.211 HD
ENDBRANCH  11  43
BRANCH   9  45
HETATM   45  C19 UNL     1      -2.698  16.839  14.600  1.00  0.00     0.207 C 
BRANCH  45  46
HETATM   46  O4  UNL     1      -3.007  16.522  13.248  1.00  0.00    -0.398 OA
HETATM   47  H26 UNL     1      -2.380  15.820  12.983  1.00  0.00     0.209 HD
ENDBRANCH  45  46
ENDBRANCH   9  45
BRANCH  10  48
HETATM   48  O5  UNL     1      -5.210  15.577  14.526  1.00  0.00    -0.389 OA
HETATM   49  H28 UNL     1      -4.955  14.769  14.044  1.00  0.00     0.210 HD
ENDBRANCH  10  48
TORSDOF 14
ENDMDL
MODEL 7
REMARK minimizedAffinity -6.43981695
REMARK CNNscore 0.123739101
REMARK CNNaffinity 5.67401266
REMARK  14 active torsions:
REMARK  status: ('A' for Active; 'I' for Inactive)
REMARK    1  A    between atoms: C2_2  and  C4_4 
REMARK    2  A    between atoms: C5_6  and  C6_7 
REMARK    3  A    between atoms: C7_8  and  C8_9 
REMARK    4  A    between atoms: C9_10  and  C10_11 
REMARK    5  A    between atoms: C10_11  and  C11_12 
REMARK    6  A    between atoms: C11_12  and  C12_13 
REMARK    7  A    between atoms: C12_13  and  C13_14 
REMARK    8  A    between atoms: C18_21  and  C19_22 
REMARK    9  A    between atoms: C19_22  and  O4_23 
REMARK   10  A    between atoms: C20_24  and  O5_25 
REMARK   11  A    between atoms: C21_26  and  O6_27 
REMARK   12  A    between atoms: C30_38  and  O9_39 
REMARK   13  A    between atoms: O9_39  and  C31_40 
REMARK   14  A    between atoms: C31_40  and  C32_41 
ROOT
HETATM    1  C4  UNL     1       1.887  12.624  17.704  1.00  0.00     0.142 C 
HETATM    2  O1  UNL     1       1.222  13.488  16.755  1.00  0.00    -0.308 OA
HETATM    3  C5  UNL     1       1.757  13.107  15.501  1.00  0.00     0.306 C 
HETATM    4  O2  UNL     1       3.103  12.727  15.713  1.00  0.00    -0.320 OA
HETATM    5  C15 UNL     1       2.953  11.873  16.852  1.00  0.00     0.179 C 
HETATM    6  C16 UNL     1       2.468  10.525  16.271  1.00  0.00     0.086 C 
HETATM    7  C17 UNL     1       3.517   9.979  15.323  1.00  0.00     0.172 A 
HETATM    8  O3  UNL     1       3.214   9.941  13.932  1.00  0.00    -0.363 OA
HETATM    9  C18 UNL     1       3.436   8.657  14.547  1.00  0.00     0.138 A 
HETATM   10  C20 UNL     1       2.226   7.731  14.512  1.00  0.00     0.200 C 
HETATM   11  C21 UNL     1       0.926   8.236  15.162  1.00  0.00     0.161 C 
HETATM   12  C22 UNL     1      -0.309   7.469  14.695  1.00  0.00     0.192 C 
HETATM   13  O7  UNL     1      -0.450   6.257  14.772  1.00  0.00    -0.289 OA
HETATM   14  C23 UNL     1      -1.397   8.373  14.282  1.00  0.00    -0.016 C 
HETATM   15  C24 UNL     1      -2.734   7.897  13.872  1.00  0.00     0.052 C 
HETATM   16  C25 UNL     1      -0.895   9.608  14.357  1.00  0.00    -0.005 C 
HETATM   17  C26 UNL     1       0.559   9.679  14.752  1.00  0.00     0.090 C 
HETATM   18  C27 UNL     1       1.021  10.790  15.745  1.00  0.00     0.092 C 
HETATM   19  O8  UNL     1       1.003  12.015  14.960  1.00  0.00    -0.316 OA
HETATM   20  C28 UNL     1       0.069  10.948  17.014  1.00  0.00     0.050 C 
HETATM   21  C29 UNL     1      -1.254  11.696  16.750  1.00  0.00     0.016 C 
HETATM   22  C30 UNL     1       0.804  11.640  18.218  1.00  0.00     0.170 C 
ENDROOT
BRANCH   3  23
HETATM   23  C6  UNL     1       1.620  14.263  14.561  1.00  0.00     0.074 C 
HETATM   24  C7  UNL     1       2.466  14.783  13.655  1.00  0.00     0.004 C 
BRANCH  24  25
HETATM   25  C8  UNL     1       3.829  14.377  13.398  1.00  0.00    -0.004 C 
HETATM   26  C9  UNL     1       4.260  14.016  12.181  1.00  0.00    -0.027 C 
BRANCH  26  27
HETATM   27  C10 UNL     1       5.680  13.630  11.880  1.00  0.00     0.027 C 
BRANCH  27  28
HETATM   28  C11 UNL     1       6.594  14.857  11.794  1.00  0.00     0.004 C 
BRANCH  28  29
HETATM   29  C12 UNL     1       6.025  15.894  10.822  1.00  0.00    -0.000 C 
BRANCH  29  30
HETATM   30  C13 UNL     1       7.068  16.464   9.857  1.00  0.00    -0.005 C 
HETATM   31  C14 UNL     1       7.916  17.572  10.464  1.00  0.00     0.005 C 
ENDBRANCH  29  30
ENDBRANCH  28  29
ENDBRANCH  27  28
ENDBRANCH  26  27
ENDBRANCH  24  25
ENDBRANCH   3  23
BRANCH   1  32
HETATM   32  C2  UNL     1       2.424  13.535  18.820  1.00  0.00    -0.054 C 
HETATM   33  C1  UNL     1       1.666  14.301  19.629  1.00  0.00     0.017 C 
HETATM   34  C3  UNL     1       3.927  13.566  18.992  1.00  0.00     0.046 C 
ENDBRANCH   1  32
BRANCH  22  35
HETATM   35  O9  UNL     1       1.430  10.651  19.058  1.00  0.00    -0.377 OA
BRANCH  35  36
HETATM   36  C31 UNL     1       0.926  10.627  20.397  1.00  0.00     0.207 C 
BRANCH  36  37
HETATM   37  C32 UNL     1       2.035  10.423  21.399  1.00  0.00    -0.035 A 
HETATM   38  C33 UNL     1       2.349   9.139  21.865  1.00  0.00     0.009 A 
HETATM   39  C34 UNL     1       3.373   8.955  22.796  1.00  0.00     0.001 A 
HETATM   40  C35 UNL     1       4.095  10.049  23.267  1.00  0.00     0.000 A 
HETATM   41  C36 UNL     1       3.795  11.330  22.807  1.00  0.00     0.001 A 
HETATM   42  C37 UNL     1       2.771  11.517  21.875  1.00  0.00     0.009 A 
ENDBRANCH  36  37
ENDBRANCH  35  36
ENDBRANCH  22  35
BRANCH  11  43
HETATM   43  O6  UNL     1       0.973   8.004  16.584  1.00  0.00    -0.378 OA
HETATM   44  H29 UNL     1       0.752   7.056  16.703  1.00  0.00     0.211 HD
ENDBRANCH  11  43
BRANCH   9  45
HETATM   45  C19 UNL     1       4.756   8.034  14.139  1.00  0.00     0.207 C 
BRANCH  45  46
HETATM   46  O4  UNL     1       4.595   7.138  13.045  1.00  0.00    -0.398 OA
HETATM   47  H26 UNL     1       4.096   6.373  13.391  1.00  0.00     0.209 HD
ENDBRANCH  45  46
ENDBRANCH   9  45
BRANCH  10  48
HETATM   48  O5  UNL     1       2.626   6.502  15.152  1.00  0.00    -0.389 OA
HETATM   49  H28 UNL     1       2.732   6.710  16.099  1.00  0.00     0.210 HD
ENDBRANCH  10  48
TORSDOF 14
ENDMDL
MODEL 8
REMARK minimizedAffinity -6.42517471
REMARK CNNscore 0.116738625
REMARK CNNaffinity 4.976017
REMARK  14 active torsions:
REMARK  status: ('A' for Active; 'I' for Inactive)
REMARK    1  A    between atoms: C2_2  and  C4_4 
REMARK    2  A    between atoms: C5_6  and  C6_7 
REMARK    3  A    between atoms: C7_8  and  C8_9 
REMARK    4  A    between atoms: C9_10  and  C10_11 
REMARK    5  A    between atoms: C10_11  and  C11_12 
REMARK    6  A    between atoms: C11_12  and  C12_13 
REMARK    7  A    between atoms: C12_13  and  C13_14 
REMARK    8  A    between atoms: C18_21  and  C19_22 
REMARK    9  A    between atoms: C19_22  and  O4_23 
REMARK   10  A    between atoms: C20_24  and  O5_25 
REMARK   11  A    between atoms: C21_26  and  O6_27 
REMARK   12  A    between atoms: C30_38  and  O9_39 
REMARK   13  A    between atoms: O9_39  and  C31_40 
REMARK   14  A    between atoms: C31_40  and  C32_41 
ROOT
HETATM    1  C4  UNL     1       4.517  12.726  15.334  1.00  0.00     0.142 C 
HETATM    2  O1  UNL     1       3.531  12.434  16.351  1.00  0.00    -0.308 OA
HETATM    3  C5  UNL     1       3.849  11.122  16.779  1.00  0.00     0.306 C 
HETATM    4  O2  UNL     1       4.346  10.420  15.657  1.00  0.00    -0.320 OA
HETATM    5  C15 UNL     1       5.275  11.379  15.142  1.00  0.00     0.179 C 
HETATM    6  C16 UNL     1       6.531  11.224  16.030  1.00  0.00     0.086 C 
HETATM    7  C17 UNL     1       7.077   9.817  15.889  1.00  0.00     0.172 A 
HETATM    8  O3  UNL     1       6.979   8.941  17.008  1.00  0.00    -0.363 OA
HETATM    9  C18 UNL     1       8.322   9.254  16.589  1.00  0.00     0.138 A 
HETATM   10  C20 UNL     1       9.147   9.989  17.638  1.00  0.00     0.200 C 
HETATM   11  C21 UNL     1       8.600  11.327  18.165  1.00  0.00     0.161 C 
HETATM   12  C22 UNL     1       9.231  11.747  19.490  1.00  0.00     0.192 C 
HETATM   13  O7  UNL     1      10.432  11.880  19.683  1.00  0.00    -0.289 OA
HETATM   14  C23 UNL     1       8.218  12.138  20.486  1.00  0.00    -0.016 C 
HETATM   15  C24 UNL     1       8.556  12.671  21.821  1.00  0.00     0.052 C 
HETATM   16  C25 UNL     1       7.034  11.892  19.918  1.00  0.00    -0.005 C 
HETATM   17  C26 UNL     1       7.105  11.266  18.548  1.00  0.00     0.090 C 
HETATM   18  C27 UNL     1       6.116  11.749  17.442  1.00  0.00     0.092 C 
HETATM   19  O8  UNL     1       4.834  11.175  17.819  1.00  0.00    -0.316 OA
HETATM   20  C28 UNL     1       5.989  13.335  17.348  1.00  0.00     0.050 C 
HETATM   21  C29 UNL     1       5.125  13.989  18.444  1.00  0.00     0.016 C 
HETATM   22  C30 UNL     1       5.454  13.800  15.945  1.00  0.00     0.170 C 
ENDROOT
BRANCH   3  23
HETATM   23  C6  UNL     1       2.614  10.504  17.353  1.00  0.00     0.074 C 
HETATM   24  C7  UNL     1       2.135  10.467  18.609  1.00  0.00     0.004 C 
BRANCH  24  25
HETATM   25  C8  UNL     1       2.767  10.981  19.801  1.00  0.00    -0.004 C 
HETATM   26  C9  UNL     1       2.070  11.414  20.862  1.00  0.00    -0.027 C 
BRANCH  26  27
HETATM   27  C10 UNL     1       2.704  11.915  22.128  1.00  0.00     0.027 C 
BRANCH  27  28
HETATM   28  C11 UNL     1       4.125  11.371  22.303  1.00  0.00     0.004 C 
BRANCH  28  29
HETATM   29  C12 UNL     1       4.111   9.848  22.461  1.00  0.00    -0.000 C 
BRANCH  29  30
HETATM   30  C13 UNL     1       3.027   9.342  23.415  1.00  0.00    -0.005 C 
HETATM   31  C14 UNL     1       2.173   8.229  22.829  1.00  0.00     0.005 C 
ENDBRANCH  29  30
ENDBRANCH  28  29
ENDBRANCH  27  28
ENDBRANCH  26  27
ENDBRANCH  24  25
ENDBRANCH   3  23
BRANCH   1  32
HETATM   32  C2  UNL     1       3.742  13.253  14.115  1.00  0.00    -0.054 C 
HETATM   33  C1  UNL     1       2.728  14.138  14.163  1.00  0.00     0.017 C 
HETATM   34  C3  UNL     1       4.163  12.706  12.769  1.00  0.00     0.046 C 
ENDBRANCH   1  32
BRANCH  22  35
HETATM   35  O9  UNL     1       6.553  14.032  15.042  1.00  0.00    -0.377 OA
BRANCH  35  36
HETATM   36  C31 UNL     1       6.777  15.414  14.745  1.00  0.00     0.207 C 
BRANCH  36  37
HETATM   37  C32 UNL     1       6.230  15.783  13.389  1.00  0.00    -0.035 A 
HETATM   38  C33 UNL     1       6.772  15.223  12.224  1.00  0.00     0.009 A 
HETATM   39  C34 UNL     1       6.266  15.570  10.970  1.00  0.00     0.001 A 
HETATM   40  C35 UNL     1       5.212  16.474  10.868  1.00  0.00     0.000 A 
HETATM   41  C36 UNL     1       4.661  17.033  12.020  1.00  0.00     0.001 A 
HETATM   42  C37 UNL     1       5.165  16.687  13.275  1.00  0.00     0.009 A 
ENDBRANCH  36  37
ENDBRANCH  35  36
ENDBRANCH  22  35
BRANCH  11  43
HETATM   43  O6  UNL     1       8.949  12.386  17.252  1.00  0.00    -0.378 OA
HETATM   44  H29 UNL     1       9.884  12.606  17.450  1.00  0.00     0.211 HD
ENDBRANCH  11  43
BRANCH   9  45
HETATM   45  C19 UNL     1       9.008   8.087  15.906  1.00  0.00     0.207 C 
BRANCH  45  46
HETATM   46  O4  UNL     1       9.348   7.065  16.836  1.00  0.00    -0.398 OA
HETATM   47  H26 UNL     1      10.059   7.433  17.397  1.00  0.00     0.209 HD
ENDBRANCH  45  46
ENDBRANCH   9  45
BRANCH  10  48
HETATM   48  O5  UNL     1      10.451  10.207  17.061  1.00  0.00    -0.389 OA
HETATM   49  H28 UNL     1      10.329  10.870  16.356  1.00  0.00     0.210 HD
ENDBRANCH  10  48
TORSDOF 14
ENDMDL
MODEL 9
REMARK minimizedAffinity -6.97592878
REMARK CNNscore 0.115940258
REMARK CNNaffinity 5.88790274
REMARK  14 active torsions:
REMARK  status: ('A' for Active; 'I' for Inactive)
REMARK    1  A    between atoms: C2_2  and  C4_4 
REMARK    2  A    between atoms: C5_6  and  C6_7 
REMARK    3  A    between atoms: C7_8  and  C8_9 
REMARK    4  A    between atoms: C9_10  and  C10_11 
REMARK    5  A    between atoms: C10_11  and  C11_12 
REMARK    6  A    between atoms: C11_12  and  C12_13 
REMARK    7  A    between atoms: C12_13  and  C13_14 
REMARK    8  A    between atoms: C18_21  and  C19_22 
REMARK    9  A    between atoms: C19_22  and  O4_23 
REMARK   10  A    between atoms: C20_24  and  O5_25 
REMARK   11  A    between atoms: C21_26  and  O6_27 
REMARK   12  A    between atoms: C30_38  and  O9_39 
REMARK   13  A    between atoms: O9_39  and  C31_40 
REMARK   14  A    between atoms: C31_40  and  C32_41 
ROOT
HETATM    1  C4  UNL     1      -0.369  11.007  17.186  1.00  0.00     0.142 C 
HETATM    2  O1  UNL     1      -0.830  10.165  16.105  1.00  0.00    -0.308 OA
HETATM    3  C5  UNL     1      -0.361  10.809  14.935  1.00  0.00     0.306 C 
HETATM    4  O2  UNL     1      -0.387  12.202  15.179  1.00  0.00    -0.320 OA
HETATM    5  C15 UNL     1       0.236  12.250  16.467  1.00  0.00     0.179 C 
HETATM    6  C16 UNL     1       1.750  12.141  16.175  1.00  0.00     0.086 C 
HETATM    7  C17 UNL     1       2.184  13.317  15.322  1.00  0.00     0.172 A 
HETATM    8  O3  UNL     1       2.570  13.066  13.974  1.00  0.00    -0.363 OA
HETATM    9  C18 UNL     1       3.608  13.596  14.822  1.00  0.00     0.138 A 
HETATM   10  C20 UNL     1       4.801  12.665  15.003  1.00  0.00     0.200 C 
HETATM   11  C21 UNL     1       4.529  11.264  15.578  1.00  0.00     0.161 C 
HETATM   12  C22 UNL     1       5.663  10.278  15.305  1.00  0.00     0.192 C 
HETATM   13  O7  UNL     1       6.832  10.452  15.620  1.00  0.00    -0.289 OA
HETATM   14  C23 UNL     1       5.168   9.005  14.753  1.00  0.00    -0.016 C 
HETATM   15  C24 UNL     1       6.040   7.845  14.482  1.00  0.00     0.052 C 
HETATM   16  C25 UNL     1       3.855   9.171  14.572  1.00  0.00    -0.005 C 
HETATM   17  C26 UNL     1       3.338  10.549  14.904  1.00  0.00     0.090 C 
HETATM   18  C27 UNL     1       1.973  10.687  15.648  1.00  0.00     0.092 C 
HETATM   19  O8  UNL     1       0.972  10.373  14.640  1.00  0.00    -0.316 OA
HETATM   20  C28 UNL     1       1.818   9.696  16.887  1.00  0.00     0.050 C 
HETATM   21  C29 UNL     1       1.501   8.233  16.520  1.00  0.00     0.016 C 
HETATM   22  C30 UNL     1       0.740  10.201  17.912  1.00  0.00     0.170 C 
ENDROOT
BRANCH   3  23
HETATM   23  C6  UNL     1      -1.236  10.402  13.792  1.00  0.00     0.074 C 
HETATM   24  C7  UNL     1      -1.113   9.425  12.877  1.00  0.00     0.004 C 
BRANCH  24  25
HETATM   25  C8  UNL     1      -0.002   8.515  12.714  1.00  0.00    -0.004 C 
HETATM   26  C9  UNL     1       0.620   8.335  11.539  1.00  0.00    -0.027 C 
BRANCH  26  27
HETATM   27  C10 UNL     1       1.801   7.427  11.353  1.00  0.00     0.027 C 
BRANCH  27  28
HETATM   28  C11 UNL     1       1.486   6.278  10.389  1.00  0.00     0.004 C 
BRANCH  28  29
HETATM   29  C12 UNL     1       2.419   6.311   9.176  1.00  0.00    -0.000 C 
BRANCH  29  30
HETATM   30  C13 UNL     1       1.934   7.235   8.056  1.00  0.00    -0.005 C 
HETATM   31  C14 UNL     1       2.805   8.466   7.863  1.00  0.00     0.005 C 
ENDBRANCH  29  30
ENDBRANCH  28  29
ENDBRANCH  27  28
ENDBRANCH  26  27
ENDBRANCH  24  25
ENDBRANCH   3  23
BRANCH   1  32
HETATM   32  C2  UNL     1      -1.588  11.266  18.087  1.00  0.00    -0.054 C 
HETATM   33  C1  UNL     1      -1.950  12.468  18.576  1.00  0.00     0.017 C 
HETATM   34  C3  UNL     1      -2.420  10.056  18.450  1.00  0.00     0.046 C 
ENDBRANCH   1  32
BRANCH  22  35
HETATM   35  O9  UNL     1       1.351  11.040  18.911  1.00  0.00    -0.377 OA
BRANCH  35  36
HETATM   36  C31 UNL     1       0.887  10.789  20.241  1.00  0.00     0.207 C 
BRANCH  36  37
HETATM   37  C32 UNL     1       2.035  10.605  21.201  1.00  0.00    -0.035 A 
HETATM   38  C33 UNL     1       2.318   9.344  21.743  1.00  0.00     0.009 A 
HETATM   39  C34 UNL     1       3.379   9.178  22.635  1.00  0.00     0.001 A 
HETATM   40  C35 UNL     1       4.170  10.269  22.990  1.00  0.00     0.000 A 
HETATM   41  C36 UNL     1       3.901  11.527  22.454  1.00  0.00     0.001 A 
HETATM   42  C37 UNL     1       2.841  11.695  21.561  1.00  0.00     0.009 A 
ENDBRANCH  36  37
ENDBRANCH  35  36
ENDBRANCH  22  35
BRANCH  11  43
HETATM   43  O6  UNL     1       4.458  11.336  17.015  1.00  0.00    -0.378 OA
HETATM   44  H29 UNL     1       5.389  11.363  17.324  1.00  0.00     0.211 HD
ENDBRANCH  11  43
BRANCH   9  45
HETATM   45  C19 UNL     1       3.940  15.041  14.507  1.00  0.00     0.207 C 
BRANCH  45  46
HETATM   46  O4  UNL     1       4.360  15.198  13.156  1.00  0.00    -0.398 OA
HETATM   47  H26 UNL     1       5.231  14.759  13.089  1.00  0.00     0.209 HD
ENDBRANCH  45  46
ENDBRANCH   9  45
BRANCH  10  48
HETATM   48  O5  UNL     1       5.737  13.352  15.859  1.00  0.00    -0.389 OA
HETATM   49  H28 UNL     1       5.327  13.379  16.743  1.00  0.00     0.210 HD
ENDBRANCH  10  48
TORSDOF 14
ENDMDL
