MODEL 1
REMARK minimizedAffinity -7.28841066
REMARK CNNscore 0.646074414
REMARK CNNaffinity 7.05341482
REMARK  6 active torsions:
REMARK  status: ('A' for Active; 'I' for Inactive)
REMARK    1  A    between atoms: C2_2  and  C30_31 
REMARK    2  A    between atoms: C3_3  and  C4_4 
REMARK    3  A    between atoms: C4_4  and  C5_5 
REMARK    4  A    between atoms: C5_5  and  C6_6 
REMARK    5  A    between atoms: C6_6  and  C8_8 
REMARK    6  A    between atoms: C30_31  and  O3_33 
ROOT
HETATM    1  C8  UNL     1      -1.881  52.597 -10.718  1.00  0.00    -0.002 C 
HETATM    2  C9  UNL     1      -1.157  51.230 -10.920  1.00  0.00     0.007 C 
HETATM    3  C10 UNL     1       0.317  51.420 -10.515  1.00  0.00     0.015 C 
HETATM    4  C11 UNL     1       0.498  52.947 -10.408  1.00  0.00    -0.013 C 
HETATM    5  C12 UNL     1       0.749  53.454 -11.865  1.00  0.00     0.021 C 
HETATM    6  C13 UNL     1       1.657  53.478  -9.569  1.00  0.00    -0.070 C 
HETATM    7  C14 UNL     1       2.826  52.822  -9.464  1.00  0.00    -0.022 C 
HETATM    8  C15 UNL     1       4.034  53.345  -8.753  1.00  0.00     0.034 C 
HETATM    9  C16 UNL     1       3.794  54.619  -7.910  1.00  0.00     0.013 C 
HETATM   10  C17 UNL     1       5.130  55.258  -7.378  1.00  0.00     0.018 C 
HETATM   11  C18 UNL     1       6.314  55.200  -8.364  1.00  0.00     0.023 C 
HETATM   12  C19 UNL     1       5.574  54.527  -6.092  1.00  0.00     0.023 C 
HETATM   13  C20 UNL     1       4.881  56.718  -6.987  1.00  0.00     0.135 C 
HETATM   14  O1  UNL     1       5.775  57.564  -6.955  1.00  0.00    -0.297 OA
HETATM   15  C21 UNL     1       3.485  57.065  -6.551  1.00  0.00     0.080 C 
HETATM   16  C22 UNL     1       2.485  56.826  -7.672  1.00  0.00     0.017 C 
HETATM   17  C23 UNL     1       2.796  55.616  -8.612  1.00  0.00    -0.031 C 
HETATM   18  C24 UNL     1       3.384  56.170  -9.931  1.00  0.00     0.016 C 
HETATM   19  C25 UNL     1       1.448  54.829  -8.882  1.00  0.00     0.024 C 
HETATM   20  C26 UNL     1       0.333  55.663  -9.560  1.00  0.00     0.010 C 
HETATM   21  C27 UNL     1      -0.997  54.910  -9.803  1.00  0.00     0.011 C 
HETATM   22  C28 UNL     1      -0.885  53.369  -9.788  1.00  0.00    -0.029 C 
HETATM   23  C29 UNL     1      -1.093  52.859  -8.326  1.00  0.00     0.016 C 
ENDROOT
BRANCH   1  24
HETATM   24  C6  UNL     1      -3.370  52.418 -10.290  1.00  0.00    -0.014 C 
HETATM   25  C7  UNL     1      -4.204  53.674 -10.566  1.00  0.00     0.010 C 
BRANCH  24  26
HETATM   26  C5  UNL     1      -3.991  51.195 -11.018  1.00  0.00     0.008 C 
BRANCH  26  27
HETATM   27  C4  UNL     1      -4.749  50.237 -10.092  1.00  0.00     0.028 C 
BRANCH  27  28
HETATM   28  C3  UNL     1      -5.547  49.233 -10.882  1.00  0.00    -0.013 C 
HETATM   29  C2  UNL     1      -6.807  48.809 -10.657  1.00  0.00     0.008 C 
HETATM   30  C1  UNL     1      -7.476  47.818 -11.566  1.00  0.00     0.055 C 
BRANCH  29  31
HETATM   31  C30 UNL     1      -7.581  49.255  -9.473  1.00  0.00     0.171 C 
HETATM   32  O2  UNL     1      -7.717  48.672  -8.414  1.00  0.00    -0.646 OA
BRANCH  31  33
HETATM   33  O3  UNL     1      -8.179  50.440  -9.689  1.00  0.00    -0.773 OA
HETATM   34  H46 UNL     1      -8.645  50.614  -8.846  1.00  0.00     0.167 HD
ENDBRANCH  31  33
ENDBRANCH  29  31
ENDBRANCH  27  28
ENDBRANCH  26  27
ENDBRANCH  24  26
ENDBRANCH   1  24
TORSDOF 6
ENDMDL
MODEL 2
REMARK minimizedAffinity -7.75949001
REMARK CNNscore 0.564535797
REMARK CNNaffinity 6.10269165
REMARK  6 active torsions:
REMARK  status: ('A' for Active; 'I' for Inactive)
REMARK    1  A    between atoms: C2_2  and  C30_31 
REMARK    2  A    between atoms: C3_3  and  C4_4 
REMARK    3  A    between atoms: C4_4  and  C5_5 
REMARK    4  A    between atoms: C5_5  and  C6_6 
REMARK    5  A    between atoms: C6_6  and  C8_8 
REMARK    6  A    between atoms: C30_31  and  O3_33 
ROOT
HETATM    1  C8  UNL     1     -12.925  46.410 -26.821  1.00  0.00    -0.002 C 
HETATM    2  C9  UNL     1     -13.653  45.604 -27.940  1.00  0.00     0.007 C 
HETATM    3  C10 UNL     1     -12.753  45.627 -29.190  1.00  0.00     0.015 C 
HETATM    4  C11 UNL     1     -11.695  46.707 -28.889  1.00  0.00    -0.013 C 
HETATM    5  C12 UNL     1     -12.363  48.075 -29.246  1.00  0.00     0.021 C 
HETATM    6  C13 UNL     1     -10.380  46.663 -29.663  1.00  0.00    -0.070 C 
HETATM    7  C14 UNL     1     -10.309  46.226 -30.932  1.00  0.00    -0.022 C 
HETATM    8  C15 UNL     1      -9.076  46.267 -31.777  1.00  0.00     0.034 C 
HETATM    9  C16 UNL     1      -7.776  46.628 -31.020  1.00  0.00     0.013 C 
HETATM   10  C17 UNL     1      -6.560  46.886 -31.984  1.00  0.00     0.018 C 
HETATM   11  C18 UNL     1      -6.915  47.617 -33.295  1.00  0.00     0.023 C 
HETATM   12  C19 UNL     1      -5.920  45.536 -32.377  1.00  0.00     0.023 C 
HETATM   13  C20 UNL     1      -5.481  47.684 -31.247  1.00  0.00     0.135 C 
HETATM   14  O1  UNL     1      -4.650  48.381 -31.830  1.00  0.00    -0.297 OA
HETATM   15  C21 UNL     1      -5.422  47.510 -29.755  1.00  0.00     0.080 C 
HETATM   16  C22 UNL     1      -6.712  47.974 -29.097  1.00  0.00     0.017 C 
HETATM   17  C23 UNL     1      -8.019  47.731 -29.921  1.00  0.00    -0.031 C 
HETATM   18  C24 UNL     1      -8.445  49.077 -30.554  1.00  0.00     0.016 C 
HETATM   19  C25 UNL     1      -9.139  47.189 -28.940  1.00  0.00     0.024 C 
HETATM   20  C26 UNL     1      -9.499  48.143 -27.775  1.00  0.00     0.010 C 
HETATM   21  C27 UNL     1     -10.573  47.610 -26.796  1.00  0.00     0.011 C 
HETATM   22  C28 UNL     1     -11.453  46.468 -27.354  1.00  0.00    -0.029 C 
HETATM   23  C29 UNL     1     -10.770  45.099 -27.037  1.00  0.00     0.016 C 
ENDROOT
BRANCH   1  24
HETATM   24  C6  UNL     1     -13.219  45.842 -25.398  1.00  0.00    -0.014 C 
HETATM   25  C7  UNL     1     -12.676  46.751 -24.291  1.00  0.00     0.010 C 
BRANCH  24  26
HETATM   26  C5  UNL     1     -14.747  45.631 -25.214  1.00  0.00     0.008 C 
BRANCH  26  27
HETATM   27  C4  UNL     1     -15.497  46.884 -24.748  1.00  0.00     0.028 C 
BRANCH  27  28
HETATM   28  C3  UNL     1     -16.308  46.605 -23.510  1.00  0.00    -0.013 C 
HETATM   29  C2  UNL     1     -17.644  46.454 -23.407  1.00  0.00     0.008 C 
HETATM   30  C1  UNL     1     -18.299  46.143 -22.091  1.00  0.00     0.055 C 
BRANCH  29  31
HETATM   31  C30 UNL     1     -18.542  46.640 -24.571  1.00  0.00     0.171 C 
HETATM   32  O2  UNL     1     -19.184  47.633 -24.862  1.00  0.00    -0.646 OA
BRANCH  31  33
HETATM   33  O3  UNL     1     -18.609  45.530 -25.329  1.00  0.00    -0.773 OA
HETATM   34  H46 UNL     1     -19.222  45.785 -26.048  1.00  0.00     0.167 HD
ENDBRANCH  31  33
ENDBRANCH  29  31
ENDBRANCH  27  28
ENDBRANCH  26  27
ENDBRANCH  24  26
ENDBRANCH   1  24
TORSDOF 6
ENDMDL
MODEL 3
REMARK minimizedAffinity -7.62165356
REMARK CNNscore 0.54854852
REMARK CNNaffinity 6.1023941
REMARK  6 active torsions:
REMARK  status: ('A' for Active; 'I' for Inactive)
REMARK    1  A    between atoms: C2_2  and  C30_31 
REMARK    2  A    between atoms: C3_3  and  C4_4 
REMARK    3  A    between atoms: C4_4  and  C5_5 
REMARK    4  A    between atoms: C5_5  and  C6_6 
REMARK    5  A    between atoms: C6_6  and  C8_8 
REMARK    6  A    between atoms: C30_31  and  O3_33 
ROOT
HETATM    1  C8  UNL     1     -12.645  45.857 -27.624  1.00  0.00    -0.002 C 
HETATM    2  C9  UNL     1     -13.168  47.253 -28.083  1.00  0.00     0.007 C 
HETATM    3  C10 UNL     1     -12.030  47.944 -28.858  1.00  0.00     0.015 C 
HETATM    4  C11 UNL     1     -10.780  47.096 -28.553  1.00  0.00    -0.013 C 
HETATM    5  C12 UNL     1     -10.249  47.595 -27.170  1.00  0.00     0.021 C 
HETATM    6  C13 UNL     1      -9.599  47.182 -29.516  1.00  0.00    -0.070 C 
HETATM    7  C14 UNL     1      -9.294  48.311 -30.179  1.00  0.00    -0.022 C 
HETATM    8  C15 UNL     1      -8.087  48.490 -31.044  1.00  0.00     0.034 C 
HETATM    9  C16 UNL     1      -7.300  47.192 -31.343  1.00  0.00     0.013 C 
HETATM   10  C17 UNL     1      -5.923  47.465 -32.054  1.00  0.00     0.018 C 
HETATM   11  C18 UNL     1      -5.176  48.721 -31.560  1.00  0.00     0.023 C 
HETATM   12  C19 UNL     1      -6.152  47.640 -33.571  1.00  0.00     0.023 C 
HETATM   13  C20 UNL     1      -5.010  46.247 -31.887  1.00  0.00     0.135 C 
HETATM   14  O1  UNL     1      -3.782  46.319 -31.946  1.00  0.00    -0.297 OA
HETATM   15  C21 UNL     1      -5.691  44.916 -31.731  1.00  0.00     0.080 C 
HETATM   16  C22 UNL     1      -6.552  44.883 -30.478  1.00  0.00     0.017 C 
HETATM   17  C23 UNL     1      -7.244  46.232 -30.095  1.00  0.00    -0.031 C 
HETATM   18  C24 UNL     1      -6.449  46.867 -28.929  1.00  0.00     0.016 C 
HETATM   19  C25 UNL     1      -8.736  45.927 -29.661  1.00  0.00     0.024 C 
HETATM   20  C26 UNL     1      -8.878  44.977 -28.447  1.00  0.00     0.010 C 
HETATM   21  C27 UNL     1     -10.333  44.650 -28.032  1.00  0.00     0.011 C 
HETATM   22  C28 UNL     1     -11.395  45.649 -28.544  1.00  0.00    -0.029 C 
HETATM   23  C29 UNL     1     -11.900  45.179 -29.946  1.00  0.00     0.016 C 
ENDROOT
BRANCH   1  24
HETATM   24  C6  UNL     1     -13.778  44.785 -27.590  1.00  0.00    -0.014 C 
HETATM   25  C7  UNL     1     -13.902  44.123 -26.214  1.00  0.00     0.010 C 
BRANCH  24  26
HETATM   26  C5  UNL     1     -15.132  45.427 -27.997  1.00  0.00     0.008 C 
BRANCH  26  27
HETATM   27  C4  UNL     1     -16.150  45.512 -26.854  1.00  0.00     0.028 C 
BRANCH  27  28
HETATM   28  C3  UNL     1     -17.418  44.775 -27.198  1.00  0.00    -0.013 C 
HETATM   29  C2  UNL     1     -18.592  44.785 -26.535  1.00  0.00     0.008 C 
HETATM   30  C1  UNL     1     -19.780  44.014 -27.033  1.00  0.00     0.055 C 
BRANCH  29  31
HETATM   31  C30 UNL     1     -18.758  45.512 -25.254  1.00  0.00     0.171 C 
HETATM   32  O2  UNL     1     -18.371  45.170 -24.152  1.00  0.00    -0.646 OA
BRANCH  31  33
HETATM   33  O3  UNL     1     -19.438  46.661 -25.419  1.00  0.00    -0.773 OA
HETATM   34  H46 UNL     1     -19.475  47.033 -24.515  1.00  0.00     0.167 HD
ENDBRANCH  31  33
ENDBRANCH  29  31
ENDBRANCH  27  28
ENDBRANCH  26  27
ENDBRANCH  24  26
ENDBRANCH   1  24
TORSDOF 6
ENDMDL
MODEL 4
REMARK minimizedAffinity -8.31605816
REMARK CNNscore 0.417749494
REMARK CNNaffinity 6.53513002
REMARK  6 active torsions:
REMARK  status: ('A' for Active; 'I' for Inactive)
REMARK    1  A    between atoms: C2_2  and  C30_31 
REMARK    2  A    between atoms: C3_3  and  C4_4 
REMARK    3  A    between atoms: C4_4  and  C5_5 
REMARK    4  A    between atoms: C5_5  and  C6_6 
REMARK    5  A    between atoms: C6_6  and  C8_8 
REMARK    6  A    between atoms: C30_31  and  O3_33 
ROOT
HETATM    1  C8  UNL     1       0.310  51.298 -17.987  1.00  0.00    -0.002 C 
HETATM    2  C9  UNL     1       0.225  52.693 -18.680  1.00  0.00     0.007 C 
HETATM    3  C10 UNL     1      -0.800  52.583 -19.823  1.00  0.00     0.015 C 
HETATM    4  C11 UNL     1      -1.040  51.069 -19.987  1.00  0.00    -0.013 C 
HETATM    5  C12 UNL     1       0.131  50.543 -20.879  1.00  0.00     0.021 C 
HETATM    6  C13 UNL     1      -2.328  50.613 -20.667  1.00  0.00    -0.070 C 
HETATM    7  C14 UNL     1      -2.915  51.327 -21.644  1.00  0.00    -0.022 C 
HETATM    8  C15 UNL     1      -4.109  50.877 -22.424  1.00  0.00     0.034 C 
HETATM    9  C16 UNL     1      -4.810  49.613 -21.875  1.00  0.00     0.013 C 
HETATM   10  C17 UNL     1      -5.907  49.050 -22.854  1.00  0.00     0.018 C 
HETATM   11  C18 UNL     1      -5.549  49.143 -24.351  1.00  0.00     0.023 C 
HETATM   12  C19 UNL     1      -7.224  49.830 -22.653  1.00  0.00     0.023 C 
HETATM   13  C20 UNL     1      -6.206  47.589 -22.504  1.00  0.00     0.135 C 
HETATM   14  O1  UNL     1      -6.667  46.789 -23.318  1.00  0.00    -0.297 OA
HETATM   15  C21 UNL     1      -5.989  47.186 -21.073  1.00  0.00     0.080 C 
HETATM   16  C22 UNL     1      -4.532  47.352 -20.671  1.00  0.00     0.017 C 
HETATM   17  C23 UNL     1      -3.779  48.554 -21.328  1.00  0.00    -0.031 C 
HETATM   18  C24 UNL     1      -2.883  47.999 -22.462  1.00  0.00     0.016 C 
HETATM   19  C25 UNL     1      -2.905  49.270 -20.218  1.00  0.00     0.024 C 
HETATM   20  C26 UNL     1      -1.837  48.368 -19.551  1.00  0.00     0.010 C 
HETATM   21  C27 UNL     1      -0.996  49.051 -18.445  1.00  0.00     0.011 C 
HETATM   22  C28 UNL     1      -0.996  50.596 -18.488  1.00  0.00    -0.029 C 
HETATM   23  C29 UNL     1      -2.190  51.128 -17.632  1.00  0.00     0.016 C 
ENDROOT
BRANCH   1  24
HETATM   24  C6  UNL     1       0.598  51.416 -16.458  1.00  0.00    -0.014 C 
HETATM   25  C7  UNL     1       0.910  50.056 -15.825  1.00  0.00     0.010 C 
BRANCH  24  26
HETATM   26  C5  UNL     1       1.772  52.402 -16.210  1.00  0.00     0.008 C 
BRANCH  26  27
HETATM   27  C4  UNL     1       2.966  51.777 -15.478  1.00  0.00     0.028 C 
BRANCH  27  28
HETATM   28  C3  UNL     1       2.803  51.881 -13.984  1.00  0.00    -0.013 C 
HETATM   29  C2  UNL     1       3.206  51.006 -13.040  1.00  0.00     0.008 C 
HETATM   30  C1  UNL     1       2.994  51.277 -11.578  1.00  0.00     0.055 C 
BRANCH  29  31
HETATM   31  C30 UNL     1       3.829  49.708 -13.395  1.00  0.00     0.171 C 
HETATM   32  O2  UNL     1       4.964  49.514 -13.789  1.00  0.00    -0.646 OA
BRANCH  31  33
HETATM   33  O3  UNL     1       2.965  48.688 -13.251  1.00  0.00    -0.773 OA
HETATM   34  H46 UNL     1       3.494  47.906 -13.512  1.00  0.00     0.167 HD
ENDBRANCH  31  33
ENDBRANCH  29  31
ENDBRANCH  27  28
ENDBRANCH  26  27
ENDBRANCH  24  26
ENDBRANCH   1  24
TORSDOF 6
ENDMDL
MODEL 5
REMARK minimizedAffinity -7.63274145
REMARK CNNscore 0.379465729
REMARK CNNaffinity 5.69338274
REMARK  6 active torsions:
REMARK  status: ('A' for Active; 'I' for Inactive)
REMARK    1  A    between atoms: C2_2  and  C30_31 
REMARK    2  A    between atoms: C3_3  and  C4_4 
REMARK    3  A    between atoms: C4_4  and  C5_5 
REMARK    4  A    between atoms: C5_5  and  C6_6 
REMARK    5  A    between atoms: C6_6  and  C8_8 
REMARK    6  A    between atoms: C30_31  and  O3_33 
ROOT
HETATM    1  C8  UNL     1     -14.145  45.161 -26.829  1.00  0.00    -0.002 C 
HETATM    2  C9  UNL     1     -13.353  44.322 -25.780  1.00  0.00     0.007 C 
HETATM    3  C10 UNL     1     -11.867  44.354 -26.184  1.00  0.00     0.015 C 
HETATM    4  C11 UNL     1     -11.866  44.917 -27.619  1.00  0.00    -0.013 C 
HETATM    5  C12 UNL     1     -12.179  43.706 -28.557  1.00  0.00     0.021 C 
HETATM    6  C13 UNL     1     -10.576  45.539 -28.148  1.00  0.00    -0.070 C 
HETATM    7  C14 UNL     1      -9.362  45.097 -27.777  1.00  0.00    -0.022 C 
HETATM    8  C15 UNL     1      -8.069  45.588 -28.346  1.00  0.00     0.034 C 
HETATM    9  C16 UNL     1      -8.184  46.844 -29.242  1.00  0.00     0.013 C 
HETATM   10  C17 UNL     1      -6.845  47.178 -29.997  1.00  0.00     0.018 C 
HETATM   11  C18 UNL     1      -6.056  45.950 -30.493  1.00  0.00     0.023 C 
HETATM   12  C19 UNL     1      -5.909  47.971 -29.059  1.00  0.00     0.023 C 
HETATM   13  C20 UNL     1      -7.144  48.091 -31.191  1.00  0.00     0.135 C 
HETATM   14  O1  UNL     1      -6.409  48.163 -32.177  1.00  0.00    -0.297 OA
HETATM   15  C21 UNL     1      -8.351  48.978 -31.070  1.00  0.00     0.080 C 
HETATM   16  C22 UNL     1      -9.623  48.157 -30.929  1.00  0.00     0.017 C 
HETATM   17  C23 UNL     1      -9.481  46.816 -30.135  1.00  0.00    -0.031 C 
HETATM   18  C24 UNL     1      -9.440  45.655 -31.157  1.00  0.00     0.016 C 
HETATM   19  C25 UNL     1     -10.725  46.671 -29.166  1.00  0.00     0.024 C 
HETATM   20  C26 UNL     1     -12.102  46.642 -29.875  1.00  0.00     0.010 C 
HETATM   21  C27 UNL     1     -13.325  46.528 -28.934  1.00  0.00     0.011 C 
HETATM   22  C28 UNL     1     -13.010  45.991 -27.519  1.00  0.00    -0.029 C 
HETATM   23  C29 UNL     1     -12.655  47.194 -26.587  1.00  0.00     0.016 C 
ENDROOT
BRANCH   1  24
HETATM   24  C6  UNL     1     -15.372  45.888 -26.199  1.00  0.00    -0.014 C 
HETATM   25  C7  UNL     1     -16.702  45.295 -26.677  1.00  0.00     0.010 C 
BRANCH  24  26
HETATM   26  C5  UNL     1     -15.289  45.830 -24.649  1.00  0.00     0.008 C 
BRANCH  26  27
HETATM   27  C4  UNL     1     -16.166  46.867 -23.938  1.00  0.00     0.028 C 
BRANCH  27  28
HETATM   28  C3  UNL     1     -17.151  46.204 -23.012  1.00  0.00    -0.013 C 
HETATM   29  C2  UNL     1     -18.479  46.045 -23.185  1.00  0.00     0.008 C 
HETATM   30  C1  UNL     1     -19.321  45.324 -22.172  1.00  0.00     0.055 C 
BRANCH  29  31
HETATM   31  C30 UNL     1     -19.187  46.617 -24.356  1.00  0.00     0.171 C 
HETATM   32  O2  UNL     1     -19.066  47.735 -24.821  1.00  0.00    -0.646 OA
BRANCH  31  33
HETATM   33  O3  UNL     1     -20.052  45.737 -24.891  1.00  0.00    -0.773 OA
HETATM   34  H46 UNL     1     -20.443  46.233 -25.639  1.00  0.00     0.167 HD
ENDBRANCH  31  33
ENDBRANCH  29  31
ENDBRANCH  27  28
ENDBRANCH  26  27
ENDBRANCH  24  26
ENDBRANCH   1  24
TORSDOF 6
ENDMDL
MODEL 6
REMARK minimizedAffinity -8.63248062
REMARK CNNscore 0.363812655
REMARK CNNaffinity 6.58745337
REMARK  6 active torsions:
REMARK  status: ('A' for Active; 'I' for Inactive)
REMARK    1  A    between atoms: C2_2  and  C30_31 
REMARK    2  A    between atoms: C3_3  and  C4_4 
REMARK    3  A    between atoms: C4_4  and  C5_5 
REMARK    4  A    between atoms: C5_5  and  C6_6 
REMARK    5  A    between atoms: C6_6  and  C8_8 
REMARK    6  A    between atoms: C30_31  and  O3_33 
ROOT
HETATM    1  C8  UNL     1      -3.550  47.784 -19.670  1.00  0.00    -0.002 C 
HETATM    2  C9  UNL     1      -4.155  46.768 -20.687  1.00  0.00     0.007 C 
HETATM    3  C10 UNL     1      -3.932  47.336 -22.101  1.00  0.00     0.015 C 
HETATM    4  C11 UNL     1      -3.510  48.800 -21.871  1.00  0.00    -0.013 C 
HETATM    5  C12 UNL     1      -4.837  49.603 -21.671  1.00  0.00     0.021 C 
HETATM    6  C13 UNL     1      -2.747  49.514 -22.984  1.00  0.00    -0.070 C 
HETATM    7  C14 UNL     1      -2.960  49.248 -24.284  1.00  0.00    -0.022 C 
HETATM    8  C15 UNL     1      -2.329  49.991 -25.418  1.00  0.00     0.034 C 
HETATM    9  C16 UNL     1      -1.195  50.962 -25.013  1.00  0.00     0.013 C 
HETATM   10  C17 UNL     1      -0.728  51.884 -26.199  1.00  0.00     0.018 C 
HETATM   11  C18 UNL     1      -1.860  52.369 -27.127  1.00  0.00     0.023 C 
HETATM   12  C19 UNL     1       0.283  51.118 -27.080  1.00  0.00     0.023 C 
HETATM   13  C20 UNL     1       0.013  53.103 -25.641  1.00  0.00     0.135 C 
HETATM   14  O1  UNL     1       0.106  54.166 -26.254  1.00  0.00    -0.297 OA
HETATM   15  C21 UNL     1       0.709  52.916 -24.322  1.00  0.00     0.080 C 
HETATM   16  C22 UNL     1      -0.282  52.574 -23.221  1.00  0.00     0.017 C 
HETATM   17  C23 UNL     1      -1.505  51.702 -23.657  1.00  0.00    -0.031 C 
HETATM   18  C24 UNL     1      -2.736  52.631 -23.788  1.00  0.00     0.016 C 
HETATM   19  C25 UNL     1      -1.752  50.593 -22.554  1.00  0.00     0.024 C 
HETATM   20  C26 UNL     1      -2.058  51.140 -21.138  1.00  0.00     0.010 C 
HETATM   21  C27 UNL     1      -2.273  50.064 -20.047  1.00  0.00     0.011 C 
HETATM   22  C28 UNL     1      -2.622  48.656 -20.582  1.00  0.00    -0.029 C 
HETATM   23  C29 UNL     1      -1.298  47.863 -20.824  1.00  0.00     0.016 C 
ENDROOT
BRANCH   1  24
HETATM   24  C6  UNL     1      -2.966  47.079 -18.408  1.00  0.00    -0.014 C 
HETATM   25  C7  UNL     1      -2.959  48.001 -17.184  1.00  0.00     0.010 C 
BRANCH  24  26
HETATM   26  C5  UNL     1      -3.771  45.787 -18.098  1.00  0.00     0.008 C 
BRANCH  26  27
HETATM   27  C4  UNL     1      -2.921  44.512 -18.081  1.00  0.00     0.028 C 
BRANCH  27  28
HETATM   28  C3  UNL     1      -3.566  43.438 -17.244  1.00  0.00    -0.013 C 
HETATM   29  C2  UNL     1      -3.407  42.103 -17.337  1.00  0.00     0.008 C 
HETATM   30  C1  UNL     1      -4.104  41.162 -16.396  1.00  0.00     0.055 C 
BRANCH  29  31
HETATM   31  C30 UNL     1      -2.580  41.488 -18.404  1.00  0.00     0.171 C 
HETATM   32  O2  UNL     1      -1.387  41.247 -18.371  1.00  0.00    -0.646 OA
BRANCH  31  33
HETATM   33  O3  UNL     1      -3.309  41.214 -19.500  1.00  0.00    -0.773 OA
HETATM   34  H46 UNL     1      -2.654  40.820 -20.112  1.00  0.00     0.167 HD
ENDBRANCH  31  33
ENDBRANCH  29  31
ENDBRANCH  27  28
ENDBRANCH  26  27
ENDBRANCH  24  26
ENDBRANCH   1  24
TORSDOF 6
ENDMDL
MODEL 7
REMARK minimizedAffinity -7.34959602
REMARK CNNscore 0.327981949
REMARK CNNaffinity 6.4581933
REMARK  6 active torsions:
REMARK  status: ('A' for Active; 'I' for Inactive)
REMARK    1  A    between atoms: C2_2  and  C30_31 
REMARK    2  A    between atoms: C3_3  and  C4_4 
REMARK    3  A    between atoms: C4_4  and  C5_5 
REMARK    4  A    between atoms: C5_5  and  C6_6 
REMARK    5  A    between atoms: C6_6  and  C8_8 
REMARK    6  A    between atoms: C30_31  and  O3_33 
ROOT
HETATM    1  C8  UNL     1      -3.166  49.700 -22.214  1.00  0.00    -0.002 C 
HETATM    2  C9  UNL     1      -2.390  48.347 -22.220  1.00  0.00     0.007 C 
HETATM    3  C10 UNL     1      -3.253  47.312 -21.473  1.00  0.00     0.015 C 
HETATM    4  C11 UNL     1      -4.339  48.147 -20.768  1.00  0.00    -0.013 C 
HETATM    5  C12 UNL     1      -3.687  48.675 -19.449  1.00  0.00     0.021 C 
HETATM    6  C13 UNL     1      -5.629  47.446 -20.351  1.00  0.00    -0.070 C 
HETATM    7  C14 UNL     1      -5.655  46.158 -19.969  1.00  0.00    -0.022 C 
HETATM    8  C15 UNL     1      -6.863  45.450 -19.442  1.00  0.00     0.034 C 
HETATM    9  C16 UNL     1      -8.191  46.231 -19.586  1.00  0.00     0.013 C 
HETATM   10  C17 UNL     1      -9.383  45.553 -18.814  1.00  0.00     0.018 C 
HETATM   11  C18 UNL     1      -9.003  44.925 -17.458  1.00  0.00     0.023 C 
HETATM   12  C19 UNL     1      -9.985  44.427 -19.682  1.00  0.00     0.023 C 
HETATM   13  C20 UNL     1     -10.498  46.578 -18.591  1.00  0.00     0.135 C 
HETATM   14  O1  UNL     1     -11.324  46.480 -17.683  1.00  0.00    -0.297 OA
HETATM   15  C21 UNL     1     -10.598  47.688 -19.599  1.00  0.00     0.080 C 
HETATM   16  C22 UNL     1      -9.337  48.538 -19.607  1.00  0.00     0.017 C 
HETATM   17  C23 UNL     1      -8.002  47.773 -19.328  1.00  0.00    -0.031 C 
HETATM   18  C24 UNL     1      -7.583  48.055 -17.866  1.00  0.00     0.016 C 
HETATM   19  C25 UNL     1      -6.902  48.295 -20.341  1.00  0.00     0.024 C 
HETATM   20  C26 UNL     1      -6.594  49.809 -20.243  1.00  0.00     0.010 C 
HETATM   21  C27 UNL     1      -5.540  50.334 -21.247  1.00  0.00     0.011 C 
HETATM   22  C28 UNL     1      -4.622  49.249 -21.854  1.00  0.00    -0.029 C 
HETATM   23  C29 UNL     1      -5.289  48.687 -23.151  1.00  0.00     0.016 C 
ENDROOT
BRANCH   1  24
HETATM   24  C6  UNL     1      -2.903  50.537 -23.503  1.00  0.00    -0.014 C 
HETATM   25  C7  UNL     1      -4.204  50.915 -24.220  1.00  0.00     0.010 C 
BRANCH  24  26
HETATM   26  C5  UNL     1      -2.096  51.817 -23.153  1.00  0.00     0.008 C 
BRANCH  26  27
HETATM   27  C4  UNL     1      -0.618  51.554 -22.840  1.00  0.00     0.028 C 
BRANCH  27  28
HETATM   28  C3  UNL     1      -0.302  51.871 -21.402  1.00  0.00    -0.013 C 
HETATM   29  C2  UNL     1       0.449  52.881 -20.918  1.00  0.00     0.008 C 
HETATM   30  C1  UNL     1       0.641  53.079 -19.442  1.00  0.00     0.055 C 
BRANCH  29  31
HETATM   31  C30 UNL     1       1.169  53.817 -21.816  1.00  0.00     0.171 C 
HETATM   32  O2  UNL     1       1.914  54.725 -21.496  1.00  0.00    -0.646 OA
BRANCH  31  33
HETATM   33  O3  UNL     1       0.897  53.572 -23.109  1.00  0.00    -0.773 OA
HETATM   34  H46 UNL     1       1.426  54.247 -23.582  1.00  0.00     0.167 HD
ENDBRANCH  31  33
ENDBRANCH  29  31
ENDBRANCH  27  28
ENDBRANCH  26  27
ENDBRANCH  24  26
ENDBRANCH   1  24
TORSDOF 6
ENDMDL
MODEL 8
REMARK minimizedAffinity -7.28372955
REMARK CNNscore 0.304359376
REMARK CNNaffinity 5.60641813
REMARK  6 active torsions:
REMARK  status: ('A' for Active; 'I' for Inactive)
REMARK    1  A    between atoms: C2_2  and  C30_31 
REMARK    2  A    between atoms: C3_3  and  C4_4 
REMARK    3  A    between atoms: C4_4  and  C5_5 
REMARK    4  A    between atoms: C5_5  and  C6_6 
REMARK    5  A    between atoms: C6_6  and  C8_8 
REMARK    6  A    between atoms: C30_31  and  O3_33 
ROOT
HETATM    1  C8  UNL     1     -10.466  46.607 -28.167  1.00  0.00    -0.002 C 
HETATM    2  C9  UNL     1     -10.619  45.515 -29.270  1.00  0.00     0.007 C 
HETATM    3  C10 UNL     1     -11.956  44.790 -29.026  1.00  0.00     0.015 C 
HETATM    4  C11 UNL     1     -12.389  45.237 -27.616  1.00  0.00    -0.013 C 
HETATM    5  C12 UNL     1     -11.616  44.317 -26.617  1.00  0.00     0.021 C 
HETATM    6  C13 UNL     1     -13.865  45.119 -27.245  1.00  0.00    -0.070 C 
HETATM    7  C14 UNL     1     -14.651  44.142 -27.730  1.00  0.00    -0.022 C 
HETATM    8  C15 UNL     1     -16.069  43.907 -27.316  1.00  0.00     0.034 C 
HETATM    9  C16 UNL     1     -16.690  45.028 -26.448  1.00  0.00     0.013 C 
HETATM   10  C17 UNL     1     -18.089  44.629 -25.849  1.00  0.00     0.018 C 
HETATM   11  C18 UNL     1     -18.209  43.157 -25.405  1.00  0.00     0.023 C 
HETATM   12  C19 UNL     1     -19.190  44.877 -26.903  1.00  0.00     0.023 C 
HETATM   13  C20 UNL     1     -18.413  45.535 -24.657  1.00  0.00     0.135 C 
HETATM   14  O1  UNL     1     -19.185  45.204 -23.757  1.00  0.00    -0.297 OA
HETATM   15  C21 UNL     1     -17.803  46.908 -24.674  1.00  0.00     0.080 C 
HETATM   16  C22 UNL     1     -16.284  46.834 -24.656  1.00  0.00     0.017 C 
HETATM   17  C23 UNL     1     -15.654  45.624 -25.422  1.00  0.00    -0.031 C 
HETATM   18  C24 UNL     1     -15.220  44.568 -24.378  1.00  0.00     0.016 C 
HETATM   19  C25 UNL     1     -14.408  46.145 -26.249  1.00  0.00     0.024 C 
HETATM   20  C26 UNL     1     -13.285  46.786 -25.398  1.00  0.00     0.010 C 
HETATM   21  C27 UNL     1     -12.075  47.323 -26.201  1.00  0.00     0.011 C 
HETATM   22  C28 UNL     1     -11.929  46.741 -27.625  1.00  0.00    -0.029 C 
HETATM   23  C29 UNL     1     -12.735  47.633 -28.623  1.00  0.00     0.016 C 
ENDROOT
BRANCH   1  24
HETATM   24  C6  UNL     1      -9.705  47.866 -28.684  1.00  0.00    -0.014 C 
HETATM   25  C7  UNL     1      -8.404  48.111 -27.912  1.00  0.00     0.010 C 
BRANCH  24  26
HETATM   26  C5  UNL     1      -9.406  47.723 -30.201  1.00  0.00     0.008 C 
BRANCH  26  27
HETATM   27  C4  UNL     1      -8.394  48.743 -30.736  1.00  0.00     0.028 C 
BRANCH  27  28
HETATM   28  C3  UNL     1      -7.461  48.111 -31.736  1.00  0.00    -0.013 C 
HETATM   29  C2  UNL     1      -6.126  47.945 -31.639  1.00  0.00     0.008 C 
HETATM   30  C1  UNL     1      -5.341  47.259 -32.720  1.00  0.00     0.055 C 
BRANCH  29  31
HETATM   31  C30 UNL     1      -5.355  48.475 -30.489  1.00  0.00     0.171 C 
HETATM   32  O2  UNL     1      -5.263  47.995 -29.374  1.00  0.00    -0.646 OA
BRANCH  31  33
HETATM   33  O3  UNL     1      -4.734  49.627 -30.797  1.00  0.00    -0.773 OA
HETATM   34  H46 UNL     1      -4.272  49.862 -29.967  1.00  0.00     0.167 HD
ENDBRANCH  31  33
ENDBRANCH  29  31
ENDBRANCH  27  28
ENDBRANCH  26  27
ENDBRANCH  24  26
ENDBRANCH   1  24
TORSDOF 6
ENDMDL
MODEL 9
REMARK minimizedAffinity -8.07773781
REMARK CNNscore 0.29677704
REMARK CNNaffinity 6.19796181
REMARK  6 active torsions:
REMARK  status: ('A' for Active; 'I' for Inactive)
REMARK    1  A    between atoms: C2_2  and  C30_31 
REMARK    2  A    between atoms: C3_3  and  C4_4 
REMARK    3  A    between atoms: C4_4  and  C5_5 
REMARK    4  A    between atoms: C5_5  and  C6_6 
REMARK    5  A    between atoms: C6_6  and  C8_8 
REMARK    6  A    between atoms: C30_31  and  O3_33 
ROOT
HETATM    1  C8  UNL     1      -6.346  48.336 -23.290  1.00  0.00    -0.002 C 
HETATM    2  C9  UNL     1      -7.092  48.490 -21.928  1.00  0.00     0.007 C 
HETATM    3  C10 UNL     1      -6.113  49.142 -20.933  1.00  0.00     0.015 C 
HETATM    4  C11 UNL     1      -4.737  49.048 -21.622  1.00  0.00    -0.013 C 
HETATM    5  C12 UNL     1      -4.205  47.609 -21.327  1.00  0.00     0.021 C 
HETATM    6  C13 UNL     1      -3.639  50.007 -21.170  1.00  0.00    -0.070 C 
HETATM    7  C14 UNL     1      -3.540  50.438 -19.900  1.00  0.00    -0.022 C 
HETATM    8  C15 UNL     1      -2.424  51.283 -19.373  1.00  0.00     0.034 C 
HETATM    9  C16 UNL     1      -1.476  51.859 -20.451  1.00  0.00     0.013 C 
HETATM   10  C17 UNL     1      -0.197  52.538 -19.837  1.00  0.00     0.018 C 
HETATM   11  C18 UNL     1       0.387  51.824 -18.602  1.00  0.00     0.023 C 
HETATM   12  C19 UNL     1      -0.537  53.982 -19.407  1.00  0.00     0.023 C 
HETATM   13  C20 UNL     1       0.891  52.646 -20.910  1.00  0.00     0.135 C 
HETATM   14  O1  UNL     1       2.091  52.723 -20.640  1.00  0.00    -0.297 OA
HETATM   15  C21 UNL     1       0.421  52.742 -22.334  1.00  0.00     0.080 C 
HETATM   16  C22 UNL     1      -0.352  51.497 -22.742  1.00  0.00     0.017 C 
HETATM   17  C23 UNL     1      -1.209  50.831 -21.616  1.00  0.00    -0.031 C 
HETATM   18  C24 UNL     1      -0.449  49.584 -21.106  1.00  0.00     0.016 C 
HETATM   19  C25 UNL     1      -2.613  50.425 -22.225  1.00  0.00     0.024 C 
HETATM   20  C26 UNL     1      -2.545  49.424 -23.404  1.00  0.00     0.010 C 
HETATM   21  C27 UNL     1      -3.911  49.043 -24.024  1.00  0.00     0.011 C 
HETATM   22  C28 UNL     1      -5.135  49.314 -23.120  1.00  0.00    -0.029 C 
HETATM   23  C29 UNL     1      -5.647  50.767 -23.380  1.00  0.00     0.016 C 
ENDROOT
BRANCH   1  24
HETATM   24  C6  UNL     1      -7.308  48.486 -24.509  1.00  0.00    -0.014 C 
HETATM   25  C7  UNL     1      -6.817  47.700 -25.729  1.00  0.00     0.010 C 
BRANCH  24  26
HETATM   26  C5  UNL     1      -8.739  48.027 -24.119  1.00  0.00     0.008 C 
BRANCH  26  27
HETATM   27  C4  UNL     1      -9.314  46.937 -25.031  1.00  0.00     0.028 C 
BRANCH  27  28
HETATM   28  C3  UNL     1     -10.790  46.752 -24.795  1.00  0.00    -0.013 C 
HETATM   29  C2  UNL     1     -11.813  47.128 -25.590  1.00  0.00     0.008 C 
HETATM   30  C1  UNL     1     -13.240  46.837 -25.221  1.00  0.00     0.055 C 
BRANCH  29  31
HETATM   31  C30 UNL     1     -11.589  47.892 -26.840  1.00  0.00     0.171 C 
HETATM   32  O2  UNL     1     -11.541  47.458 -27.976  1.00  0.00    -0.646 OA
BRANCH  31  33
HETATM   33  O3  UNL     1     -11.414  49.203 -26.595  1.00  0.00    -0.773 OA
HETATM   34  H46 UNL     1     -11.279  49.582 -27.488  1.00  0.00     0.167 HD
ENDBRANCH  31  33
ENDBRANCH  29  31
ENDBRANCH  27  28
ENDBRANCH  26  27
ENDBRANCH  24  26
ENDBRANCH   1  24
TORSDOF 6
ENDMDL
