MODEL 1
REMARK minimizedAffinity -8.56137657
REMARK CNNscore 0.553401232
REMARK CNNaffinity 7.28535652
REMARK  15 active torsions:
REMARK  status: ('A' for Active; 'I' for Inactive)
REMARK    1  A    between atoms: C2_2  and  C3_3 
REMARK    2  A    between atoms: C2_2  and  C35_44 
REMARK    3  A    between atoms: C3_3  and  C4_4 
REMARK    4  A    between atoms: C4_4  and  C5_5 
REMARK    5  A    between atoms: C5_5  and  C7_7 
REMARK    6  A    between atoms: C9_9  and  O1_10 
REMARK    7  A    between atoms: C10_11  and  C11_12 
REMARK    8  A    between atoms: C11_12  and  O3_14 
REMARK    9  A    between atoms: C22_25  and  O4_26 
REMARK   10  A    between atoms: O4_26  and  C23_27 
REMARK   11  A    between atoms: C24_29  and  C25_30 
REMARK   12  A    between atoms: C25_30  and  O6_31 
REMARK   13  A    between atoms: C26_32  and  O7_33 
REMARK   14  A    between atoms: C28_35  and  O8_36 
REMARK   15  A    between atoms: C29_37  and  O9_38 
ROOT
HETATM    1  C7  UNL     1      -8.140  45.655 -18.461  1.00  0.00     0.001 C 
HETATM    2  C8  UNL     1      -8.062  46.784 -17.383  1.00  0.00     0.039 C 
HETATM    3  C9  UNL     1      -7.127  47.891 -17.893  1.00  0.00     0.142 C 
HETATM    4  C10 UNL     1      -7.165  47.717 -19.433  1.00  0.00     0.102 C 
HETATM    5  C12 UNL     1      -6.104  48.360 -20.333  1.00  0.00    -0.054 C 
HETATM    6  C13 UNL     1      -5.808  47.819 -21.544  1.00  0.00    -0.067 C 
HETATM    7  C14 UNL     1      -6.439  46.514 -22.018  1.00  0.00     0.036 C 
HETATM    8  C15 UNL     1      -7.410  45.789 -21.059  1.00  0.00     0.015 C 
HETATM    9  C16 UNL     1      -7.152  46.144 -19.586  1.00  0.00    -0.016 C 
HETATM   10  C17 UNL     1      -5.764  45.486 -19.254  1.00  0.00     0.017 C 
HETATM   11  C18 UNL     1      -4.752  48.466 -22.481  1.00  0.00    -0.013 C 
HETATM   12  C19 UNL     1      -3.429  47.719 -22.160  1.00  0.00     0.021 C 
HETATM   13  C20 UNL     1      -5.103  48.320 -23.986  1.00  0.00     0.017 C 
HETATM   14  C21 UNL     1      -4.216  49.121 -24.955  1.00  0.00     0.037 C 
HETATM   15  C22 UNL     1      -3.237  50.112 -24.314  1.00  0.00     0.153 C 
HETATM   16  C30 UNL     1      -3.899  50.859 -23.172  1.00  0.00    -0.055 C 
HETATM   17  C31 UNL     1      -3.907  52.203 -23.069  1.00  0.00     0.017 C 
HETATM   18  C32 UNL     1      -4.708  50.008 -22.190  1.00  0.00     0.029 C 
HETATM   19  C33 UNL     1      -4.365  50.232 -20.713  1.00  0.00     0.014 C 
HETATM   20  C34 UNL     1      -5.472  49.647 -19.827  1.00  0.00     0.036 C 
ENDROOT
BRANCH  15  21
HETATM   21  O4  UNL     1      -2.791  50.993 -25.351  1.00  0.00    -0.349 OA
BRANCH  21  22
HETATM   22  C23 UNL     1      -1.523  50.637 -25.914  1.00  0.00     0.292 C 
HETATM   23  O5  UNL     1      -0.469  51.085 -25.060  1.00  0.00    -0.348 OA
HETATM   24  C24 UNL     1      -0.417  52.519 -24.906  1.00  0.00     0.179 C 
HETATM   25  C26 UNL     1      -0.226  53.225 -26.271  1.00  0.00     0.183 C 
HETATM   26  C28 UNL     1      -1.353  52.765 -27.215  1.00  0.00     0.183 C 
HETATM   27  C29 UNL     1      -1.357  51.238 -27.327  1.00  0.00     0.204 C 
BRANCH  24  28
HETATM   28  C25 UNL     1       0.748  52.838 -23.953  1.00  0.00     0.198 C 
BRANCH  28  29
HETATM   29  O6  UNL     1       1.119  54.218 -24.040  1.00  0.00    -0.398 OA
HETATM   30  H36 UNL     1       1.737  54.311 -24.788  1.00  0.00     0.209 HD
ENDBRANCH  28  29
ENDBRANCH  24  28
BRANCH  25  31
HETATM   31  O7  UNL     1       1.070  52.856 -26.784  1.00  0.00    -0.385 OA
HETATM   32  C27 UNL     1       1.016  52.217 -28.053  1.00  0.00     0.202 C 
ENDBRANCH  25  31
BRANCH  26  33
HETATM   33  O8  UNL     1      -1.232  53.354 -28.518  1.00  0.00    -0.390 OA
HETATM   34  H42 UNL     1      -1.785  52.794 -29.097  1.00  0.00     0.210 HD
ENDBRANCH  26  33
BRANCH  27  35
HETATM   35  O9  UNL     1      -2.400  50.846 -28.241  1.00  0.00    -0.388 OA
HETATM   36  H44 UNL     1      -2.404  49.875 -28.269  1.00  0.00     0.210 HD
ENDBRANCH  27  35
ENDBRANCH  21  22
ENDBRANCH  15  21
BRANCH   4  37
HETATM   37  C11 UNL     1      -8.485  48.396 -19.925  1.00  0.00     0.156 C 
HETATM   38  O2  UNL     1      -9.439  48.770 -19.261  1.00  0.00    -0.649 OA
BRANCH  37  39
HETATM   39  O3  UNL     1      -8.596  48.484 -21.273  1.00  0.00    -0.775 OA
HETATM   40  H16 UNL     1      -9.504  48.834 -21.405  1.00  0.00     0.167 HD
ENDBRANCH  37  39
ENDBRANCH   4  37
BRANCH   3  41
HETATM   41  O1  UNL     1      -5.846  47.813 -17.275  1.00  0.00    -0.394 OA
HETATM   42  H15 UNL     1      -5.463  46.935 -17.390  1.00  0.00     0.210 HD
ENDBRANCH   3  41
BRANCH   1  43
HETATM   43  C5  UNL     1      -9.586  45.230 -18.880  1.00  0.00    -0.013 C 
HETATM   44  C6  UNL     1      -9.833  45.462 -20.380  1.00  0.00     0.010 C 
BRANCH  43  45
HETATM   45  C4  UNL     1     -10.645  46.049 -18.086  1.00  0.00     0.009 C 
BRANCH  45  46
HETATM   46  C3  UNL     1     -11.984  46.250 -18.816  1.00  0.00     0.034 C 
BRANCH  46  47
HETATM   47  C2  UNL     1     -13.129  46.841 -18.013  1.00  0.00    -0.086 C 
HETATM   48  C1  UNL     1     -13.354  46.411 -16.760  1.00  0.00     0.014 C 
BRANCH  47  49
HETATM   49  C35 UNL     1     -13.958  47.984 -18.592  1.00  0.00     0.005 C 
HETATM   50  C36 UNL     1     -15.408  47.590 -18.860  1.00  0.00     0.014 C 
HETATM   51  C37 UNL     1     -13.335  48.623 -19.837  1.00  0.00     0.014 C 
ENDBRANCH  47  49
ENDBRANCH  46  47
ENDBRANCH  45  46
ENDBRANCH  43  45
ENDBRANCH   1  43
TORSDOF 15
ENDMDL
MODEL 2
REMARK minimizedAffinity -7.90532875
REMARK CNNscore 0.50738728
REMARK CNNaffinity 7.00808191
REMARK  15 active torsions:
REMARK  status: ('A' for Active; 'I' for Inactive)
REMARK    1  A    between atoms: C2_2  and  C3_3 
REMARK    2  A    between atoms: C2_2  and  C35_44 
REMARK    3  A    between atoms: C3_3  and  C4_4 
REMARK    4  A    between atoms: C4_4  and  C5_5 
REMARK    5  A    between atoms: C5_5  and  C7_7 
REMARK    6  A    between atoms: C9_9  and  O1_10 
REMARK    7  A    between atoms: C10_11  and  C11_12 
REMARK    8  A    between atoms: C11_12  and  O3_14 
REMARK    9  A    between atoms: C22_25  and  O4_26 
REMARK   10  A    between atoms: O4_26  and  C23_27 
REMARK   11  A    between atoms: C24_29  and  C25_30 
REMARK   12  A    between atoms: C25_30  and  O6_31 
REMARK   13  A    between atoms: C26_32  and  O7_33 
REMARK   14  A    between atoms: C28_35  and  O8_36 
REMARK   15  A    between atoms: C29_37  and  O9_38 
ROOT
HETATM    1  C7  UNL     1      -4.048  50.858 -24.608  1.00  0.00     0.001 C 
HETATM    2  C8  UNL     1      -5.062  51.861 -23.970  1.00  0.00     0.039 C 
HETATM    3  C9  UNL     1      -5.745  51.181 -22.773  1.00  0.00     0.142 C 
HETATM    4  C10 UNL     1      -4.733  50.084 -22.354  1.00  0.00     0.102 C 
HETATM    5  C12 UNL     1      -5.149  48.924 -21.443  1.00  0.00    -0.054 C 
HETATM    6  C13 UNL     1      -4.489  47.737 -21.494  1.00  0.00    -0.067 C 
HETATM    7  C14 UNL     1      -3.383  47.475 -22.511  1.00  0.00     0.036 C 
HETATM    8  C15 UNL     1      -3.048  48.595 -23.522  1.00  0.00     0.015 C 
HETATM    9  C16 UNL     1      -4.232  49.548 -23.753  1.00  0.00    -0.016 C 
HETATM   10  C17 UNL     1      -5.297  48.682 -24.518  1.00  0.00     0.017 C 
HETATM   11  C18 UNL     1      -4.881  46.555 -20.566  1.00  0.00    -0.013 C 
HETATM   12  C19 UNL     1      -5.867  45.702 -21.408  1.00  0.00     0.021 C 
HETATM   13  C20 UNL     1      -3.664  45.698 -20.127  1.00  0.00     0.017 C 
HETATM   14  C21 UNL     1      -3.950  44.647 -19.039  1.00  0.00     0.037 C 
HETATM   15  C22 UNL     1      -5.335  44.712 -18.384  1.00  0.00     0.153 C 
HETATM   16  C30 UNL     1      -5.733  46.148 -18.109  1.00  0.00    -0.055 C 
HETATM   17  C31 UNL     1      -6.147  46.586 -16.903  1.00  0.00     0.017 C 
HETATM   18  C32 UNL     1      -5.500  47.142 -19.249  1.00  0.00     0.029 C 
HETATM   19  C33 UNL     1      -6.715  48.007 -19.605  1.00  0.00     0.014 C 
HETATM   20  C34 UNL     1      -6.271  49.204 -20.455  1.00  0.00     0.036 C 
ENDROOT
BRANCH  15  21
HETATM   21  O4  UNL     1      -5.271  43.927 -17.188  1.00  0.00    -0.349 OA
BRANCH  21  22
HETATM   22  C23 UNL     1      -3.941  43.704 -16.705  1.00  0.00     0.292 C 
HETATM   23  O5  UNL     1      -3.343  42.617 -17.412  1.00  0.00    -0.348 OA
HETATM   24  C24 UNL     1      -4.022  41.357 -17.221  1.00  0.00     0.179 C 
HETATM   25  C26 UNL     1      -4.061  40.960 -15.725  1.00  0.00     0.183 C 
HETATM   26  C28 UNL     1      -4.707  42.114 -14.935  1.00  0.00     0.183 C 
HETATM   27  C29 UNL     1      -3.946  43.418 -15.188  1.00  0.00     0.204 C 
BRANCH  24  28
HETATM   28  C25 UNL     1      -3.275  40.301 -18.053  1.00  0.00     0.198 C 
BRANCH  28  29
HETATM   29  O6  UNL     1      -2.883  40.832 -19.323  1.00  0.00    -0.398 OA
HETATM   30  H36 UNL     1      -3.641  40.739 -19.930  1.00  0.00     0.209 HD
ENDBRANCH  28  29
ENDBRANCH  24  28
BRANCH  25  31
HETATM   31  O7  UNL     1      -2.706  40.724 -15.293  1.00  0.00    -0.385 OA
HETATM   32  C27 UNL     1      -2.381  41.370 -14.068  1.00  0.00     0.202 C 
ENDBRANCH  25  31
BRANCH  26  33
HETATM   33  O8  UNL     1      -4.755  41.837 -13.528  1.00  0.00    -0.390 OA
HETATM   34  H42 UNL     1      -4.895  42.707 -13.107  1.00  0.00     0.210 HD
ENDBRANCH  26  33
BRANCH  27  35
HETATM   35  O9  UNL     1      -4.556  44.465 -14.410  1.00  0.00    -0.388 OA
HETATM   36  H44 UNL     1      -4.077  45.287 -14.612  1.00  0.00     0.210 HD
ENDBRANCH  27  35
ENDBRANCH  21  22
ENDBRANCH  15  21
BRANCH   4  37
HETATM   37  C11 UNL     1      -3.626  50.799 -21.510  1.00  0.00     0.156 C 
HETATM   38  O2  UNL     1      -2.439  50.523 -21.427  1.00  0.00    -0.649 OA
BRANCH  37  39
HETATM   39  O3  UNL     1      -4.089  51.789 -20.709  1.00  0.00    -0.775 OA
HETATM   40  H16 UNL     1      -3.298  52.053 -20.192  1.00  0.00     0.167 HD
ENDBRANCH  37  39
ENDBRANCH   4  37
BRANCH   3  41
HETATM   41  O1  UNL     1      -7.058  50.742 -23.107  1.00  0.00    -0.394 OA
HETATM   42  H15 UNL     1      -7.041  50.172 -23.885  1.00  0.00     0.210 HD
ENDBRANCH   3  41
BRANCH   1  43
HETATM   43  C5  UNL     1      -2.599  51.411 -24.811  1.00  0.00    -0.013 C 
HETATM   44  C6  UNL     1      -2.422  52.792 -24.158  1.00  0.00     0.010 C 
BRANCH  43  45
HETATM   45  C4  UNL     1      -2.278  51.551 -26.328  1.00  0.00     0.009 C 
BRANCH  45  46
HETATM   46  C3  UNL     1      -1.156  50.630 -26.837  1.00  0.00     0.034 C 
BRANCH  46  47
HETATM   47  C2  UNL     1       0.186  51.274 -27.138  1.00  0.00    -0.086 C 
HETATM   48  C1  UNL     1       0.386  51.871 -28.325  1.00  0.00     0.014 C 
BRANCH  47  49
HETATM   49  C35 UNL     1       1.265  51.325 -26.061  1.00  0.00     0.005 C 
HETATM   50  C36 UNL     1       1.047  52.450 -25.053  1.00  0.00     0.014 C 
HETATM   51  C37 UNL     1       2.689  51.374 -26.624  1.00  0.00     0.014 C 
ENDBRANCH  47  49
ENDBRANCH  46  47
ENDBRANCH  45  46
ENDBRANCH  43  45
ENDBRANCH   1  43
TORSDOF 15
ENDMDL
MODEL 3
REMARK minimizedAffinity -7.71806526
REMARK CNNscore 0.416337609
REMARK CNNaffinity 6.71370697
REMARK  15 active torsions:
REMARK  status: ('A' for Active; 'I' for Inactive)
REMARK    1  A    between atoms: C2_2  and  C3_3 
REMARK    2  A    between atoms: C2_2  and  C35_44 
REMARK    3  A    between atoms: C3_3  and  C4_4 
REMARK    4  A    between atoms: C4_4  and  C5_5 
REMARK    5  A    between atoms: C5_5  and  C7_7 
REMARK    6  A    between atoms: C9_9  and  O1_10 
REMARK    7  A    between atoms: C10_11  and  C11_12 
REMARK    8  A    between atoms: C11_12  and  O3_14 
REMARK    9  A    between atoms: C22_25  and  O4_26 
REMARK   10  A    between atoms: O4_26  and  C23_27 
REMARK   11  A    between atoms: C24_29  and  C25_30 
REMARK   12  A    between atoms: C25_30  and  O6_31 
REMARK   13  A    between atoms: C26_32  and  O7_33 
REMARK   14  A    between atoms: C28_35  and  O8_36 
REMARK   15  A    between atoms: C29_37  and  O9_38 
ROOT
HETATM    1  C7  UNL     1      -7.138  46.455 -28.370  1.00  0.00     0.001 C 
HETATM    2  C8  UNL     1      -6.006  47.479 -28.700  1.00  0.00     0.039 C 
HETATM    3  C9  UNL     1      -5.964  47.699 -30.220  1.00  0.00     0.142 C 
HETATM    4  C10 UNL     1      -7.394  47.318 -30.681  1.00  0.00     0.102 C 
HETATM    5  C12 UNL     1      -7.706  47.031 -32.153  1.00  0.00    -0.054 C 
HETATM    6  C13 UNL     1      -8.742  46.220 -32.493  1.00  0.00    -0.067 C 
HETATM    7  C14 UNL     1      -9.573  45.492 -31.441  1.00  0.00     0.036 C 
HETATM    8  C15 UNL     1      -9.180  45.671 -29.957  1.00  0.00     0.015 C 
HETATM    9  C16 UNL     1      -7.700  46.052 -29.785  1.00  0.00    -0.016 C 
HETATM   10  C17 UNL     1      -6.906  44.765 -30.213  1.00  0.00     0.017 C 
HETATM   11  C18 UNL     1      -9.089  45.933 -33.979  1.00  0.00    -0.013 C 
HETATM   12  C19 UNL     1      -8.340  44.614 -34.311  1.00  0.00     0.021 C 
HETATM   13  C20 UNL     1     -10.612  45.766 -34.228  1.00  0.00     0.017 C 
HETATM   14  C21 UNL     1     -11.040  45.695 -35.704  1.00  0.00     0.037 C 
HETATM   15  C22 UNL     1      -9.950  45.999 -36.739  1.00  0.00     0.153 C 
HETATM   16  C30 UNL     1      -9.104  47.177 -36.299  1.00  0.00    -0.055 C 
HETATM   17  C31 UNL     1      -8.866  48.252 -37.077  1.00  0.00     0.017 C 
HETATM   18  C32 UNL     1      -8.638  47.164 -34.842  1.00  0.00     0.029 C 
HETATM   19  C33 UNL     1      -7.134  47.392 -34.646  1.00  0.00     0.014 C 
HETATM   20  C34 UNL     1      -6.848  47.750 -33.183  1.00  0.00     0.036 C 
ENDROOT
BRANCH  15  21
HETATM   21  O4  UNL     1     -10.611  46.241 -37.986  1.00  0.00    -0.349 OA
BRANCH  21  22
HETATM   22  C23 UNL     1     -10.713  47.626 -38.335  1.00  0.00     0.292 C 
HETATM   23  O5  UNL     1     -11.966  48.148 -37.889  1.00  0.00    -0.348 OA
HETATM   24  C24 UNL     1     -13.109  47.524 -38.511  1.00  0.00     0.179 C 
HETATM   25  C26 UNL     1     -13.071  47.689 -40.050  1.00  0.00     0.183 C 
HETATM   26  C28 UNL     1     -11.732  47.129 -40.563  1.00  0.00     0.183 C 
HETATM   27  C29 UNL     1     -10.564  47.825 -39.859  1.00  0.00     0.204 C 
BRANCH  24  28
HETATM   28  C25 UNL     1     -14.369  48.178 -37.918  1.00  0.00     0.198 C 
BRANCH  28  29
HETATM   29  O6  UNL     1     -15.509  47.945 -38.753  1.00  0.00    -0.398 OA
HETATM   30  H36 UNL     1     -15.511  48.629 -39.448  1.00  0.00     0.209 HD
ENDBRANCH  28  29
ENDBRANCH  24  28
BRANCH  25  31
HETATM   31  O7  UNL     1     -13.201  49.093 -40.351  1.00  0.00    -0.385 OA
HETATM   32  C27 UNL     1     -13.266  49.916 -39.193  1.00  0.00     0.202 C 
ENDBRANCH  25  31
BRANCH  26  33
HETATM   33  O8  UNL     1     -11.603  47.269 -41.985  1.00  0.00    -0.390 OA
HETATM   34  H42 UNL     1     -10.647  47.169 -42.161  1.00  0.00     0.210 HD
ENDBRANCH  26  33
BRANCH  27  35
HETATM   35  O9  UNL     1      -9.330  47.301 -40.385  1.00  0.00    -0.388 OA
HETATM   36  H44 UNL     1      -8.607  47.733 -39.901  1.00  0.00     0.210 HD
ENDBRANCH  27  35
ENDBRANCH  21  22
ENDBRANCH  15  21
BRANCH   4  37
HETATM   37  C11 UNL     1      -8.305  48.552 -30.374  1.00  0.00     0.156 C 
HETATM   38  O2  UNL     1      -7.970  49.706 -30.153  1.00  0.00    -0.649 OA
BRANCH  37  39
HETATM   39  O3  UNL     1      -9.622  48.256 -30.255  1.00  0.00    -0.775 OA
HETATM   40  H16 UNL     1     -10.022  49.106 -29.970  1.00  0.00     0.167 HD
ENDBRANCH  37  39
ENDBRANCH   4  37
BRANCH   3  41
HETATM   41  O1  UNL     1      -4.890  46.980 -30.818  1.00  0.00    -0.394 OA
HETATM   42  H15 UNL     1      -4.934  46.044 -30.590  1.00  0.00     0.210 HD
ENDBRANCH   3  41
BRANCH   1  43
HETATM   43  C5  UNL     1      -8.155  46.912 -27.273  1.00  0.00    -0.013 C 
HETATM   44  C6  UNL     1      -9.253  47.817 -27.859  1.00  0.00     0.010 C 
BRANCH  43  45
HETATM   45  C4  UNL     1      -7.425  47.707 -26.152  1.00  0.00     0.009 C 
BRANCH  45  46
HETATM   46  C3  UNL     1      -8.104  47.649 -24.773  1.00  0.00     0.034 C 
BRANCH  46  47
HETATM   47  C2  UNL     1      -7.219  47.354 -23.576  1.00  0.00    -0.086 C 
HETATM   48  C1  UNL     1      -7.285  46.151 -22.980  1.00  0.00     0.014 C 
BRANCH  47  49
HETATM   49  C35 UNL     1      -6.192  48.383 -23.114  1.00  0.00     0.005 C 
HETATM   50  C36 UNL     1      -6.742  49.806 -23.099  1.00  0.00     0.014 C 
HETATM   51  C37 UNL     1      -4.873  48.323 -23.890  1.00  0.00     0.014 C 
ENDBRANCH  47  49
ENDBRANCH  46  47
ENDBRANCH  45  46
ENDBRANCH  43  45
ENDBRANCH   1  43
TORSDOF 15
ENDMDL
MODEL 4
REMARK minimizedAffinity -7.10012865
REMARK CNNscore 0.375494242
REMARK CNNaffinity 6.89058352
REMARK  15 active torsions:
REMARK  status: ('A' for Active; 'I' for Inactive)
REMARK    1  A    between atoms: C2_2  and  C3_3 
REMARK    2  A    between atoms: C2_2  and  C35_44 
REMARK    3  A    between atoms: C3_3  and  C4_4 
REMARK    4  A    between atoms: C4_4  and  C5_5 
REMARK    5  A    between atoms: C5_5  and  C7_7 
REMARK    6  A    between atoms: C9_9  and  O1_10 
REMARK    7  A    between atoms: C10_11  and  C11_12 
REMARK    8  A    between atoms: C11_12  and  O3_14 
REMARK    9  A    between atoms: C22_25  and  O4_26 
REMARK   10  A    between atoms: O4_26  and  C23_27 
REMARK   11  A    between atoms: C24_29  and  C25_30 
REMARK   12  A    between atoms: C25_30  and  O6_31 
REMARK   13  A    between atoms: C26_32  and  O7_33 
REMARK   14  A    between atoms: C28_35  and  O8_36 
REMARK   15  A    between atoms: C29_37  and  O9_38 
ROOT
HETATM    1  C7  UNL     1       1.298  50.386 -12.329  1.00  0.00     0.001 C 
HETATM    2  C8  UNL     1       0.685  49.028 -11.857  1.00  0.00     0.039 C 
HETATM    3  C9  UNL     1      -0.215  48.476 -12.973  1.00  0.00     0.142 C 
HETATM    4  C10 UNL     1       0.343  49.148 -14.254  1.00  0.00     0.102 C 
HETATM    5  C12 UNL     1      -0.469  49.180 -15.553  1.00  0.00    -0.054 C 
HETATM    6  C13 UNL     1      -0.264  50.163 -16.469  1.00  0.00    -0.067 C 
HETATM    7  C14 UNL     1       0.701  51.315 -16.211  1.00  0.00     0.036 C 
HETATM    8  C15 UNL     1       1.425  51.362 -14.846  1.00  0.00     0.015 C 
HETATM    9  C16 UNL     1       0.652  50.612 -13.748  1.00  0.00    -0.016 C 
HETATM   10  C17 UNL     1      -0.634  51.483 -13.501  1.00  0.00     0.017 C 
HETATM   11  C18 UNL     1      -1.060  50.203 -17.802  1.00  0.00    -0.013 C 
HETATM   12  C19 UNL     1      -2.266  51.138 -17.513  1.00  0.00     0.021 C 
HETATM   13  C20 UNL     1      -0.227  50.749 -18.992  1.00  0.00     0.017 C 
HETATM   14  C21 UNL     1      -0.882  50.614 -20.378  1.00  0.00     0.037 C 
HETATM   15  C22 UNL     1      -2.170  49.784 -20.439  1.00  0.00     0.153 C 
HETATM   16  C30 UNL     1      -2.048  48.537 -19.586  1.00  0.00    -0.055 C 
HETATM   17  C31 UNL     1      -2.306  47.296 -20.042  1.00  0.00     0.017 C 
HETATM   18  C32 UNL     1      -1.461  48.735 -18.186  1.00  0.00     0.029 C 
HETATM   19  C33 UNL     1      -2.291  48.126 -17.049  1.00  0.00     0.014 C 
HETATM   20  C34 UNL     1      -1.441  48.033 -15.776  1.00  0.00     0.036 C 
ENDROOT
BRANCH  15  21
HETATM   21  O4  UNL     1      -2.407  49.477 -21.818  1.00  0.00    -0.349 OA
BRANCH  21  22
HETATM   22  C23 UNL     1      -3.618  48.749 -22.055  1.00  0.00     0.292 C 
HETATM   23  O5  UNL     1      -3.595  48.182 -23.366  1.00  0.00    -0.348 OA
HETATM   24  C24 UNL     1      -3.539  49.163 -24.422  1.00  0.00     0.179 C 
HETATM   25  C26 UNL     1      -4.754  50.122 -24.364  1.00  0.00     0.183 C 
HETATM   26  C28 UNL     1      -4.803  50.755 -22.962  1.00  0.00     0.183 C 
HETATM   27  C29 UNL     1      -4.852  49.663 -21.890  1.00  0.00     0.204 C 
BRANCH  24  28
HETATM   28  C25 UNL     1      -3.502  48.400 -25.757  1.00  0.00     0.198 C 
BRANCH  28  29
HETATM   29  O6  UNL     1      -4.210  49.114 -26.776  1.00  0.00    -0.398 OA
HETATM   30  H36 UNL     1      -5.154  48.883 -26.698  1.00  0.00     0.209 HD
ENDBRANCH  28  29
ENDBRANCH  24  28
BRANCH  25  31
HETATM   31  O7  UNL     1      -5.942  49.350 -24.633  1.00  0.00    -0.385 OA
HETATM   32  C27 UNL     1      -6.992  49.586 -23.704  1.00  0.00     0.202 C 
ENDBRANCH  25  31
BRANCH  26  33
HETATM   33  O8  UNL     1      -5.923  51.640 -22.814  1.00  0.00    -0.390 OA
HETATM   34  H42 UNL     1      -6.031  51.747 -21.849  1.00  0.00     0.210 HD
ENDBRANCH  26  33
BRANCH  27  35
HETATM   35  O9  UNL     1      -4.931  50.290 -20.596  1.00  0.00    -0.388 OA
HETATM   36  H44 UNL     1      -4.927  49.579 -19.934  1.00  0.00     0.210 HD
ENDBRANCH  27  35
ENDBRANCH  21  22
ENDBRANCH  15  21
BRANCH   4  37
HETATM   37  C11 UNL     1       1.613  48.333 -14.667  1.00  0.00     0.156 C 
HETATM   38  O2  UNL     1       1.706  47.138 -14.899  1.00  0.00    -0.649 OA
BRANCH  37  39
HETATM   39  O3  UNL     1       2.760  49.056 -14.670  1.00  0.00    -0.775 OA
HETATM   40  H16 UNL     1       3.452  48.383 -14.848  1.00  0.00     0.167 HD
ENDBRANCH  37  39
ENDBRANCH   4  37
BRANCH   3  41
HETATM   41  O1  UNL     1      -1.592  48.698 -12.685  1.00  0.00    -0.394 OA
HETATM   42  H15 UNL     1      -1.760  49.633 -12.515  1.00  0.00     0.210 HD
ENDBRANCH   3  41
BRANCH   1  43
HETATM   43  C5  UNL     1       2.852  50.500 -12.197  1.00  0.00    -0.013 C 
HETATM   44  C6  UNL     1       3.425  49.406 -11.281  1.00  0.00     0.010 C 
BRANCH  43  45
HETATM   45  C4  UNL     1       3.247  51.882 -11.601  1.00  0.00     0.009 C 
BRANCH  45  46
HETATM   46  C3  UNL     1       2.066  52.829 -11.329  1.00  0.00     0.034 C 
BRANCH  46  47
HETATM   47  C2  UNL     1       2.351  54.076 -10.511  1.00  0.00    -0.086 C 
HETATM   48  C1  UNL     1       3.505  54.741 -10.693  1.00  0.00     0.014 C 
BRANCH  47  49
HETATM   49  C35 UNL     1       1.292  54.623  -9.560  1.00  0.00     0.005 C 
HETATM   50  C36 UNL     1      -0.035  54.920 -10.254  1.00  0.00     0.014 C 
HETATM   51  C37 UNL     1       1.762  55.838  -8.754  1.00  0.00     0.014 C 
ENDBRANCH  47  49
ENDBRANCH  46  47
ENDBRANCH  45  46
ENDBRANCH  43  45
ENDBRANCH   1  43
TORSDOF 15
ENDMDL
MODEL 5
REMARK minimizedAffinity -7.6774168
REMARK CNNscore 0.361799628
REMARK CNNaffinity 6.33312368
REMARK  15 active torsions:
REMARK  status: ('A' for Active; 'I' for Inactive)
REMARK    1  A    between atoms: C2_2  and  C3_3 
REMARK    2  A    between atoms: C2_2  and  C35_44 
REMARK    3  A    between atoms: C3_3  and  C4_4 
REMARK    4  A    between atoms: C4_4  and  C5_5 
REMARK    5  A    between atoms: C5_5  and  C7_7 
REMARK    6  A    between atoms: C9_9  and  O1_10 
REMARK    7  A    between atoms: C10_11  and  C11_12 
REMARK    8  A    between atoms: C11_12  and  O3_14 
REMARK    9  A    between atoms: C22_25  and  O4_26 
REMARK   10  A    between atoms: O4_26  and  C23_27 
REMARK   11  A    between atoms: C24_29  and  C25_30 
REMARK   12  A    between atoms: C25_30  and  O6_31 
REMARK   13  A    between atoms: C26_32  and  O7_33 
REMARK   14  A    between atoms: C28_35  and  O8_36 
REMARK   15  A    between atoms: C29_37  and  O9_38 
ROOT
HETATM    1  C7  UNL     1      -9.605  45.135 -33.585  1.00  0.00     0.001 C 
HETATM    2  C8  UNL     1      -8.460  45.784 -34.426  1.00  0.00     0.039 C 
HETATM    3  C9  UNL     1      -7.570  46.618 -33.492  1.00  0.00     0.142 C 
HETATM    4  C10 UNL     1      -7.808  45.978 -32.100  1.00  0.00     0.102 C 
HETATM    5  C12 UNL     1      -7.415  46.709 -30.811  1.00  0.00    -0.054 C 
HETATM    6  C13 UNL     1      -8.059  46.441 -29.644  1.00  0.00    -0.067 C 
HETATM    7  C14 UNL     1      -9.246  45.486 -29.581  1.00  0.00     0.036 C 
HETATM    8  C15 UNL     1      -9.733  44.847 -30.901  1.00  0.00     0.015 C 
HETATM    9  C16 UNL     1      -9.361  45.691 -32.132  1.00  0.00    -0.016 C 
HETATM   10  C17 UNL     1     -10.248  46.983 -32.011  1.00  0.00     0.017 C 
HETATM   11  C18 UNL     1      -7.664  47.155 -28.322  1.00  0.00    -0.013 C 
HETATM   12  C19 UNL     1      -8.626  48.369 -28.227  1.00  0.00     0.021 C 
HETATM   13  C20 UNL     1      -7.814  46.246 -27.073  1.00  0.00     0.017 C 
HETATM   14  C21 UNL     1      -7.238  46.817 -25.764  1.00  0.00     0.037 C 
HETATM   15  C22 UNL     1      -6.415  48.104 -25.893  1.00  0.00     0.153 C 
HETATM   16  C30 UNL     1      -5.505  48.043 -27.104  1.00  0.00    -0.055 C 
HETATM   17  C31 UNL     1      -4.180  48.281 -27.051  1.00  0.00     0.017 C 
HETATM   18  C32 UNL     1      -6.145  47.541 -28.401  1.00  0.00     0.029 C 
HETATM   19  C33 UNL     1      -5.917  48.443 -29.620  1.00  0.00     0.014 C 
HETATM   20  C34 UNL     1      -6.244  47.674 -30.906  1.00  0.00     0.036 C 
ENDROOT
BRANCH  15  21
HETATM   21  O4  UNL     1      -5.683  48.258 -24.672  1.00  0.00    -0.349 OA
BRANCH  21  22
HETATM   22  C23 UNL     1      -5.440  49.621 -24.304  1.00  0.00     0.292 C 
HETATM   23  O5  UNL     1      -4.062  49.796 -23.972  1.00  0.00    -0.348 OA
HETATM   24  C24 UNL     1      -3.637  49.023 -22.830  1.00  0.00     0.179 C 
HETATM   25  C26 UNL     1      -4.457  49.386 -21.568  1.00  0.00     0.183 C 
HETATM   26  C28 UNL     1      -5.951  49.201 -21.893  1.00  0.00     0.183 C 
HETATM   27  C29 UNL     1      -6.333  50.040 -23.116  1.00  0.00     0.204 C 
BRANCH  24  28
HETATM   28  C25 UNL     1      -2.140  49.304 -22.614  1.00  0.00     0.198 C 
BRANCH  28  29
HETATM   29  O6  UNL     1      -1.657  48.640 -21.442  1.00  0.00    -0.398 OA
HETATM   30  H36 UNL     1      -1.850  49.212 -20.676  1.00  0.00     0.209 HD
ENDBRANCH  28  29
ENDBRANCH  24  28
BRANCH  25  31
HETATM   31  O7  UNL     1      -4.161  50.754 -21.224  1.00  0.00    -0.385 OA
HETATM   32  C27 UNL     1      -3.774  50.926 -19.867  1.00  0.00     0.202 C 
ENDBRANCH  25  31
BRANCH  26  33
HETATM   33  O8  UNL     1      -6.787  49.546 -20.779  1.00  0.00    -0.390 OA
HETATM   34  H42 UNL     1      -7.675  49.680 -21.165  1.00  0.00     0.210 HD
ENDBRANCH  26  33
BRANCH  27  35
HETATM   35  O9  UNL     1      -7.740  49.869 -23.371  1.00  0.00    -0.388 OA
HETATM   36  H44 UNL     1      -7.951  50.383 -24.168  1.00  0.00     0.210 HD
ENDBRANCH  27  35
ENDBRANCH  21  22
ENDBRANCH  15  21
BRANCH   4  37
HETATM   37  C11 UNL     1      -6.921  44.691 -32.044  1.00  0.00     0.156 C 
HETATM   38  O2  UNL     1      -6.968  43.771 -31.242  1.00  0.00    -0.649 OA
BRANCH  37  39
HETATM   39  O3  UNL     1      -5.922  44.664 -32.960  1.00  0.00    -0.775 OA
HETATM   40  H16 UNL     1      -5.417  43.855 -32.723  1.00  0.00     0.167 HD
ENDBRANCH  37  39
ENDBRANCH   4  37
BRANCH   3  41
HETATM   41  O1  UNL     1      -7.854  48.008 -33.610  1.00  0.00    -0.394 OA
HETATM   42  H15 UNL     1      -8.792  48.181 -33.464  1.00  0.00     0.210 HD
ENDBRANCH   3  41
BRANCH   1  43
HETATM   43  C5  UNL     1      -9.775  43.590 -33.767  1.00  0.00    -0.013 C 
HETATM   44  C6  UNL     1      -9.786  42.858 -32.415  1.00  0.00     0.010 C 
BRANCH  43  45
HETATM   45  C4  UNL     1      -8.608  43.011 -34.619  1.00  0.00     0.009 C 
BRANCH  45  46
HETATM   46  C3  UNL     1      -8.006  41.702 -34.082  1.00  0.00     0.034 C 
BRANCH  46  47
HETATM   47  C2  UNL     1      -6.525  41.470 -34.324  1.00  0.00    -0.086 C 
HETATM   48  C1  UNL     1      -5.723  41.157 -33.291  1.00  0.00     0.014 C 
BRANCH  47  49
HETATM   49  C35 UNL     1      -5.971  41.496 -35.744  1.00  0.00     0.005 C 
HETATM   50  C36 UNL     1      -6.668  40.507 -36.674  1.00  0.00     0.014 C 
HETATM   51  C37 UNL     1      -4.451  41.320 -35.812  1.00  0.00     0.014 C 
ENDBRANCH  47  49
ENDBRANCH  46  47
ENDBRANCH  45  46
ENDBRANCH  43  45
ENDBRANCH   1  43
TORSDOF 15
ENDMDL
MODEL 6
REMARK minimizedAffinity -8.46190453
REMARK CNNscore 0.350903243
REMARK CNNaffinity 6.91555595
REMARK  15 active torsions:
REMARK  status: ('A' for Active; 'I' for Inactive)
REMARK    1  A    between atoms: C2_2  and  C3_3 
REMARK    2  A    between atoms: C2_2  and  C35_44 
REMARK    3  A    between atoms: C3_3  and  C4_4 
REMARK    4  A    between atoms: C4_4  and  C5_5 
REMARK    5  A    between atoms: C5_5  and  C7_7 
REMARK    6  A    between atoms: C9_9  and  O1_10 
REMARK    7  A    between atoms: C10_11  and  C11_12 
REMARK    8  A    between atoms: C11_12  and  O3_14 
REMARK    9  A    between atoms: C22_25  and  O4_26 
REMARK   10  A    between atoms: O4_26  and  C23_27 
REMARK   11  A    between atoms: C24_29  and  C25_30 
REMARK   12  A    between atoms: C25_30  and  O6_31 
REMARK   13  A    between atoms: C26_32  and  O7_33 
REMARK   14  A    between atoms: C28_35  and  O8_36 
REMARK   15  A    between atoms: C29_37  and  O9_38 
ROOT
HETATM    1  C7  UNL     1      -2.254  49.278 -22.070  1.00  0.00     0.001 C 
HETATM    2  C8  UNL     1      -3.640  48.651 -21.714  1.00  0.00     0.039 C 
HETATM    3  C9  UNL     1      -3.750  48.527 -20.187  1.00  0.00     0.142 C 
HETATM    4  C10 UNL     1      -2.761  49.600 -19.664  1.00  0.00     0.102 C 
HETATM    5  C12 UNL     1      -2.266  49.587 -18.214  1.00  0.00    -0.054 C 
HETATM    6  C13 UNL     1      -1.067  50.140 -17.890  1.00  0.00    -0.067 C 
HETATM    7  C14 UNL     1      -0.129  50.705 -18.951  1.00  0.00     0.036 C 
HETATM    8  C15 UNL     1      -0.562  50.600 -20.431  1.00  0.00     0.015 C 
HETATM    9  C16 UNL     1      -1.552  49.449 -20.671  1.00  0.00    -0.016 C 
HETATM   10  C17 UNL     1      -0.705  48.143 -20.453  1.00  0.00     0.017 C 
HETATM   11  C18 UNL     1      -0.556  50.156 -16.424  1.00  0.00    -0.013 C 
HETATM   12  C19 UNL     1       0.333  48.890 -16.300  1.00  0.00     0.021 C 
HETATM   13  C20 UNL     1       0.265  51.428 -16.080  1.00  0.00     0.017 C 
HETATM   14  C21 UNL     1       0.616  51.610 -14.593  1.00  0.00     0.037 C 
HETATM   15  C22 UNL     1      -0.054  50.636 -13.616  1.00  0.00     0.153 C 
HETATM   16  C30 UNL     1      -1.509  50.421 -13.983  1.00  0.00    -0.055 C 
HETATM   17  C31 UNL     1      -2.525  50.567 -13.110  1.00  0.00     0.017 C 
HETATM   18  C32 UNL     1      -1.799  50.167 -15.464  1.00  0.00     0.029 C 
HETATM   19  C33 UNL     1      -2.664  48.933 -15.748  1.00  0.00     0.014 C 
HETATM   20  C34 UNL     1      -3.210  48.997 -17.179  1.00  0.00     0.036 C 
ENDROOT
BRANCH  15  21
HETATM   21  O4  UNL     1       0.099  51.186 -12.303  1.00  0.00    -0.349 OA
BRANCH  21  22
HETATM   22  C23 UNL     1       0.646  52.510 -12.283  1.00  0.00     0.292 C 
HETATM   23  O5  UNL     1       2.017  52.463 -11.887  1.00  0.00    -0.348 OA
HETATM   24  C24 UNL     1       2.218  51.959 -10.549  1.00  0.00     0.179 C 
HETATM   25  C26 UNL     1       1.473  52.826  -9.505  1.00  0.00     0.183 C 
HETATM   26  C28 UNL     1      -0.013  52.891  -9.902  1.00  0.00     0.183 C 
HETATM   27  C29 UNL     1      -0.155  53.424 -11.331  1.00  0.00     0.204 C 
BRANCH  24  28
HETATM   28  C25 UNL     1       3.733  51.954 -10.282  1.00  0.00     0.198 C 
BRANCH  28  29
HETATM   29  O6  UNL     1       4.257  50.623 -10.327  1.00  0.00    -0.398 OA
HETATM   30  H36 UNL     1       4.125  50.222  -9.448  1.00  0.00     0.209 HD
ENDBRANCH  28  29
ENDBRANCH  24  28
BRANCH  25  31
HETATM   31  O7  UNL     1       2.073  54.137  -9.505  1.00  0.00    -0.385 OA
HETATM   32  C27 UNL     1       2.417  54.603  -8.206  1.00  0.00     0.202 C 
ENDBRANCH  25  31
BRANCH  26  33
HETATM   33  O8  UNL     1      -0.774  53.704  -8.996  1.00  0.00    -0.390 OA
HETATM   34  H42 UNL     1      -1.595  53.917  -9.481  1.00  0.00     0.210 HD
ENDBRANCH  26  33
BRANCH  27  35
HETATM   35  O9  UNL     1      -1.556  53.503 -11.656  1.00  0.00    -0.388 OA
HETATM   36  H44 UNL     1      -1.618  53.811 -12.576  1.00  0.00     0.210 HD
ENDBRANCH  27  35
ENDBRANCH  21  22
ENDBRANCH  15  21
BRANCH   4  37
HETATM   37  C11 UNL     1      -3.502  50.974 -19.759  1.00  0.00     0.156 C 
HETATM   38  O2  UNL     1      -4.481  51.263 -20.431  1.00  0.00    -0.649 OA
BRANCH  37  39
HETATM   39  O3  UNL     1      -2.907  51.976 -19.068  1.00  0.00    -0.775 OA
HETATM   40  H16 UNL     1      -3.435  52.767 -19.313  1.00  0.00     0.167 HD
ENDBRANCH  37  39
ENDBRANCH   4  37
BRANCH   3  41
HETATM   41  O1  UNL     1      -3.523  47.188 -19.757  1.00  0.00    -0.394 OA
HETATM   42  H15 UNL     1      -2.676  46.862 -20.086  1.00  0.00     0.210 HD
ENDBRANCH   3  41
BRANCH   1  43
HETATM   43  C5  UNL     1      -2.306  50.514 -23.028  1.00  0.00    -0.013 C 
HETATM   44  C6  UNL     1      -1.635  51.747 -22.399  1.00  0.00     0.010 C 
BRANCH  43  45
HETATM   45  C4  UNL     1      -3.781  50.885 -23.358  1.00  0.00     0.009 C 
BRANCH  45  46
HETATM   46  C3  UNL     1      -4.190  50.659 -24.823  1.00  0.00     0.034 C 
BRANCH  46  47
HETATM   47  C2  UNL     1      -4.254  49.223 -25.311  1.00  0.00    -0.086 C 
HETATM   48  C1  UNL     1      -5.264  48.429 -24.913  1.00  0.00     0.014 C 
BRANCH  47  49
HETATM   49  C35 UNL     1      -3.232  48.714 -26.323  1.00  0.00     0.005 C 
HETATM   50  C36 UNL     1      -2.110  49.715 -26.589  1.00  0.00     0.014 C 
HETATM   51  C37 UNL     1      -3.856  48.242 -27.639  1.00  0.00     0.014 C 
ENDBRANCH  47  49
ENDBRANCH  46  47
ENDBRANCH  45  46
ENDBRANCH  43  45
ENDBRANCH   1  43
TORSDOF 15
ENDMDL
MODEL 7
REMARK minimizedAffinity -8.89460468
REMARK CNNscore 0.303555757
REMARK CNNaffinity 6.94145918
REMARK  15 active torsions:
REMARK  status: ('A' for Active; 'I' for Inactive)
REMARK    1  A    between atoms: C2_2  and  C3_3 
REMARK    2  A    between atoms: C2_2  and  C35_44 
REMARK    3  A    between atoms: C3_3  and  C4_4 
REMARK    4  A    between atoms: C4_4  and  C5_5 
REMARK    5  A    between atoms: C5_5  and  C7_7 
REMARK    6  A    between atoms: C9_9  and  O1_10 
REMARK    7  A    between atoms: C10_11  and  C11_12 
REMARK    8  A    between atoms: C11_12  and  O3_14 
REMARK    9  A    between atoms: C22_25  and  O4_26 
REMARK   10  A    between atoms: O4_26  and  C23_27 
REMARK   11  A    between atoms: C24_29  and  C25_30 
REMARK   12  A    between atoms: C25_30  and  O6_31 
REMARK   13  A    between atoms: C26_32  and  O7_33 
REMARK   14  A    between atoms: C28_35  and  O8_36 
REMARK   15  A    between atoms: C29_37  and  O9_38 
ROOT
HETATM    1  C7  UNL     1      -2.231  49.518 -22.294  1.00  0.00     0.001 C 
HETATM    2  C8  UNL     1      -3.622  48.876 -21.989  1.00  0.00     0.039 C 
HETATM    3  C9  UNL     1      -3.763  48.700 -20.469  1.00  0.00     0.142 C 
HETATM    4  C10 UNL     1      -2.787  49.756 -19.890  1.00  0.00     0.102 C 
HETATM    5  C12 UNL     1      -2.323  49.694 -18.431  1.00  0.00    -0.054 C 
HETATM    6  C13 UNL     1      -1.133  50.238 -18.063  1.00  0.00    -0.067 C 
HETATM    7  C14 UNL     1      -0.174  50.841 -19.084  1.00  0.00     0.036 C 
HETATM    8  C15 UNL     1      -0.576  50.787 -20.576  1.00  0.00     0.015 C 
HETATM    9  C16 UNL     1      -1.558  49.642 -20.876  1.00  0.00    -0.016 C 
HETATM   10  C17 UNL     1      -0.711  48.332 -20.686  1.00  0.00     0.017 C 
HETATM   11  C18 UNL     1      -0.652  50.205 -16.587  1.00  0.00    -0.013 C 
HETATM   12  C19 UNL     1       0.238  48.937 -16.489  1.00  0.00     0.021 C 
HETATM   13  C20 UNL     1       0.158  51.466 -16.183  1.00  0.00     0.017 C 
HETATM   14  C21 UNL     1       0.478  51.598 -14.683  1.00  0.00     0.037 C 
HETATM   15  C22 UNL     1      -0.208  50.588 -13.755  1.00  0.00     0.153 C 
HETATM   16  C30 UNL     1      -1.655  50.382 -14.159  1.00  0.00    -0.055 C 
HETATM   17  C31 UNL     1      -2.689  50.496 -13.302  1.00  0.00     0.017 C 
HETATM   18  C32 UNL     1      -1.913  50.179 -15.654  1.00  0.00     0.029 C 
HETATM   19  C33 UNL     1      -2.769  48.954 -15.997  1.00  0.00     0.014 C 
HETATM   20  C34 UNL     1      -3.286  49.066 -17.436  1.00  0.00     0.036 C 
ENDROOT
BRANCH  15  21
HETATM   21  O4  UNL     1      -0.084  51.093 -12.420  1.00  0.00    -0.349 OA
BRANCH  21  22
HETATM   22  C23 UNL     1       0.475  52.410 -12.343  1.00  0.00     0.292 C 
HETATM   23  O5  UNL     1       1.825  52.338 -11.882  1.00  0.00    -0.348 OA
HETATM   24  C24 UNL     1       1.956  51.800 -10.549  1.00  0.00     0.179 C 
HETATM   25  C26 UNL     1       1.170  52.651  -9.521  1.00  0.00     0.183 C 
HETATM   26  C28 UNL     1      -0.294  52.743  -9.988  1.00  0.00     0.183 C 
HETATM   27  C29 UNL     1      -0.361  53.311 -11.408  1.00  0.00     0.204 C 
BRANCH  24  28
HETATM   28  C25 UNL     1       3.456  51.771 -10.210  1.00  0.00     0.198 C 
BRANCH  28  29
HETATM   29  O6  UNL     1       3.876  50.449  -9.858  1.00  0.00    -0.398 OA
HETATM   30  H36 UNL     1       3.684  50.319  -8.911  1.00  0.00     0.209 HD
ENDBRANCH  28  29
ENDBRANCH  24  28
BRANCH  25  31
HETATM   31  O7  UNL     1       1.784  53.954  -9.461  1.00  0.00    -0.385 OA
HETATM   32  C27 UNL     1       2.094  54.374  -8.138  1.00  0.00     0.202 C 
ENDBRANCH  25  31
BRANCH  26  33
HETATM   33  O8  UNL     1      -1.089  53.543  -9.100  1.00  0.00    -0.390 OA
HETATM   34  H42 UNL     1      -1.883  53.777  -9.619  1.00  0.00     0.210 HD
ENDBRANCH  26  33
BRANCH  27  35
HETATM   35  O9  UNL     1      -1.744  53.414 -11.799  1.00  0.00    -0.388 OA
HETATM   36  H44 UNL     1      -1.758  53.744 -12.712  1.00  0.00     0.210 HD
ENDBRANCH  27  35
ENDBRANCH  21  22
ENDBRANCH  15  21
BRANCH   4  37
HETATM   37  C11 UNL     1      -3.531  51.130 -19.952  1.00  0.00     0.156 C 
HETATM   38  O2  UNL     1      -4.406  51.485 -20.727  1.00  0.00    -0.649 OA
BRANCH  37  39
HETATM   39  O3  UNL     1      -3.061  52.057 -19.083  1.00  0.00    -0.775 OA
HETATM   40  H16 UNL     1      -3.560  52.868 -19.321  1.00  0.00     0.167 HD
ENDBRANCH  37  39
ENDBRANCH   4  37
BRANCH   3  41
HETATM   41  O1  UNL     1      -3.540  47.347 -20.082  1.00  0.00    -0.394 OA
HETATM   42  H15 UNL     1      -2.686  47.034 -20.404  1.00  0.00     0.210 HD
ENDBRANCH   3  41
BRANCH   1  43
HETATM   43  C5  UNL     1      -2.267  50.786 -23.209  1.00  0.00    -0.013 C 
HETATM   44  C6  UNL     1      -3.634  50.953 -23.894  1.00  0.00     0.010 C 
BRANCH  43  45
HETATM   45  C4  UNL     1      -1.181  50.687 -24.320  1.00  0.00     0.009 C 
BRANCH  45  46
HETATM   46  C3  UNL     1      -0.161  51.837 -24.329  1.00  0.00     0.034 C 
BRANCH  46  47
HETATM   47  C2  UNL     1       0.277  52.364 -25.684  1.00  0.00    -0.086 C 
HETATM   48  C1  UNL     1       0.114  53.666 -25.976  1.00  0.00     0.014 C 
BRANCH  47  49
HETATM   49  C35 UNL     1       0.986  51.440 -26.670  1.00  0.00     0.005 C 
HETATM   50  C36 UNL     1       2.505  51.480 -26.535  1.00  0.00     0.014 C 
HETATM   51  C37 UNL     1       0.568  51.663 -28.126  1.00  0.00     0.014 C 
ENDBRANCH  47  49
ENDBRANCH  46  47
ENDBRANCH  45  46
ENDBRANCH  43  45
ENDBRANCH   1  43
TORSDOF 15
ENDMDL
MODEL 8
REMARK minimizedAffinity -8.35708714
REMARK CNNscore 0.297766954
REMARK CNNaffinity 5.81989288
REMARK  15 active torsions:
REMARK  status: ('A' for Active; 'I' for Inactive)
REMARK    1  A    between atoms: C2_2  and  C3_3 
REMARK    2  A    between atoms: C2_2  and  C35_44 
REMARK    3  A    between atoms: C3_3  and  C4_4 
REMARK    4  A    between atoms: C4_4  and  C5_5 
REMARK    5  A    between atoms: C5_5  and  C7_7 
REMARK    6  A    between atoms: C9_9  and  O1_10 
REMARK    7  A    between atoms: C10_11  and  C11_12 
REMARK    8  A    between atoms: C11_12  and  O3_14 
REMARK    9  A    between atoms: C22_25  and  O4_26 
REMARK   10  A    between atoms: O4_26  and  C23_27 
REMARK   11  A    between atoms: C24_29  and  C25_30 
REMARK   12  A    between atoms: C25_30  and  O6_31 
REMARK   13  A    between atoms: C26_32  and  O7_33 
REMARK   14  A    between atoms: C28_35  and  O8_36 
REMARK   15  A    between atoms: C29_37  and  O9_38 
ROOT
HETATM    1  C7  UNL     1      -6.797  46.271 -28.438  1.00  0.00     0.001 C 
HETATM    2  C8  UNL     1      -6.975  45.476 -29.771  1.00  0.00     0.039 C 
HETATM    3  C9  UNL     1      -8.410  44.929 -29.835  1.00  0.00     0.142 C 
HETATM    4  C10 UNL     1      -9.202  45.882 -28.903  1.00  0.00     0.102 C 
HETATM    5  C12 UNL     1     -10.589  45.505 -28.373  1.00  0.00    -0.054 C 
HETATM    6  C13 UNL     1     -11.045  46.028 -27.204  1.00  0.00    -0.067 C 
HETATM    7  C14 UNL     1     -10.176  46.926 -26.331  1.00  0.00     0.036 C 
HETATM    8  C15 UNL     1      -8.727  47.204 -26.793  1.00  0.00     0.015 C 
HETATM    9  C16 UNL     1      -8.185  46.098 -27.713  1.00  0.00    -0.016 C 
HETATM   10  C17 UNL     1      -8.028  44.844 -26.778  1.00  0.00     0.017 C 
HETATM   11  C18 UNL     1     -12.456  45.676 -26.658  1.00  0.00    -0.013 C 
HETATM   12  C19 UNL     1     -12.218  44.488 -25.687  1.00  0.00     0.021 C 
HETATM   13  C20 UNL     1     -13.132  46.857 -25.912  1.00  0.00     0.017 C 
HETATM   14  C21 UNL     1     -14.610  46.646 -25.537  1.00  0.00     0.037 C 
HETATM   15  C22 UNL     1     -15.283  45.397 -26.117  1.00  0.00     0.153 C 
HETATM   16  C30 UNL     1     -14.880  45.191 -27.564  1.00  0.00    -0.055 C 
HETATM   17  C31 UNL     1     -15.766  45.021 -28.566  1.00  0.00     0.017 C 
HETATM   18  C32 UNL     1     -13.388  45.336 -27.874  1.00  0.00     0.029 C 
HETATM   19  C33 UNL     1     -12.781  44.171 -28.665  1.00  0.00     0.014 C 
HETATM   20  C34 UNL     1     -11.427  44.589 -29.250  1.00  0.00     0.036 C 
ENDROOT
BRANCH  15  21
HETATM   21  O4  UNL     1     -16.697  45.573 -25.968  1.00  0.00    -0.349 OA
BRANCH  21  22
HETATM   22  C23 UNL     1     -17.150  45.531 -24.610  1.00  0.00     0.292 C 
HETATM   23  O5  UNL     1     -17.296  44.174 -24.188  1.00  0.00    -0.348 OA
HETATM   24  C24 UNL     1     -18.289  43.438 -24.935  1.00  0.00     0.179 C 
HETATM   25  C26 UNL     1     -19.684  44.102 -24.820  1.00  0.00     0.183 C 
HETATM   26  C28 UNL     1     -19.560  45.568 -25.273  1.00  0.00     0.183 C 
HETATM   27  C29 UNL     1     -18.488  46.286 -24.450  1.00  0.00     0.204 C 
BRANCH  24  28
HETATM   28  C25 UNL     1     -18.313  42.004 -24.379  1.00  0.00     0.198 C 
BRANCH  28  29
HETATM   29  O6  UNL     1     -17.185  41.255 -24.843  1.00  0.00    -0.398 OA
HETATM   30  H36 UNL     1     -17.410  40.894 -25.720  1.00  0.00     0.209 HD
ENDBRANCH  28  29
ENDBRANCH  24  28
BRANCH  25  31
HETATM   31  O7  UNL     1     -20.107  44.012 -23.444  1.00  0.00    -0.385 OA
HETATM   32  C27 UNL     1     -19.652  45.093 -22.641  1.00  0.00     0.202 C 
ENDBRANCH  25  31
BRANCH  26  33
HETATM   33  O8  UNL     1     -20.809  46.266 -25.170  1.00  0.00    -0.390 OA
HETATM   34  H42 UNL     1     -20.569  47.213 -25.190  1.00  0.00     0.210 HD
ENDBRANCH  26  33
BRANCH  27  35
HETATM   35  O9  UNL     1     -18.423  47.661 -24.877  1.00  0.00    -0.388 OA
HETATM   36  H44 UNL     1     -17.714  48.085 -24.366  1.00  0.00     0.210 HD
ENDBRANCH  27  35
ENDBRANCH  21  22
ENDBRANCH  15  21
BRANCH   4  37
HETATM   37  C11 UNL     1      -9.495  47.175 -29.734  1.00  0.00     0.156 C 
HETATM   38  O2  UNL     1      -9.396  47.340 -30.940  1.00  0.00    -0.649 OA
BRANCH  37  39
HETATM   39  O3  UNL     1      -9.809  48.259 -28.984  1.00  0.00    -0.775 OA
HETATM   40  H16 UNL     1      -9.861  48.985 -29.643  1.00  0.00     0.167 HD
ENDBRANCH  37  39
ENDBRANCH   4  37
BRANCH   3  41
HETATM   41  O1  UNL     1      -8.451  43.543 -29.510  1.00  0.00    -0.394 OA
HETATM   42  H15 UNL     1      -8.039  43.379 -28.653  1.00  0.00     0.210 HD
ENDBRANCH   3  41
BRANCH   1  43
HETATM   43  C5  UNL     1      -6.219  47.716 -28.593  1.00  0.00    -0.013 C 
HETATM   44  C6  UNL     1      -5.356  47.849 -29.860  1.00  0.00     0.010 C 
BRANCH  43  45
HETATM   45  C4  UNL     1      -5.333  48.082 -27.367  1.00  0.00     0.009 C 
BRANCH  45  46
HETATM   46  C3  UNL     1      -3.895  48.502 -27.714  1.00  0.00     0.034 C 
BRANCH  46  47
HETATM   47  C2  UNL     1      -3.114  49.248 -26.646  1.00  0.00    -0.086 C 
HETATM   48  C1  UNL     1      -2.961  48.699 -25.428  1.00  0.00     0.014 C 
BRANCH  47  49
HETATM   49  C35 UNL     1      -2.427  50.567 -26.985  1.00  0.00     0.005 C 
HETATM   50  C36 UNL     1      -0.924  50.539 -26.719  1.00  0.00     0.014 C 
HETATM   51  C37 UNL     1      -3.070  51.783 -26.312  1.00  0.00     0.014 C 
ENDBRANCH  47  49
ENDBRANCH  46  47
ENDBRANCH  45  46
ENDBRANCH  43  45
ENDBRANCH   1  43
TORSDOF 15
ENDMDL
MODEL 9
REMARK minimizedAffinity -8.50292683
REMARK CNNscore 0.278996378
REMARK CNNaffinity 6.75078392
REMARK  15 active torsions:
REMARK  status: ('A' for Active; 'I' for Inactive)
REMARK    1  A    between atoms: C2_2  and  C3_3 
REMARK    2  A    between atoms: C2_2  and  C35_44 
REMARK    3  A    between atoms: C3_3  and  C4_4 
REMARK    4  A    between atoms: C4_4  and  C5_5 
REMARK    5  A    between atoms: C5_5  and  C7_7 
REMARK    6  A    between atoms: C9_9  and  O1_10 
REMARK    7  A    between atoms: C10_11  and  C11_12 
REMARK    8  A    between atoms: C11_12  and  O3_14 
REMARK    9  A    between atoms: C22_25  and  O4_26 
REMARK   10  A    between atoms: O4_26  and  C23_27 
REMARK   11  A    between atoms: C24_29  and  C25_30 
REMARK   12  A    between atoms: C25_30  and  O6_31 
REMARK   13  A    between atoms: C26_32  and  O7_33 
REMARK   14  A    between atoms: C28_35  and  O8_36 
REMARK   15  A    between atoms: C29_37  and  O9_38 
ROOT
HETATM    1  C7  UNL     1      -9.213  46.040 -19.120  1.00  0.00     0.001 C 
HETATM    2  C8  UNL     1      -8.098  45.441 -18.205  1.00  0.00     0.039 C 
HETATM    3  C9  UNL     1      -6.726  45.856 -18.759  1.00  0.00     0.142 C 
HETATM    4  C10 UNL     1      -7.037  47.139 -19.572  1.00  0.00     0.102 C 
HETATM    5  C12 UNL     1      -6.042  47.691 -20.598  1.00  0.00    -0.054 C 
HETATM    6  C13 UNL     1      -6.477  48.442 -21.644  1.00  0.00    -0.067 C 
HETATM    7  C14 UNL     1      -7.961  48.687 -21.897  1.00  0.00     0.036 C 
HETATM    8  C15 UNL     1      -8.978  48.022 -20.941  1.00  0.00     0.015 C 
HETATM    9  C16 UNL     1      -8.408  46.765 -20.263  1.00  0.00    -0.016 C 
HETATM   10  C17 UNL     1      -8.267  45.715 -21.424  1.00  0.00     0.017 C 
HETATM   11  C18 UNL     1      -5.485  49.029 -22.685  1.00  0.00    -0.013 C 
HETATM   12  C19 UNL     1      -5.454  47.985 -23.834  1.00  0.00     0.021 C 
HETATM   13  C20 UNL     1      -5.921  50.416 -23.226  1.00  0.00     0.017 C 
HETATM   14  C21 UNL     1      -4.881  51.148 -24.093  1.00  0.00     0.037 C 
HETATM   15  C22 UNL     1      -3.483  50.519 -24.146  1.00  0.00     0.153 C 
HETATM   16  C30 UNL     1      -3.056  50.041 -22.773  1.00  0.00    -0.055 C 
HETATM   17  C31 UNL     1      -1.885  50.382 -22.197  1.00  0.00     0.017 C 
HETATM   18  C32 UNL     1      -4.100  49.251 -21.980  1.00  0.00     0.029 C 
HETATM   19  C33 UNL     1      -3.602  47.915 -21.415  1.00  0.00     0.014 C 
HETATM   20  C34 UNL     1      -4.570  47.412 -20.337  1.00  0.00     0.036 C 
ENDROOT
BRANCH  15  21
HETATM   21  O4  UNL     1      -2.596  51.511 -24.675  1.00  0.00    -0.349 OA
BRANCH  21  22
HETATM   22  C23 UNL     1      -1.355  50.987 -25.162  1.00  0.00     0.292 C 
HETATM   23  O5  UNL     1      -0.264  51.614 -24.486  1.00  0.00    -0.348 OA
HETATM   24  C24 UNL     1      -0.180  53.037 -24.715  1.00  0.00     0.179 C 
HETATM   25  C26 UNL     1      -0.024  53.355 -26.222  1.00  0.00     0.183 C 
HETATM   26  C28 UNL     1      -1.191  52.695 -26.979  1.00  0.00     0.183 C 
HETATM   27  C29 UNL     1      -1.228  51.193 -26.687  1.00  0.00     0.204 C 
BRANCH  24  28
HETATM   28  C25 UNL     1       1.022  53.562 -23.913  1.00  0.00     0.198 C 
BRANCH  28  29
HETATM   29  O6  UNL     1       0.824  53.371 -22.508  1.00  0.00    -0.398 OA
HETATM   30  H36 UNL     1       0.304  54.127 -22.177  1.00  0.00     0.209 HD
ENDBRANCH  28  29
ENDBRANCH  24  28
BRANCH  25  31
HETATM   31  O7  UNL     1       1.246  52.830 -26.658  1.00  0.00    -0.385 OA
HETATM   32  C27 UNL     1       1.151  51.997 -27.806  1.00  0.00     0.202 C 
ENDBRANCH  25  31
BRANCH  26  33
HETATM   33  O8  UNL     1      -1.105  52.919 -28.394  1.00  0.00    -0.390 OA
HETATM   34  H42 UNL     1      -1.688  52.242 -28.790  1.00  0.00     0.210 HD
ENDBRANCH  26  33
BRANCH  27  35
HETATM   35  O9  UNL     1      -2.309  50.604 -27.435  1.00  0.00    -0.388 OA
HETATM   36  H44 UNL     1      -2.332  49.660 -27.208  1.00  0.00     0.210 HD
ENDBRANCH  27  35
ENDBRANCH  21  22
ENDBRANCH  15  21
BRANCH   4  37
HETATM   37  C11 UNL     1      -7.141  48.307 -18.536  1.00  0.00     0.156 C 
HETATM   38  O2  UNL     1      -7.855  49.297 -18.579  1.00  0.00    -0.649 OA
BRANCH  37  39
HETATM   39  O3  UNL     1      -6.249  48.230 -17.519  1.00  0.00    -0.775 OA
HETATM   40  H16 UNL     1      -6.383  49.072 -17.033  1.00  0.00     0.167 HD
ENDBRANCH  37  39
ENDBRANCH   4  37
BRANCH   3  41
HETATM   41  O1  UNL     1      -6.110  44.786 -19.470  1.00  0.00    -0.394 OA
HETATM   42  H15 UNL     1      -6.693  44.453 -20.162  1.00  0.00     0.210 HD
ENDBRANCH   3  41
BRANCH   1  43
HETATM   43  C5  UNL     1     -10.329  46.844 -18.376  1.00  0.00    -0.013 C 
HETATM   44  C6  UNL     1     -10.539  46.328 -16.942  1.00  0.00     0.010 C 
BRANCH  43  45
HETATM   45  C4  UNL     1     -11.683  46.726 -19.134  1.00  0.00     0.009 C 
BRANCH  45  46
HETATM   46  C3  UNL     1     -12.442  48.052 -19.309  1.00  0.00     0.034 C 
BRANCH  46  47
HETATM   47  C2  UNL     1     -13.908  47.966 -19.695  1.00  0.00    -0.086 C 
HETATM   48  C1  UNL     1     -14.247  47.793 -20.985  1.00  0.00     0.014 C 
BRANCH  47  49
HETATM   49  C35 UNL     1     -14.984  47.978 -18.614  1.00  0.00     0.005 C 
HETATM   50  C36 UNL     1     -16.250  47.233 -19.027  1.00  0.00     0.014 C 
HETATM   51  C37 UNL     1     -15.326  49.382 -18.106  1.00  0.00     0.014 C 
ENDBRANCH  47  49
ENDBRANCH  46  47
ENDBRANCH  45  46
ENDBRANCH  43  45
ENDBRANCH   1  43
TORSDOF 15
ENDMDL
