MODEL 1
REMARK minimizedAffinity -9.39837456
REMARK  6 active torsions:
REMARK  status: ('A' for Active; 'I' for Inactive)
REMARK    1  A    between atoms: O1_2  and  C2_3 
REMARK    2  A    between atoms: C9_12  and  C10_13 
REMARK    3  A    between atoms: C13_16  and  O4_17 
REMARK    4  A    between atoms: O4_17  and  C14_18 
REMARK    5  A    between atoms: C14_18  and  C15_19 
REMARK       I    between atoms: C15_19  and  N1_21 
REMARK    6  A    between atoms: N1_21  and  C16_22 
ROOT
HETATM    1  C10 UNL     1       0.137  51.841 -20.217  1.00  0.00    -0.020 A 
HETATM    2  C11 UNL     1       0.737  52.802 -19.394  1.00  0.00     0.015 A 
HETATM    3  C12 UNL     1       0.828  52.609 -18.010  1.00  0.00     0.037 A 
HETATM    4  C13 UNL     1       0.315  51.451 -17.429  1.00  0.00     0.069 A 
HETATM    5  C23 UNL     1      -0.286  50.488 -18.243  1.00  0.00     0.037 A 
HETATM    6  C24 UNL     1      -0.377  50.679 -19.625  1.00  0.00     0.015 A 
ENDROOT
BRANCH   4   7
HETATM    7  O4  UNL     1       0.333  51.141 -16.097  1.00  0.00    -0.342 OA
BRANCH   7   8
HETATM    8  C14 UNL     1       1.020  52.048 -15.235  1.00  0.00     0.278 C 
BRANCH   8   9
HETATM    9  C15 UNL     1       0.613  51.811 -13.780  1.00  0.00     0.242 C 
HETATM   10  O5  UNL     1       0.564  50.687 -13.289  1.00  0.00    -0.271 OA
HETATM   11  N1  UNL     1       0.352  52.966 -13.070  1.00  0.00    -0.354 N 
HETATM   12  H11 UNL     1       0.225  53.801 -13.635  1.00  0.00     0.162 HD
BRANCH  11  13
HETATM   13  C16 UNL     1      -0.164  52.940 -11.706  1.00  0.00     0.089 C 
HETATM   14  C17 UNL     1       0.383  54.122 -10.898  1.00  0.00     0.051 C 
HETATM   15  C18 UNL     1      -0.729  55.058 -10.455  1.00  0.00     0.171 C 
HETATM   16  O6  UNL     1      -1.699  54.355  -9.688  1.00  0.00    -0.381 OA
HETATM   17  C19 UNL     1      -2.290  53.213 -10.327  1.00  0.00     0.055 C 
HETATM   18  C20 UNL     1      -3.789  53.500 -10.459  1.00  0.00     0.045 C 
HETATM   19  C21 UNL     1      -2.089  52.027  -9.375  1.00  0.00     0.045 C 
HETATM   20  C22 UNL     1      -1.696  52.913 -11.716  1.00  0.00     0.062 C 
ENDBRANCH  11  13
ENDBRANCH   8   9
ENDBRANCH   7   8
ENDBRANCH   4   7
BRANCH   1  21
HETATM   21  C9  UNL     1       0.050  52.052 -21.677  1.00  0.00     0.051 A 
HETATM   22  C8  UNL     1       0.791  53.172 -22.329  1.00  0.00     0.299 A 
HETATM   23  O2  UNL     1       0.659  53.292 -23.706  1.00  0.00    -0.271 OA
HETATM   24  O3  UNL     1       1.487  53.955 -21.689  1.00  0.00    -0.259 OA
HETATM   25  C7  UNL     1      -0.124  52.404 -24.475  1.00  0.00     0.123 A 
HETATM   26  C2  UNL     1      -0.190  52.610 -25.860  1.00  0.00     0.102 A 
HETATM   27  C6  UNL     1      -0.798  51.359 -23.850  1.00  0.00     0.002 A 
HETATM   28  C3  UNL     1      -0.963  51.732 -26.623  1.00  0.00     0.040 A 
HETATM   29  C4  UNL     1      -1.646  50.676 -26.010  1.00  0.00     0.004 A 
HETATM   30  C5  UNL     1      -1.565  50.489 -24.628  1.00  0.00     0.014 A 
HETATM   31  C25 UNL     1      -0.687  51.201 -22.410  1.00  0.00     0.032 A 
BRANCH  26  32
HETATM   32  O1  UNL     1       0.519  53.673 -26.350  1.00  0.00    -0.353 OA
HETATM   33  C1  UNL     1      -0.061  54.410 -27.417  1.00  0.00     0.210 C 
ENDBRANCH  26  32
ENDBRANCH   1  21
TORSDOF 6
ENDMDL
MODEL 2
REMARK minimizedAffinity -9.31769943
REMARK  6 active torsions:
REMARK  status: ('A' for Active; 'I' for Inactive)
REMARK    1  A    between atoms: O1_2  and  C2_3 
REMARK    2  A    between atoms: C9_12  and  C10_13 
REMARK    3  A    between atoms: C13_16  and  O4_17 
REMARK    4  A    between atoms: O4_17  and  C14_18 
REMARK    5  A    between atoms: C14_18  and  C15_19 
REMARK       I    between atoms: C15_19  and  N1_21 
REMARK    6  A    between atoms: N1_21  and  C16_22 
ROOT
HETATM    1  C10 UNL     1       0.029  52.356 -21.641  1.00  0.00    -0.020 A 
HETATM    2  C11 UNL     1       0.692  53.480 -21.132  1.00  0.00     0.015 A 
HETATM    3  C12 UNL     1       0.974  53.592 -19.765  1.00  0.00     0.037 A 
HETATM    4  C13 UNL     1       0.594  52.579 -18.885  1.00  0.00     0.069 A 
HETATM    5  C23 UNL     1      -0.069  51.456 -19.386  1.00  0.00     0.037 A 
HETATM    6  C24 UNL     1      -0.350  51.343 -20.750  1.00  0.00     0.015 A 
ENDROOT
BRANCH   4   7
HETATM    7  O4  UNL     1       0.802  52.565 -17.535  1.00  0.00    -0.342 OA
BRANCH   7   8
HETATM    8  C14 UNL     1       0.628  51.314 -16.869  1.00  0.00     0.278 C 
BRANCH   8   9
HETATM    9  C15 UNL     1       0.110  51.534 -15.448  1.00  0.00     0.242 C 
HETATM   10  O5  UNL     1       0.520  52.447 -14.736  1.00  0.00    -0.271 OA
HETATM   11  N1  UNL     1      -0.876  50.649 -15.061  1.00  0.00    -0.354 N 
HETATM   12  H11 UNL     1      -0.976  49.828 -15.651  1.00  0.00     0.162 HD
BRANCH  11  13
HETATM   13  C16 UNL     1      -1.411  50.624 -13.704  1.00  0.00     0.089 C 
HETATM   14  C17 UNL     1      -0.299  50.866 -12.679  1.00  0.00     0.051 C 
HETATM   15  C18 UNL     1      -0.530  52.147 -11.896  1.00  0.00     0.171 C 
HETATM   16  O6  UNL     1      -1.793  52.113 -11.241  1.00  0.00    -0.381 OA
HETATM   17  C19 UNL     1      -2.928  51.885 -12.090  1.00  0.00     0.055 C 
HETATM   18  C20 UNL     1      -3.820  53.126 -11.987  1.00  0.00     0.045 C 
HETATM   19  C21 UNL     1      -3.676  50.680 -11.505  1.00  0.00     0.045 C 
HETATM   20  C22 UNL     1      -2.552  51.638 -13.563  1.00  0.00     0.062 C 
ENDBRANCH  11  13
ENDBRANCH   8   9
ENDBRANCH   7   8
ENDBRANCH   4   7
BRANCH   1  21
HETATM   21  C9  UNL     1      -0.260  52.247 -23.085  1.00  0.00     0.051 A 
HETATM   22  C8  UNL     1      -1.666  52.299 -23.585  1.00  0.00     0.299 A 
HETATM   23  O2  UNL     1      -1.846  52.197 -24.958  1.00  0.00    -0.271 OA
HETATM   24  O3  UNL     1      -2.624  52.426 -22.828  1.00  0.00    -0.259 OA
HETATM   25  C7  UNL     1      -0.767  52.059 -25.859  1.00  0.00     0.123 A 
HETATM   26  C2  UNL     1      -1.056  51.966 -27.228  1.00  0.00     0.102 A 
HETATM   27  C6  UNL     1       0.537  52.024 -25.374  1.00  0.00     0.002 A 
HETATM   28  C3  UNL     1       0.010  51.832 -28.120  1.00  0.00     0.040 A 
HETATM   29  C4  UNL     1       1.327  51.796 -27.648  1.00  0.00     0.004 A 
HETATM   30  C5  UNL     1       1.591  51.891 -26.280  1.00  0.00     0.014 A 
HETATM   31  C25 UNL     1       0.767  52.126 -23.943  1.00  0.00     0.032 A 
BRANCH  26  32
HETATM   32  O1  UNL     1      -2.378  52.014 -27.573  1.00  0.00    -0.353 OA
HETATM   33  C1  UNL     1      -3.010  50.788 -27.915  1.00  0.00     0.210 C 
ENDBRANCH  26  32
ENDBRANCH   1  21
TORSDOF 6
ENDMDL
MODEL 3
REMARK minimizedAffinity -9.19515705
REMARK  6 active torsions:
REMARK  status: ('A' for Active; 'I' for Inactive)
REMARK    1  A    between atoms: O1_2  and  C2_3 
REMARK    2  A    between atoms: C9_12  and  C10_13 
REMARK    3  A    between atoms: C13_16  and  O4_17 
REMARK    4  A    between atoms: O4_17  and  C14_18 
REMARK    5  A    between atoms: C14_18  and  C15_19 
REMARK       I    between atoms: C15_19  and  N1_21 
REMARK    6  A    between atoms: N1_21  and  C16_22 
ROOT
HETATM    1  C10 UNL     1      -2.143  50.743 -25.039  1.00  0.00    -0.020 A 
HETATM    2  C11 UNL     1      -2.436  51.642 -26.073  1.00  0.00     0.015 A 
HETATM    3  C12 UNL     1      -3.055  51.207 -27.251  1.00  0.00     0.037 A 
HETATM    4  C13 UNL     1      -3.388  49.863 -27.414  1.00  0.00     0.069 A 
HETATM    5  C23 UNL     1      -3.097  48.960 -26.388  1.00  0.00     0.037 A 
HETATM    6  C24 UNL     1      -2.480  49.393 -25.211  1.00  0.00     0.015 A 
ENDROOT
BRANCH   4   7
HETATM    7  O4  UNL     1      -3.986  49.308 -28.510  1.00  0.00    -0.342 OA
BRANCH   7   8
HETATM    8  C14 UNL     1      -4.631  48.048 -28.324  1.00  0.00     0.278 C 
BRANCH   8   9
HETATM    9  C15 UNL     1      -5.820  47.912 -29.274  1.00  0.00     0.242 C 
HETATM   10  O5  UNL     1      -5.703  47.458 -30.410  1.00  0.00    -0.271 OA
HETATM   11  N1  UNL     1      -7.028  48.301 -28.730  1.00  0.00    -0.354 N 
HETATM   12  H11 UNL     1      -6.961  48.844 -27.873  1.00  0.00     0.162 HD
BRANCH  11  13
HETATM   13  C16 UNL     1      -8.255  48.356 -29.517  1.00  0.00     0.089 C 
HETATM   14  C17 UNL     1      -8.041  49.165 -30.799  1.00  0.00     0.051 C 
HETATM   15  C18 UNL     1      -8.224  48.305 -32.039  1.00  0.00     0.171 C 
HETATM   16  O6  UNL     1      -9.519  47.714 -32.050  1.00  0.00    -0.381 OA
HETATM   17  C19 UNL     1      -9.854  46.929 -30.896  1.00  0.00     0.055 C 
HETATM   18  C20 UNL     1     -10.083  45.494 -31.382  1.00  0.00     0.045 C 
HETATM   19  C21 UNL     1     -11.174  47.492 -30.354  1.00  0.00     0.045 C 
HETATM   20  C22 UNL     1      -8.763  46.940 -29.810  1.00  0.00     0.062 C 
ENDBRANCH  11  13
ENDBRANCH   8   9
ENDBRANCH   7   8
ENDBRANCH   4   7
BRANCH   1  21
HETATM   21  C9  UNL     1      -1.494  51.212 -23.799  1.00  0.00     0.051 A 
HETATM   22  C8  UNL     1      -1.805  50.571 -22.487  1.00  0.00     0.299 A 
HETATM   23  O2  UNL     1      -1.143  51.070 -21.373  1.00  0.00    -0.271 OA
HETATM   24  O3  UNL     1      -2.606  49.646 -22.386  1.00  0.00    -0.259 OA
HETATM   25  C7  UNL     1      -0.208  52.125 -21.454  1.00  0.00     0.123 A 
HETATM   26  C2  UNL     1       0.408  52.555 -20.270  1.00  0.00     0.102 A 
HETATM   27  C6  UNL     1       0.077  52.703 -22.687  1.00  0.00     0.002 A 
HETATM   28  C3  UNL     1       1.334  53.597 -20.347  1.00  0.00     0.040 A 
HETATM   29  C4  UNL     1       1.633  54.187 -21.581  1.00  0.00     0.004 A 
HETATM   30  C5  UNL     1       1.007  53.742 -22.747  1.00  0.00     0.014 A 
HETATM   31  C25 UNL     1      -0.597  52.210 -23.877  1.00  0.00     0.032 A 
BRANCH  26  32
HETATM   32  O1  UNL     1       0.040  51.904 -19.124  1.00  0.00    -0.353 OA
HETATM   33  C1  UNL     1       0.658  52.315 -17.912  1.00  0.00     0.210 C 
ENDBRANCH  26  32
ENDBRANCH   1  21
TORSDOF 6
ENDMDL
MODEL 4
REMARK minimizedAffinity -9.15261078
REMARK  6 active torsions:
REMARK  status: ('A' for Active; 'I' for Inactive)
REMARK    1  A    between atoms: O1_2  and  C2_3 
REMARK    2  A    between atoms: C9_12  and  C10_13 
REMARK    3  A    between atoms: C13_16  and  O4_17 
REMARK    4  A    between atoms: O4_17  and  C14_18 
REMARK    5  A    between atoms: C14_18  and  C15_19 
REMARK       I    between atoms: C15_19  and  N1_21 
REMARK    6  A    between atoms: N1_21  and  C16_22 
ROOT
HETATM    1  C10 UNL     1      -1.969  50.133 -24.548  1.00  0.00    -0.020 A 
HETATM    2  C11 UNL     1      -2.895  49.086 -24.451  1.00  0.00     0.015 A 
HETATM    3  C12 UNL     1      -3.444  48.503 -25.600  1.00  0.00     0.037 A 
HETATM    4  C13 UNL     1      -3.077  48.962 -26.864  1.00  0.00     0.069 A 
HETATM    5  C23 UNL     1      -2.155  50.007 -26.967  1.00  0.00     0.037 A 
HETATM    6  C24 UNL     1      -1.605  50.589 -25.822  1.00  0.00     0.015 A 
ENDROOT
BRANCH   4   7
HETATM    7  O4  UNL     1      -3.539  48.487 -28.059  1.00  0.00    -0.342 OA
BRANCH   7   8
HETATM    8  C14 UNL     1      -4.930  48.176 -28.134  1.00  0.00     0.278 C 
BRANCH   8   9
HETATM    9  C15 UNL     1      -5.360  48.006 -29.591  1.00  0.00     0.242 C 
HETATM   10  O5  UNL     1      -4.952  48.743 -30.485  1.00  0.00    -0.271 OA
HETATM   11  N1  UNL     1      -6.205  46.937 -29.811  1.00  0.00    -0.354 N 
HETATM   12  H11 UNL     1      -6.628  46.541 -28.976  1.00  0.00     0.162 HD
BRANCH  11  13
HETATM   13  C16 UNL     1      -6.816  46.683 -31.111  1.00  0.00     0.089 C 
HETATM   14  C17 UNL     1      -6.619  45.221 -31.526  1.00  0.00     0.051 C 
HETATM   15  C18 UNL     1      -7.946  44.491 -31.646  1.00  0.00     0.171 C 
HETATM   16  O6  UNL     1      -8.796  45.148 -32.579  1.00  0.00    -0.381 OA
HETATM   17  C19 UNL     1      -9.060  46.534 -32.311  1.00  0.00     0.055 C 
HETATM   18  C20 UNL     1     -10.568  46.666 -32.078  1.00  0.00     0.045 C 
HETATM   19  C21 UNL     1      -8.681  47.303 -33.583  1.00  0.00     0.045 C 
HETATM   20  C22 UNL     1      -8.297  47.078 -31.089  1.00  0.00     0.062 C 
ENDBRANCH  11  13
ENDBRANCH   8   9
ENDBRANCH   7   8
ENDBRANCH   4   7
BRANCH   1  21
HETATM   21  C9  UNL     1      -1.392  50.738 -23.330  1.00  0.00     0.051 A 
HETATM   22  C8  UNL     1      -1.711  50.185 -21.981  1.00  0.00     0.299 A 
HETATM   23  O2  UNL     1      -1.119  50.811 -20.892  1.00  0.00    -0.271 OA
HETATM   24  O3  UNL     1      -2.460  49.224 -21.830  1.00  0.00    -0.259 OA
HETATM   25  C7  UNL     1      -0.246  51.912 -21.029  1.00  0.00     0.123 A 
HETATM   26  C2  UNL     1       0.302  52.471 -19.866  1.00  0.00     0.102 A 
HETATM   27  C6  UNL     1       0.049  52.406 -22.297  1.00  0.00     0.002 A 
HETATM   28  C3  UNL     1       1.167  53.559 -20.000  1.00  0.00     0.040 A 
HETATM   29  C4  UNL     1       1.474  54.066 -21.268  1.00  0.00     0.004 A 
HETATM   30  C5  UNL     1       0.917  53.493 -22.413  1.00  0.00     0.014 A 
HETATM   31  C25 UNL     1      -0.553  51.780 -23.462  1.00  0.00     0.032 A 
BRANCH  26  32
HETATM   32  O1  UNL     1      -0.068  51.893 -18.683  1.00  0.00    -0.353 OA
HETATM   33  C1  UNL     1       0.739  52.159 -17.544  1.00  0.00     0.210 C 
ENDBRANCH  26  32
ENDBRANCH   1  21
TORSDOF 6
ENDMDL
MODEL 5
REMARK minimizedAffinity -9.14902687
REMARK  6 active torsions:
REMARK  status: ('A' for Active; 'I' for Inactive)
REMARK    1  A    between atoms: O1_2  and  C2_3 
REMARK    2  A    between atoms: C9_12  and  C10_13 
REMARK    3  A    between atoms: C13_16  and  O4_17 
REMARK    4  A    between atoms: O4_17  and  C14_18 
REMARK    5  A    between atoms: C14_18  and  C15_19 
REMARK       I    between atoms: C15_19  and  N1_21 
REMARK    6  A    between atoms: N1_21  and  C16_22 
ROOT
HETATM    1  C10 UNL     1      -5.249  48.138 -27.605  1.00  0.00    -0.020 A 
HETATM    2  C11 UNL     1      -5.990  48.025 -26.422  1.00  0.00     0.015 A 
HETATM    3  C12 UNL     1      -5.375  48.159 -25.171  1.00  0.00     0.037 A 
HETATM    4  C13 UNL     1      -4.005  48.406 -25.087  1.00  0.00     0.069 A 
HETATM    5  C23 UNL     1      -3.260  48.518 -26.263  1.00  0.00     0.037 A 
HETATM    6  C24 UNL     1      -3.873  48.385 -27.512  1.00  0.00     0.015 A 
ENDROOT
BRANCH   4   7
HETATM    7  O4  UNL     1      -3.282  48.552 -23.936  1.00  0.00    -0.342 OA
BRANCH   7   8
HETATM    8  C14 UNL     1      -3.595  49.679 -23.118  1.00  0.00     0.278 C 
BRANCH   8   9
HETATM    9  C15 UNL     1      -3.150  50.972 -23.802  1.00  0.00     0.242 C 
HETATM   10  O5  UNL     1      -3.855  51.978 -23.820  1.00  0.00    -0.271 OA
HETATM   11  N1  UNL     1      -1.885  50.918 -24.351  1.00  0.00    -0.354 N 
HETATM   12  H11 UNL     1      -1.498  49.983 -24.451  1.00  0.00     0.162 HD
BRANCH  11  13
HETATM   13  C16 UNL     1      -1.333  52.009 -25.145  1.00  0.00     0.089 C 
HETATM   14  C17 UNL     1      -0.433  52.902 -24.286  1.00  0.00     0.051 C 
HETATM   15  C18 UNL     1       1.007  52.877 -24.773  1.00  0.00     0.171 C 
HETATM   16  O6  UNL     1       1.082  53.281 -26.136  1.00  0.00    -0.381 OA
HETATM   17  C19 UNL     1       0.275  52.527 -27.053  1.00  0.00     0.055 C 
HETATM   18  C20 UNL     1       1.232  51.857 -28.045  1.00  0.00     0.045 C 
HETATM   19  C21 UNL     1      -0.595  53.542 -27.805  1.00  0.00     0.045 C 
HETATM   20  C22 UNL     1      -0.594  51.456 -26.368  1.00  0.00     0.062 C 
ENDBRANCH  11  13
ENDBRANCH   8   9
ENDBRANCH   7   8
ENDBRANCH   4   7
BRANCH   1  21
HETATM   21  C9  UNL     1      -5.909  47.999 -28.919  1.00  0.00     0.051 A 
HETATM   22  C8  UNL     1      -7.398  47.983 -29.025  1.00  0.00     0.299 A 
HETATM   23  O2  UNL     1      -7.934  47.856 -30.300  1.00  0.00    -0.271 OA
HETATM   24  O3  UNL     1      -8.124  48.077 -28.040  1.00  0.00    -0.259 OA
HETATM   25  C7  UNL     1      -7.130  47.756 -31.457  1.00  0.00     0.123 A 
HETATM   26  C2  UNL     1      -7.769  47.634 -32.698  1.00  0.00     0.102 A 
HETATM   27  C6  UNL     1      -5.743  47.784 -31.338  1.00  0.00     0.002 A 
HETATM   28  C3  UNL     1      -6.976  47.536 -33.843  1.00  0.00     0.040 A 
HETATM   29  C4  UNL     1      -5.581  47.564 -33.741  1.00  0.00     0.004 A 
HETATM   30  C5  UNL     1      -4.965  47.688 -32.493  1.00  0.00     0.014 A 
HETATM   31  C25 UNL     1      -5.144  47.913 -30.021  1.00  0.00     0.032 A 
BRANCH  26  32
HETATM   32  O1  UNL     1      -9.137  47.619 -32.677  1.00  0.00    -0.353 OA
HETATM   33  C1  UNL     1      -9.783  46.399 -33.015  1.00  0.00     0.210 C 
ENDBRANCH  26  32
ENDBRANCH   1  21
TORSDOF 6
ENDMDL
MODEL 6
REMARK minimizedAffinity -9.11789322
REMARK  6 active torsions:
REMARK  status: ('A' for Active; 'I' for Inactive)
REMARK    1  A    between atoms: O1_2  and  C2_3 
REMARK    2  A    between atoms: C9_12  and  C10_13 
REMARK    3  A    between atoms: C13_16  and  O4_17 
REMARK    4  A    between atoms: O4_17  and  C14_18 
REMARK    5  A    between atoms: C14_18  and  C15_19 
REMARK       I    between atoms: C15_19  and  N1_21 
REMARK    6  A    between atoms: N1_21  and  C16_22 
ROOT
HETATM    1  C10 UNL     1       0.032  52.368 -21.661  1.00  0.00    -0.020 A 
HETATM    2  C11 UNL     1       0.731  53.479 -21.173  1.00  0.00     0.015 A 
HETATM    3  C12 UNL     1       1.021  53.605 -19.809  1.00  0.00     0.037 A 
HETATM    4  C13 UNL     1       0.612  52.620 -18.911  1.00  0.00     0.069 A 
HETATM    5  C23 UNL     1      -0.088  51.509 -19.391  1.00  0.00     0.037 A 
HETATM    6  C24 UNL     1      -0.377  51.382 -20.752  1.00  0.00     0.015 A 
ENDROOT
BRANCH   4   7
HETATM    7  O4  UNL     1       0.824  52.622 -17.561  1.00  0.00    -0.342 OA
BRANCH   7   8
HETATM    8  C14 UNL     1       2.175  52.482 -17.121  1.00  0.00     0.278 C 
BRANCH   8   9
HETATM    9  C15 UNL     1       2.219  52.181 -15.623  1.00  0.00     0.242 C 
HETATM   10  O5  UNL     1       3.277  52.076 -15.007  1.00  0.00    -0.271 OA
HETATM   11  N1  UNL     1       0.977  52.083 -15.028  1.00  0.00    -0.354 N 
HETATM   12  H11 UNL     1       0.197  51.983 -15.671  1.00  0.00     0.162 HD
BRANCH  11  13
HETATM   13  C16 UNL     1       0.811  51.686 -13.634  1.00  0.00     0.089 C 
HETATM   14  C17 UNL     1       2.167  51.374 -12.994  1.00  0.00     0.051 C 
HETATM   15  C18 UNL     1       2.481  52.331 -11.856  1.00  0.00     0.171 C 
HETATM   16  O6  UNL     1       1.457  52.286 -10.868  1.00  0.00    -0.381 OA
HETATM   17  C19 UNL     1       0.127  52.554 -11.338  1.00  0.00     0.055 C 
HETATM   18  C20 UNL     1      -0.356  53.816 -10.616  1.00  0.00     0.045 C 
HETATM   19  C21 UNL     1      -0.738  51.365 -10.901  1.00  0.00     0.045 C 
HETATM   20  C22 UNL     1       0.046  52.766 -12.861  1.00  0.00     0.062 C 
ENDBRANCH  11  13
ENDBRANCH   8   9
ENDBRANCH   7   8
ENDBRANCH   4   7
BRANCH   1  21
HETATM   21  C9  UNL     1      -0.266  52.243 -23.102  1.00  0.00     0.051 A 
HETATM   22  C8  UNL     1      -1.675  52.267 -23.593  1.00  0.00     0.299 A 
HETATM   23  O2  UNL     1      -1.863  52.152 -24.964  1.00  0.00    -0.271 OA
HETATM   24  O3  UNL     1      -2.631  52.383 -22.830  1.00  0.00    -0.259 OA
HETATM   25  C7  UNL     1      -0.788  52.028 -25.871  1.00  0.00     0.123 A 
HETATM   26  C2  UNL     1      -1.085  51.920 -27.237  1.00  0.00     0.102 A 
HETATM   27  C6  UNL     1       0.520  52.018 -25.395  1.00  0.00     0.002 A 
HETATM   28  C3  UNL     1      -0.023  51.798 -28.136  1.00  0.00     0.040 A 
HETATM   29  C4  UNL     1       1.298  51.788 -27.673  1.00  0.00     0.004 A 
HETATM   30  C5  UNL     1       1.569  51.898 -26.307  1.00  0.00     0.014 A 
HETATM   31  C25 UNL     1       0.758  52.134 -23.966  1.00  0.00     0.032 A 
BRANCH  26  32
HETATM   32  O1  UNL     1      -2.410  51.942 -27.574  1.00  0.00    -0.353 OA
HETATM   33  C1  UNL     1      -3.033  50.697 -27.863  1.00  0.00     0.210 C 
ENDBRANCH  26  32
ENDBRANCH   1  21
TORSDOF 6
ENDMDL
MODEL 7
REMARK minimizedAffinity -9.09898376
REMARK  6 active torsions:
REMARK  status: ('A' for Active; 'I' for Inactive)
REMARK    1  A    between atoms: O1_2  and  C2_3 
REMARK    2  A    between atoms: C9_12  and  C10_13 
REMARK    3  A    between atoms: C13_16  and  O4_17 
REMARK    4  A    between atoms: O4_17  and  C14_18 
REMARK    5  A    between atoms: C14_18  and  C15_19 
REMARK       I    between atoms: C15_19  and  N1_21 
REMARK    6  A    between atoms: N1_21  and  C16_22 
ROOT
HETATM    1  C10 UNL     1      -1.859  49.997 -20.597  1.00  0.00    -0.020 A 
HETATM    2  C11 UNL     1      -2.909  50.824 -21.015  1.00  0.00     0.015 A 
HETATM    3  C12 UNL     1      -3.708  50.475 -22.111  1.00  0.00     0.037 A 
HETATM    4  C13 UNL     1      -3.465  49.292 -22.807  1.00  0.00     0.069 A 
HETATM    5  C23 UNL     1      -2.418  48.463 -22.396  1.00  0.00     0.037 A 
HETATM    6  C24 UNL     1      -1.620  48.810 -21.302  1.00  0.00     0.015 A 
ENDROOT
BRANCH   4   7
HETATM    7  O4  UNL     1      -4.162  48.837 -23.891  1.00  0.00    -0.342 OA
BRANCH   7   8
HETATM    8  C14 UNL     1      -3.396  48.441 -25.029  1.00  0.00     0.278 C 
BRANCH   8   9
HETATM    9  C15 UNL     1      -2.929  49.668 -25.811  1.00  0.00     0.242 C 
HETATM   10  O5  UNL     1      -3.530  50.084 -26.798  1.00  0.00    -0.271 OA
HETATM   11  N1  UNL     1      -1.810  50.282 -25.286  1.00  0.00    -0.354 N 
HETATM   12  H11 UNL     1      -1.294  49.731 -24.605  1.00  0.00     0.162 HD
BRANCH  11  13
HETATM   13  C16 UNL     1      -1.146  51.395 -25.956  1.00  0.00     0.089 C 
HETATM   14  C17 UNL     1      -0.982  52.582 -25.001  1.00  0.00     0.051 C 
HETATM   15  C18 UNL     1       0.483  52.897 -24.748  1.00  0.00     0.171 C 
HETATM   16  O6  UNL     1       1.157  53.164 -25.973  1.00  0.00    -0.381 OA
HETATM   17  C19 UNL     1       1.077  52.129 -26.965  1.00  0.00     0.055 C 
HETATM   18  C20 UNL     1       2.507  51.645 -27.223  1.00  0.00     0.045 C 
HETATM   19  C21 UNL     1       0.533  52.788 -28.239  1.00  0.00     0.045 C 
HETATM   20  C22 UNL     1       0.196  50.940 -26.540  1.00  0.00     0.062 C 
ENDBRANCH  11  13
ENDBRANCH   8   9
ENDBRANCH   7   8
ENDBRANCH   4   7
BRANCH   1  21
HETATM   21  C9  UNL     1      -1.024  50.373 -19.437  1.00  0.00     0.051 A 
HETATM   22  C8  UNL     1      -0.362  51.709 -19.378  1.00  0.00     0.299 A 
HETATM   23  O2  UNL     1       0.397  51.982 -18.248  1.00  0.00    -0.271 OA
HETATM   24  O3  UNL     1      -0.476  52.535 -20.279  1.00  0.00    -0.259 OA
HETATM   25  C7  UNL     1       0.542  51.060 -17.188  1.00  0.00     0.123 A 
HETATM   26  C2  UNL     1       1.329  51.433 -16.090  1.00  0.00     0.102 A 
HETATM   27  C6  UNL     1      -0.092  49.823 -17.257  1.00  0.00     0.002 A 
HETATM   28  C3  UNL     1       1.473  50.524 -15.040  1.00  0.00     0.040 A 
HETATM   29  C4  UNL     1       0.840  49.277 -15.094  1.00  0.00     0.004 A 
HETATM   30  C5  UNL     1       0.060  48.926 -16.198  1.00  0.00     0.014 A 
HETATM   31  C25 UNL     1      -0.894  49.499 -18.425  1.00  0.00     0.032 A 
BRANCH  26  32
HETATM   32  O1  UNL     1       1.898  52.676 -16.145  1.00  0.00    -0.353 OA
HETATM   33  C1  UNL     1       3.296  52.745 -16.393  1.00  0.00     0.210 C 
ENDBRANCH  26  32
ENDBRANCH   1  21
TORSDOF 6
ENDMDL
MODEL 8
REMARK minimizedAffinity -9.04591274
REMARK  6 active torsions:
REMARK  status: ('A' for Active; 'I' for Inactive)
REMARK    1  A    between atoms: O1_2  and  C2_3 
REMARK    2  A    between atoms: C9_12  and  C10_13 
REMARK    3  A    between atoms: C13_16  and  O4_17 
REMARK    4  A    between atoms: O4_17  and  C14_18 
REMARK    5  A    between atoms: C14_18  and  C15_19 
REMARK       I    between atoms: C15_19  and  N1_21 
REMARK    6  A    between atoms: N1_21  and  C16_22 
ROOT
HETATM    1  C10 UNL     1      -5.764  47.857 -27.992  1.00  0.00    -0.020 A 
HETATM    2  C11 UNL     1      -4.413  48.215 -28.079  1.00  0.00     0.015 A 
HETATM    3  C12 UNL     1      -3.667  48.495 -26.927  1.00  0.00     0.037 A 
HETATM    4  C13 UNL     1      -4.265  48.423 -25.670  1.00  0.00     0.069 A 
HETATM    5  C23 UNL     1      -5.613  48.068 -25.576  1.00  0.00     0.037 A 
HETATM    6  C24 UNL     1      -6.359  47.788 -26.725  1.00  0.00     0.015 A 
ENDROOT
BRANCH   4   7
HETATM    7  O4  UNL     1      -3.656  48.674 -24.472  1.00  0.00    -0.342 OA
BRANCH   7   8
HETATM    8  C14 UNL     1      -4.070  49.848 -23.773  1.00  0.00     0.278 C 
BRANCH   8   9
HETATM    9  C15 UNL     1      -3.531  51.099 -24.467  1.00  0.00     0.242 C 
HETATM   10  O5  UNL     1      -4.261  52.028 -24.802  1.00  0.00    -0.271 OA
HETATM   11  N1  UNL     1      -2.161  51.105 -24.641  1.00  0.00    -0.354 N 
HETATM   12  H11 UNL     1      -1.706  50.205 -24.515  1.00  0.00     0.162 HD
BRANCH  11  13
HETATM   13  C16 UNL     1      -1.475  52.154 -25.386  1.00  0.00     0.089 C 
HETATM   14  C17 UNL     1      -0.577  52.978 -24.459  1.00  0.00     0.051 C 
HETATM   15  C18 UNL     1       0.889  52.848 -24.840  1.00  0.00     0.171 C 
HETATM   16  O6  UNL     1       1.091  53.248 -26.191  1.00  0.00    -0.381 OA
HETATM   17  C19 UNL     1       0.300  52.556 -27.170  1.00  0.00     0.055 C 
HETATM   18  C20 UNL     1       1.276  51.820 -28.094  1.00  0.00     0.045 C 
HETATM   19  C21 UNL     1      -0.437  53.633 -27.975  1.00  0.00     0.045 C 
HETATM   20  C22 UNL     1      -0.691  51.551 -26.557  1.00  0.00     0.062 C 
ENDBRANCH  11  13
ENDBRANCH   8   9
ENDBRANCH   7   8
ENDBRANCH   4   7
BRANCH   1  21
HETATM   21  C9  UNL     1      -6.541  47.561 -29.213  1.00  0.00     0.051 A 
HETATM   22  C8  UNL     1      -5.849  47.282 -30.506  1.00  0.00     0.299 A 
HETATM   23  O2  UNL     1      -6.657  47.005 -31.602  1.00  0.00    -0.271 OA
HETATM   24  O3  UNL     1      -4.626  47.294 -30.608  1.00  0.00    -0.259 OA
HETATM   25  C7  UNL     1      -8.066  46.973 -31.519  1.00  0.00     0.123 A 
HETATM   26  C2  UNL     1      -8.790  46.681 -32.683  1.00  0.00     0.102 A 
HETATM   27  C6  UNL     1      -8.692  47.224 -30.302  1.00  0.00     0.002 A 
HETATM   28  C3  UNL     1     -10.184  46.647 -32.603  1.00  0.00     0.040 A 
HETATM   29  C4  UNL     1     -10.828  46.897 -31.386  1.00  0.00     0.004 A 
HETATM   30  C5  UNL     1     -10.086  47.185 -30.239  1.00  0.00     0.014 A 
HETATM   31  C25 UNL     1      -7.882  47.521 -29.132  1.00  0.00     0.032 A 
BRANCH  26  32
HETATM   32  O1  UNL     1      -8.055  46.453 -33.814  1.00  0.00    -0.353 OA
HETATM   33  C1  UNL     1      -8.767  46.258 -35.028  1.00  0.00     0.210 C 
ENDBRANCH  26  32
ENDBRANCH   1  21
TORSDOF 6
ENDMDL
MODEL 9
REMARK minimizedAffinity -8.97312927
REMARK  6 active torsions:
REMARK  status: ('A' for Active; 'I' for Inactive)
REMARK    1  A    between atoms: O1_2  and  C2_3 
REMARK    2  A    between atoms: C9_12  and  C10_13 
REMARK    3  A    between atoms: C13_16  and  O4_17 
REMARK    4  A    between atoms: O4_17  and  C14_18 
REMARK    5  A    between atoms: C14_18  and  C15_19 
REMARK       I    between atoms: C15_19  and  N1_21 
REMARK    6  A    between atoms: N1_21  and  C16_22 
ROOT
HETATM    1  C10 UNL     1      -0.185  51.343 -20.203  1.00  0.00    -0.020 A 
HETATM    2  C11 UNL     1       0.293  52.468 -19.519  1.00  0.00     0.015 A 
HETATM    3  C12 UNL     1       0.496  52.436 -18.134  1.00  0.00     0.037 A 
HETATM    4  C13 UNL     1       0.221  51.275 -17.412  1.00  0.00     0.069 A 
HETATM    5  C23 UNL     1      -0.258  50.150 -18.088  1.00  0.00     0.037 A 
HETATM    6  C24 UNL     1      -0.461  50.181 -19.470  1.00  0.00     0.015 A 
ENDROOT
BRANCH   4   7
HETATM    7  O4  UNL     1       0.369  51.112 -16.063  1.00  0.00    -0.342 OA
BRANCH   7   8
HETATM    8  C14 UNL     1       1.106  52.118 -15.369  1.00  0.00     0.278 C 
BRANCH   8   9
HETATM    9  C15 UNL     1       0.930  51.961 -13.859  1.00  0.00     0.242 C 
HETATM   10  O5  UNL     1       1.486  51.068 -13.224  1.00  0.00    -0.271 OA
HETATM   11  N1  UNL     1       0.135  52.928 -13.278  1.00  0.00    -0.354 N 
HETATM   12  H11 UNL     1      -0.424  53.475 -13.926  1.00  0.00     0.162 HD
BRANCH  11  13
HETATM   13  C16 UNL     1      -0.246  52.880 -11.870  1.00  0.00     0.089 C 
HETATM   14  C17 UNL     1       0.385  54.043 -11.099  1.00  0.00     0.051 C 
HETATM   15  C18 UNL     1      -0.672  54.977 -10.533  1.00  0.00     0.171 C 
HETATM   16  O6  UNL     1      -1.569  54.265  -9.688  1.00  0.00    -0.381 OA
HETATM   17  C19 UNL     1      -2.227  53.139 -10.288  1.00  0.00     0.055 C 
HETATM   18  C20 UNL     1      -3.730  53.437 -10.269  1.00  0.00     0.045 C 
HETATM   19  C21 UNL     1      -1.943  51.934  -9.381  1.00  0.00     0.045 C 
HETATM   20  C22 UNL     1      -1.772  52.861 -11.732  1.00  0.00     0.062 C 
ENDBRANCH  11  13
ENDBRANCH   8   9
ENDBRANCH   7   8
ENDBRANCH   4   7
BRANCH   1  21
HETATM   21  C9  UNL     1      -0.392  51.387 -21.665  1.00  0.00     0.051 A 
HETATM   22  C8  UNL     1      -1.157  50.309 -22.357  1.00  0.00     0.299 A 
HETATM   23  O2  UNL     1      -1.311  50.433 -23.732  1.00  0.00    -0.271 OA
HETATM   24  O3  UNL     1      -1.632  49.353 -21.751  1.00  0.00    -0.259 OA
HETATM   25  C7  UNL     1      -0.787  51.524 -24.460  1.00  0.00     0.123 A 
HETATM   26  C2  UNL     1      -1.000  51.558 -25.845  1.00  0.00     0.102 A 
HETATM   27  C6  UNL     1      -0.086  52.526 -23.795  1.00  0.00     0.002 A 
HETATM   28  C3  UNL     1      -0.484  52.636 -26.567  1.00  0.00     0.040 A 
HETATM   29  C4  UNL     1       0.222  53.652 -25.912  1.00  0.00     0.004 A 
HETATM   30  C5  UNL     1       0.421  53.598 -24.531  1.00  0.00     0.014 A 
HETATM   31  C25 UNL     1       0.098  52.430 -22.356  1.00  0.00     0.032 A 
BRANCH  26  32
HETATM   32  O1  UNL     1      -1.704  50.513 -26.377  1.00  0.00    -0.353 OA
HETATM   33  C1  UNL     1      -2.663  50.813 -27.381  1.00  0.00     0.210 C 
ENDBRANCH  26  32
ENDBRANCH   1  21
TORSDOF 6
ENDMDL
