MODEL 1
REMARK minimizedAffinity -6.56545973
REMARK CNNscore 0.711906195
REMARK CNNaffinity 6.26704073
REMARK  8 active torsions:
REMARK  status: ('A' for Active; 'I' for Inactive)
REMARK    1  A    between atoms: C2_2  and  C30_33 
REMARK    2  A    between atoms: C3_3  and  C4_4 
REMARK    3  A    between atoms: C4_4  and  C5_5 
REMARK    4  A    between atoms: C5_5  and  C6_6 
REMARK    5  A    between atoms: C6_6  and  C8_8 
REMARK    6  A    between atoms: C21_22  and  O2_23 
REMARK    7  A    between atoms: C23_25  and  O3_26 
REMARK    8  A    between atoms: C30_33  and  O4_34 
ROOT
HETATM    1  C8  UNL     1     -16.880   2.932  13.773  1.00  0.00    -0.001 C 
HETATM    2  C9  UNL     1     -17.692   2.552  12.504  1.00  0.00     0.007 C 
HETATM    3  C10 UNL     1     -17.964   1.037  12.582  1.00  0.00     0.015 C 
HETATM    4  C11 UNL     1     -17.028   0.524  13.693  1.00  0.00    -0.012 C 
HETATM    5  C12 UNL     1     -15.623   0.290  13.049  1.00  0.00     0.021 C 
HETATM    6  C13 UNL     1     -17.357  -0.782  14.401  1.00  0.00    -0.060 C 
HETATM    7  C14 UNL     1     -16.904  -1.022  15.657  1.00  0.00     0.002 C 
HETATM    8  C15 UNL     1     -16.094   0.063  16.355  1.00  0.00     0.157 C 
HETATM    9  O1  UNL     1     -15.444  -0.201  17.374  1.00  0.00    -0.293 OA
HETATM   10  C16 UNL     1     -16.052   1.484  15.795  1.00  0.00     0.094 C 
HETATM   11  C17 UNL     1     -17.109   1.716  14.718  1.00  0.00    -0.022 C 
HETATM   12  C18 UNL     1     -18.495   1.819  15.421  1.00  0.00     0.017 C 
HETATM   13  C19 UNL     1     -17.102  -2.373  16.391  1.00  0.00     0.017 C 
HETATM   14  C20 UNL     1     -15.748  -3.117  16.216  1.00  0.00     0.023 C 
HETATM   15  C21 UNL     1     -17.458  -2.138  17.909  1.00  0.00     0.134 C 
HETATM   16  C22 UNL     1     -18.565  -3.037  18.476  1.00  0.00     0.065 C 
HETATM   17  C23 UNL     1     -18.477  -4.472  17.960  1.00  0.00     0.128 C 
HETATM   18  C24 UNL     1     -18.635  -4.547  16.406  1.00  0.00    -0.017 C 
HETATM   19  C25 UNL     1     -20.133  -4.855  16.118  1.00  0.00     0.018 C 
HETATM   20  C26 UNL     1     -17.838  -5.728  15.812  1.00  0.00     0.018 C 
HETATM   21  C27 UNL     1     -18.298  -3.155  15.733  1.00  0.00     0.011 C 
HETATM   22  C28 UNL     1     -18.155  -3.210  14.200  1.00  0.00     0.011 C 
HETATM   23  C29 UNL     1     -18.128  -1.805  13.600  1.00  0.00     0.036 C 
ENDROOT
BRANCH   1  24
HETATM   24  C6  UNL     1     -17.065   4.415  14.210  1.00  0.00    -0.014 C 
HETATM   25  C7  UNL     1     -17.726   5.242  13.100  1.00  0.00     0.010 C 
BRANCH  24  26
HETATM   26  C5  UNL     1     -15.827   5.149  14.770  1.00  0.00     0.008 C 
BRANCH  26  27
HETATM   27  C4  UNL     1     -15.406   6.343  13.902  1.00  0.00     0.028 C 
BRANCH  27  28
HETATM   28  C3  UNL     1     -13.917   6.354  13.693  1.00  0.00    -0.022 C 
HETATM   29  C2  UNL     1     -13.007   7.149  14.291  1.00  0.00    -0.064 C 
HETATM   30  C1  UNL     1     -13.320   8.177  15.346  1.00  0.00     0.045 C 
BRANCH  29  31
HETATM   31  C30 UNL     1     -11.545   7.035  13.946  1.00  0.00     0.197 C 
BRANCH  31  32
HETATM   32  O4  UNL     1     -10.848   6.492  15.058  1.00  0.00    -0.397 OA
HETATM   33  H48 UNL     1      -9.903   6.588  14.867  1.00  0.00     0.209 HD
ENDBRANCH  31  32
ENDBRANCH  29  31
ENDBRANCH  27  28
ENDBRANCH  26  27
ENDBRANCH  24  26
ENDBRANCH   1  24
BRANCH  15  34
HETATM   34  O2  UNL     1     -16.303  -2.339  18.735  1.00  0.00    -0.394 OA
HETATM   35  H30 UNL     1     -15.768  -1.514  18.652  1.00  0.00     0.210 HD
ENDBRANCH  15  34
BRANCH  17  36
HETATM   36  O3  UNL     1     -17.274  -5.080  18.424  1.00  0.00    -0.395 OA
HETATM   37  H34 UNL     1     -16.637  -4.375  18.649  1.00  0.00     0.210 HD
ENDBRANCH  17  36
TORSDOF 8
ENDMDL
MODEL 2
REMARK minimizedAffinity -7.49162197
REMARK CNNscore 0.579403043
REMARK CNNaffinity 6.69135141
REMARK  8 active torsions:
REMARK  status: ('A' for Active; 'I' for Inactive)
REMARK    1  A    between atoms: C2_2  and  C30_33 
REMARK    2  A    between atoms: C3_3  and  C4_4 
REMARK    3  A    between atoms: C4_4  and  C5_5 
REMARK    4  A    between atoms: C5_5  and  C6_6 
REMARK    5  A    between atoms: C6_6  and  C8_8 
REMARK    6  A    between atoms: C21_22  and  O2_23 
REMARK    7  A    between atoms: C23_25  and  O3_26 
REMARK    8  A    between atoms: C30_33  and  O4_34 
ROOT
HETATM    1  C8  UNL     1       2.222   7.467  10.490  1.00  0.00    -0.001 C 
HETATM    2  C9  UNL     1       1.829   6.103   9.857  1.00  0.00     0.007 C 
HETATM    3  C10 UNL     1       0.602   5.585  10.633  1.00  0.00     0.015 C 
HETATM    4  C11 UNL     1       0.528   6.471  11.891  1.00  0.00    -0.012 C 
HETATM    5  C12 UNL     1       1.512   5.870  12.945  1.00  0.00     0.021 C 
HETATM    6  C13 UNL     1      -0.797   6.609  12.627  1.00  0.00    -0.060 C 
HETATM    7  C14 UNL     1      -1.057   7.705  13.384  1.00  0.00     0.002 C 
HETATM    8  C15 UNL     1      -0.008   8.809  13.446  1.00  0.00     0.157 C 
HETATM    9  O1  UNL     1      -0.078   9.687  14.314  1.00  0.00    -0.293 OA
HETATM   10  C16 UNL     1       1.155   8.833  12.456  1.00  0.00     0.094 C 
HETATM   11  C17 UNL     1       0.949   7.864  11.293  1.00  0.00    -0.022 C 
HETATM   12  C18 UNL     1      -0.131   8.472  10.349  1.00  0.00     0.017 C 
HETATM   13  C19 UNL     1      -2.332   7.859  14.252  1.00  0.00     0.017 C 
HETATM   14  C20 UNL     1      -1.874   7.494  15.692  1.00  0.00     0.023 C 
HETATM   15  C21 UNL     1      -2.896   9.329  14.162  1.00  0.00     0.134 C 
HETATM   16  C22 UNL     1      -4.420   9.446  14.031  1.00  0.00     0.065 C 
HETATM   17  C23 UNL     1      -5.163   8.430  14.897  1.00  0.00     0.128 C 
HETATM   18  C24 UNL     1      -4.824   6.958  14.495  1.00  0.00    -0.017 C 
HETATM   19  C25 UNL     1      -5.938   6.488  13.517  1.00  0.00     0.018 C 
HETATM   20  C26 UNL     1      -4.898   6.008  15.710  1.00  0.00     0.018 C 
HETATM   21  C27 UNL     1      -3.447   6.884  13.719  1.00  0.00     0.011 C 
HETATM   22  C28 UNL     1      -2.900   5.456  13.532  1.00  0.00     0.011 C 
HETATM   23  C29 UNL     1      -1.744   5.437  12.532  1.00  0.00     0.036 C 
ENDROOT
BRANCH   1  24
HETATM   24  C6  UNL     1       2.958   8.422   9.505  1.00  0.00    -0.014 C 
HETATM   25  C7  UNL     1       2.652   8.058   8.046  1.00  0.00     0.010 C 
BRANCH  24  26
HETATM   26  C5  UNL     1       4.476   8.619   9.708  1.00  0.00     0.008 C 
BRANCH  26  27
HETATM   27  C4  UNL     1       4.832   9.000  11.153  1.00  0.00     0.028 C 
BRANCH  27  28
HETATM   28  C3  UNL     1       6.216   9.584  11.225  1.00  0.00    -0.022 C 
HETATM   29  C2  UNL     1       6.574  10.803  11.676  1.00  0.00    -0.064 C 
HETATM   30  C1  UNL     1       5.626  11.822  12.250  1.00  0.00     0.045 C 
BRANCH  29  31
HETATM   31  C30 UNL     1       8.017  11.235  11.658  1.00  0.00     0.197 C 
BRANCH  31  32
HETATM   32  O4  UNL     1       8.075  12.654  11.675  1.00  0.00    -0.397 OA
HETATM   33  H48 UNL     1       8.996  12.896  11.495  1.00  0.00     0.209 HD
ENDBRANCH  31  32
ENDBRANCH  29  31
ENDBRANCH  27  28
ENDBRANCH  26  27
ENDBRANCH  24  26
ENDBRANCH   1  24
BRANCH  15  34
HETATM   34  O2  UNL     1      -2.524  10.083  15.324  1.00  0.00    -0.394 OA
HETATM   35  H30 UNL     1      -1.585  10.350  15.180  1.00  0.00     0.210 HD
ENDBRANCH  15  34
BRANCH  17  36
HETATM   36  O3  UNL     1      -4.918   8.699  16.276  1.00  0.00    -0.395 OA
HETATM   37  H34 UNL     1      -4.091   9.211  16.350  1.00  0.00     0.210 HD
ENDBRANCH  17  36
TORSDOF 8
ENDMDL
MODEL 3
REMARK minimizedAffinity -8.22115326
REMARK CNNscore 0.537041664
REMARK CNNaffinity 7.45491648
REMARK  8 active torsions:
REMARK  status: ('A' for Active; 'I' for Inactive)
REMARK    1  A    between atoms: C2_2  and  C30_33 
REMARK    2  A    between atoms: C3_3  and  C4_4 
REMARK    3  A    between atoms: C4_4  and  C5_5 
REMARK    4  A    between atoms: C5_5  and  C6_6 
REMARK    5  A    between atoms: C6_6  and  C8_8 
REMARK    6  A    between atoms: C21_22  and  O2_23 
REMARK    7  A    between atoms: C23_25  and  O3_26 
REMARK    8  A    between atoms: C30_33  and  O4_34 
ROOT
HETATM    1  C8  UNL     1      -9.333   6.495  14.236  1.00  0.00    -0.001 C 
HETATM    2  C9  UNL     1      -8.620   7.714  14.885  1.00  0.00     0.007 C 
HETATM    3  C10 UNL     1      -7.104   7.468  14.757  1.00  0.00     0.015 C 
HETATM    4  C11 UNL     1      -6.976   5.985  14.359  1.00  0.00    -0.012 C 
HETATM    5  C12 UNL     1      -7.055   5.141  15.672  1.00  0.00     0.021 C 
HETATM    6  C13 UNL     1      -5.712   5.507  13.661  1.00  0.00    -0.060 C 
HETATM    7  C14 UNL     1      -5.734   4.410  12.864  1.00  0.00     0.002 C 
HETATM    8  C15 UNL     1      -7.062   3.692  12.654  1.00  0.00     0.157 C 
HETATM    9  O1  UNL     1      -7.087   2.557  12.165  1.00  0.00    -0.293 OA
HETATM   10  C16 UNL     1      -8.376   4.352  13.067  1.00  0.00     0.094 C 
HETATM   11  C17 UNL     1      -8.205   5.836  13.388  1.00  0.00    -0.022 C 
HETATM   12  C18 UNL     1      -8.013   6.598  12.042  1.00  0.00     0.017 C 
HETATM   13  C19 UNL     1      -4.464   3.800  12.217  1.00  0.00     0.017 C 
HETATM   14  C20 UNL     1      -4.089   2.605  13.137  1.00  0.00     0.023 C 
HETATM   15  C21 UNL     1      -4.755   3.342  10.737  1.00  0.00     0.134 C 
HETATM   16  C22 UNL     1      -3.661   3.674   9.713  1.00  0.00     0.065 C 
HETATM   17  C23 UNL     1      -2.254   3.480  10.275  1.00  0.00     0.128 C 
HETATM   18  C24 UNL     1      -1.976   4.413  11.498  1.00  0.00    -0.017 C 
HETATM   19  C25 UNL     1      -1.256   5.677  10.948  1.00  0.00     0.018 C 
HETATM   20  C26 UNL     1      -0.992   3.764  12.494  1.00  0.00     0.018 C 
HETATM   21  C27 UNL     1      -3.329   4.889  12.167  1.00  0.00     0.011 C 
HETATM   22  C28 UNL     1      -3.152   5.577  13.535  1.00  0.00     0.011 C 
HETATM   23  C29 UNL     1      -4.444   6.265  13.974  1.00  0.00     0.036 C 
ENDROOT
BRANCH   1  24
HETATM   24  C6  UNL     1     -10.752   6.823  13.686  1.00  0.00    -0.014 C 
HETATM   25  C7  UNL     1     -10.722   7.039  12.167  1.00  0.00     0.010 C 
BRANCH  24  26
HETATM   26  C5  UNL     1     -11.538   7.956  14.381  1.00  0.00     0.008 C 
BRANCH  26  27
HETATM   27  C4  UNL     1     -12.930   7.507  14.848  1.00  0.00     0.028 C 
BRANCH  27  28
HETATM   28  C3  UNL     1     -13.988   7.944  13.873  1.00  0.00    -0.022 C 
HETATM   29  C2  UNL     1     -15.077   7.256  13.475  1.00  0.00    -0.064 C 
HETATM   30  C1  UNL     1     -15.471   5.895  13.984  1.00  0.00     0.045 C 
BRANCH  29  31
HETATM   31  C30 UNL     1     -16.030   7.844  12.467  1.00  0.00     0.197 C 
BRANCH  31  32
HETATM   32  O4  UNL     1     -15.684   7.371  11.174  1.00  0.00    -0.397 OA
HETATM   33  H48 UNL     1     -16.201   7.891  10.540  1.00  0.00     0.209 HD
ENDBRANCH  31  32
ENDBRANCH  29  31
ENDBRANCH  27  28
ENDBRANCH  26  27
ENDBRANCH  24  26
ENDBRANCH   1  24
BRANCH  15  34
HETATM   34  O2  UNL     1      -4.954   1.922  10.678  1.00  0.00    -0.394 OA
HETATM   35  H30 UNL     1      -5.877   1.769  10.991  1.00  0.00     0.210 HD
ENDBRANCH  15  34
BRANCH  17  36
HETATM   36  O3  UNL     1      -2.037   2.101  10.570  1.00  0.00    -0.395 OA
HETATM   37  H34 UNL     1      -2.904   1.669  10.685  1.00  0.00     0.210 HD
ENDBRANCH  17  36
TORSDOF 8
ENDMDL
MODEL 4
REMARK minimizedAffinity -7.05138302
REMARK CNNscore 0.419989109
REMARK CNNaffinity 5.9041791
REMARK  8 active torsions:
REMARK  status: ('A' for Active; 'I' for Inactive)
REMARK    1  A    between atoms: C2_2  and  C30_33 
REMARK    2  A    between atoms: C3_3  and  C4_4 
REMARK    3  A    between atoms: C4_4  and  C5_5 
REMARK    4  A    between atoms: C5_5  and  C6_6 
REMARK    5  A    between atoms: C6_6  and  C8_8 
REMARK    6  A    between atoms: C21_22  and  O2_23 
REMARK    7  A    between atoms: C23_25  and  O3_26 
REMARK    8  A    between atoms: C30_33  and  O4_34 
ROOT
HETATM    1  C8  UNL     1       3.175  11.817  20.201  1.00  0.00    -0.001 C 
HETATM    2  C9  UNL     1       2.885  13.244  20.743  1.00  0.00     0.007 C 
HETATM    3  C10 UNL     1       1.671  13.783  19.961  1.00  0.00     0.015 C 
HETATM    4  C11 UNL     1       1.507  12.817  18.772  1.00  0.00    -0.012 C 
HETATM    5  C12 UNL     1       2.497  13.278  17.654  1.00  0.00     0.021 C 
HETATM    6  C13 UNL     1       0.156  12.711  18.080  1.00  0.00    -0.060 C 
HETATM    7  C14 UNL     1      -0.192  11.584  17.411  1.00  0.00     0.002 C 
HETATM    8  C15 UNL     1       0.784  10.413  17.403  1.00  0.00     0.157 C 
HETATM    9  O1  UNL     1       0.635   9.482  16.603  1.00  0.00    -0.293 OA
HETATM   10  C16 UNL     1       1.971  10.385  18.365  1.00  0.00     0.094 C 
HETATM   11  C17 UNL     1       1.858  11.445  19.459  1.00  0.00    -0.022 C 
HETATM   12  C18 UNL     1       0.770  10.975  20.471  1.00  0.00     0.017 C 
HETATM   13  C19 UNL     1      -1.499  11.450  16.587  1.00  0.00     0.017 C 
HETATM   14  C20 UNL     1      -1.060  11.683  15.114  1.00  0.00     0.023 C 
HETATM   15  C21 UNL     1      -2.150  10.029  16.797  1.00  0.00     0.134 C 
HETATM   16  C22 UNL     1      -3.674  10.019  16.972  1.00  0.00     0.065 C 
HETATM   17  C23 UNL     1      -4.377  11.016  16.053  1.00  0.00     0.128 C 
HETATM   18  C24 UNL     1      -3.936  12.489  16.338  1.00  0.00    -0.017 C 
HETATM   19  C25 UNL     1      -4.992  13.096  17.306  1.00  0.00     0.018 C 
HETATM   20  C26 UNL     1      -3.986  13.353  15.060  1.00  0.00     0.018 C 
HETATM   21  C27 UNL     1      -2.536  12.529  17.074  1.00  0.00     0.011 C 
HETATM   22  C28 UNL     1      -1.897  13.929  17.144  1.00  0.00     0.011 C 
HETATM   23  C29 UNL     1      -0.714  13.945  18.112  1.00  0.00     0.036 C 
ENDROOT
BRANCH   1  24
HETATM   24  C6  UNL     1       3.878  10.888  21.235  1.00  0.00    -0.014 C 
HETATM   25  C7  UNL     1       3.100  10.840  22.556  1.00  0.00     0.010 C 
BRANCH  24  26
HETATM   26  C5  UNL     1       5.381  11.129  21.499  1.00  0.00     0.008 C 
BRANCH  26  27
HETATM   27  C4  UNL     1       5.671  11.498  22.961  1.00  0.00     0.028 C 
BRANCH  27  28
HETATM   28  C3  UNL     1       6.302  12.860  23.054  1.00  0.00    -0.022 C 
HETATM   29  C2  UNL     1       7.615  13.155  23.140  1.00  0.00    -0.064 C 
HETATM   30  C1  UNL     1       8.730  12.144  23.115  1.00  0.00     0.045 C 
BRANCH  29  31
HETATM   31  C30 UNL     1       8.073  14.587  23.246  1.00  0.00     0.197 C 
BRANCH  31  32
HETATM   32  O4  UNL     1       8.944  14.712  24.361  1.00  0.00    -0.397 OA
HETATM   33  H48 UNL     1       9.084  15.661  24.499  1.00  0.00     0.209 HD
ENDBRANCH  31  32
ENDBRANCH  29  31
ENDBRANCH  27  28
ENDBRANCH  26  27
ENDBRANCH  24  26
ENDBRANCH   1  24
BRANCH  15  34
HETATM   34  O2  UNL     1      -1.858   9.172  15.683  1.00  0.00    -0.394 OA
HETATM   35  H30 UNL     1      -0.934   8.857  15.824  1.00  0.00     0.210 HD
ENDBRANCH  15  34
BRANCH  17  36
HETATM   36  O3  UNL     1      -4.188  10.636  14.691  1.00  0.00    -0.395 OA
HETATM   37  H34 UNL     1      -3.396  10.067  14.635  1.00  0.00     0.210 HD
ENDBRANCH  17  36
TORSDOF 8
ENDMDL
MODEL 5
REMARK minimizedAffinity -7.33758402
REMARK CNNscore 0.349845916
REMARK CNNaffinity 6.55496836
REMARK  8 active torsions:
REMARK  status: ('A' for Active; 'I' for Inactive)
REMARK    1  A    between atoms: C2_2  and  C30_33 
REMARK    2  A    between atoms: C3_3  and  C4_4 
REMARK    3  A    between atoms: C4_4  and  C5_5 
REMARK    4  A    between atoms: C5_5  and  C6_6 
REMARK    5  A    between atoms: C6_6  and  C8_8 
REMARK    6  A    between atoms: C21_22  and  O2_23 
REMARK    7  A    between atoms: C23_25  and  O3_26 
REMARK    8  A    between atoms: C30_33  and  O4_34 
ROOT
HETATM    1  C8  UNL     1      -7.126   5.701  14.382  1.00  0.00    -0.001 C 
HETATM    2  C9  UNL     1      -7.493   6.683  15.529  1.00  0.00     0.007 C 
HETATM    3  C10 UNL     1      -6.185   7.373  15.965  1.00  0.00     0.015 C 
HETATM    4  C11 UNL     1      -5.063   6.541  15.313  1.00  0.00    -0.012 C 
HETATM    5  C12 UNL     1      -4.788   5.317  16.244  1.00  0.00     0.021 C 
HETATM    6  C13 UNL     1      -3.700   7.177  15.087  1.00  0.00    -0.060 C 
HETATM    7  C14 UNL     1      -2.874   6.718  14.114  1.00  0.00     0.002 C 
HETATM    8  C15 UNL     1      -3.362   5.578  13.227  1.00  0.00     0.157 C 
HETATM    9  O1  UNL     1      -2.565   4.957  12.515  1.00  0.00    -0.293 OA
HETATM   10  C16 UNL     1      -4.835   5.172  13.223  1.00  0.00     0.094 C 
HETATM   11  C17 UNL     1      -5.723   6.198  13.926  1.00  0.00    -0.022 C 
HETATM   12  C18 UNL     1      -5.854   7.438  12.991  1.00  0.00     0.017 C 
HETATM   13  C19 UNL     1      -1.429   7.239  13.904  1.00  0.00     0.017 C 
HETATM   14  C20 UNL     1      -0.525   6.174  14.587  1.00  0.00     0.023 C 
HETATM   15  C21 UNL     1      -1.108   7.396  12.369  1.00  0.00     0.134 C 
HETATM   16  C22 UNL     1      -0.343   8.668  11.979  1.00  0.00     0.065 C 
HETATM   17  C23 UNL     1       0.738   9.037  12.993  1.00  0.00     0.128 C 
HETATM   18  C24 UNL     1       0.140   9.328  14.409  1.00  0.00    -0.017 C 
HETATM   19  C25 UNL     1      -0.055  10.868  14.509  1.00  0.00     0.018 C 
HETATM   20  C26 UNL     1       1.131   8.952  15.531  1.00  0.00     0.018 C 
HETATM   21  C27 UNL     1      -1.283   8.657  14.572  1.00  0.00     0.011 C 
HETATM   22  C28 UNL     1      -1.821   8.653  16.017  1.00  0.00     0.011 C 
HETATM   23  C29 UNL     1      -3.299   8.269  16.051  1.00  0.00     0.036 C 
ENDROOT
BRANCH   1  24
HETATM   24  C6  UNL     1      -8.304   5.417  13.404  1.00  0.00    -0.014 C 
HETATM   25  C7  UNL     1      -7.857   4.523  12.241  1.00  0.00     0.010 C 
BRANCH  24  26
HETATM   26  C5  UNL     1      -9.099   6.633  12.880  1.00  0.00     0.008 C 
BRANCH  26  27
HETATM   27  C4  UNL     1     -10.539   6.671  13.414  1.00  0.00     0.028 C 
BRANCH  27  28
HETATM   28  C3  UNL     1     -11.288   7.846  12.848  1.00  0.00    -0.022 C 
HETATM   29  C2  UNL     1     -12.252   8.574  13.446  1.00  0.00    -0.064 C 
HETATM   30  C1  UNL     1     -12.742   8.365  14.855  1.00  0.00     0.045 C 
BRANCH  29  31
HETATM   31  C30 UNL     1     -12.914   9.715  12.719  1.00  0.00     0.197 C 
BRANCH  31  32
HETATM   32  O4  UNL     1     -12.252   9.917  11.478  1.00  0.00    -0.397 OA
HETATM   33  H48 UNL     1     -12.589  10.751  11.117  1.00  0.00     0.209 HD
ENDBRANCH  31  32
ENDBRANCH  29  31
ENDBRANCH  27  28
ENDBRANCH  26  27
ENDBRANCH  24  26
ENDBRANCH   1  24
BRANCH  15  34
HETATM   34  O2  UNL     1      -0.326   6.288  11.902  1.00  0.00    -0.394 OA
HETATM   35  H30 UNL     1      -0.964   5.546  11.773  1.00  0.00     0.210 HD
ENDBRANCH  15  34
BRANCH  17  36
HETATM   36  O3  UNL     1       1.745   8.027  13.015  1.00  0.00    -0.395 OA
HETATM   37  H34 UNL     1       1.362   7.200  12.668  1.00  0.00     0.210 HD
ENDBRANCH  17  36
TORSDOF 8
ENDMDL
MODEL 6
REMARK minimizedAffinity -7.0187397
REMARK CNNscore 0.345469832
REMARK CNNaffinity 6.08103704
REMARK  8 active torsions:
REMARK  status: ('A' for Active; 'I' for Inactive)
REMARK    1  A    between atoms: C2_2  and  C30_33 
REMARK    2  A    between atoms: C3_3  and  C4_4 
REMARK    3  A    between atoms: C4_4  and  C5_5 
REMARK    4  A    between atoms: C5_5  and  C6_6 
REMARK    5  A    between atoms: C6_6  and  C8_8 
REMARK    6  A    between atoms: C21_22  and  O2_23 
REMARK    7  A    between atoms: C23_25  and  O3_26 
REMARK    8  A    between atoms: C30_33  and  O4_34 
ROOT
HETATM    1  C8  UNL     1      -4.041 -10.875   3.978  1.00  0.00    -0.001 C 
HETATM    2  C9  UNL     1      -2.762 -10.464   3.198  1.00  0.00     0.007 C 
HETATM    3  C10 UNL     1      -3.151 -10.385   1.708  1.00  0.00     0.015 C 
HETATM    4  C11 UNL     1      -4.527 -11.074   1.622  1.00  0.00    -0.012 C 
HETATM    5  C12 UNL     1      -4.273 -12.613   1.527  1.00  0.00     0.021 C 
HETATM    6  C13 UNL     1      -5.447 -10.755   0.454  1.00  0.00    -0.060 C 
HETATM    7  C14 UNL     1      -6.790 -10.907   0.569  1.00  0.00     0.002 C 
HETATM    8  C15 UNL     1      -7.356 -11.366   1.908  1.00  0.00     0.157 C 
HETATM    9  O1  UNL     1      -8.522 -11.769   1.987  1.00  0.00    -0.293 OA
HETATM   10  C16 UNL     1      -6.486 -11.357   3.164  1.00  0.00     0.094 C 
HETATM   11  C17 UNL     1      -5.185 -10.581   2.964  1.00  0.00    -0.022 C 
HETATM   12  C18 UNL     1      -5.531  -9.062   2.950  1.00  0.00     0.017 C 
HETATM   13  C19 UNL     1      -7.775 -10.714  -0.613  1.00  0.00     0.017 C 
HETATM   14  C20 UNL     1      -8.080 -12.155  -1.110  1.00  0.00     0.023 C 
HETATM   15  C21 UNL     1      -9.077  -9.961  -0.138  1.00  0.00     0.134 C 
HETATM   16  C22 UNL     1      -9.599  -8.877  -1.091  1.00  0.00     0.065 C 
HETATM   17  C23 UNL     1      -9.482  -9.281  -2.559  1.00  0.00     0.128 C 
HETATM   18  C24 UNL     1      -7.998  -9.528  -2.984  1.00  0.00    -0.017 C 
HETATM   19  C25 UNL     1      -7.483  -8.205  -3.620  1.00  0.00     0.018 C 
HETATM   20  C26 UNL     1      -7.896 -10.599  -4.092  1.00  0.00     0.018 C 
HETATM   21  C27 UNL     1      -7.091  -9.835  -1.724  1.00  0.00     0.011 C 
HETATM   22  C28 UNL     1      -5.685 -10.363  -2.069  1.00  0.00     0.011 C 
HETATM   23  C29 UNL     1      -4.778 -10.352  -0.839  1.00  0.00     0.036 C 
ENDROOT
BRANCH   1  24
HETATM   24  C6  UNL     1      -4.050 -10.391   5.458  1.00  0.00    -0.014 C 
HETATM   25  C7  UNL     1      -2.695  -9.790   5.854  1.00  0.00     0.010 C 
BRANCH  24  26
HETATM   26  C5  UNL     1      -4.534 -11.393   6.529  1.00  0.00     0.008 C 
BRANCH  26  27
HETATM   27  C4  UNL     1      -5.223 -10.702   7.715  1.00  0.00     0.028 C 
BRANCH  27  28
HETATM   28  C3  UNL     1      -4.215 -10.008   8.588  1.00  0.00    -0.022 C 
HETATM   29  C2  UNL     1      -4.201  -9.937   9.935  1.00  0.00    -0.064 C 
HETATM   30  C1  UNL     1      -5.201 -10.600  10.844  1.00  0.00     0.045 C 
BRANCH  29  31
HETATM   31  C30 UNL     1      -3.115  -9.176  10.651  1.00  0.00     0.197 C 
BRANCH  31  32
HETATM   32  O4  UNL     1      -3.316  -9.295  12.052  1.00  0.00    -0.397 OA
HETATM   33  H48 UNL     1      -2.710  -8.667  12.474  1.00  0.00     0.209 HD
ENDBRANCH  31  32
ENDBRANCH  29  31
ENDBRANCH  27  28
ENDBRANCH  26  27
ENDBRANCH  24  26
ENDBRANCH   1  24
BRANCH  15  34
HETATM   34  O2  UNL     1     -10.153 -10.889   0.056  1.00  0.00    -0.394 OA
HETATM   35  H30 UNL     1      -9.985 -11.313   0.931  1.00  0.00     0.210 HD
ENDBRANCH  15  34
BRANCH  17  36
HETATM   36  O3  UNL     1     -10.326 -10.401  -2.822  1.00  0.00    -0.395 OA
HETATM   37  H34 UNL     1     -10.501 -10.861  -1.979  1.00  0.00     0.210 HD
ENDBRANCH  17  36
TORSDOF 8
ENDMDL
MODEL 7
REMARK minimizedAffinity -6.74525738
REMARK CNNscore 0.286601722
REMARK CNNaffinity 5.71107817
REMARK  8 active torsions:
REMARK  status: ('A' for Active; 'I' for Inactive)
REMARK    1  A    between atoms: C2_2  and  C30_33 
REMARK    2  A    between atoms: C3_3  and  C4_4 
REMARK    3  A    between atoms: C4_4  and  C5_5 
REMARK    4  A    between atoms: C5_5  and  C6_6 
REMARK    5  A    between atoms: C6_6  and  C8_8 
REMARK    6  A    between atoms: C21_22  and  O2_23 
REMARK    7  A    between atoms: C23_25  and  O3_26 
REMARK    8  A    between atoms: C30_33  and  O4_34 
ROOT
HETATM    1  C8  UNL     1     -13.356   8.809  23.030  1.00  0.00    -0.001 C 
HETATM    2  C9  UNL     1     -13.360   8.385  21.535  1.00  0.00     0.007 C 
HETATM    3  C10 UNL     1     -12.504   9.417  20.773  1.00  0.00     0.015 C 
HETATM    4  C11 UNL     1     -12.316  10.582  21.764  1.00  0.00    -0.012 C 
HETATM    5  C12 UNL     1     -13.585  11.487  21.668  1.00  0.00     0.021 C 
HETATM    6  C13 UNL     1     -11.141  11.532  21.581  1.00  0.00    -0.060 C 
HETATM    7  C14 UNL     1     -10.638  12.221  22.636  1.00  0.00     0.002 C 
HETATM    8  C15 UNL     1     -11.250  11.989  24.012  1.00  0.00     0.157 C 
HETATM    9  O1  UNL     1     -11.012  12.772  24.940  1.00  0.00    -0.293 OA
HETATM   10  C16 UNL     1     -12.182  10.805  24.259  1.00  0.00     0.094 C 
HETATM   11  C17 UNL     1     -12.152   9.793  23.116  1.00  0.00    -0.022 C 
HETATM   12  C18 UNL     1     -10.807   9.010  23.204  1.00  0.00     0.017 C 
HETATM   13  C19 UNL     1      -9.523  13.290  22.502  1.00  0.00     0.017 C 
HETATM   14  C20 UNL     1     -10.278  14.649  22.516  1.00  0.00     0.023 C 
HETATM   15  C21 UNL     1      -8.490  13.171  23.687  1.00  0.00     0.134 C 
HETATM   16  C22 UNL     1      -7.013  13.312  23.294  1.00  0.00     0.065 C 
HETATM   17  C23 UNL     1      -6.788  14.388  22.234  1.00  0.00     0.128 C 
HETATM   18  C24 UNL     1      -7.544  14.067  20.903  1.00  0.00    -0.017 C 
HETATM   19  C25 UNL     1      -6.526  13.356  19.965  1.00  0.00     0.018 C 
HETATM   20  C26 UNL     1      -7.969  15.355  20.167  1.00  0.00     0.018 C 
HETATM   21  C27 UNL     1      -8.739  13.061  21.157  1.00  0.00     0.011 C 
HETATM   22  C28 UNL     1      -9.703  12.908  19.965  1.00  0.00     0.011 C 
HETATM   23  C29 UNL     1     -10.642  11.719  20.168  1.00  0.00     0.036 C 
ENDROOT
BRANCH   1  24
HETATM   24  C6  UNL     1     -13.577   7.623  24.014  1.00  0.00    -0.014 C 
HETATM   25  C7  UNL     1     -13.244   8.029  25.456  1.00  0.00     0.010 C 
BRANCH  24  26
HETATM   26  C5  UNL     1     -12.911   6.275  23.662  1.00  0.00     0.008 C 
BRANCH  26  27
HETATM   27  C4  UNL     1     -13.925   5.127  23.554  1.00  0.00     0.028 C 
BRANCH  27  28
HETATM   28  C3  UNL     1     -13.268   3.805  23.844  1.00  0.00    -0.022 C 
HETATM   29  C2  UNL     1     -13.275   3.119  25.005  1.00  0.00    -0.064 C 
HETATM   30  C1  UNL     1     -14.003   3.542  26.253  1.00  0.00     0.045 C 
BRANCH  29  31
HETATM   31  C30 UNL     1     -12.542   1.808  25.125  1.00  0.00     0.197 C 
BRANCH  31  32
HETATM   32  O4  UNL     1     -11.790   1.590  23.940  1.00  0.00    -0.397 OA
HETATM   33  H48 UNL     1     -11.470   0.676  23.979  1.00  0.00     0.209 HD
ENDBRANCH  31  32
ENDBRANCH  29  31
ENDBRANCH  27  28
ENDBRANCH  26  27
ENDBRANCH  24  26
ENDBRANCH   1  24
BRANCH  15  34
HETATM   34  O2  UNL     1      -8.747  14.172  24.682  1.00  0.00    -0.394 OA
HETATM   35  H30 UNL     1      -9.510  13.835  25.210  1.00  0.00     0.210 HD
ENDBRANCH  15  34
BRANCH  17  36
HETATM   36  O3  UNL     1      -7.123  15.668  22.765  1.00  0.00    -0.395 OA
HETATM   37  H34 UNL     1      -7.730  15.543  23.518  1.00  0.00     0.210 HD
ENDBRANCH  17  36
TORSDOF 8
ENDMDL
MODEL 8
REMARK minimizedAffinity -7.37012863
REMARK CNNscore 0.282406747
REMARK CNNaffinity 6.12985563
REMARK  8 active torsions:
REMARK  status: ('A' for Active; 'I' for Inactive)
REMARK    1  A    between atoms: C2_2  and  C30_33 
REMARK    2  A    between atoms: C3_3  and  C4_4 
REMARK    3  A    between atoms: C4_4  and  C5_5 
REMARK    4  A    between atoms: C5_5  and  C6_6 
REMARK    5  A    between atoms: C6_6  and  C8_8 
REMARK    6  A    between atoms: C21_22  and  O2_23 
REMARK    7  A    between atoms: C23_25  and  O3_26 
REMARK    8  A    between atoms: C30_33  and  O4_34 
ROOT
HETATM    1  C8  UNL     1       3.533   7.419  10.756  1.00  0.00    -0.001 C 
HETATM    2  C9  UNL     1       4.053   8.297   9.584  1.00  0.00     0.007 C 
HETATM    3  C10 UNL     1       5.112   9.250  10.173  1.00  0.00     0.015 C 
HETATM    4  C11 UNL     1       4.934   9.143  11.700  1.00  0.00    -0.012 C 
HETATM    5  C12 UNL     1       3.770  10.105  12.102  1.00  0.00     0.021 C 
HETATM    6  C13 UNL     1       6.090   9.523  12.613  1.00  0.00    -0.060 C 
HETATM    7  C14 UNL     1       6.189   8.998  13.859  1.00  0.00     0.002 C 
HETATM    8  C15 UNL     1       5.138   7.990  14.307  1.00  0.00     0.157 C 
HETATM    9  O1  UNL     1       5.030   7.690  15.502  1.00  0.00    -0.293 OA
HETATM   10  C16 UNL     1       4.187   7.355  13.293  1.00  0.00     0.094 C 
HETATM   11  C17 UNL     1       4.623   7.608  11.851  1.00  0.00    -0.022 C 
HETATM   12  C18 UNL     1       5.859   6.705  11.559  1.00  0.00     0.017 C 
HETATM   13  C19 UNL     1       7.272   9.428  14.883  1.00  0.00     0.017 C 
HETATM   14  C20 UNL     1       6.548  10.434  15.821  1.00  0.00     0.023 C 
HETATM   15  C21 UNL     1       7.828   8.178  15.666  1.00  0.00     0.134 C 
HETATM   16  C22 UNL     1       9.348   8.152  15.877  1.00  0.00     0.065 C 
HETATM   17  C23 UNL     1       9.919   9.531  16.200  1.00  0.00     0.128 C 
HETATM   18  C24 UNL     1       9.678  10.553  15.041  1.00  0.00    -0.017 C 
HETATM   19  C25 UNL     1      10.964  10.557  14.167  1.00  0.00     0.018 C 
HETATM   20  C26 UNL     1       9.524  11.992  15.578  1.00  0.00     0.018 C 
HETATM   21  C27 UNL     1       8.477  10.092  14.120  1.00  0.00     0.011 C 
HETATM   22  C28 UNL     1       7.990  11.166  13.128  1.00  0.00     0.011 C 
HETATM   23  C29 UNL     1       7.049  10.564  12.085  1.00  0.00     0.036 C 
ENDROOT
BRANCH   1  24
HETATM   24  C6  UNL     1       2.992   6.031  10.302  1.00  0.00    -0.014 C 
HETATM   25  C7  UNL     1       2.777   5.989   8.784  1.00  0.00     0.010 C 
BRANCH  24  26
HETATM   26  C5  UNL     1       1.756   5.475  11.042  1.00  0.00     0.008 C 
BRANCH  26  27
HETATM   27  C4  UNL     1       0.452   6.161  10.608  1.00  0.00     0.028 C 
BRANCH  27  28
HETATM   28  C3  UNL     1      -0.378   6.537  11.805  1.00  0.00    -0.022 C 
HETATM   29  C2  UNL     1      -1.422   5.864  12.328  1.00  0.00    -0.064 C 
HETATM   30  C1  UNL     1      -1.940   4.544  11.821  1.00  0.00     0.045 C 
BRANCH  29  31
HETATM   31  C30 UNL     1      -2.156   6.401  13.529  1.00  0.00     0.197 C 
BRANCH  31  32
HETATM   32  O4  UNL     1      -1.405   6.109  14.698  1.00  0.00    -0.397 OA
HETATM   33  H48 UNL     1      -1.976   6.315  15.454  1.00  0.00     0.209 HD
ENDBRANCH  31  32
ENDBRANCH  29  31
ENDBRANCH  27  28
ENDBRANCH  26  27
ENDBRANCH  24  26
ENDBRANCH   1  24
BRANCH  15  34
HETATM   34  O2  UNL     1       7.232   8.094  16.969  1.00  0.00    -0.394 OA
HETATM   35  H30 UNL     1       6.336   7.705  16.828  1.00  0.00     0.210 HD
ENDBRANCH  15  34
BRANCH  17  36
HETATM   36  O3  UNL     1       9.410   9.985  17.453  1.00  0.00    -0.395 OA
HETATM   37  H34 UNL     1       8.579   9.508  17.641  1.00  0.00     0.210 HD
ENDBRANCH  17  36
TORSDOF 8
ENDMDL
MODEL 9
REMARK minimizedAffinity -7.92490768
REMARK CNNscore 0.281772971
REMARK CNNaffinity 5.87954569
REMARK  8 active torsions:
REMARK  status: ('A' for Active; 'I' for Inactive)
REMARK    1  A    between atoms: C2_2  and  C30_33 
REMARK    2  A    between atoms: C3_3  and  C4_4 
REMARK    3  A    between atoms: C4_4  and  C5_5 
REMARK    4  A    between atoms: C5_5  and  C6_6 
REMARK    5  A    between atoms: C6_6  and  C8_8 
REMARK    6  A    between atoms: C21_22  and  O2_23 
REMARK    7  A    between atoms: C23_25  and  O3_26 
REMARK    8  A    between atoms: C30_33  and  O4_34 
ROOT
HETATM    1  C8  UNL     1     -13.058   9.707  23.308  1.00  0.00    -0.001 C 
HETATM    2  C9  UNL     1     -13.222  10.239  24.758  1.00  0.00     0.007 C 
HETATM    3  C10 UNL     1     -13.626   9.037  25.634  1.00  0.00     0.015 C 
HETATM    4  C11 UNL     1     -14.017   7.932  24.633  1.00  0.00    -0.012 C 
HETATM    5  C12 UNL     1     -15.500   8.189  24.211  1.00  0.00     0.021 C 
HETATM    6  C13 UNL     1     -13.983   6.478  25.078  1.00  0.00    -0.060 C 
HETATM    7  C14 UNL     1     -13.818   5.481  24.173  1.00  0.00     0.002 C 
HETATM    8  C15 UNL     1     -13.629   5.856  22.708  1.00  0.00     0.157 C 
HETATM    9  O1  UNL     1     -13.740   4.997  21.825  1.00  0.00    -0.293 OA
HETATM   10  C16 UNL     1     -13.324   7.298  22.307  1.00  0.00     0.094 C 
HETATM   11  C17 UNL     1     -12.945   8.166  23.506  1.00  0.00    -0.022 C 
HETATM   12  C18 UNL     1     -11.503   7.772  23.946  1.00  0.00     0.017 C 
HETATM   13  C19 UNL     1     -13.889   3.976  24.539  1.00  0.00     0.017 C 
HETATM   14  C20 UNL     1     -15.324   3.540  24.128  1.00  0.00     0.023 C 
HETATM   15  C21 UNL     1     -12.778   3.161  23.774  1.00  0.00     0.134 C 
HETATM   16  C22 UNL     1     -12.045   2.100  24.605  1.00  0.00     0.065 C 
HETATM   17  C23 UNL     1     -12.978   1.350  25.553  1.00  0.00     0.128 C 
HETATM   18  C24 UNL     1     -13.648   2.305  26.595  1.00  0.00    -0.017 C 
HETATM   19  C25 UNL     1     -12.780   2.245  27.885  1.00  0.00     0.018 C 
HETATM   20  C26 UNL     1     -15.050   1.805  27.003  1.00  0.00     0.018 C 
HETATM   21  C27 UNL     1     -13.635   3.801  26.082  1.00  0.00     0.011 C 
HETATM   22  C28 UNL     1     -14.514   4.761  26.907  1.00  0.00     0.011 C 
HETATM   23  C29 UNL     1     -14.224   6.218  26.546  1.00  0.00     0.036 C 
ENDROOT
BRANCH   1  24
HETATM   24  C6  UNL     1     -12.068  10.544  22.445  1.00  0.00    -0.014 C 
HETATM   25  C7  UNL     1     -11.929   9.957  21.034  1.00  0.00     0.010 C 
BRANCH  24  26
HETATM   26  C5  UNL     1     -10.679  10.843  23.048  1.00  0.00     0.008 C 
BRANCH  26  27
HETATM   27  C4  UNL     1     -10.488  12.330  23.380  1.00  0.00     0.028 C 
BRANCH  27  28
HETATM   28  C3  UNL     1      -9.030  12.656  23.550  1.00  0.00    -0.022 C 
HETATM   29  C2  UNL     1      -8.145  13.001  22.592  1.00  0.00    -0.064 C 
HETATM   30  C1  UNL     1      -8.477  13.172  21.133  1.00  0.00     0.045 C 
BRANCH  29  31
HETATM   31  C30 UNL     1      -6.706  13.277  22.940  1.00  0.00     0.197 C 
BRANCH  31  32
HETATM   32  O4  UNL     1      -5.888  12.934  21.831  1.00  0.00    -0.397 OA
HETATM   33  H48 UNL     1      -4.971  12.965  22.142  1.00  0.00     0.209 HD
ENDBRANCH  31  32
ENDBRANCH  29  31
ENDBRANCH  27  28
ENDBRANCH  26  27
ENDBRANCH  24  26
ENDBRANCH   1  24
BRANCH  15  34
HETATM   34  O2  UNL     1     -13.340   2.480  22.643  1.00  0.00    -0.394 OA
HETATM   35  H30 UNL     1     -13.434   3.165  21.939  1.00  0.00     0.210 HD
ENDBRANCH  15  34
BRANCH  17  36
HETATM   36  O3  UNL     1     -13.929   0.597  24.802  1.00  0.00    -0.395 OA
HETATM   37  H34 UNL     1     -14.001   0.990  23.911  1.00  0.00     0.210 HD
ENDBRANCH  17  36
TORSDOF 8
ENDMDL
