MODEL 1
REMARK minimizedAffinity -6.74451113
REMARK CNNscore 0.699651837
REMARK CNNaffinity 7.11524916
REMARK  7 active torsions:
REMARK  status: ('A' for Active; 'I' for Inactive)
REMARK    1  A    between atoms: C2_2  and  C30_32 
REMARK    2  A    between atoms: C3_3  and  C4_4 
REMARK    3  A    between atoms: C4_4  and  C5_5 
REMARK    4  A    between atoms: C5_5  and  C6_6 
REMARK    5  A    between atoms: C6_6  and  C8_8 
REMARK    6  A    between atoms: C29_30  and  O2_31 
REMARK    7  A    between atoms: C30_32  and  O3_33 
ROOT
HETATM    1  C8  UNL     1      -9.465   7.277  14.204  1.00  0.00    -0.002 C 
HETATM    2  C9  UNL     1     -10.780   6.461  14.172  1.00  0.00     0.007 C 
HETATM    3  C10 UNL     1     -11.881   7.368  14.768  1.00  0.00     0.015 C 
HETATM    4  C11 UNL     1     -11.266   8.782  14.826  1.00  0.00    -0.010 C 
HETATM    5  C12 UNL     1     -11.446   9.419  13.410  1.00  0.00     0.021 C 
HETATM    6  C13 UNL     1     -11.812   9.813  15.816  1.00  0.00    -0.039 C 
HETATM    7  C14 UNL     1     -10.993  10.810  16.253  1.00  0.00    -0.066 C 
HETATM    8  C15 UNL     1      -9.511  10.877  15.831  1.00  0.00     0.036 C 
HETATM    9  C16 UNL     1      -8.932   9.690  15.030  1.00  0.00     0.015 C 
HETATM   10  C17 UNL     1      -9.781   8.426  15.206  1.00  0.00    -0.029 C 
HETATM   11  C18 UNL     1      -9.618   7.933  16.673  1.00  0.00     0.016 C 
HETATM   12  C19 UNL     1     -11.483  11.923  17.223  1.00  0.00    -0.015 C 
HETATM   13  C20 UNL     1     -10.851  11.629  18.607  1.00  0.00     0.020 C 
HETATM   14  C21 UNL     1     -11.004  13.320  16.730  1.00  0.00     0.021 C 
HETATM   15  C22 UNL     1     -11.838  14.512  17.192  1.00  0.00     0.080 C 
HETATM   16  C23 UNL     1     -12.695  14.207  18.397  1.00  0.00     0.135 C 
HETATM   17  O1  UNL     1     -12.669  14.943  19.384  1.00  0.00    -0.297 OA
HETATM   18  C24 UNL     1     -13.648  13.011  18.287  1.00  0.00     0.018 C 
HETATM   19  C25 UNL     1     -14.982  13.559  17.736  1.00  0.00     0.023 C 
HETATM   20  C26 UNL     1     -13.931  12.444  19.692  1.00  0.00     0.023 C 
HETATM   21  C27 UNL     1     -13.053  11.966  17.281  1.00  0.00     0.016 C 
HETATM   22  C28 UNL     1     -13.628  10.552  17.448  1.00  0.00     0.043 C 
HETATM   23  C29 UNL     1     -13.249   9.667  16.263  1.00  0.00     0.148 C 
ENDROOT
BRANCH   1  24
HETATM   24  C6  UNL     1      -8.144   6.469  14.380  1.00  0.00    -0.014 C 
HETATM   25  C7  UNL     1      -8.003   5.720  15.712  1.00  0.00     0.010 C 
BRANCH  24  26
HETATM   26  C5  UNL     1      -8.001   5.468  13.199  1.00  0.00     0.008 C 
BRANCH  26  27
HETATM   27  C4  UNL     1      -7.533   4.069  13.616  1.00  0.00     0.028 C 
BRANCH  27  28
HETATM   28  C3  UNL     1      -6.643   3.463  12.566  1.00  0.00    -0.022 C 
HETATM   29  C2  UNL     1      -5.341   3.734  12.337  1.00  0.00    -0.064 C 
HETATM   30  C1  UNL     1      -4.510   4.680  13.164  1.00  0.00     0.045 C 
BRANCH  29  31
HETATM   31  C30 UNL     1      -4.596   3.059  11.215  1.00  0.00     0.197 C 
BRANCH  31  32
HETATM   32  O3  UNL     1      -5.467   2.928  10.101  1.00  0.00    -0.397 OA
HETATM   33  H48 UNL     1      -4.947   2.518   9.391  1.00  0.00     0.209 HD
ENDBRANCH  31  32
ENDBRANCH  29  31
ENDBRANCH  27  28
ENDBRANCH  26  27
ENDBRANCH  24  26
ENDBRANCH   1  24
BRANCH  23  34
HETATM   34  O2  UNL     1     -14.108  10.013  15.180  1.00  0.00    -0.391 OA
HETATM   35  H45 UNL     1     -14.111   9.260  14.568  1.00  0.00     0.210 HD
ENDBRANCH  23  34
TORSDOF 7
ENDMDL
MODEL 2
REMARK minimizedAffinity -6.47031736
REMARK CNNscore 0.655172229
REMARK CNNaffinity 6.75303888
REMARK  7 active torsions:
REMARK  status: ('A' for Active; 'I' for Inactive)
REMARK    1  A    between atoms: C2_2  and  C30_32 
REMARK    2  A    between atoms: C3_3  and  C4_4 
REMARK    3  A    between atoms: C4_4  and  C5_5 
REMARK    4  A    between atoms: C5_5  and  C6_6 
REMARK    5  A    between atoms: C6_6  and  C8_8 
REMARK    6  A    between atoms: C29_30  and  O2_31 
REMARK    7  A    between atoms: C30_32  and  O3_33 
ROOT
HETATM    1  C8  UNL     1     -13.973 -12.076  27.849  1.00  0.00    -0.002 C 
HETATM    2  C9  UNL     1     -15.514 -12.196  27.950  1.00  0.00     0.007 C 
HETATM    3  C10 UNL     1     -16.022 -10.877  28.577  1.00  0.00     0.015 C 
HETATM    4  C11 UNL     1     -14.826  -9.904  28.521  1.00  0.00    -0.010 C 
HETATM    5  C12 UNL     1     -14.815  -9.272  27.091  1.00  0.00     0.021 C 
HETATM    6  C13 UNL     1     -14.753  -8.726  29.494  1.00  0.00    -0.039 C 
HETATM    7  C14 UNL     1     -13.534  -8.213  29.822  1.00  0.00    -0.066 C 
HETATM    8  C15 UNL     1     -12.228  -8.840  29.294  1.00  0.00     0.036 C 
HETATM    9  C16 UNL     1     -12.327 -10.170  28.514  1.00  0.00     0.015 C 
HETATM   10  C17 UNL     1     -13.641 -10.899  28.812  1.00  0.00    -0.029 C 
HETATM   11  C18 UNL     1     -13.597 -11.395  30.287  1.00  0.00     0.016 C 
HETATM   12  C19 UNL     1     -13.376  -6.988  30.768  1.00  0.00    -0.015 C 
HETATM   13  C20 UNL     1     -12.832  -7.523  32.117  1.00  0.00     0.020 C 
HETATM   14  C21 UNL     1     -12.354  -5.974  30.173  1.00  0.00     0.021 C 
HETATM   15  C22 UNL     1     -12.507  -4.526  30.634  1.00  0.00     0.080 C 
HETATM   16  C23 UNL     1     -13.302  -4.389  31.910  1.00  0.00     0.135 C 
HETATM   17  O1  UNL     1     -12.858  -3.736  32.855  1.00  0.00    -0.297 OA
HETATM   18  C24 UNL     1     -14.702  -5.013  31.927  1.00  0.00     0.018 C 
HETATM   19  C25 UNL     1     -15.680  -3.919  31.445  1.00  0.00     0.023 C 
HETATM   20  C26 UNL     1     -15.092  -5.370  33.375  1.00  0.00     0.023 C 
HETATM   21  C27 UNL     1     -14.740  -6.226  30.934  1.00  0.00     0.016 C 
HETATM   22  C28 UNL     1     -15.881  -7.215  31.212  1.00  0.00     0.043 C 
HETATM   23  C29 UNL     1     -16.052  -8.189  30.049  1.00  0.00     0.148 C 
ENDROOT
BRANCH   1  24
HETATM   24  C6  UNL     1     -13.159 -13.400  27.971  1.00  0.00    -0.014 C 
HETATM   25  C7  UNL     1     -13.635 -14.549  27.072  1.00  0.00     0.010 C 
BRANCH  24  26
HETATM   26  C5  UNL     1     -11.660 -13.101  27.690  1.00  0.00     0.008 C 
BRANCH  26  27
HETATM   27  C4  UNL     1     -11.127 -13.730  26.398  1.00  0.00     0.028 C 
BRANCH  27  28
HETATM   28  C3  UNL     1     -10.232 -12.772  25.660  1.00  0.00    -0.022 C 
HETATM   29  C2  UNL     1      -8.981 -12.999  25.209  1.00  0.00    -0.064 C 
HETATM   30  C1  UNL     1      -8.264 -14.319  25.315  1.00  0.00     0.045 C 
BRANCH  29  31
HETATM   31  C30 UNL     1      -8.201 -11.913  24.513  1.00  0.00     0.197 C 
BRANCH  31  32
HETATM   32  O3  UNL     1      -7.463 -12.491  23.447  1.00  0.00    -0.397 OA
HETATM   33  H48 UNL     1      -6.999 -11.762  23.006  1.00  0.00     0.209 HD
ENDBRANCH  31  32
ENDBRANCH  29  31
ENDBRANCH  27  28
ENDBRANCH  26  27
ENDBRANCH  24  26
ENDBRANCH   1  24
BRANCH  23  34
HETATM   34  O2  UNL     1     -16.747  -7.499  29.013  1.00  0.00    -0.391 OA
HETATM   35  H45 UNL     1     -17.146  -8.173  28.441  1.00  0.00     0.210 HD
ENDBRANCH  23  34
TORSDOF 7
ENDMDL
MODEL 3
REMARK minimizedAffinity -8.87547779
REMARK CNNscore 0.583139598
REMARK CNNaffinity 7.13237619
REMARK  7 active torsions:
REMARK  status: ('A' for Active; 'I' for Inactive)
REMARK    1  A    between atoms: C2_2  and  C30_32 
REMARK    2  A    between atoms: C3_3  and  C4_4 
REMARK    3  A    between atoms: C4_4  and  C5_5 
REMARK    4  A    between atoms: C5_5  and  C6_6 
REMARK    5  A    between atoms: C6_6  and  C8_8 
REMARK    6  A    between atoms: C29_30  and  O2_31 
REMARK    7  A    between atoms: C30_32  and  O3_33 
ROOT
HETATM    1  C8  UNL     1      -2.925   8.621  15.434  1.00  0.00    -0.002 C 
HETATM    2  C9  UNL     1      -1.852   8.422  16.533  1.00  0.00     0.007 C 
HETATM    3  C10 UNL     1      -0.504   8.218  15.805  1.00  0.00     0.015 C 
HETATM    4  C11 UNL     1      -0.758   8.627  14.339  1.00  0.00    -0.010 C 
HETATM    5  C12 UNL     1      -0.615  10.181  14.264  1.00  0.00     0.021 C 
HETATM    6  C13 UNL     1       0.134   8.074  13.226  1.00  0.00    -0.039 C 
HETATM    7  C14 UNL     1      -0.367   7.975  11.963  1.00  0.00    -0.066 C 
HETATM    8  C15 UNL     1      -1.833   8.336  11.649  1.00  0.00     0.036 C 
HETATM    9  C16 UNL     1      -2.770   8.656  12.834  1.00  0.00     0.015 C 
HETATM   10  C17 UNL     1      -2.226   8.089  14.149  1.00  0.00    -0.029 C 
HETATM   11  C18 UNL     1      -2.313   6.536  14.082  1.00  0.00     0.016 C 
HETATM   12  C19 UNL     1       0.488   7.467  10.767  1.00  0.00    -0.015 C 
HETATM   13  C20 UNL     1      -0.016   6.043  10.421  1.00  0.00     0.020 C 
HETATM   14  C21 UNL     1       0.290   8.392   9.529  1.00  0.00     0.021 C 
HETATM   15  C22 UNL     1       1.432   8.401   8.515  1.00  0.00     0.080 C 
HETATM   16  C23 UNL     1       2.338   7.199   8.629  1.00  0.00     0.135 C 
HETATM   17  O1  UNL     1       2.610   6.525   7.635  1.00  0.00    -0.297 OA
HETATM   18  C24 UNL     1       2.963   6.929  10.003  1.00  0.00     0.018 C 
HETATM   19  C25 UNL     1       4.308   7.687  10.033  1.00  0.00     0.023 C 
HETATM   20  C26 UNL     1       3.281   5.426  10.139  1.00  0.00     0.023 C 
HETATM   21  C27 UNL     1       2.018   7.490  11.121  1.00  0.00     0.016 C 
HETATM   22  C28 UNL     1       2.263   6.868  12.504  1.00  0.00     0.043 C 
HETATM   23  C29 UNL     1       1.541   7.661  13.591  1.00  0.00     0.148 C 
ENDROOT
BRANCH   1  24
HETATM   24  C6  UNL     1      -4.366   8.127  15.766  1.00  0.00    -0.014 C 
HETATM   25  C7  UNL     1      -5.497   9.091  15.385  1.00  0.00     0.010 C 
BRANCH  24  26
HETATM   26  C5  UNL     1      -4.599   6.750  15.083  1.00  0.00     0.008 C 
BRANCH  26  27
HETATM   27  C4  UNL     1      -5.830   6.704  14.171  1.00  0.00     0.028 C 
BRANCH  27  28
HETATM   28  C3  UNL     1      -6.121   5.296  13.727  1.00  0.00    -0.022 C 
HETATM   29  C2  UNL     1      -7.189   4.860  13.028  1.00  0.00    -0.064 C 
HETATM   30  C1  UNL     1      -8.282   5.751  12.499  1.00  0.00     0.045 C 
BRANCH  29  31
HETATM   31  C30 UNL     1      -7.349   3.400  12.690  1.00  0.00     0.197 C 
BRANCH  31  32
HETATM   32  O3  UNL     1      -8.676   3.002  12.997  1.00  0.00    -0.397 OA
HETATM   33  H48 UNL     1      -8.751   2.069  12.740  1.00  0.00     0.209 HD
ENDBRANCH  31  32
ENDBRANCH  29  31
ENDBRANCH  27  28
ENDBRANCH  26  27
ENDBRANCH  24  26
ENDBRANCH   1  24
BRANCH  23  34
HETATM   34  O2  UNL     1       2.314   8.830  13.852  1.00  0.00    -0.391 OA
HETATM   35  H45 UNL     1       2.063   9.145  14.734  1.00  0.00     0.210 HD
ENDBRANCH  23  34
TORSDOF 7
ENDMDL
MODEL 4
REMARK minimizedAffinity -7.56781292
REMARK CNNscore 0.560240686
REMARK CNNaffinity 7.0322051
REMARK  7 active torsions:
REMARK  status: ('A' for Active; 'I' for Inactive)
REMARK    1  A    between atoms: C2_2  and  C30_32 
REMARK    2  A    between atoms: C3_3  and  C4_4 
REMARK    3  A    between atoms: C4_4  and  C5_5 
REMARK    4  A    between atoms: C5_5  and  C6_6 
REMARK    5  A    between atoms: C6_6  and  C8_8 
REMARK    6  A    between atoms: C29_30  and  O2_31 
REMARK    7  A    between atoms: C30_32  and  O3_33 
ROOT
HETATM    1  C8  UNL     1     -10.429   8.185  14.874  1.00  0.00    -0.002 C 
HETATM    2  C9  UNL     1     -10.261   9.712  14.687  1.00  0.00     0.007 C 
HETATM    3  C10 UNL     1     -11.651  10.269  14.301  1.00  0.00     0.015 C 
HETATM    4  C11 UNL     1     -12.648   9.128  14.592  1.00  0.00    -0.010 C 
HETATM    5  C12 UNL     1     -12.994   9.197  16.115  1.00  0.00     0.021 C 
HETATM    6  C13 UNL     1     -13.993   9.085  13.863  1.00  0.00    -0.039 C 
HETATM    7  C14 UNL     1     -14.615   7.884  13.690  1.00  0.00    -0.066 C 
HETATM    8  C15 UNL     1     -13.958   6.566  14.145  1.00  0.00     0.036 C 
HETATM    9  C16 UNL     1     -12.500   6.620  14.653  1.00  0.00     0.015 C 
HETATM   10  C17 UNL     1     -11.783   7.884  14.167  1.00  0.00    -0.029 C 
HETATM   11  C18 UNL     1     -11.581   7.765  12.628  1.00  0.00     0.016 C 
HETATM   12  C19 UNL     1     -16.004   7.760  13.002  1.00  0.00    -0.015 C 
HETATM   13  C20 UNL     1     -15.763   7.145  11.600  1.00  0.00     0.020 C 
HETATM   14  C21 UNL     1     -16.931   6.813  13.821  1.00  0.00     0.021 C 
HETATM   15  C22 UNL     1     -18.432   7.027  13.638  1.00  0.00     0.080 C 
HETATM   16  C23 UNL     1     -18.775   7.785  12.379  1.00  0.00     0.135 C 
HETATM   17  O1  UNL     1     -19.616   7.346  11.594  1.00  0.00    -0.297 OA
HETATM   18  C24 UNL     1     -18.102   9.150  12.184  1.00  0.00     0.018 C 
HETATM   19  C25 UNL     1     -19.038  10.199  12.823  1.00  0.00     0.023 C 
HETATM   20  C26 UNL     1     -18.012   9.472  10.679  1.00  0.00     0.023 C 
HETATM   21  C27 UNL     1     -16.721   9.156  12.926  1.00  0.00     0.016 C 
HETATM   22  C28 UNL     1     -15.753  10.234  12.417  1.00  0.00     0.043 C 
HETATM   23  C29 UNL     1     -14.567  10.392  13.366  1.00  0.00     0.148 C 
ENDROOT
BRANCH   1  24
HETATM   24  C6  UNL     1      -9.192   7.299  14.538  1.00  0.00    -0.014 C 
HETATM   25  C7  UNL     1      -8.580   6.544  15.726  1.00  0.00     0.010 C 
BRANCH  24  26
HETATM   26  C5  UNL     1      -9.579   6.290  13.421  1.00  0.00     0.008 C 
BRANCH  26  27
HETATM   27  C4  UNL     1      -8.411   5.873  12.520  1.00  0.00     0.028 C 
BRANCH  27  28
HETATM   28  C3  UNL     1      -8.169   4.390  12.602  1.00  0.00    -0.022 C 
HETATM   29  C2  UNL     1      -6.986   3.759  12.752  1.00  0.00    -0.064 C 
HETATM   30  C1  UNL     1      -5.664   4.457  12.934  1.00  0.00     0.045 C 
BRANCH  29  31
HETATM   31  C30 UNL     1      -6.911   2.254  12.781  1.00  0.00     0.197 C 
BRANCH  31  32
HETATM   32  O3  UNL     1      -8.206   1.726  12.533  1.00  0.00    -0.397 OA
HETATM   33  H48 UNL     1      -8.114   0.761  12.529  1.00  0.00     0.209 HD
ENDBRANCH  31  32
ENDBRANCH  29  31
ENDBRANCH  27  28
ENDBRANCH  26  27
ENDBRANCH  24  26
ENDBRANCH   1  24
BRANCH  23  34
HETATM   34  O2  UNL     1     -15.014  11.155  14.484  1.00  0.00    -0.391 OA
HETATM   35  H45 UNL     1     -14.225  11.537  14.900  1.00  0.00     0.210 HD
ENDBRANCH  23  34
TORSDOF 7
ENDMDL
MODEL 5
REMARK minimizedAffinity -7.34553814
REMARK CNNscore 0.513890982
REMARK CNNaffinity 6.81566858
REMARK  7 active torsions:
REMARK  status: ('A' for Active; 'I' for Inactive)
REMARK    1  A    between atoms: C2_2  and  C30_32 
REMARK    2  A    between atoms: C3_3  and  C4_4 
REMARK    3  A    between atoms: C4_4  and  C5_5 
REMARK    4  A    between atoms: C5_5  and  C6_6 
REMARK    5  A    between atoms: C6_6  and  C8_8 
REMARK    6  A    between atoms: C29_30  and  O2_31 
REMARK    7  A    between atoms: C30_32  and  O3_33 
ROOT
HETATM    1  C8  UNL     1      -3.266   7.653  14.178  1.00  0.00    -0.002 C 
HETATM    2  C9  UNL     1      -2.790   8.328  12.868  1.00  0.00     0.007 C 
HETATM    3  C10 UNL     1      -1.882   9.509  13.282  1.00  0.00     0.015 C 
HETATM    4  C11 UNL     1      -1.586   9.298  14.782  1.00  0.00    -0.010 C 
HETATM    5  C12 UNL     1      -0.394   8.291  14.877  1.00  0.00     0.021 C 
HETATM    6  C13 UNL     1      -1.192  10.489  15.658  1.00  0.00    -0.039 C 
HETATM    7  C14 UNL     1      -1.450  10.442  16.995  1.00  0.00    -0.066 C 
HETATM    8  C15 UNL     1      -2.194   9.249  17.629  1.00  0.00     0.036 C 
HETATM    9  C16 UNL     1      -2.790   8.183  16.684  1.00  0.00     0.015 C 
HETATM   10  C17 UNL     1      -2.972   8.729  15.264  1.00  0.00    -0.029 C 
HETATM   11  C18 UNL     1      -4.104   9.797  15.296  1.00  0.00     0.016 C 
HETATM   12  C19 UNL     1      -1.041  11.590  17.962  1.00  0.00    -0.015 C 
HETATM   13  C20 UNL     1      -2.341  12.333  18.359  1.00  0.00     0.020 C 
HETATM   14  C21 UNL     1      -0.375  11.007  19.243  1.00  0.00     0.021 C 
HETATM   15  C22 UNL     1       0.571  11.945  19.988  1.00  0.00     0.080 C 
HETATM   16  C23 UNL     1       0.362  13.399  19.642  1.00  0.00     0.135 C 
HETATM   17  O1  UNL     1       0.217  14.239  20.531  1.00  0.00    -0.297 OA
HETATM   18  C24 UNL     1       0.436  13.777  18.157  1.00  0.00     0.018 C 
HETATM   19  C25 UNL     1       1.909  14.134  17.864  1.00  0.00     0.023 C 
HETATM   20  C26 UNL     1      -0.402  15.046  17.905  1.00  0.00     0.023 C 
HETATM   21  C27 UNL     1       0.011  12.543  17.288  1.00  0.00     0.016 C 
HETATM   22  C28 UNL     1      -0.430  12.915  15.864  1.00  0.00     0.043 C 
HETATM   23  C29 UNL     1      -0.533  11.671  14.985  1.00  0.00     0.148 C 
ENDROOT
BRANCH   1  24
HETATM   24  C6  UNL     1      -4.671   6.980  14.147  1.00  0.00    -0.014 C 
HETATM   25  C7  UNL     1      -5.744   7.733  13.348  1.00  0.00     0.010 C 
BRANCH  24  26
HETATM   26  C5  UNL     1      -4.529   5.533  13.598  1.00  0.00     0.008 C 
BRANCH  26  27
HETATM   27  C4  UNL     1      -5.747   5.040  12.808  1.00  0.00     0.028 C 
BRANCH  27  28
HETATM   28  C3  UNL     1      -5.676   3.555  12.578  1.00  0.00    -0.022 C 
HETATM   29  C2  UNL     1      -4.997   2.906  11.608  1.00  0.00    -0.064 C 
HETATM   30  C1  UNL     1      -4.113   3.579  10.592  1.00  0.00     0.045 C 
BRANCH  29  31
HETATM   31  C30 UNL     1      -5.058   1.405  11.494  1.00  0.00     0.197 C 
BRANCH  31  32
HETATM   32  O3  UNL     1      -6.419   1.004  11.443  1.00  0.00    -0.397 OA
HETATM   33  H48 UNL     1      -6.418   0.040  11.340  1.00  0.00     0.209 HD
ENDBRANCH  31  32
ENDBRANCH  29  31
ENDBRANCH  27  28
ENDBRANCH  26  27
ENDBRANCH  24  26
ENDBRANCH   1  24
BRANCH  23  34
HETATM   34  O2  UNL     1       0.792  11.307  14.605  1.00  0.00    -0.391 OA
HETATM   35  H45 UNL     1       0.717  10.759  13.807  1.00  0.00     0.210 HD
ENDBRANCH  23  34
TORSDOF 7
ENDMDL
MODEL 6
REMARK minimizedAffinity -8.7020998
REMARK CNNscore 0.513869405
REMARK CNNaffinity 7.15977621
REMARK  7 active torsions:
REMARK  status: ('A' for Active; 'I' for Inactive)
REMARK    1  A    between atoms: C2_2  and  C30_32 
REMARK    2  A    between atoms: C3_3  and  C4_4 
REMARK    3  A    between atoms: C4_4  and  C5_5 
REMARK    4  A    between atoms: C5_5  and  C6_6 
REMARK    5  A    between atoms: C6_6  and  C8_8 
REMARK    6  A    between atoms: C29_30  and  O2_31 
REMARK    7  A    between atoms: C30_32  and  O3_33 
ROOT
HETATM    1  C8  UNL     1      -3.510   6.996  14.543  1.00  0.00    -0.002 C 
HETATM    2  C9  UNL     1      -4.085   5.901  13.611  1.00  0.00     0.007 C 
HETATM    3  C10 UNL     1      -2.927   5.448  12.691  1.00  0.00     0.015 C 
HETATM    4  C11 UNL     1      -1.646   6.038  13.317  1.00  0.00    -0.010 C 
HETATM    5  C12 UNL     1      -1.192   5.057  14.446  1.00  0.00     0.021 C 
HETATM    6  C13 UNL     1      -0.408   6.271  12.448  1.00  0.00    -0.039 C 
HETATM    7  C14 UNL     1       0.484   7.235  12.811  1.00  0.00    -0.066 C 
HETATM    8  C15 UNL     1       0.235   8.143  14.033  1.00  0.00     0.036 C 
HETATM    9  C16 UNL     1      -1.134   8.045  14.740  1.00  0.00     0.015 C 
HETATM   10  C17 UNL     1      -2.195   7.422  13.827  1.00  0.00    -0.029 C 
HETATM   11  C18 UNL     1      -2.499   8.430  12.680  1.00  0.00     0.016 C 
HETATM   12  C19 UNL     1       1.789   7.503  12.009  1.00  0.00    -0.015 C 
HETATM   13  C20 UNL     1       1.588   8.838  11.248  1.00  0.00     0.020 C 
HETATM   14  C21 UNL     1       3.000   7.646  12.978  1.00  0.00     0.021 C 
HETATM   15  C22 UNL     1       4.371   7.336  12.381  1.00  0.00     0.080 C 
HETATM   16  C23 UNL     1       4.390   7.389  10.873  1.00  0.00     0.135 C 
HETATM   17  O1  UNL     1       5.241   8.055  10.282  1.00  0.00    -0.297 OA
HETATM   18  C24 UNL     1       3.372   6.512  10.134  1.00  0.00     0.018 C 
HETATM   19  C25 UNL     1       4.059   5.151   9.888  1.00  0.00     0.023 C 
HETATM   20  C26 UNL     1       3.065   7.126   8.754  1.00  0.00     0.023 C 
HETATM   21  C27 UNL     1       2.110   6.307  11.042  1.00  0.00     0.016 C 
HETATM   22  C28 UNL     1       0.854   5.887  10.265  1.00  0.00     0.043 C 
HETATM   23  C29 UNL     1      -0.240   5.410  11.217  1.00  0.00     0.148 C 
ENDROOT
BRANCH   1  24
HETATM   24  C6  UNL     1      -4.502   8.101  15.016  1.00  0.00    -0.014 C 
HETATM   25  C7  UNL     1      -3.913   9.515  15.113  1.00  0.00     0.010 C 
BRANCH  24  26
HETATM   26  C5  UNL     1      -5.738   8.112  14.074  1.00  0.00     0.008 C 
BRANCH  26  27
HETATM   27  C4  UNL     1      -7.030   7.614  14.730  1.00  0.00     0.028 C 
BRANCH  27  28
HETATM   28  C3  UNL     1      -7.078   6.111  14.757  1.00  0.00    -0.022 C 
HETATM   29  C2  UNL     1      -7.616   5.290  13.831  1.00  0.00    -0.064 C 
HETATM   30  C1  UNL     1      -8.227   5.753  12.535  1.00  0.00     0.045 C 
BRANCH  29  31
HETATM   31  C30 UNL     1      -7.611   3.795  14.026  1.00  0.00     0.197 C 
BRANCH  31  32
HETATM   32  O3  UNL     1      -8.560   3.216  13.144  1.00  0.00    -0.397 OA
HETATM   33  H48 UNL     1      -8.508   2.256  13.275  1.00  0.00     0.209 HD
ENDBRANCH  31  32
ENDBRANCH  29  31
ENDBRANCH  27  28
ENDBRANCH  26  27
ENDBRANCH  24  26
ENDBRANCH   1  24
BRANCH  23  34
HETATM   34  O2  UNL     1       0.094   4.085  11.622  1.00  0.00    -0.391 OA
HETATM   35  H45 UNL     1      -0.725   3.668  11.932  1.00  0.00     0.210 HD
ENDBRANCH  23  34
TORSDOF 7
ENDMDL
MODEL 7
REMARK minimizedAffinity -8.27028656
REMARK CNNscore 0.465592682
REMARK CNNaffinity 7.18651056
REMARK  7 active torsions:
REMARK  status: ('A' for Active; 'I' for Inactive)
REMARK    1  A    between atoms: C2_2  and  C30_32 
REMARK    2  A    between atoms: C3_3  and  C4_4 
REMARK    3  A    between atoms: C4_4  and  C5_5 
REMARK    4  A    between atoms: C5_5  and  C6_6 
REMARK    5  A    between atoms: C6_6  and  C8_8 
REMARK    6  A    between atoms: C29_30  and  O2_31 
REMARK    7  A    between atoms: C30_32  and  O3_33 
ROOT
HETATM    1  C8  UNL     1      -5.112   6.231  14.625  1.00  0.00    -0.002 C 
HETATM    2  C9  UNL     1      -4.783   7.563  15.343  1.00  0.00     0.007 C 
HETATM    3  C10 UNL     1      -6.127   8.295  15.559  1.00  0.00     0.015 C 
HETATM    4  C11 UNL     1      -7.221   7.247  15.270  1.00  0.00    -0.010 C 
HETATM    5  C12 UNL     1      -7.415   6.411  16.577  1.00  0.00     0.021 C 
HETATM    6  C13 UNL     1      -8.623   7.699  14.856  1.00  0.00    -0.039 C 
HETATM    7  C14 UNL     1      -9.396   6.863  14.107  1.00  0.00    -0.066 C 
HETATM    8  C15 UNL     1      -8.859   5.506  13.606  1.00  0.00     0.036 C 
HETATM    9  C16 UNL     1      -7.365   5.190  13.834  1.00  0.00     0.015 C 
HETATM   10  C17 UNL     1      -6.551   6.464  14.079  1.00  0.00    -0.029 C 
HETATM   11  C18 UNL     1      -6.508   7.276  12.751  1.00  0.00     0.016 C 
HETATM   12  C19 UNL     1     -10.847   7.228  13.685  1.00  0.00    -0.015 C 
HETATM   13  C20 UNL     1     -10.810   7.557  12.171  1.00  0.00     0.020 C 
HETATM   14  C21 UNL     1     -11.800   6.018  13.920  1.00  0.00     0.021 C 
HETATM   15  C22 UNL     1     -13.275   6.360  14.115  1.00  0.00     0.080 C 
HETATM   16  C23 UNL     1     -13.641   7.731  13.601  1.00  0.00     0.135 C 
HETATM   17  O1  UNL     1     -14.597   7.878  12.839  1.00  0.00    -0.297 OA
HETATM   18  C24 UNL     1     -12.833   8.915  14.145  1.00  0.00     0.018 C 
HETATM   19  C25 UNL     1     -13.575   9.416  15.403  1.00  0.00     0.023 C 
HETATM   20  C26 UNL     1     -12.845  10.065  13.118  1.00  0.00     0.023 C 
HETATM   21  C27 UNL     1     -11.398   8.424  14.543  1.00  0.00     0.016 C 
HETATM   22  C28 UNL     1     -10.361   9.553  14.626  1.00  0.00     0.043 C 
HETATM   23  C29 UNL     1      -9.082   9.068  15.305  1.00  0.00     0.148 C 
ENDROOT
BRANCH   1  24
HETATM   24  C6  UNL     1      -4.024   5.669  13.660  1.00  0.00    -0.014 C 
HETATM   25  C7  UNL     1      -2.585   5.722  14.190  1.00  0.00     0.010 C 
BRANCH  24  26
HETATM   26  C5  UNL     1      -4.389   4.207  13.281  1.00  0.00     0.008 C 
BRANCH  26  27
HETATM   27  C4  UNL     1      -4.286   3.904  11.782  1.00  0.00     0.028 C 
BRANCH  27  28
HETATM   28  C3  UNL     1      -3.408   2.707  11.533  1.00  0.00    -0.022 C 
HETATM   29  C2  UNL     1      -2.078   2.699  11.302  1.00  0.00    -0.064 C 
HETATM   30  C1  UNL     1      -1.203   3.925  11.317  1.00  0.00     0.045 C 
BRANCH  29  31
HETATM   31  C30 UNL     1      -1.348   1.408  11.035  1.00  0.00     0.197 C 
BRANCH  31  32
HETATM   32  O3  UNL     1       0.030   1.693  10.843  1.00  0.00    -0.397 OA
HETATM   33  H48 UNL     1       0.471   0.840  10.705  1.00  0.00     0.209 HD
ENDBRANCH  31  32
ENDBRANCH  29  31
ENDBRANCH  27  28
ENDBRANCH  26  27
ENDBRANCH  24  26
ENDBRANCH   1  24
BRANCH  23  34
HETATM   34  O2  UNL     1      -9.330   9.035  16.708  1.00  0.00    -0.391 OA
HETATM   35  H45 UNL     1      -8.467   9.063  17.150  1.00  0.00     0.210 HD
ENDBRANCH  23  34
TORSDOF 7
ENDMDL
MODEL 8
REMARK minimizedAffinity -6.02947092
REMARK CNNscore 0.45378688
REMARK CNNaffinity 6.57747412
REMARK  7 active torsions:
REMARK  status: ('A' for Active; 'I' for Inactive)
REMARK    1  A    between atoms: C2_2  and  C30_32 
REMARK    2  A    between atoms: C3_3  and  C4_4 
REMARK    3  A    between atoms: C4_4  and  C5_5 
REMARK    4  A    between atoms: C5_5  and  C6_6 
REMARK    5  A    between atoms: C6_6  and  C8_8 
REMARK    6  A    between atoms: C29_30  and  O2_31 
REMARK    7  A    between atoms: C30_32  and  O3_33 
ROOT
HETATM    1  C8  UNL     1     -13.664   2.345  25.698  1.00  0.00    -0.002 C 
HETATM    2  C9  UNL     1     -14.416   0.992  25.640  1.00  0.00     0.007 C 
HETATM    3  C10 UNL     1     -15.252   0.894  26.937  1.00  0.00     0.015 C 
HETATM    4  C11 UNL     1     -15.230   2.308  27.553  1.00  0.00    -0.010 C 
HETATM    5  C12 UNL     1     -16.348   3.137  26.842  1.00  0.00     0.021 C 
HETATM    6  C13 UNL     1     -15.468   2.493  29.053  1.00  0.00    -0.039 C 
HETATM    7  C14 UNL     1     -14.942   3.583  29.679  1.00  0.00    -0.066 C 
HETATM    8  C15 UNL     1     -14.050   4.591  28.924  1.00  0.00     0.036 C 
HETATM    9  C16 UNL     1     -13.631   4.246  27.478  1.00  0.00     0.015 C 
HETATM   10  C17 UNL     1     -13.759   2.745  27.199  1.00  0.00    -0.029 C 
HETATM   11  C18 UNL     1     -12.675   2.002  28.033  1.00  0.00     0.016 C 
HETATM   12  C19 UNL     1     -15.176   3.868  31.190  1.00  0.00    -0.015 C 
HETATM   13  C20 UNL     1     -13.843   3.566  31.920  1.00  0.00     0.020 C 
HETATM   14  C21 UNL     1     -15.549   5.364  31.407  1.00  0.00     0.021 C 
HETATM   15  C22 UNL     1     -16.349   5.675  32.670  1.00  0.00     0.080 C 
HETATM   16  C23 UNL     1     -16.255   4.591  33.715  1.00  0.00     0.135 C 
HETATM   17  O1  UNL     1     -15.955   4.867  34.877  1.00  0.00    -0.297 OA
HETATM   18  C24 UNL     1     -16.641   3.172  33.280  1.00  0.00     0.018 C 
HETATM   19  C25 UNL     1     -18.153   3.021  33.557  1.00  0.00     0.023 C 
HETATM   20  C26 UNL     1     -15.909   2.143  34.164  1.00  0.00     0.023 C 
HETATM   21  C27 UNL     1     -16.369   3.009  31.745  1.00  0.00     0.016 C 
HETATM   22  C28 UNL     1     -16.239   1.547  31.293  1.00  0.00     0.043 C 
HETATM   23  C29 UNL     1     -16.284   1.442  29.771  1.00  0.00     0.148 C 
ENDROOT
BRANCH   1  24
HETATM   24  C6  UNL     1     -12.276   2.403  24.990  1.00  0.00    -0.014 C 
HETATM   25  C7  UNL     1     -11.485   1.088  24.983  1.00  0.00     0.010 C 
BRANCH  24  26
HETATM   26  C5  UNL     1     -12.471   2.905  23.532  1.00  0.00     0.008 C 
BRANCH  26  27
HETATM   27  C4  UNL     1     -13.884   3.416  23.229  1.00  0.00     0.028 C 
BRANCH  27  28
HETATM   28  C3  UNL     1     -13.839   4.637  22.351  1.00  0.00    -0.022 C 
HETATM   29  C2  UNL     1     -13.743   5.926  22.740  1.00  0.00    -0.064 C 
HETATM   30  C1  UNL     1     -13.595   6.374  24.170  1.00  0.00     0.045 C 
BRANCH  29  31
HETATM   31  C30 UNL     1     -13.744   7.042  21.728  1.00  0.00     0.197 C 
BRANCH  31  32
HETATM   32  O3  UNL     1     -13.700   6.478  20.426  1.00  0.00    -0.397 OA
HETATM   33  H48 UNL     1     -13.733   7.221  19.803  1.00  0.00     0.209 HD
ENDBRANCH  31  32
ENDBRANCH  29  31
ENDBRANCH  27  28
ENDBRANCH  26  27
ENDBRANCH  24  26
ENDBRANCH   1  24
BRANCH  23  34
HETATM   34  O2  UNL     1     -17.648   1.565  29.374  1.00  0.00    -0.391 OA
HETATM   35  H45 UNL     1     -17.723   1.172  28.490  1.00  0.00     0.210 HD
ENDBRANCH  23  34
TORSDOF 7
ENDMDL
MODEL 9
REMARK minimizedAffinity -6.26343679
REMARK CNNscore 0.393923938
REMARK CNNaffinity 6.59727049
REMARK  7 active torsions:
REMARK  status: ('A' for Active; 'I' for Inactive)
REMARK    1  A    between atoms: C2_2  and  C30_32 
REMARK    2  A    between atoms: C3_3  and  C4_4 
REMARK    3  A    between atoms: C4_4  and  C5_5 
REMARK    4  A    between atoms: C5_5  and  C6_6 
REMARK    5  A    between atoms: C6_6  and  C8_8 
REMARK    6  A    between atoms: C29_30  and  O2_31 
REMARK    7  A    between atoms: C30_32  and  O3_33 
ROOT
HETATM    1  C8  UNL     1      -2.074  13.340  17.576  1.00  0.00    -0.002 C 
HETATM    2  C9  UNL     1      -0.556  13.492  17.315  1.00  0.00     0.007 C 
HETATM    3  C10 UNL     1      -0.147  12.331  16.379  1.00  0.00     0.015 C 
HETATM    4  C11 UNL     1      -1.471  11.733  15.859  1.00  0.00    -0.010 C 
HETATM    5  C12 UNL     1      -1.925  12.609  14.646  1.00  0.00     0.021 C 
HETATM    6  C13 UNL     1      -1.514  10.286  15.363  1.00  0.00    -0.039 C 
HETATM    7  C14 UNL     1      -2.691   9.602  15.418  1.00  0.00    -0.066 C 
HETATM    8  C15 UNL     1      -3.958  10.228  16.035  1.00  0.00     0.036 C 
HETATM    9  C16 UNL     1      -3.819  11.594  16.744  1.00  0.00     0.015 C 
HETATM   10  C17 UNL     1      -2.367  11.873  17.146  1.00  0.00    -0.029 C 
HETATM   11  C18 UNL     1      -1.979  10.881  18.281  1.00  0.00     0.016 C 
HETATM   12  C19 UNL     1      -2.830   8.144  14.893  1.00  0.00    -0.015 C 
HETATM   13  C20 UNL     1      -2.943   7.224  16.134  1.00  0.00     0.020 C 
HETATM   14  C21 UNL     1      -4.120   8.000  14.032  1.00  0.00     0.021 C 
HETATM   15  C22 UNL     1      -4.112   6.871  13.004  1.00  0.00     0.080 C 
HETATM   16  C23 UNL     1      -3.077   5.812  13.291  1.00  0.00     0.135 C 
HETATM   17  O1  UNL     1      -3.391   4.621  13.319  1.00  0.00    -0.297 OA
HETATM   18  C24 UNL     1      -1.626   6.284  13.448  1.00  0.00     0.018 C 
HETATM   19  C25 UNL     1      -0.990   6.229  12.041  1.00  0.00     0.023 C 
HETATM   20  C26 UNL     1      -0.853   5.291  14.338  1.00  0.00     0.023 C 
HETATM   21  C27 UNL     1      -1.616   7.761  13.972  1.00  0.00     0.016 C 
HETATM   22  C28 UNL     1      -0.289   8.173  14.627  1.00  0.00     0.043 C 
HETATM   23  C29 UNL     1      -0.232   9.685  14.835  1.00  0.00     0.148 C 
ENDROOT
BRANCH   1  24
HETATM   24  C6  UNL     1      -2.599  13.837  18.957  1.00  0.00    -0.014 C 
HETATM   25  C7  UNL     1      -2.691  15.361  19.116  1.00  0.00     0.010 C 
BRANCH  24  26
HETATM   26  C5  UNL     1      -3.988  13.197  19.232  1.00  0.00     0.008 C 
BRANCH  26  27
HETATM   27  C4  UNL     1      -5.035  14.180  19.768  1.00  0.00     0.028 C 
BRANCH  27  28
HETATM   28  C3  UNL     1      -4.650  14.689  21.130  1.00  0.00    -0.022 C 
HETATM   29  C2  UNL     1      -5.220  14.380  22.314  1.00  0.00    -0.064 C 
HETATM   30  C1  UNL     1      -6.339  13.388  22.487  1.00  0.00     0.045 C 
BRANCH  29  31
HETATM   31  C30 UNL     1      -4.733  15.008  23.594  1.00  0.00     0.197 C 
BRANCH  31  32
HETATM   32  O3  UNL     1      -3.431  15.534  23.380  1.00  0.00    -0.397 OA
HETATM   33  H48 UNL     1      -3.163  15.955  24.212  1.00  0.00     0.209 HD
ENDBRANCH  31  32
ENDBRANCH  29  31
ENDBRANCH  27  28
ENDBRANCH  26  27
ENDBRANCH  24  26
ENDBRANCH   1  24
BRANCH  23  34
HETATM   34  O2  UNL     1       0.072  10.277  13.575  1.00  0.00    -0.391 OA
HETATM   35  H45 UNL     1       0.435  11.158  13.756  1.00  0.00     0.210 HD
ENDBRANCH  23  34
TORSDOF 7
ENDMDL
