MODEL 1
REMARK minimizedAffinity -8.9036541
REMARK CNNscore 0.472849309
REMARK CNNaffinity 7.1187191
REMARK  18 active torsions:
REMARK  status: ('A' for Active; 'I' for Inactive)
REMARK    1  A    between atoms: C19_20  and  O2_21 
REMARK    2  A    between atoms: C19_20  and  C20_22 
REMARK    3  A    between atoms: C20_22  and  C21_24 
REMARK    4  A    between atoms: C21_24  and  O4_25 
REMARK    5  A    between atoms: O4_25  and  C22_26 
REMARK    6  A    between atoms: C22_26  and  C23_28 
REMARK    7  A    between atoms: C23_28  and  C24_29 
REMARK    8  A    between atoms: C24_29  and  C25_30 
REMARK       I    between atoms: C25_30  and  N1_32 
REMARK    9  A    between atoms: N1_32  and  C26_33 
REMARK   10  A    between atoms: C26_33  and  C27_34 
REMARK   11  A    between atoms: C27_34  and  C28_35 
REMARK   12  A    between atoms: C28_35  and  C29_36 
REMARK   13  A    between atoms: C29_36  and  C30_37 
REMARK   14  A    between atoms: C30_37  and  C31_38 
REMARK       I    between atoms: C31_38  and  N2_40 
REMARK   15  A    between atoms: N2_40  and  C32_41 
REMARK   16  A    between atoms: C32_41  and  C33_42 
REMARK   17  A    between atoms: C36_45  and  C37_46 
REMARK   18  A    between atoms: C37_46  and  O9_48 
ROOT
HETATM    1  C22 UNL     1       2.355   7.213   9.552  1.00  0.00     0.259 C 
HETATM    2  O5  UNL     1       1.898   6.238   8.976  1.00  0.00    -0.265 OA
ENDROOT
BRANCH   1   3
HETATM    3  O4  UNL     1       1.612   8.240  10.044  1.00  0.00    -0.314 OA
BRANCH   3   4
HETATM    4  C21 UNL     1       1.430   8.267  11.452  1.00  0.00     0.260 C 
BRANCH   4   5
HETATM    5  C20 UNL     1       1.105   6.956  12.177  1.00  0.00     0.185 C 
HETATM    6  O3  UNL     1       1.859   6.577  13.084  1.00  0.00    -0.292 OA
BRANCH   5   7
HETATM    7  C19 UNL     1      -0.226   6.237  11.855  1.00  0.00     0.128 C 
HETATM    8  C14 UNL     1      -1.373   6.335  12.923  1.00  0.00    -0.002 C 
HETATM    9  C13 UNL     1      -2.199   7.637  12.944  1.00  0.00     0.013 C 
HETATM   10  C15 UNL     1      -0.838   6.058  14.362  1.00  0.00     0.019 C 
HETATM   11  C16 UNL     1      -2.299   5.190  12.406  1.00  0.00     0.002 C 
HETATM   12  C12 UNL     1      -3.499   7.495  13.769  1.00  0.00     0.007 C 
HETATM   13  C11 UNL     1      -4.366   6.317  13.261  1.00  0.00     0.002 C 
HETATM   14  C2  UNL     1      -5.757   6.146  13.958  1.00  0.00    -0.016 C 
HETATM   15  C10 UNL     1      -3.550   4.986  13.271  1.00  0.00    -0.004 C 
HETATM   16  C1  UNL     1      -5.610   5.648  15.415  1.00  0.00     0.020 C 
HETATM   17  C3  UNL     1      -6.542   7.487  13.968  1.00  0.00     0.022 C 
HETATM   18  C7  UNL     1      -6.552   5.123  13.141  1.00  0.00    -0.068 C 
HETATM   19  C4  UNL     1      -8.000   7.337  14.401  1.00  0.00     0.084 C 
HETATM   20  C5  UNL     1      -8.704   6.246  13.633  1.00  0.00     0.149 C 
HETATM   21  O1  UNL     1      -9.926   6.218  13.505  1.00  0.00    -0.293 OA
HETATM   22  C6  UNL     1      -7.891   5.174  13.012  1.00  0.00     0.053 C 
HETATM   23  C8  UNL     1      -5.778   4.107  12.328  1.00  0.00     0.035 C 
HETATM   24  C9  UNL     1      -4.402   3.761  12.889  1.00  0.00     0.010 C 
HETATM   25  C17 UNL     1      -1.326   4.032  12.227  1.00  0.00     0.009 C 
HETATM   26  C18 UNL     1      -0.039   4.701  11.704  1.00  0.00     0.047 C 
BRANCH   7  27
HETATM   27  O2  UNL     1      -0.688   6.740  10.589  1.00  0.00    -0.381 OA
HETATM   28  H27 UNL     1      -0.860   7.692  10.693  1.00  0.00     0.211 HD
ENDBRANCH   7  27
ENDBRANCH   5   7
ENDBRANCH   4   5
ENDBRANCH   3   4
ENDBRANCH   1   3
BRANCH   1  29
HETATM   29  C23 UNL     1       3.827   7.471   9.749  1.00  0.00     0.120 C 
BRANCH  29  30
HETATM   30  C24 UNL     1       4.484   6.397  10.605  1.00  0.00     0.112 C 
BRANCH  30  31
HETATM   31  C25 UNL     1       5.859   6.815  11.081  1.00  0.00     0.217 C 
HETATM   32  O6  UNL     1       6.901   6.364  10.622  1.00  0.00    -0.274 OA
HETATM   33  N1  UNL     1       5.810   7.757  12.086  1.00  0.00    -0.361 N 
HETATM   34  H34 UNL     1       4.912   8.083  12.424  1.00  0.00     0.162 HD
BRANCH  33  35
HETATM   35  C26 UNL     1       7.006   8.253  12.736  1.00  0.00     0.122 C 
BRANCH  35  36
HETATM   36  C27 UNL     1       7.427   7.417  13.946  1.00  0.00     0.020 C 
BRANCH  36  37
HETATM   37  C28 UNL     1       8.414   8.111  14.899  1.00  0.00     0.002 C 
BRANCH  37  38
HETATM   38  C29 UNL     1       9.873   8.087  14.429  1.00  0.00     0.009 C 
BRANCH  38  39
HETATM   39  C30 UNL     1      10.263   9.358  13.672  1.00  0.00     0.103 C 
BRANCH  39  40
HETATM   40  C31 UNL     1      11.402  10.130  14.320  1.00  0.00     0.217 C 
HETATM   41  O7  UNL     1      12.514  10.263  13.816  1.00  0.00    -0.274 OA
HETATM   42  N2  UNL     1      11.043  10.668  15.539  1.00  0.00    -0.357 N 
HETATM   43  H45 UNL     1      10.064  10.670  15.796  1.00  0.00     0.162 HD
BRANCH  42  44
HETATM   44  C32 UNL     1      11.944  11.508  16.294  1.00  0.00     0.161 C 
BRANCH  44  45
HETATM   45  C33 UNL     1      11.378  11.812  17.658  1.00  0.00    -0.040 A 
HETATM   46  C34 UNL     1      10.812  10.794  18.444  1.00  0.00     0.010 A 
HETATM   47  C35 UNL     1      10.275  11.088  19.699  1.00  0.00     0.019 A 
HETATM   48  C36 UNL     1      10.298  12.403  20.185  1.00  0.00     0.037 A 
HETATM   49  C38 UNL     1      10.857  13.424  19.404  1.00  0.00     0.019 A 
HETATM   50  C39 UNL     1      11.386  13.129  18.145  1.00  0.00     0.010 A 
BRANCH  48  51
HETATM   51  C37 UNL     1       9.715  12.665  21.523  1.00  0.00     0.176 C 
HETATM   52  O8  UNL     1       9.192  11.839  22.247  1.00  0.00    -0.646 OA
BRANCH  51  53
HETATM   53  O9  UNL     1       9.814  13.956  21.893  1.00  0.00    -0.773 OA
HETATM   54  H50 UNL     1       9.396  13.981  22.780  1.00  0.00     0.167 HD
ENDBRANCH  51  53
ENDBRANCH  48  51
ENDBRANCH  44  45
ENDBRANCH  42  44
ENDBRANCH  39  40
ENDBRANCH  38  39
ENDBRANCH  37  38
ENDBRANCH  36  37
ENDBRANCH  35  36
ENDBRANCH  33  35
ENDBRANCH  30  31
ENDBRANCH  29  30
ENDBRANCH   1  29
TORSDOF 18
ENDMDL
MODEL 2
REMARK minimizedAffinity -9.92961884
REMARK CNNscore 0.430347919
REMARK CNNaffinity 7.0413003
REMARK  18 active torsions:
REMARK  status: ('A' for Active; 'I' for Inactive)
REMARK    1  A    between atoms: C19_20  and  O2_21 
REMARK    2  A    between atoms: C19_20  and  C20_22 
REMARK    3  A    between atoms: C20_22  and  C21_24 
REMARK    4  A    between atoms: C21_24  and  O4_25 
REMARK    5  A    between atoms: O4_25  and  C22_26 
REMARK    6  A    between atoms: C22_26  and  C23_28 
REMARK    7  A    between atoms: C23_28  and  C24_29 
REMARK    8  A    between atoms: C24_29  and  C25_30 
REMARK       I    between atoms: C25_30  and  N1_32 
REMARK    9  A    between atoms: N1_32  and  C26_33 
REMARK   10  A    between atoms: C26_33  and  C27_34 
REMARK   11  A    between atoms: C27_34  and  C28_35 
REMARK   12  A    between atoms: C28_35  and  C29_36 
REMARK   13  A    between atoms: C29_36  and  C30_37 
REMARK   14  A    between atoms: C30_37  and  C31_38 
REMARK       I    between atoms: C31_38  and  N2_40 
REMARK   15  A    between atoms: N2_40  and  C32_41 
REMARK   16  A    between atoms: C32_41  and  C33_42 
REMARK   17  A    between atoms: C36_45  and  C37_46 
REMARK   18  A    between atoms: C37_46  and  O9_48 
ROOT
HETATM    1  C22 UNL     1       5.565   6.659  11.259  1.00  0.00     0.259 C 
HETATM    2  O5  UNL     1       5.663   5.830  10.368  1.00  0.00    -0.265 OA
ENDROOT
BRANCH   1   3
HETATM    3  O4  UNL     1       4.389   7.124  11.759  1.00  0.00    -0.314 OA
BRANCH   3   4
HETATM    4  C21 UNL     1       3.252   6.990  10.920  1.00  0.00     0.260 C 
BRANCH   4   5
HETATM    5  C20 UNL     1       1.927   7.615  11.370  1.00  0.00     0.185 C 
HETATM    6  O3  UNL     1       1.914   8.810  11.693  1.00  0.00    -0.292 OA
BRANCH   5   7
HETATM    7  C19 UNL     1       0.633   6.775  11.260  1.00  0.00     0.128 C 
HETATM    8  C14 UNL     1      -0.415   6.912  12.423  1.00  0.00    -0.002 C 
HETATM    9  C13 UNL     1      -1.336   8.149  12.389  1.00  0.00     0.013 C 
HETATM   10  C15 UNL     1       0.272   6.837  13.821  1.00  0.00     0.019 C 
HETATM   11  C16 UNL     1      -1.290   5.656  12.124  1.00  0.00     0.002 C 
HETATM   12  C12 UNL     1      -2.538   8.012  13.352  1.00  0.00     0.007 C 
HETATM   13  C11 UNL     1      -3.353   6.727  13.060  1.00  0.00     0.002 C 
HETATM   14  C2  UNL     1      -4.655   6.540  13.908  1.00  0.00    -0.016 C 
HETATM   15  C10 UNL     1      -2.436   5.465  13.128  1.00  0.00    -0.004 C 
HETATM   16  C1  UNL     1      -4.335   6.220  15.387  1.00  0.00     0.020 C 
HETATM   17  C3  UNL     1      -5.540   7.816  13.855  1.00  0.00     0.022 C 
HETATM   18  C7  UNL     1      -5.438   5.380  13.287  1.00  0.00    -0.068 C 
HETATM   19  C4  UNL     1      -6.935   7.616  14.447  1.00  0.00     0.084 C 
HETATM   20  C5  UNL     1      -7.619   6.400  13.872  1.00  0.00     0.149 C 
HETATM   21  O1  UNL     1      -8.840   6.274  13.872  1.00  0.00    -0.293 OA
HETATM   22  C6  UNL     1      -6.783   5.323  13.289  1.00  0.00     0.053 C 
HETATM   23  C8  UNL     1      -4.665   4.335  12.511  1.00  0.00     0.035 C 
HETATM   24  C9  UNL     1      -3.220   4.149  12.964  1.00  0.00     0.010 C 
HETATM   25  C17 UNL     1      -0.250   4.555  11.971  1.00  0.00     0.009 C 
HETATM   26  C18 UNL     1       0.926   5.248  11.254  1.00  0.00     0.047 C 
BRANCH   7  27
HETATM   27  O2  UNL     1       0.017   7.099  10.001  1.00  0.00    -0.381 OA
HETATM   28  H27 UNL     1      -0.220   8.042  10.021  1.00  0.00     0.211 HD
ENDBRANCH   7  27
ENDBRANCH   5   7
ENDBRANCH   4   5
ENDBRANCH   3   4
ENDBRANCH   1   3
BRANCH   1  29
HETATM   29  C23 UNL     1       6.736   7.355  11.903  1.00  0.00     0.120 C 
BRANCH  29  30
HETATM   30  C24 UNL     1       6.680   7.278  13.423  1.00  0.00     0.112 C 
BRANCH  30  31
HETATM   31  C25 UNL     1       7.878   7.941  14.068  1.00  0.00     0.217 C 
HETATM   32  O6  UNL     1       8.489   8.875  13.563  1.00  0.00    -0.274 OA
HETATM   33  N1  UNL     1       8.208   7.377  15.282  1.00  0.00    -0.361 N 
HETATM   34  H34 UNL     1       7.664   6.601  15.638  1.00  0.00     0.162 HD
BRANCH  33  35
HETATM   35  C26 UNL     1       9.361   7.811  16.045  1.00  0.00     0.122 C 
BRANCH  35  36
HETATM   36  C27 UNL     1       9.060   8.983  16.981  1.00  0.00     0.020 C 
BRANCH  36  37
HETATM   37  C28 UNL     1       9.722  10.313  16.585  1.00  0.00     0.002 C 
BRANCH  37  38
HETATM   38  C29 UNL     1       9.060  11.556  17.190  1.00  0.00     0.009 C 
BRANCH  38  39
HETATM   39  C30 UNL     1       8.709  11.370  18.668  1.00  0.00     0.103 C 
BRANCH  39  40
HETATM   40  C31 UNL     1       7.471  12.139  19.103  1.00  0.00     0.217 C 
HETATM   41  O7  UNL     1       6.745  12.762  18.333  1.00  0.00    -0.274 OA
HETATM   42  N2  UNL     1       7.254  12.054  20.462  1.00  0.00    -0.357 N 
HETATM   43  H45 UNL     1       7.785  11.377  20.995  1.00  0.00     0.162 HD
BRANCH  42  44
HETATM   44  C32 UNL     1       6.090  12.642  21.084  1.00  0.00     0.161 C 
BRANCH  44  45
HETATM   45  C33 UNL     1       5.143  11.575  21.573  1.00  0.00    -0.040 A 
HETATM   46  C34 UNL     1       4.231  10.968  20.694  1.00  0.00     0.010 A 
HETATM   47  C35 UNL     1       3.346   9.993  21.158  1.00  0.00     0.019 A 
HETATM   48  C36 UNL     1       3.363   9.612  22.508  1.00  0.00     0.037 A 
HETATM   49  C38 UNL     1       4.267  10.217  23.392  1.00  0.00     0.019 A 
HETATM   50  C39 UNL     1       5.145  11.199  22.926  1.00  0.00     0.010 A 
BRANCH  48  51
HETATM   51  C37 UNL     1       2.403   8.573  22.954  1.00  0.00     0.176 C 
HETATM   52  O8  UNL     1       1.863   7.748  22.240  1.00  0.00    -0.646 OA
BRANCH  51  53
HETATM   53  O9  UNL     1       2.163   8.615  24.278  1.00  0.00    -0.773 OA
HETATM   54  H50 UNL     1       1.525   7.886  24.427  1.00  0.00     0.167 HD
ENDBRANCH  51  53
ENDBRANCH  48  51
ENDBRANCH  44  45
ENDBRANCH  42  44
ENDBRANCH  39  40
ENDBRANCH  38  39
ENDBRANCH  37  38
ENDBRANCH  36  37
ENDBRANCH  35  36
ENDBRANCH  33  35
ENDBRANCH  30  31
ENDBRANCH  29  30
ENDBRANCH   1  29
TORSDOF 18
ENDMDL
MODEL 3
REMARK minimizedAffinity -7.98643494
REMARK CNNscore 0.377214223
REMARK CNNaffinity 6.54540443
REMARK  18 active torsions:
REMARK  status: ('A' for Active; 'I' for Inactive)
REMARK    1  A    between atoms: C19_20  and  O2_21 
REMARK    2  A    between atoms: C19_20  and  C20_22 
REMARK    3  A    between atoms: C20_22  and  C21_24 
REMARK    4  A    between atoms: C21_24  and  O4_25 
REMARK    5  A    between atoms: O4_25  and  C22_26 
REMARK    6  A    between atoms: C22_26  and  C23_28 
REMARK    7  A    between atoms: C23_28  and  C24_29 
REMARK    8  A    between atoms: C24_29  and  C25_30 
REMARK       I    between atoms: C25_30  and  N1_32 
REMARK    9  A    between atoms: N1_32  and  C26_33 
REMARK   10  A    between atoms: C26_33  and  C27_34 
REMARK   11  A    between atoms: C27_34  and  C28_35 
REMARK   12  A    between atoms: C28_35  and  C29_36 
REMARK   13  A    between atoms: C29_36  and  C30_37 
REMARK   14  A    between atoms: C30_37  and  C31_38 
REMARK       I    between atoms: C31_38  and  N2_40 
REMARK   15  A    between atoms: N2_40  and  C32_41 
REMARK   16  A    between atoms: C32_41  and  C33_42 
REMARK   17  A    between atoms: C36_45  and  C37_46 
REMARK   18  A    between atoms: C37_46  and  O9_48 
ROOT
HETATM    1  C22 UNL     1       2.380   7.413  12.881  1.00  0.00     0.259 C 
HETATM    2  O5  UNL     1       1.944   7.631  11.761  1.00  0.00    -0.265 OA
ENDROOT
BRANCH   1   3
HETATM    3  O4  UNL     1       1.777   6.619  13.805  1.00  0.00    -0.314 OA
BRANCH   3   4
HETATM    4  C21 UNL     1       0.474   6.158  13.485  1.00  0.00     0.260 C 
BRANCH   4   5
HETATM    5  C20 UNL     1      -0.729   7.027  13.868  1.00  0.00     0.185 C 
HETATM    6  O3  UNL     1      -0.541   8.018  14.586  1.00  0.00    -0.292 OA
BRANCH   5   7
HETATM    7  C19 UNL     1      -2.103   6.723  13.225  1.00  0.00     0.128 C 
HETATM    8  C14 UNL     1      -3.337   6.597  14.189  1.00  0.00    -0.002 C 
HETATM    9  C13 UNL     1      -3.974   7.912  14.683  1.00  0.00     0.013 C 
HETATM   10  C15 UNL     1      -3.006   5.706  15.425  1.00  0.00     0.019 C 
HETATM   11  C16 UNL     1      -4.347   5.912  13.218  1.00  0.00     0.002 C 
HETATM   12  C12 UNL     1      -5.364   7.688  15.321  1.00  0.00     0.007 C 
HETATM   13  C11 UNL     1      -6.323   6.958  14.349  1.00  0.00     0.002 C 
HETATM   14  C2  UNL     1      -7.792   6.771  14.854  1.00  0.00    -0.016 C 
HETATM   15  C10 UNL     1      -5.702   5.607  13.872  1.00  0.00    -0.004 C 
HETATM   16  C1  UNL     1      -7.877   5.738  16.001  1.00  0.00     0.020 C 
HETATM   17  C3  UNL     1      -8.383   8.119  15.354  1.00  0.00     0.022 C 
HETATM   18  C7  UNL     1      -8.625   6.289  13.662  1.00  0.00    -0.068 C 
HETATM   19  C4  UNL     1      -9.887   8.064  15.623  1.00  0.00     0.084 C 
HETATM   20  C5  UNL     1     -10.644   7.485  14.454  1.00  0.00     0.149 C 
HETATM   21  O1  UNL     1     -11.836   7.715  14.266  1.00  0.00    -0.293 OA
HETATM   22  C6  UNL     1      -9.921   6.611  13.499  1.00  0.00     0.053 C 
HETATM   23  C8  UNL     1      -7.912   5.546  12.552  1.00  0.00     0.035 C 
HETATM   24  C9  UNL     1      -6.667   4.784  12.996  1.00  0.00     0.010 C 
HETATM   25  C17 UNL     1      -3.529   4.763  12.643  1.00  0.00     0.009 C 
HETATM   26  C18 UNL     1      -2.112   5.353  12.489  1.00  0.00     0.047 C 
BRANCH   7  27
HETATM   27  O2  UNL     1      -2.350   7.741  12.240  1.00  0.00    -0.381 OA
HETATM   28  H27 UNL     1      -2.400   8.595  12.702  1.00  0.00     0.211 HD
ENDBRANCH   7  27
ENDBRANCH   5   7
ENDBRANCH   4   5
ENDBRANCH   3   4
ENDBRANCH   1   3
BRANCH   1  29
HETATM   29  C23 UNL     1       3.624   8.048  13.446  1.00  0.00     0.120 C 
BRANCH  29  30
HETATM   30  C24 UNL     1       3.313   8.964  14.623  1.00  0.00     0.112 C 
BRANCH  30  31
HETATM   31  C25 UNL     1       4.529   9.750  15.064  1.00  0.00     0.217 C 
HETATM   32  O6  UNL     1       4.471  10.879  15.535  1.00  0.00    -0.274 OA
HETATM   33  N1  UNL     1       5.707   9.058  14.877  1.00  0.00    -0.361 N 
HETATM   34  H34 UNL     1       5.683   8.128  14.476  1.00  0.00     0.162 HD
BRANCH  33  35
HETATM   35  C26 UNL     1       6.999   9.644  15.169  1.00  0.00     0.122 C 
BRANCH  35  36
HETATM   36  C27 UNL     1       7.644   9.081  16.438  1.00  0.00     0.020 C 
BRANCH  36  37
HETATM   37  C28 UNL     1       9.177   8.973  16.390  1.00  0.00     0.002 C 
BRANCH  37  38
HETATM   38  C29 UNL     1       9.719   8.141  15.223  1.00  0.00     0.009 C 
BRANCH  38  39
HETATM   39  C30 UNL     1      10.488   8.990  14.208  1.00  0.00     0.103 C 
BRANCH  39  40
HETATM   40  C31 UNL     1      10.724  10.422  14.664  1.00  0.00     0.217 C 
HETATM   41  O7  UNL     1       9.962  11.354  14.419  1.00  0.00    -0.274 OA
HETATM   42  N2  UNL     1      11.891  10.554  15.387  1.00  0.00    -0.357 N 
HETATM   43  H45 UNL     1      12.363   9.716  15.701  1.00  0.00     0.162 HD
BRANCH  42  44
HETATM   44  C32 UNL     1      12.274  11.811  15.988  1.00  0.00     0.161 C 
BRANCH  44  45
HETATM   45  C33 UNL     1      11.650  11.969  17.351  1.00  0.00    -0.040 A 
HETATM   46  C34 UNL     1      10.636  12.916  17.571  1.00  0.00     0.010 A 
HETATM   47  C35 UNL     1      10.075  13.068  18.840  1.00  0.00     0.019 A 
HETATM   48  C36 UNL     1      10.521  12.274  19.907  1.00  0.00     0.037 A 
HETATM   49  C38 UNL     1      11.536  11.331  19.696  1.00  0.00     0.019 A 
HETATM   50  C39 UNL     1      12.101  11.187  18.427  1.00  0.00     0.010 A 
BRANCH  48  51
HETATM   51  C37 UNL     1       9.896  12.473  21.237  1.00  0.00     0.176 C 
HETATM   52  O8  UNL     1       9.321  11.620  21.889  1.00  0.00    -0.646 OA
BRANCH  51  53
HETATM   53  O9  UNL     1      10.020  13.734  21.691  1.00  0.00    -0.773 OA
HETATM   54  H50 UNL     1       9.570  13.718  22.562  1.00  0.00     0.167 HD
ENDBRANCH  51  53
ENDBRANCH  48  51
ENDBRANCH  44  45
ENDBRANCH  42  44
ENDBRANCH  39  40
ENDBRANCH  38  39
ENDBRANCH  37  38
ENDBRANCH  36  37
ENDBRANCH  35  36
ENDBRANCH  33  35
ENDBRANCH  30  31
ENDBRANCH  29  30
ENDBRANCH   1  29
TORSDOF 18
ENDMDL
MODEL 4
REMARK minimizedAffinity -8.33097267
REMARK CNNscore 0.353983223
REMARK CNNaffinity 6.54968023
REMARK  18 active torsions:
REMARK  status: ('A' for Active; 'I' for Inactive)
REMARK    1  A    between atoms: C19_20  and  O2_21 
REMARK    2  A    between atoms: C19_20  and  C20_22 
REMARK    3  A    between atoms: C20_22  and  C21_24 
REMARK    4  A    between atoms: C21_24  and  O4_25 
REMARK    5  A    between atoms: O4_25  and  C22_26 
REMARK    6  A    between atoms: C22_26  and  C23_28 
REMARK    7  A    between atoms: C23_28  and  C24_29 
REMARK    8  A    between atoms: C24_29  and  C25_30 
REMARK       I    between atoms: C25_30  and  N1_32 
REMARK    9  A    between atoms: N1_32  and  C26_33 
REMARK   10  A    between atoms: C26_33  and  C27_34 
REMARK   11  A    between atoms: C27_34  and  C28_35 
REMARK   12  A    between atoms: C28_35  and  C29_36 
REMARK   13  A    between atoms: C29_36  and  C30_37 
REMARK   14  A    between atoms: C30_37  and  C31_38 
REMARK       I    between atoms: C31_38  and  N2_40 
REMARK   15  A    between atoms: N2_40  and  C32_41 
REMARK   16  A    between atoms: C32_41  and  C33_42 
REMARK   17  A    between atoms: C36_45  and  C37_46 
REMARK   18  A    between atoms: C37_46  and  O9_48 
ROOT
HETATM    1  C22 UNL     1       4.865   7.980  10.252  1.00  0.00     0.259 C 
HETATM    2  O5  UNL     1       4.666   9.172  10.072  1.00  0.00    -0.265 OA
ENDROOT
BRANCH   1   3
HETATM    3  O4  UNL     1       6.027   7.452  10.722  1.00  0.00    -0.314 OA
BRANCH   3   4
HETATM    4  C21 UNL     1       6.011   6.990  12.064  1.00  0.00     0.260 C 
BRANCH   4   5
HETATM    5  C20 UNL     1       5.810   8.009  13.191  1.00  0.00     0.185 C 
HETATM    6  O3  UNL     1       4.707   8.560  13.305  1.00  0.00    -0.292 OA
BRANCH   5   7
HETATM    7  C19 UNL     1       6.939   8.198  14.232  1.00  0.00     0.128 C 
HETATM    8  C14 UNL     1       7.040   9.599  14.937  1.00  0.00    -0.002 C 
HETATM    9  C13 UNL     1       6.062   9.868  16.099  1.00  0.00     0.013 C 
HETATM   10  C15 UNL     1       6.926  10.765  13.907  1.00  0.00     0.019 C 
HETATM   11  C16 UNL     1       8.474   9.477  15.537  1.00  0.00     0.002 C 
HETATM   12  C12 UNL     1       6.470  11.102  16.936  1.00  0.00     0.007 C 
HETATM   13  C11 UNL     1       7.917  10.970  17.471  1.00  0.00     0.002 C 
HETATM   14  C2  UNL     1       8.399  12.117  18.420  1.00  0.00    -0.016 C 
HETATM   15  C10 UNL     1       8.920  10.734  16.297  1.00  0.00    -0.004 C 
HETATM   16  C1  UNL     1       8.609  13.444  17.655  1.00  0.00     0.020 C 
HETATM   17  C3  UNL     1       7.375  12.359  19.563  1.00  0.00     0.022 C 
HETATM   18  C7  UNL     1       9.724  11.665  19.043  1.00  0.00    -0.068 C 
HETATM   19  C4  UNL     1       7.896  13.283  20.664  1.00  0.00     0.084 C 
HETATM   20  C5  UNL     1       9.249  12.847  21.168  1.00  0.00     0.149 C 
HETATM   21  O1  UNL     1       9.666  13.158  22.280  1.00  0.00    -0.293 OA
HETATM   22  C6  UNL     1      10.103  12.014  20.286  1.00  0.00     0.053 C 
HETATM   23  C8  UNL     1      10.564  10.664  18.277  1.00  0.00     0.035 C 
HETATM   24  C9  UNL     1      10.389  10.716  16.763  1.00  0.00     0.010 C 
HETATM   25  C17 UNL     1       9.295   9.005  14.344  1.00  0.00     0.009 C 
HETATM   26  C18 UNL     1       8.351   8.041  13.598  1.00  0.00     0.047 C 
BRANCH   7  27
HETATM   27  O2  UNL     1       6.792   7.161  15.217  1.00  0.00    -0.381 OA
HETATM   28  H27 UNL     1       5.934   7.288  15.656  1.00  0.00     0.211 HD
ENDBRANCH   7  27
ENDBRANCH   5   7
ENDBRANCH   4   5
ENDBRANCH   3   4
ENDBRANCH   1   3
BRANCH   1  29
HETATM   29  C23 UNL     1       3.876   6.894   9.917  1.00  0.00     0.120 C 
BRANCH  29  30
HETATM   30  C24 UNL     1       2.742   6.822  10.931  1.00  0.00     0.112 C 
BRANCH  30  31
HETATM   31  C25 UNL     1       2.047   5.478  10.907  1.00  0.00     0.217 C 
HETATM   32  O6  UNL     1       2.453   4.517  10.266  1.00  0.00    -0.274 OA
HETATM   33  N1  UNL     1       0.908   5.454  11.684  1.00  0.00    -0.361 N 
HETATM   34  H34 UNL     1       0.626   6.288  12.184  1.00  0.00     0.162 HD
BRANCH  33  35
HETATM   35  C26 UNL     1       0.050   4.289  11.757  1.00  0.00     0.122 C 
BRANCH  35  36
HETATM   36  C27 UNL     1      -1.427   4.612  11.525  1.00  0.00     0.020 C 
BRANCH  36  37
HETATM   37  C28 UNL     1      -2.177   3.604  10.640  1.00  0.00     0.002 C 
BRANCH  37  38
HETATM   38  C29 UNL     1      -3.284   2.825  11.360  1.00  0.00     0.009 C 
BRANCH  38  39
HETATM   39  C30 UNL     1      -4.660   3.046  10.726  1.00  0.00     0.103 C 
BRANCH  39  40
HETATM   40  C31 UNL     1      -5.815   2.577  11.596  1.00  0.00     0.217 C 
HETATM   41  O7  UNL     1      -6.288   1.444  11.555  1.00  0.00    -0.274 OA
HETATM   42  N2  UNL     1      -6.270   3.568  12.441  1.00  0.00    -0.357 N 
HETATM   43  H45 UNL     1      -5.714   4.407  12.546  1.00  0.00     0.162 HD
BRANCH  42  44
HETATM   44  C32 UNL     1      -7.310   3.320  13.413  1.00  0.00     0.161 C 
BRANCH  44  45
HETATM   45  C33 UNL     1      -7.809   4.612  14.008  1.00  0.00    -0.040 A 
HETATM   46  C34 UNL     1      -7.512   4.952  15.338  1.00  0.00     0.010 A 
HETATM   47  C35 UNL     1      -7.994   6.142  15.887  1.00  0.00     0.019 A 
HETATM   48  C36 UNL     1      -8.778   7.008  15.112  1.00  0.00     0.037 A 
HETATM   49  C38 UNL     1      -9.083   6.673  13.785  1.00  0.00     0.019 A 
HETATM   50  C39 UNL     1      -8.607   5.478  13.241  1.00  0.00     0.010 A 
BRANCH  48  51
HETATM   51  C37 UNL     1      -9.267   8.260  15.739  1.00  0.00     0.176 C 
HETATM   52  O8  UNL     1      -9.306   9.355  15.209  1.00  0.00    -0.646 OA
BRANCH  51  53
HETATM   53  O9  UNL     1      -9.686   8.082  17.006  1.00  0.00    -0.773 OA
HETATM   54  H50 UNL     1      -9.976   8.975  17.288  1.00  0.00     0.167 HD
ENDBRANCH  51  53
ENDBRANCH  48  51
ENDBRANCH  44  45
ENDBRANCH  42  44
ENDBRANCH  39  40
ENDBRANCH  38  39
ENDBRANCH  37  38
ENDBRANCH  36  37
ENDBRANCH  35  36
ENDBRANCH  33  35
ENDBRANCH  30  31
ENDBRANCH  29  30
ENDBRANCH   1  29
TORSDOF 18
ENDMDL
MODEL 5
REMARK minimizedAffinity -8.87815475
REMARK CNNscore 0.346108705
REMARK CNNaffinity 7.66076279
REMARK  18 active torsions:
REMARK  status: ('A' for Active; 'I' for Inactive)
REMARK    1  A    between atoms: C19_20  and  O2_21 
REMARK    2  A    between atoms: C19_20  and  C20_22 
REMARK    3  A    between atoms: C20_22  and  C21_24 
REMARK    4  A    between atoms: C21_24  and  O4_25 
REMARK    5  A    between atoms: O4_25  and  C22_26 
REMARK    6  A    between atoms: C22_26  and  C23_28 
REMARK    7  A    between atoms: C23_28  and  C24_29 
REMARK    8  A    between atoms: C24_29  and  C25_30 
REMARK       I    between atoms: C25_30  and  N1_32 
REMARK    9  A    between atoms: N1_32  and  C26_33 
REMARK   10  A    between atoms: C26_33  and  C27_34 
REMARK   11  A    between atoms: C27_34  and  C28_35 
REMARK   12  A    between atoms: C28_35  and  C29_36 
REMARK   13  A    between atoms: C29_36  and  C30_37 
REMARK   14  A    between atoms: C30_37  and  C31_38 
REMARK       I    between atoms: C31_38  and  N2_40 
REMARK   15  A    between atoms: N2_40  and  C32_41 
REMARK   16  A    between atoms: C32_41  and  C33_42 
REMARK   17  A    between atoms: C36_45  and  C37_46 
REMARK   18  A    between atoms: C37_46  and  O9_48 
ROOT
HETATM    1  C22 UNL     1      -7.332   6.419  15.365  1.00  0.00     0.259 C 
HETATM    2  O5  UNL     1      -7.488   6.300  16.570  1.00  0.00    -0.265 OA
ENDROOT
BRANCH   1   3
HETATM    3  O4  UNL     1      -6.196   6.874  14.773  1.00  0.00    -0.314 OA
BRANCH   3   4
HETATM    4  C21 UNL     1      -4.980   6.601  15.453  1.00  0.00     0.260 C 
BRANCH   4   5
HETATM    5  C20 UNL     1      -3.659   7.020  14.796  1.00  0.00     0.185 C 
HETATM    6  O3  UNL     1      -3.518   6.841  13.579  1.00  0.00    -0.292 OA
BRANCH   5   7
HETATM    7  C19 UNL     1      -2.617   7.786  15.645  1.00  0.00     0.128 C 
HETATM    8  C14 UNL     1      -2.791   9.343  15.766  1.00  0.00    -0.002 C 
HETATM    9  C13 UNL     1      -3.838   9.852  16.778  1.00  0.00     0.013 C 
HETATM   10  C15 UNL     1      -3.077   9.994  14.378  1.00  0.00     0.019 C 
HETATM   11  C16 UNL     1      -1.378   9.713  16.314  1.00  0.00     0.002 C 
HETATM   12  C12 UNL     1      -3.684  11.362  17.072  1.00  0.00     0.007 C 
HETATM   13  C11 UNL     1      -2.255  11.700  17.562  1.00  0.00     0.002 C 
HETATM   14  C2  UNL     1      -2.016  13.187  17.990  1.00  0.00    -0.016 C 
HETATM   15  C10 UNL     1      -1.189  11.221  16.527  1.00  0.00    -0.004 C 
HETATM   16  C1  UNL     1      -2.022  14.141  16.774  1.00  0.00     0.020 C 
HETATM   17  C3  UNL     1      -3.105  13.656  18.996  1.00  0.00     0.022 C 
HETATM   18  C7  UNL     1      -0.654  13.246  18.687  1.00  0.00    -0.068 C 
HETATM   19  C4  UNL     1      -2.793  15.003  19.647  1.00  0.00     0.084 C 
HETATM   20  C5  UNL     1      -1.400  15.038  20.226  1.00  0.00     0.149 C 
HETATM   21  O1  UNL     1      -1.082  15.814  21.123  1.00  0.00    -0.293 OA
HETATM   22  C6  UNL     1      -0.384  14.099  19.692  1.00  0.00     0.053 C 
HETATM   23  C8  UNL     1       0.376  12.196  18.324  1.00  0.00     0.035 C 
HETATM   24  C9  UNL     1       0.244  11.640  16.909  1.00  0.00     0.010 C 
HETATM   25  C17 UNL     1      -0.448   8.979  15.357  1.00  0.00     0.009 C 
HETATM   26  C18 UNL     1      -1.180   7.654  15.065  1.00  0.00     0.047 C 
BRANCH   7  27
HETATM   27  O2  UNL     1      -2.608   7.189  16.954  1.00  0.00    -0.381 OA
HETATM   28  H27 UNL     1      -3.489   7.317  17.345  1.00  0.00     0.211 HD
ENDBRANCH   7  27
ENDBRANCH   5   7
ENDBRANCH   4   5
ENDBRANCH   3   4
ENDBRANCH   1   3
BRANCH   1  29
HETATM   29  C23 UNL     1      -8.402   6.147  14.339  1.00  0.00     0.120 C 
BRANCH  29  30
HETATM   30  C24 UNL     1      -7.812   5.797  12.979  1.00  0.00     0.112 C 
BRANCH  30  31
HETATM   31  C25 UNL     1      -7.709   4.301  12.776  1.00  0.00     0.217 C 
HETATM   32  O6  UNL     1      -8.587   3.511  13.100  1.00  0.00    -0.274 OA
HETATM   33  N1  UNL     1      -6.519   3.924  12.190  1.00  0.00    -0.361 N 
HETATM   34  H34 UNL     1      -5.832   4.630  11.953  1.00  0.00     0.162 HD
BRANCH  33  35
HETATM   35  C26 UNL     1      -6.179   2.534  11.961  1.00  0.00     0.122 C 
BRANCH  35  36
HETATM   36  C27 UNL     1      -4.934   2.352  11.091  1.00  0.00     0.020 C 
BRANCH  36  37
HETATM   37  C28 UNL     1      -3.903   1.353  11.639  1.00  0.00     0.002 C 
BRANCH  37  38
HETATM   38  C29 UNL     1      -2.443   1.779  11.450  1.00  0.00     0.009 C 
BRANCH  38  39
HETATM   39  C30 UNL     1      -2.206   3.241  11.834  1.00  0.00     0.103 C 
BRANCH  39  40
HETATM   40  C31 UNL     1      -0.738   3.637  11.861  1.00  0.00     0.217 C 
HETATM   41  O7  UNL     1       0.163   2.959  11.374  1.00  0.00    -0.274 OA
HETATM   42  N2  UNL     1      -0.534   4.846  12.492  1.00  0.00    -0.357 N 
HETATM   43  H45 UNL     1      -1.338   5.424  12.700  1.00  0.00     0.162 HD
BRANCH  42  44
HETATM   44  C32 UNL     1       0.775   5.454  12.563  1.00  0.00     0.161 C 
BRANCH  44  45
HETATM   45  C33 UNL     1       1.164   6.049  11.234  1.00  0.00    -0.040 A 
HETATM   46  C34 UNL     1       0.407   7.085  10.662  1.00  0.00     0.010 A 
HETATM   47  C35 UNL     1       0.764   7.619   9.422  1.00  0.00     0.019 A 
HETATM   48  C36 UNL     1       1.884   7.124   8.739  1.00  0.00     0.037 A 
HETATM   49  C38 UNL     1       2.642   6.087   9.301  1.00  0.00     0.019 A 
HETATM   50  C39 UNL     1       2.277   5.549  10.538  1.00  0.00     0.010 A 
BRANCH  48  51
HETATM   51  C37 UNL     1       2.223   7.722   7.425  1.00  0.00     0.176 C 
HETATM   52  O8  UNL     1       1.887   7.290   6.337  1.00  0.00    -0.646 OA
BRANCH  51  53
HETATM   53  O9  UNL     1       2.969   8.837   7.533  1.00  0.00    -0.773 OA
HETATM   54  H50 UNL     1       3.113   9.118   6.605  1.00  0.00     0.167 HD
ENDBRANCH  51  53
ENDBRANCH  48  51
ENDBRANCH  44  45
ENDBRANCH  42  44
ENDBRANCH  39  40
ENDBRANCH  38  39
ENDBRANCH  37  38
ENDBRANCH  36  37
ENDBRANCH  35  36
ENDBRANCH  33  35
ENDBRANCH  30  31
ENDBRANCH  29  30
ENDBRANCH   1  29
TORSDOF 18
ENDMDL
MODEL 6
REMARK minimizedAffinity -8.68876743
REMARK CNNscore 0.332415432
REMARK CNNaffinity 7.07735205
REMARK  18 active torsions:
REMARK  status: ('A' for Active; 'I' for Inactive)
REMARK    1  A    between atoms: C19_20  and  O2_21 
REMARK    2  A    between atoms: C19_20  and  C20_22 
REMARK    3  A    between atoms: C20_22  and  C21_24 
REMARK    4  A    between atoms: C21_24  and  O4_25 
REMARK    5  A    between atoms: O4_25  and  C22_26 
REMARK    6  A    between atoms: C22_26  and  C23_28 
REMARK    7  A    between atoms: C23_28  and  C24_29 
REMARK    8  A    between atoms: C24_29  and  C25_30 
REMARK       I    between atoms: C25_30  and  N1_32 
REMARK    9  A    between atoms: N1_32  and  C26_33 
REMARK   10  A    between atoms: C26_33  and  C27_34 
REMARK   11  A    between atoms: C27_34  and  C28_35 
REMARK   12  A    between atoms: C28_35  and  C29_36 
REMARK   13  A    between atoms: C29_36  and  C30_37 
REMARK   14  A    between atoms: C30_37  and  C31_38 
REMARK       I    between atoms: C31_38  and  N2_40 
REMARK   15  A    between atoms: N2_40  and  C32_41 
REMARK   16  A    between atoms: C32_41  and  C33_42 
REMARK   17  A    between atoms: C36_45  and  C37_46 
REMARK   18  A    between atoms: C37_46  and  O9_48 
ROOT
HETATM    1  C22 UNL     1      -3.298   3.622  12.445  1.00  0.00     0.259 C 
HETATM    2  O5  UNL     1      -2.395   2.863  12.127  1.00  0.00    -0.265 OA
ENDROOT
BRANCH   1   3
HETATM    3  O4  UNL     1      -3.386   4.262  13.641  1.00  0.00    -0.314 OA
BRANCH   3   4
HETATM    4  C21 UNL     1      -2.309   5.126  13.973  1.00  0.00     0.260 C 
BRANCH   4   5
HETATM    5  C20 UNL     1      -1.797   6.105  12.910  1.00  0.00     0.185 C 
HETATM    6  O3  UNL     1      -2.466   7.117  12.663  1.00  0.00    -0.292 OA
BRANCH   5   7
HETATM    7  C19 UNL     1      -0.395   5.871  12.298  1.00  0.00     0.128 C 
HETATM    8  C14 UNL     1       0.707   6.952  12.592  1.00  0.00    -0.002 C 
HETATM    9  C13 UNL     1       1.407   6.880  13.965  1.00  0.00     0.013 C 
HETATM   10  C15 UNL     1       0.159   8.397  12.384  1.00  0.00     0.019 C 
HETATM   11  C16 UNL     1       1.750   6.551  11.503  1.00  0.00     0.002 C 
HETATM   12  C12 UNL     1       2.689   7.741  14.016  1.00  0.00     0.007 C 
HETATM   13  C11 UNL     1       3.677   7.352  12.889  1.00  0.00     0.002 C 
HETATM   14  C2  UNL     1       5.058   8.090  12.909  1.00  0.00    -0.016 C 
HETATM   15  C10 UNL     1       2.989   7.457  11.491  1.00  0.00    -0.004 C 
HETATM   16  C1  UNL     1       4.917   9.580  12.520  1.00  0.00     0.020 C 
HETATM   17  C3  UNL     1       5.713   8.003  14.315  1.00  0.00     0.022 C 
HETATM   18  C7  UNL     1       5.968   7.378  11.904  1.00  0.00    -0.068 C 
HETATM   19  C4  UNL     1       7.166   8.478  14.342  1.00  0.00     0.084 C 
HETATM   20  C5  UNL     1       7.991   7.819  13.265  1.00  0.00     0.149 C 
HETATM   21  O1  UNL     1       9.213   7.719  13.343  1.00  0.00    -0.293 OA
HETATM   22  C6  UNL     1       7.299   7.273  12.072  1.00  0.00     0.053 C 
HETATM   23  C8  UNL     1       5.316   6.637  10.756  1.00  0.00     0.035 C 
HETATM   24  C9  UNL     1       3.963   7.196  10.326  1.00  0.00     0.010 C 
HETATM   25  C17 UNL     1       0.896   6.450  10.246  1.00  0.00     0.009 C 
HETATM   26  C18 UNL     1      -0.433   5.847  10.744  1.00  0.00     0.047 C 
BRANCH   7  27
HETATM   27  O2  UNL     1       0.054   4.578  12.738  1.00  0.00    -0.381 OA
HETATM   28  H27 UNL     1       0.133   4.605  13.707  1.00  0.00     0.211 HD
ENDBRANCH   7  27
ENDBRANCH   5   7
ENDBRANCH   4   5
ENDBRANCH   3   4
ENDBRANCH   1   3
BRANCH   1  29
HETATM   29  C23 UNL     1      -4.501   3.917  11.587  1.00  0.00     0.120 C 
BRANCH  29  30
HETATM   30  C24 UNL     1      -5.754   3.222  12.103  1.00  0.00     0.112 C 
BRANCH  30  31
HETATM   31  C25 UNL     1      -6.712   4.195  12.756  1.00  0.00     0.217 C 
HETATM   32  O6  UNL     1      -7.929   4.133  12.633  1.00  0.00    -0.274 OA
HETATM   33  N1  UNL     1      -6.066   5.158  13.500  1.00  0.00    -0.361 N 
HETATM   34  H34 UNL     1      -5.054   5.155  13.554  1.00  0.00     0.162 HD
BRANCH  33  35
HETATM   35  C26 UNL     1      -6.782   6.231  14.160  1.00  0.00     0.122 C 
BRANCH  35  36
HETATM   36  C27 UNL     1      -6.859   6.061  15.679  1.00  0.00     0.020 C 
BRANCH  36  37
HETATM   37  C28 UNL     1      -7.426   7.272  16.436  1.00  0.00     0.002 C 
BRANCH  37  38
HETATM   38  C29 UNL     1      -8.958   7.345  16.461  1.00  0.00     0.009 C 
BRANCH  38  39
HETATM   39  C30 UNL     1      -9.523   8.130  15.275  1.00  0.00     0.103 C 
BRANCH  39  40
HETATM   40  C31 UNL     1     -10.436   7.308  14.378  1.00  0.00     0.217 C 
HETATM   41  O7  UNL     1     -10.078   6.794  13.321  1.00  0.00    -0.274 OA
HETATM   42  N2  UNL     1     -11.713   7.203  14.889  1.00  0.00    -0.357 N 
HETATM   43  H45 UNL     1     -11.877   7.494  15.844  1.00  0.00     0.162 HD
BRANCH  42  44
HETATM   44  C32 UNL     1     -12.726   6.400  14.243  1.00  0.00     0.161 C 
BRANCH  44  45
HETATM   45  C33 UNL     1     -13.699   7.269  13.487  1.00  0.00    -0.040 A 
HETATM   46  C34 UNL     1     -13.503   8.658  13.399  1.00  0.00     0.010 A 
HETATM   47  C35 UNL     1     -14.419   9.458  12.712  1.00  0.00     0.019 A 
HETATM   48  C36 UNL     1     -15.542   8.879  12.103  1.00  0.00     0.037 A 
HETATM   49  C38 UNL     1     -15.747   7.495  12.191  1.00  0.00     0.019 A 
HETATM   50  C39 UNL     1     -14.833   6.698  12.886  1.00  0.00     0.010 A 
BRANCH  48  51
HETATM   51  C37 UNL     1     -16.486   9.769  11.386  1.00  0.00     0.176 C 
HETATM   52  O8  UNL     1     -16.814  10.889  11.734  1.00  0.00    -0.646 OA
BRANCH  51  53
HETATM   53  O9  UNL     1     -16.979   9.215  10.263  1.00  0.00    -0.773 OA
HETATM   54  H50 UNL     1     -17.576   9.903   9.900  1.00  0.00     0.167 HD
ENDBRANCH  51  53
ENDBRANCH  48  51
ENDBRANCH  44  45
ENDBRANCH  42  44
ENDBRANCH  39  40
ENDBRANCH  38  39
ENDBRANCH  37  38
ENDBRANCH  36  37
ENDBRANCH  35  36
ENDBRANCH  33  35
ENDBRANCH  30  31
ENDBRANCH  29  30
ENDBRANCH   1  29
TORSDOF 18
ENDMDL
MODEL 7
REMARK minimizedAffinity -8.73501873
REMARK CNNscore 0.292827815
REMARK CNNaffinity 6.81691885
REMARK  18 active torsions:
REMARK  status: ('A' for Active; 'I' for Inactive)
REMARK    1  A    between atoms: C19_20  and  O2_21 
REMARK    2  A    between atoms: C19_20  and  C20_22 
REMARK    3  A    between atoms: C20_22  and  C21_24 
REMARK    4  A    between atoms: C21_24  and  O4_25 
REMARK    5  A    between atoms: O4_25  and  C22_26 
REMARK    6  A    between atoms: C22_26  and  C23_28 
REMARK    7  A    between atoms: C23_28  and  C24_29 
REMARK    8  A    between atoms: C24_29  and  C25_30 
REMARK       I    between atoms: C25_30  and  N1_32 
REMARK    9  A    between atoms: N1_32  and  C26_33 
REMARK   10  A    between atoms: C26_33  and  C27_34 
REMARK   11  A    between atoms: C27_34  and  C28_35 
REMARK   12  A    between atoms: C28_35  and  C29_36 
REMARK   13  A    between atoms: C29_36  and  C30_37 
REMARK   14  A    between atoms: C30_37  and  C31_38 
REMARK       I    between atoms: C31_38  and  N2_40 
REMARK   15  A    between atoms: N2_40  and  C32_41 
REMARK   16  A    between atoms: C32_41  and  C33_42 
REMARK   17  A    between atoms: C36_45  and  C37_46 
REMARK   18  A    between atoms: C37_46  and  O9_48 
ROOT
HETATM    1  C22 UNL     1       0.542  12.614  17.528  1.00  0.00     0.259 C 
HETATM    2  O5  UNL     1       0.873  13.591  18.182  1.00  0.00    -0.265 OA
ENDROOT
BRANCH   1   3
HETATM    3  O4  UNL     1       0.379  12.605  16.179  1.00  0.00    -0.314 OA
BRANCH   3   4
HETATM    4  C21 UNL     1       0.158  11.337  15.580  1.00  0.00     0.260 C 
BRANCH   4   5
HETATM    5  C20 UNL     1      -0.999  11.183  14.586  1.00  0.00     0.185 C 
HETATM    6  O3  UNL     1      -1.550  12.204  14.153  1.00  0.00    -0.292 OA
BRANCH   5   7
HETATM    7  C19 UNL     1      -1.335   9.773  14.048  1.00  0.00     0.128 C 
HETATM    8  C14 UNL     1      -2.607   9.062  14.637  1.00  0.00    -0.002 C 
HETATM    9  C13 UNL     1      -3.975   9.494  14.069  1.00  0.00     0.013 C 
HETATM   10  C15 UNL     1      -2.653   9.174  16.192  1.00  0.00     0.019 C 
HETATM   11  C16 UNL     1      -2.328   7.605  14.156  1.00  0.00     0.002 C 
HETATM   12  C12 UNL     1      -5.105   8.509  14.447  1.00  0.00     0.007 C 
HETATM   13  C11 UNL     1      -4.769   7.065  14.001  1.00  0.00     0.002 C 
HETATM   14  C2  UNL     1      -5.892   6.001  14.240  1.00  0.00    -0.016 C 
HETATM   15  C10 UNL     1      -3.404   6.605  14.602  1.00  0.00    -0.004 C 
HETATM   16  C1  UNL     1      -6.075   5.689  15.744  1.00  0.00     0.020 C 
HETATM   17  C3  UNL     1      -7.251   6.488  13.665  1.00  0.00     0.022 C 
HETATM   18  C7  UNL     1      -5.478   4.728  13.496  1.00  0.00    -0.068 C 
HETATM   19  C4  UNL     1      -8.327   5.403  13.636  1.00  0.00     0.084 C 
HETATM   20  C5  UNL     1      -7.829   4.137  12.982  1.00  0.00     0.149 C 
HETATM   21  O1  UNL     1      -8.591   3.313  12.485  1.00  0.00    -0.293 OA
HETATM   22  C6  UNL     1      -6.368   3.885  12.941  1.00  0.00     0.053 C 
HETATM   23  C8  UNL     1      -4.002   4.496  13.252  1.00  0.00     0.035 C 
HETATM   24  C9  UNL     1      -3.080   5.131  14.288  1.00  0.00     0.010 C 
HETATM   25  C17 UNL     1      -0.885   7.382  14.591  1.00  0.00     0.009 C 
HETATM   26  C18 UNL     1      -0.208   8.746  14.354  1.00  0.00     0.047 C 
BRANCH   7  27
HETATM   27  O2  UNL     1      -1.447   9.875  12.618  1.00  0.00    -0.381 OA
HETATM   28  H27 UNL     1      -2.188  10.473  12.420  1.00  0.00     0.211 HD
ENDBRANCH   7  27
ENDBRANCH   5   7
ENDBRANCH   4   5
ENDBRANCH   3   4
ENDBRANCH   1   3
BRANCH   1  29
HETATM   29  C23 UNL     1       0.192  11.274  18.122  1.00  0.00     0.120 C 
BRANCH  29  30
HETATM   30  C24 UNL     1       0.565  11.188  19.596  1.00  0.00     0.112 C 
BRANCH  30  31
HETATM   31  C25 UNL     1       1.894  10.495  19.804  1.00  0.00     0.217 C 
HETATM   32  O6  UNL     1       2.478   9.873  18.925  1.00  0.00    -0.274 OA
HETATM   33  N1  UNL     1       2.374  10.639  21.088  1.00  0.00    -0.361 N 
HETATM   34  H34 UNL     1       1.836  11.162  21.768  1.00  0.00     0.162 HD
BRANCH  33  35
HETATM   35  C26 UNL     1       3.599  10.003  21.528  1.00  0.00     0.122 C 
BRANCH  35  36
HETATM   36  C27 UNL     1       4.117  10.547  22.862  1.00  0.00     0.020 C 
BRANCH  36  37
HETATM   37  C28 UNL     1       4.403  12.057  22.875  1.00  0.00     0.002 C 
BRANCH  37  38
HETATM   38  C29 UNL     1       5.731  12.458  22.223  1.00  0.00     0.009 C 
BRANCH  38  39
HETATM   39  C30 UNL     1       6.941  12.060  23.072  1.00  0.00     0.103 C 
BRANCH  39  40
HETATM   40  C31 UNL     1       8.145  12.971  22.885  1.00  0.00     0.217 C 
HETATM   41  O7  UNL     1       9.046  13.094  23.711  1.00  0.00    -0.274 OA
HETATM   42  N2  UNL     1       8.111  13.641  21.680  1.00  0.00    -0.357 N 
HETATM   43  H45 UNL     1       7.439  13.348  20.982  1.00  0.00     0.162 HD
BRANCH  42  44
HETATM   44  C32 UNL     1       9.194  14.499  21.257  1.00  0.00     0.161 C 
BRANCH  44  45
HETATM   45  C33 UNL     1      10.142  13.761  20.346  1.00  0.00    -0.040 A 
HETATM   46  C34 UNL     1      10.660  12.507  20.713  1.00  0.00     0.010 A 
HETATM   47  C35 UNL     1      11.551  11.838  19.871  1.00  0.00     0.019 A 
HETATM   48  C36 UNL     1      11.934  12.414  18.651  1.00  0.00     0.037 A 
HETATM   49  C38 UNL     1      11.425  13.666  18.281  1.00  0.00     0.019 A 
HETATM   50  C39 UNL     1      10.540  14.337  19.129  1.00  0.00     0.010 A 
BRANCH  48  51
HETATM   51  C37 UNL     1      12.883  11.666  17.791  1.00  0.00     0.176 C 
HETATM   52  O8  UNL     1      13.836  11.015  18.180  1.00  0.00    -0.646 OA
BRANCH  51  53
HETATM   53  O9  UNL     1      12.595  11.767  16.481  1.00  0.00    -0.773 OA
HETATM   54  H50 UNL     1      13.290  11.233  16.042  1.00  0.00     0.167 HD
ENDBRANCH  51  53
ENDBRANCH  48  51
ENDBRANCH  44  45
ENDBRANCH  42  44
ENDBRANCH  39  40
ENDBRANCH  38  39
ENDBRANCH  37  38
ENDBRANCH  36  37
ENDBRANCH  35  36
ENDBRANCH  33  35
ENDBRANCH  30  31
ENDBRANCH  29  30
ENDBRANCH   1  29
TORSDOF 18
ENDMDL
MODEL 8
REMARK minimizedAffinity -9.00038338
REMARK CNNscore 0.266892791
REMARK CNNaffinity 7.54824972
REMARK  18 active torsions:
REMARK  status: ('A' for Active; 'I' for Inactive)
REMARK    1  A    between atoms: C19_20  and  O2_21 
REMARK    2  A    between atoms: C19_20  and  C20_22 
REMARK    3  A    between atoms: C20_22  and  C21_24 
REMARK    4  A    between atoms: C21_24  and  O4_25 
REMARK    5  A    between atoms: O4_25  and  C22_26 
REMARK    6  A    between atoms: C22_26  and  C23_28 
REMARK    7  A    between atoms: C23_28  and  C24_29 
REMARK    8  A    between atoms: C24_29  and  C25_30 
REMARK       I    between atoms: C25_30  and  N1_32 
REMARK    9  A    between atoms: N1_32  and  C26_33 
REMARK   10  A    between atoms: C26_33  and  C27_34 
REMARK   11  A    between atoms: C27_34  and  C28_35 
REMARK   12  A    between atoms: C28_35  and  C29_36 
REMARK   13  A    between atoms: C29_36  and  C30_37 
REMARK   14  A    between atoms: C30_37  and  C31_38 
REMARK       I    between atoms: C31_38  and  N2_40 
REMARK   15  A    between atoms: N2_40  and  C32_41 
REMARK   16  A    between atoms: C32_41  and  C33_42 
REMARK   17  A    between atoms: C36_45  and  C37_46 
REMARK   18  A    between atoms: C37_46  and  O9_48 
ROOT
HETATM    1  C22 UNL     1      -6.043   8.216  14.967  1.00  0.00     0.259 C 
HETATM    2  O5  UNL     1      -5.654   7.828  13.876  1.00  0.00    -0.265 OA
ENDROOT
BRANCH   1   3
HETATM    3  O4  UNL     1      -5.230   8.632  15.976  1.00  0.00    -0.314 OA
BRANCH   3   4
HETATM    4  C21 UNL     1      -4.389   9.740  15.690  1.00  0.00     0.260 C 
BRANCH   4   5
HETATM    5  C20 UNL     1      -3.116   9.931  16.521  1.00  0.00     0.185 C 
HETATM    6  O3  UNL     1      -3.215   9.991  17.754  1.00  0.00    -0.292 OA
BRANCH   5   7
HETATM    7  C19 UNL     1      -1.746   9.891  15.804  1.00  0.00     0.128 C 
HETATM    8  C14 UNL     1      -1.623   8.964  14.541  1.00  0.00    -0.002 C 
HETATM    9  C13 UNL     1      -2.188   9.512  13.214  1.00  0.00     0.013 C 
HETATM   10  C15 UNL     1      -2.240   7.556  14.805  1.00  0.00     0.019 C 
HETATM   11  C16 UNL     1      -0.069   8.915  14.415  1.00  0.00     0.002 C 
HETATM   12  C12 UNL     1      -1.709   8.696  11.991  1.00  0.00     0.007 C 
HETATM   13  C11 UNL     1      -0.164   8.624  11.928  1.00  0.00     0.002 C 
HETATM   14  C2  UNL     1       0.433   7.910  10.670  1.00  0.00    -0.016 C 
HETATM   15  C10 UNL     1       0.416   8.036  13.253  1.00  0.00    -0.004 C 
HETATM   16  C1  UNL     1       0.182   6.384  10.704  1.00  0.00     0.020 C 
HETATM   17  C3  UNL     1      -0.178   8.485   9.362  1.00  0.00     0.022 C 
HETATM   18  C7  UNL     1       1.940   8.185  10.664  1.00  0.00    -0.068 C 
HETATM   19  C4  UNL     1       0.538   8.016   8.096  1.00  0.00     0.084 C 
HETATM   20  C5  UNL     1       2.030   8.218   8.188  1.00  0.00     0.149 C 
HETATM   21  O1  UNL     1       2.743   8.309   7.192  1.00  0.00    -0.293 OA
HETATM   22  C6  UNL     1       2.655   8.310   9.530  1.00  0.00     0.053 C 
HETATM   23  C8  UNL     1       2.615   8.474  11.988  1.00  0.00     0.035 C 
HETATM   24  C9  UNL     1       1.942   7.831  13.197  1.00  0.00     0.010 C 
HETATM   25  C17 UNL     1       0.369   8.574  15.833  1.00  0.00     0.009 C 
HETATM   26  C18 UNL     1      -0.618   9.350  16.727  1.00  0.00     0.047 C 
BRANCH   7  27
HETATM   27  O2  UNL     1      -1.405  11.244  15.456  1.00  0.00    -0.381 OA
HETATM   28  H27 UNL     1      -2.078  11.569  14.833  1.00  0.00     0.211 HD
ENDBRANCH   7  27
ENDBRANCH   5   7
ENDBRANCH   4   5
ENDBRANCH   3   4
ENDBRANCH   1   3
BRANCH   1  29
HETATM   29  C23 UNL     1      -7.486   8.232  15.399  1.00  0.00     0.120 C 
BRANCH  29  30
HETATM   30  C24 UNL     1      -8.077   9.636  15.364  1.00  0.00     0.112 C 
BRANCH  30  31
HETATM   31  C25 UNL     1      -9.565   9.616  15.089  1.00  0.00     0.217 C 
HETATM   32  O6  UNL     1     -10.292  10.592  15.226  1.00  0.00    -0.274 OA
HETATM   33  N1  UNL     1     -10.012   8.382  14.669  1.00  0.00    -0.361 N 
HETATM   34  H34 UNL     1      -9.356   7.614  14.582  1.00  0.00     0.162 HD
BRANCH  33  35
HETATM   35  C26 UNL     1     -11.413   8.117  14.410  1.00  0.00     0.122 C 
BRANCH  35  36
HETATM   36  C27 UNL     1     -11.650   7.327  13.121  1.00  0.00     0.020 C 
BRANCH  36  37
HETATM   37  C28 UNL     1     -10.374   6.825  12.427  1.00  0.00     0.002 C 
BRANCH  37  38
HETATM   38  C29 UNL     1      -9.437   6.015  13.331  1.00  0.00     0.009 C 
BRANCH  38  39
HETATM   39  C30 UNL     1      -8.120   5.659  12.636  1.00  0.00     0.103 C 
BRANCH  39  40
HETATM   40  C31 UNL     1      -7.893   4.163  12.487  1.00  0.00     0.217 C 
HETATM   41  O7  UNL     1      -8.696   3.308  12.853  1.00  0.00    -0.274 OA
HETATM   42  N2  UNL     1      -6.684   3.874  11.890  1.00  0.00    -0.357 N 
HETATM   43  H45 UNL     1      -6.168   4.628  11.454  1.00  0.00     0.162 HD
BRANCH  42  44
HETATM   44  C32 UNL     1      -6.295   2.519  11.577  1.00  0.00     0.161 C 
BRANCH  44  45
HETATM   45  C33 UNL     1      -4.798   2.405  11.444  1.00  0.00    -0.040 A 
HETATM   46  C34 UNL     1      -4.033   3.492  10.989  1.00  0.00     0.010 A 
HETATM   47  C35 UNL     1      -2.648   3.373  10.852  1.00  0.00     0.019 A 
HETATM   48  C36 UNL     1      -2.011   2.165  11.171  1.00  0.00     0.037 A 
HETATM   49  C38 UNL     1      -2.768   1.075  11.621  1.00  0.00     0.019 A 
HETATM   50  C39 UNL     1      -4.154   1.194  11.749  1.00  0.00     0.010 A 
BRANCH  48  51
HETATM   51  C37 UNL     1      -0.539   2.087  11.009  1.00  0.00     0.176 C 
HETATM   52  O8  UNL     1       0.271   2.877  11.458  1.00  0.00    -0.646 OA
BRANCH  51  53
HETATM   53  O9  UNL     1      -0.147   1.020  10.288  1.00  0.00    -0.773 OA
HETATM   54  H50 UNL     1       0.831   1.095  10.264  1.00  0.00     0.167 HD
ENDBRANCH  51  53
ENDBRANCH  48  51
ENDBRANCH  44  45
ENDBRANCH  42  44
ENDBRANCH  39  40
ENDBRANCH  38  39
ENDBRANCH  37  38
ENDBRANCH  36  37
ENDBRANCH  35  36
ENDBRANCH  33  35
ENDBRANCH  30  31
ENDBRANCH  29  30
ENDBRANCH   1  29
TORSDOF 18
ENDMDL
MODEL 9
REMARK minimizedAffinity -9.18066597
REMARK CNNscore 0.266562223
REMARK CNNaffinity 6.51722717
REMARK  18 active torsions:
REMARK  status: ('A' for Active; 'I' for Inactive)
REMARK    1  A    between atoms: C19_20  and  O2_21 
REMARK    2  A    between atoms: C19_20  and  C20_22 
REMARK    3  A    between atoms: C20_22  and  C21_24 
REMARK    4  A    between atoms: C21_24  and  O4_25 
REMARK    5  A    between atoms: O4_25  and  C22_26 
REMARK    6  A    between atoms: C22_26  and  C23_28 
REMARK    7  A    between atoms: C23_28  and  C24_29 
REMARK    8  A    between atoms: C24_29  and  C25_30 
REMARK       I    between atoms: C25_30  and  N1_32 
REMARK    9  A    between atoms: N1_32  and  C26_33 
REMARK   10  A    between atoms: C26_33  and  C27_34 
REMARK   11  A    between atoms: C27_34  and  C28_35 
REMARK   12  A    between atoms: C28_35  and  C29_36 
REMARK   13  A    between atoms: C29_36  and  C30_37 
REMARK   14  A    between atoms: C30_37  and  C31_38 
REMARK       I    between atoms: C31_38  and  N2_40 
REMARK   15  A    between atoms: N2_40  and  C32_41 
REMARK   16  A    between atoms: C32_41  and  C33_42 
REMARK   17  A    between atoms: C36_45  and  C37_46 
REMARK   18  A    between atoms: C37_46  and  O9_48 
ROOT
HETATM    1  C22 UNL     1       1.460   8.370  11.466  1.00  0.00     0.259 C 
HETATM    2  O5  UNL     1       2.511   8.917  11.763  1.00  0.00    -0.265 OA
ENDROOT
BRANCH   1   3
HETATM    3  O4  UNL     1       0.261   8.626  12.054  1.00  0.00    -0.314 OA
BRANCH   3   4
HETATM    4  C21 UNL     1       0.143   8.268  13.422  1.00  0.00     0.260 C 
BRANCH   4   5
HETATM    5  C20 UNL     1      -1.207   8.467  14.121  1.00  0.00     0.185 C 
HETATM    6  O3  UNL     1      -1.254   9.183  15.130  1.00  0.00    -0.292 OA
BRANCH   5   7
HETATM    7  C19 UNL     1      -2.481   7.893  13.457  1.00  0.00     0.128 C 
HETATM    8  C14 UNL     1      -3.729   7.655  14.381  1.00  0.00    -0.002 C 
HETATM    9  C13 UNL     1      -4.588   8.889  14.725  1.00  0.00     0.013 C 
HETATM   10  C15 UNL     1      -3.329   6.938  15.707  1.00  0.00     0.019 C 
HETATM   11  C16 UNL     1      -4.568   6.736  13.440  1.00  0.00     0.002 C 
HETATM   12  C12 UNL     1      -5.958   8.501  15.329  1.00  0.00     0.007 C 
HETATM   13  C11 UNL     1      -6.739   7.547  14.393  1.00  0.00     0.002 C 
HETATM   14  C2  UNL     1      -8.186   7.172  14.857  1.00  0.00    -0.016 C 
HETATM   15  C10 UNL     1      -5.892   6.276  14.068  1.00  0.00    -0.004 C 
HETATM   16  C1  UNL     1      -8.168   6.241  16.091  1.00  0.00     0.020 C 
HETATM   17  C3  UNL     1      -9.004   8.446  15.206  1.00  0.00     0.022 C 
HETATM   18  C7  UNL     1      -8.870   6.462  13.685  1.00  0.00    -0.068 C 
HETATM   19  C4  UNL     1     -10.493   8.175  15.422  1.00  0.00     0.084 C 
HETATM   20  C5  UNL     1     -11.089   7.384  14.284  1.00  0.00     0.149 C 
HETATM   21  O1  UNL     1     -12.291   7.403  14.031  1.00  0.00    -0.293 OA
HETATM   22  C6  UNL     1     -10.190   6.557  13.444  1.00  0.00     0.053 C 
HETATM   23  C8  UNL     1      -7.992   5.749  12.677  1.00  0.00     0.035 C 
HETATM   24  C9  UNL     1      -6.669   5.237  13.237  1.00  0.00     0.010 C 
HETATM   25  C17 UNL     1      -3.552   5.688  13.007  1.00  0.00     0.009 C 
HETATM   26  C18 UNL     1      -2.239   6.480  12.853  1.00  0.00     0.047 C 
BRANCH   7  27
HETATM   27  O2  UNL     1      -2.831   8.770  12.373  1.00  0.00    -0.381 OA
HETATM   28  H27 UNL     1      -3.038   9.642  12.751  1.00  0.00     0.211 HD
ENDBRANCH   7  27
ENDBRANCH   5   7
ENDBRANCH   4   5
ENDBRANCH   3   4
ENDBRANCH   1   3
BRANCH   1  29
HETATM   29  C23 UNL     1       1.334   7.269  10.444  1.00  0.00     0.120 C 
BRANCH  29  30
HETATM   30  C24 UNL     1       2.070   6.007  10.872  1.00  0.00     0.112 C 
BRANCH  30  31
HETATM   31  C25 UNL     1       3.550   6.084  10.565  1.00  0.00     0.217 C 
HETATM   32  O6  UNL     1       4.024   5.860   9.459  1.00  0.00    -0.274 OA
HETATM   33  N1  UNL     1       4.305   6.430  11.666  1.00  0.00    -0.361 N 
HETATM   34  H34 UNL     1       3.847   6.595  12.554  1.00  0.00     0.162 HD
BRANCH  33  35
HETATM   35  C26 UNL     1       5.751   6.500  11.617  1.00  0.00     0.122 C 
BRANCH  35  36
HETATM   36  C27 UNL     1       6.313   7.801  12.195  1.00  0.00     0.020 C 
BRANCH  36  37
HETATM   37  C28 UNL     1       6.864   7.686  13.625  1.00  0.00     0.002 C 
BRANCH  37  38
HETATM   38  C29 UNL     1       8.375   7.914  13.744  1.00  0.00     0.009 C 
BRANCH  38  39
HETATM   39  C30 UNL     1       8.896   7.652  15.159  1.00  0.00     0.103 C 
BRANCH  39  40
HETATM   40  C31 UNL     1       8.399   8.656  16.188  1.00  0.00     0.217 C 
HETATM   41  O7  UNL     1       7.518   8.416  17.010  1.00  0.00    -0.274 OA
HETATM   42  N2  UNL     1       9.055   9.866  16.097  1.00  0.00    -0.357 N 
HETATM   43  H45 UNL     1       9.887   9.922  15.523  1.00  0.00     0.162 HD
BRANCH  42  44
HETATM   44  C32 UNL     1       8.801  10.940  17.028  1.00  0.00     0.161 C 
BRANCH  44  45
HETATM   45  C33 UNL     1      10.073  11.374  17.710  1.00  0.00    -0.040 A 
HETATM   46  C34 UNL     1      10.165  11.397  19.112  1.00  0.00     0.010 A 
HETATM   47  C35 UNL     1      11.341  11.817  19.736  1.00  0.00     0.019 A 
HETATM   48  C36 UNL     1      12.442  12.218  18.966  1.00  0.00     0.037 A 
HETATM   49  C38 UNL     1      12.357  12.202  17.567  1.00  0.00     0.019 A 
HETATM   50  C39 UNL     1      11.176  11.789  16.945  1.00  0.00     0.010 A 
BRANCH  48  51
HETATM   51  C37 UNL     1      13.669  12.656  19.674  1.00  0.00     0.176 C 
HETATM   52  O8  UNL     1      14.026  12.287  20.777  1.00  0.00    -0.646 OA
BRANCH  51  53
HETATM   53  O9  UNL     1      14.396  13.540  18.964  1.00  0.00    -0.773 OA
HETATM   54  H50 UNL     1      15.162  13.737  19.544  1.00  0.00     0.167 HD
ENDBRANCH  51  53
ENDBRANCH  48  51
ENDBRANCH  44  45
ENDBRANCH  42  44
ENDBRANCH  39  40
ENDBRANCH  38  39
ENDBRANCH  37  38
ENDBRANCH  36  37
ENDBRANCH  35  36
ENDBRANCH  33  35
ENDBRANCH  30  31
ENDBRANCH  29  30
ENDBRANCH   1  29
TORSDOF 18
ENDMDL
