MODEL 1
REMARK minimizedAffinity -8.71304989
REMARK CNNscore 0.636688948
REMARK CNNaffinity 6.73133802
REMARK  16 active torsions:
REMARK  status: ('A' for Active; 'I' for Inactive)
REMARK    1  A    between atoms: S1_2  and  C2_3 
REMARK    2  A    between atoms: C2_3  and  C3_4 
REMARK    3  A    between atoms: C3_4  and  C4_5 
REMARK    4  A    between atoms: C4_5  and  N1_6 
REMARK    5  A    between atoms: C4_5  and  C33_44 
REMARK       I    between atoms: N1_6  and  C5_7 
REMARK    6  A    between atoms: C5_7  and  C6_9 
REMARK    7  A    between atoms: C6_9  and  N2_11 
REMARK       I    between atoms: N2_11  and  C8_12 
REMARK    8  A    between atoms: C8_12  and  C9_14 
REMARK    9  A    between atoms: C9_14  and  C10_15 
REMARK   10  A    between atoms: C10_15  and  C11_16 
REMARK   11  A    between atoms: C11_16  and  O4_18 
REMARK   12  A    between atoms: O4_18  and  C12_19 
REMARK   13  A    between atoms: C12_19  and  C13_20 
REMARK   14  A    between atoms: C13_20  and  C14_22 
REMARK   15  A    between atoms: C14_22  and  O6_23 
REMARK   16  A    between atoms: C33_44  and  O10_46 
ROOT
HETATM    1  C12 UNL     1      -7.153  46.887 -23.782  1.00  0.00     0.260 C 
ENDROOT
BRANCH   1   2
HETATM    2  O4  UNL     1      -8.490  47.355 -23.901  1.00  0.00    -0.314 OA
BRANCH   2   3
HETATM    3  C11 UNL     1      -9.374  46.873 -22.992  1.00  0.00     0.259 C 
HETATM    4  O3  UNL     1      -9.090  46.619 -21.831  1.00  0.00    -0.265 OA
BRANCH   3   5
HETATM    5  C10 UNL     1     -10.714  46.586 -23.622  1.00  0.00     0.120 C 
BRANCH   5   6
HETATM    6  C9  UNL     1     -10.578  46.466 -25.137  1.00  0.00     0.112 C 
BRANCH   6   7
HETATM    7  C8  UNL     1     -11.744  47.129 -25.843  1.00  0.00     0.218 C 
HETATM    8  N2  UNL     1     -12.824  46.291 -26.031  1.00  0.00    -0.348 N 
HETATM    9  H14 UNL     1     -12.926  45.540 -25.355  1.00  0.00     0.163 HD
HETATM   10  O2  UNL     1     -11.715  48.290 -26.241  1.00  0.00    -0.274 OA
BRANCH   8  11
HETATM   11  C6  UNL     1     -14.079  46.840 -26.532  1.00  0.00     0.172 C 
HETATM   12  C7  UNL     1     -14.690  45.919 -27.578  1.00  0.00     0.042 C 
BRANCH  11  13
HETATM   13  C5  UNL     1     -15.045  46.977 -25.341  1.00  0.00     0.240 C 
HETATM   14  N1  UNL     1     -16.178  46.203 -25.430  1.00  0.00    -0.345 N 
HETATM   15  H9  UNL     1     -16.438  45.843 -26.344  1.00  0.00     0.163 HD
HETATM   16  O1  UNL     1     -14.779  47.673 -24.365  1.00  0.00    -0.271 OA
BRANCH  14  17
HETATM   17  C4  UNL     1     -17.285  46.344 -24.480  1.00  0.00     0.183 C 
BRANCH  17  18
HETATM   18  C3  UNL     1     -17.206  45.369 -23.294  1.00  0.00     0.046 C 
BRANCH  18  19
HETATM   19  C2  UNL     1     -17.139  45.999 -21.903  1.00  0.00     0.076 C 
BRANCH  19  20
HETATM   20  S1  UNL     1     -18.693  45.953 -20.956  1.00  0.00    -0.173 SA
HETATM   21  C1  UNL     1     -19.583  44.681 -21.890  1.00  0.00     0.089 C 
ENDBRANCH  19  20
ENDBRANCH  18  19
ENDBRANCH  17  18
BRANCH  17  22
HETATM   22  C33 UNL     1     -18.596  46.260 -25.259  1.00  0.00     0.163 C 
HETATM   23  O9  UNL     1     -18.772  45.611 -26.282  1.00  0.00    -0.648 OA
BRANCH  22  24
HETATM   24  O10 UNL     1     -19.580  47.041 -24.773  1.00  0.00    -0.775 OA
HETATM   25  H46 UNL     1     -20.330  46.889 -25.386  1.00  0.00     0.167 HD
ENDBRANCH  22  24
ENDBRANCH  17  22
ENDBRANCH  14  17
ENDBRANCH  11  13
ENDBRANCH   8  11
ENDBRANCH   6   7
ENDBRANCH   5   6
ENDBRANCH   3   5
ENDBRANCH   2   3
ENDBRANCH   1   2
BRANCH   1  26
HETATM   26  C13 UNL     1      -6.061  47.628 -22.984  1.00  0.00     0.185 C 
HETATM   27  O5  UNL     1      -5.483  47.042 -22.063  1.00  0.00    -0.292 OA
BRANCH  26  28
HETATM   28  C14 UNL     1      -5.727  49.100 -23.330  1.00  0.00     0.128 C 
HETATM   29  C15 UNL     1      -5.847  50.110 -22.161  1.00  0.00     0.047 C 
HETATM   30  C16 UNL     1      -4.786  51.201 -22.402  1.00  0.00     0.009 C 
HETATM   31  C17 UNL     1      -4.167  50.846 -23.748  1.00  0.00     0.002 C 
HETATM   32  C18 UNL     1      -2.833  51.480 -24.150  1.00  0.00     0.003 C 
HETATM   33  C31 UNL     1      -4.246  49.304 -23.821  1.00  0.00     0.005 C 
HETATM   34  C19 UNL     1      -1.840  51.817 -23.021  1.00  0.00     0.010 C 
HETATM   35  C28 UNL     1      -2.098  50.672 -25.244  1.00  0.00     0.072 C 
HETATM   36  C20 UNL     1      -0.417  52.081 -23.552  1.00  0.00     0.035 C 
HETATM   37  C21 UNL     1      -0.446  52.563 -24.984  1.00  0.00    -0.067 C 
HETATM   38  C22 UNL     1      -0.025  53.800 -25.293  1.00  0.00     0.053 C 
HETATM   39  C26 UNL     1      -1.088  51.601 -26.010  1.00  0.00    -0.009 C 
HETATM   40  C23 UNL     1      -0.144  54.344 -26.667  1.00  0.00     0.149 C 
HETATM   41  O7  UNL     1       0.355  55.438 -26.920  1.00  0.00    -0.293 OA
HETATM   42  C24 UNL     1      -0.846  53.516 -27.716  1.00  0.00     0.084 C 
HETATM   43  C25 UNL     1      -1.767  52.457 -27.112  1.00  0.00     0.022 C 
HETATM   44  C27 UNL     1       0.024  50.727 -26.628  1.00  0.00     0.021 C 
HETATM   45  C29 UNL     1      -3.069  49.814 -26.056  1.00  0.00     0.133 C 
HETATM   46  O8  UNL     1      -3.074  49.797 -27.288  1.00  0.00    -0.297 OA
HETATM   47  C30 UNL     1      -3.970  48.856 -25.277  1.00  0.00     0.091 C 
HETATM   48  C32 UNL     1      -3.249  48.612 -22.859  1.00  0.00     0.019 C 
BRANCH  28  49
HETATM   49  O6  UNL     1      -6.601  49.548 -24.373  1.00  0.00    -0.381 OA
HETATM   50  H21 UNL     1      -7.507  49.202 -24.206  1.00  0.00     0.211 HD
ENDBRANCH  28  49
ENDBRANCH  26  28
ENDBRANCH   1  26
TORSDOF 16
ENDMDL
MODEL 2
REMARK minimizedAffinity -8.18339348
REMARK CNNscore 0.568698823
REMARK CNNaffinity 7.11366653
REMARK  16 active torsions:
REMARK  status: ('A' for Active; 'I' for Inactive)
REMARK    1  A    between atoms: S1_2  and  C2_3 
REMARK    2  A    between atoms: C2_3  and  C3_4 
REMARK    3  A    between atoms: C3_4  and  C4_5 
REMARK    4  A    between atoms: C4_5  and  N1_6 
REMARK    5  A    between atoms: C4_5  and  C33_44 
REMARK       I    between atoms: N1_6  and  C5_7 
REMARK    6  A    between atoms: C5_7  and  C6_9 
REMARK    7  A    between atoms: C6_9  and  N2_11 
REMARK       I    between atoms: N2_11  and  C8_12 
REMARK    8  A    between atoms: C8_12  and  C9_14 
REMARK    9  A    between atoms: C9_14  and  C10_15 
REMARK   10  A    between atoms: C10_15  and  C11_16 
REMARK   11  A    between atoms: C11_16  and  O4_18 
REMARK   12  A    between atoms: O4_18  and  C12_19 
REMARK   13  A    between atoms: C12_19  and  C13_20 
REMARK   14  A    between atoms: C13_20  and  C14_22 
REMARK   15  A    between atoms: C14_22  and  O6_23 
REMARK   16  A    between atoms: C33_44  and  O10_46 
ROOT
HETATM    1  C12 UNL     1      -3.031  50.035 -13.156  1.00  0.00     0.260 C 
ENDROOT
BRANCH   1   2
HETATM    2  O4  UNL     1      -2.679  50.572 -14.424  1.00  0.00    -0.314 OA
BRANCH   2   3
HETATM    3  C11 UNL     1      -1.647  49.967 -15.063  1.00  0.00     0.259 C 
HETATM    4  O3  UNL     1      -0.635  49.573 -14.504  1.00  0.00    -0.265 OA
BRANCH   3   5
HETATM    5  C10 UNL     1      -1.858  49.943 -16.556  1.00  0.00     0.120 C 
BRANCH   5   6
HETATM    6  C9  UNL     1      -0.602  50.416 -17.282  1.00  0.00     0.112 C 
BRANCH   6   7
HETATM    7  C8  UNL     1      -0.931  51.495 -18.294  1.00  0.00     0.218 C 
HETATM    8  N2  UNL     1       0.156  51.906 -19.036  1.00  0.00    -0.348 N 
HETATM    9  H14 UNL     1       0.892  51.218 -19.164  1.00  0.00     0.163 HD
HETATM   10  O2  UNL     1      -2.052  51.982 -18.415  1.00  0.00    -0.274 OA
BRANCH   8  11
HETATM   11  C6  UNL     1      -0.046  52.805 -20.168  1.00  0.00     0.172 C 
HETATM   12  C7  UNL     1       1.095  53.809 -20.268  1.00  0.00     0.042 C 
BRANCH  11  13
HETATM   13  C5  UNL     1      -0.093  51.952 -21.448  1.00  0.00     0.240 C 
HETATM   14  N1  UNL     1       0.130  52.651 -22.611  1.00  0.00    -0.345 N 
HETATM   15  H9  UNL     1       0.022  53.661 -22.587  1.00  0.00     0.163 HD
HETATM   16  O1  UNL     1      -0.251  50.735 -21.412  1.00  0.00    -0.271 OA
BRANCH  14  17
HETATM   17  C4  UNL     1      -0.058  52.036 -23.928  1.00  0.00     0.183 C 
BRANCH  17  18
HETATM   18  C3  UNL     1       0.844  52.633 -25.020  1.00  0.00     0.046 C 
BRANCH  18  19
HETATM   19  C2  UNL     1       1.493  51.637 -25.981  1.00  0.00     0.076 C 
BRANCH  19  20
HETATM   20  S1  UNL     1       1.157  51.932 -27.746  1.00  0.00    -0.173 SA
HETATM   21  C1  UNL     1      -0.619  51.578 -27.783  1.00  0.00     0.089 C 
ENDBRANCH  19  20
ENDBRANCH  18  19
ENDBRANCH  17  18
BRANCH  17  22
HETATM   22  C33 UNL     1      -1.547  52.080 -24.267  1.00  0.00     0.163 C 
HETATM   23  O9  UNL     1      -2.147  53.058 -24.693  1.00  0.00    -0.648 OA
BRANCH  22  24
HETATM   24  O10 UNL     1      -2.213  50.944 -23.985  1.00  0.00    -0.775 OA
HETATM   25  H46 UNL     1      -3.140  51.143 -24.237  1.00  0.00     0.167 HD
ENDBRANCH  22  24
ENDBRANCH  17  22
ENDBRANCH  14  17
ENDBRANCH  11  13
ENDBRANCH   8  11
ENDBRANCH   6   7
ENDBRANCH   5   6
ENDBRANCH   3   5
ENDBRANCH   2   3
ENDBRANCH   1   2
BRANCH   1  26
HETATM   26  C13 UNL     1      -3.588  50.887 -11.998  1.00  0.00     0.185 C 
HETATM   27  O5  UNL     1      -4.496  50.431 -11.294  1.00  0.00    -0.292 OA
BRANCH  26  28
HETATM   28  C14 UNL     1      -3.023  52.308 -11.753  1.00  0.00     0.128 C 
HETATM   29  C15 UNL     1      -3.955  53.279 -10.986  1.00  0.00     0.047 C 
HETATM   30  C16 UNL     1      -3.047  54.215 -10.164  1.00  0.00     0.009 C 
HETATM   31  C17 UNL     1      -1.630  53.825 -10.564  1.00  0.00     0.002 C 
HETATM   32  C18 UNL     1      -0.454  54.275  -9.692  1.00  0.00     0.003 C 
HETATM   33  C31 UNL     1      -1.713  52.315 -10.880  1.00  0.00     0.005 C 
HETATM   34  C19 UNL     1      -0.710  54.423  -8.179  1.00  0.00     0.010 C 
HETATM   35  C28 UNL     1       0.810  53.412  -9.908  1.00  0.00     0.072 C 
HETATM   36  C20 UNL     1       0.599  54.500  -7.368  1.00  0.00     0.035 C 
HETATM   37  C21 UNL     1       1.735  55.034  -8.210  1.00  0.00    -0.067 C 
HETATM   38  C22 UNL     1       2.311  56.209  -7.906  1.00  0.00     0.053 C 
HETATM   39  C26 UNL     1       2.088  54.215  -9.472  1.00  0.00    -0.009 C 
HETATM   40  C23 UNL     1       3.349  56.815  -8.773  1.00  0.00     0.149 C 
HETATM   41  O7  UNL     1       3.920  57.835  -8.393  1.00  0.00    -0.293 OA
HETATM   42  C24 UNL     1       3.692  56.137 -10.077  1.00  0.00     0.084 C 
HETATM   43  C25 UNL     1       2.588  55.200 -10.561  1.00  0.00     0.022 C 
HETATM   44  C27 UNL     1       3.206  53.214  -9.111  1.00  0.00     0.021 C 
HETATM   45  C29 UNL     1       0.799  52.733 -11.278  1.00  0.00     0.133 C 
HETATM   46  O8  UNL     1       1.762  52.764 -12.046  1.00  0.00    -0.297 OA
HETATM   47  C30 UNL     1      -0.426  51.886 -11.626  1.00  0.00     0.091 C 
HETATM   48  C32 UNL     1      -1.896  51.450  -9.607  1.00  0.00     0.019 C 
BRANCH  28  49
HETATM   49  O6  UNL     1      -2.714  52.915 -13.013  1.00  0.00    -0.381 OA
HETATM   50  H21 UNL     1      -3.424  52.697 -13.658  1.00  0.00     0.211 HD
ENDBRANCH  28  49
ENDBRANCH  26  28
ENDBRANCH   1  26
TORSDOF 16
ENDMDL
MODEL 3
REMARK minimizedAffinity -7.54145336
REMARK CNNscore 0.359814554
REMARK CNNaffinity 6.81933594
REMARK  16 active torsions:
REMARK  status: ('A' for Active; 'I' for Inactive)
REMARK    1  A    between atoms: S1_2  and  C2_3 
REMARK    2  A    between atoms: C2_3  and  C3_4 
REMARK    3  A    between atoms: C3_4  and  C4_5 
REMARK    4  A    between atoms: C4_5  and  N1_6 
REMARK    5  A    between atoms: C4_5  and  C33_44 
REMARK       I    between atoms: N1_6  and  C5_7 
REMARK    6  A    between atoms: C5_7  and  C6_9 
REMARK    7  A    between atoms: C6_9  and  N2_11 
REMARK       I    between atoms: N2_11  and  C8_12 
REMARK    8  A    between atoms: C8_12  and  C9_14 
REMARK    9  A    between atoms: C9_14  and  C10_15 
REMARK   10  A    between atoms: C10_15  and  C11_16 
REMARK   11  A    between atoms: C11_16  and  O4_18 
REMARK   12  A    between atoms: O4_18  and  C12_19 
REMARK   13  A    between atoms: C12_19  and  C13_20 
REMARK   14  A    between atoms: C13_20  and  C14_22 
REMARK   15  A    between atoms: C14_22  and  O6_23 
REMARK   16  A    between atoms: C33_44  and  O10_46 
ROOT
HETATM    1  C12 UNL     1      -1.930  50.212 -17.804  1.00  0.00     0.260 C 
ENDROOT
BRANCH   1   2
HETATM    2  O4  UNL     1      -0.534  50.413 -17.982  1.00  0.00    -0.314 OA
BRANCH   2   3
HETATM    3  C11 UNL     1       0.266  49.959 -16.985  1.00  0.00     0.259 C 
HETATM    4  O3  UNL     1       0.199  48.834 -16.514  1.00  0.00    -0.265 OA
BRANCH   3   5
HETATM    5  C10 UNL     1       1.165  51.050 -16.458  1.00  0.00     0.120 C 
BRANCH   5   6
HETATM    6  C9  UNL     1       0.459  51.842 -15.361  1.00  0.00     0.112 C 
BRANCH   6   7
HETATM    7  C8  UNL     1       0.430  51.064 -14.060  1.00  0.00     0.218 C 
HETATM    8  N2  UNL     1       1.471  50.170 -13.928  1.00  0.00    -0.348 N 
HETATM    9  H14 UNL     1       2.324  50.405 -14.426  1.00  0.00     0.163 HD
HETATM   10  O2  UNL     1      -0.457  51.194 -13.221  1.00  0.00    -0.274 OA
BRANCH   8  11
HETATM   11  C6  UNL     1       1.672  49.485 -12.655  1.00  0.00     0.172 C 
HETATM   12  C7  UNL     1       1.898  47.996 -12.874  1.00  0.00     0.042 C 
BRANCH  11  13
HETATM   13  C5  UNL     1       2.912  50.099 -11.979  1.00  0.00     0.240 C 
HETATM   14  N1  UNL     1       3.266  49.510 -10.788  1.00  0.00    -0.345 N 
HETATM   15  H9  UNL     1       2.568  48.946 -10.310  1.00  0.00     0.163 HD
HETATM   16  O1  UNL     1       3.563  50.996 -12.507  1.00  0.00    -0.271 OA
BRANCH  14  17
HETATM   17  C4  UNL     1       4.304  50.080  -9.925  1.00  0.00     0.183 C 
BRANCH  17  18
HETATM   18  C3  UNL     1       4.336  51.616  -9.933  1.00  0.00     0.046 C 
BRANCH  18  19
HETATM   19  C2  UNL     1       5.013  52.286  -8.738  1.00  0.00     0.076 C 
BRANCH  19  20
HETATM   20  S1  UNL     1       6.678  52.948  -9.062  1.00  0.00    -0.173 SA
HETATM   21  C1  UNL     1       6.276  54.701  -9.267  1.00  0.00     0.089 C 
ENDBRANCH  19  20
ENDBRANCH  18  19
ENDBRANCH  17  18
BRANCH  17  22
HETATM   22  C33 UNL     1       5.639  49.434 -10.293  1.00  0.00     0.163 C 
HETATM   23  O9  UNL     1       6.397  49.827 -11.170  1.00  0.00    -0.648 OA
BRANCH  22  24
HETATM   24  O10 UNL     1       5.914  48.304  -9.613  1.00  0.00    -0.775 OA
HETATM   25  H46 UNL     1       6.777  48.012  -9.976  1.00  0.00     0.167 HD
ENDBRANCH  22  24
ENDBRANCH  17  22
ENDBRANCH  14  17
ENDBRANCH  11  13
ENDBRANCH   8  11
ENDBRANCH   6   7
ENDBRANCH   5   6
ENDBRANCH   3   5
ENDBRANCH   2   3
ENDBRANCH   1   2
BRANCH   1  26
HETATM   26  C13 UNL     1      -2.886  49.833 -18.953  1.00  0.00     0.185 C 
HETATM   27  O5  UNL     1      -4.106  49.894 -18.769  1.00  0.00    -0.292 OA
BRANCH  26  28
HETATM   28  C14 UNL     1      -2.304  49.358 -20.308  1.00  0.00     0.128 C 
HETATM   29  C15 UNL     1      -3.153  48.312 -21.074  1.00  0.00     0.047 C 
HETATM   30  C16 UNL     1      -2.928  48.569 -22.577  1.00  0.00     0.009 C 
HETATM   31  C17 UNL     1      -1.883  49.676 -22.627  1.00  0.00     0.002 C 
HETATM   32  C18 UNL     1      -1.674  50.452 -23.930  1.00  0.00     0.003 C 
HETATM   33  C31 UNL     1      -2.144  50.519 -21.358  1.00  0.00     0.005 C 
HETATM   34  C19 UNL     1      -2.899  50.642 -24.845  1.00  0.00     0.010 C 
HETATM   35  C28 UNL     1      -0.997  51.823 -23.702  1.00  0.00     0.072 C 
HETATM   36  C20 UNL     1      -2.674  51.738 -25.906  1.00  0.00     0.035 C 
HETATM   37  C21 UNL     1      -1.204  51.907 -26.216  1.00  0.00    -0.067 C 
HETATM   38  C22 UNL     1      -0.731  51.619 -27.441  1.00  0.00     0.053 C 
HETATM   39  C26 UNL     1      -0.301  52.304 -25.027  1.00  0.00    -0.009 C 
HETATM   40  C23 UNL     1       0.718  51.665 -27.747  1.00  0.00     0.149 C 
HETATM   41  O7  UNL     1       1.087  51.500 -28.908  1.00  0.00    -0.293 OA
HETATM   42  C24 UNL     1       1.688  51.949 -26.626  1.00  0.00     0.084 C 
HETATM   43  C25 UNL     1       1.094  51.662 -25.247  1.00  0.00     0.022 C 
HETATM   44  C27 UNL     1      -0.177  53.842 -24.995  1.00  0.00     0.021 C 
HETATM   45  C29 UNL     1      -0.195  51.844 -22.401  1.00  0.00     0.133 C 
HETATM   46  O8  UNL     1       0.968  52.249 -22.340  1.00  0.00    -0.297 OA
HETATM   47  C30 UNL     1      -0.935  51.457 -21.121  1.00  0.00     0.091 C 
HETATM   48  C32 UNL     1      -3.446  51.354 -21.457  1.00  0.00     0.019 C 
BRANCH  28  49
HETATM   49  O6  UNL     1      -1.011  48.783 -20.088  1.00  0.00    -0.381 OA
HETATM   50  H21 UNL     1      -1.034  48.242 -19.266  1.00  0.00     0.211 HD
ENDBRANCH  28  49
ENDBRANCH  26  28
ENDBRANCH   1  26
TORSDOF 16
ENDMDL
MODEL 4
REMARK minimizedAffinity -8.05345726
REMARK CNNscore 0.356112927
REMARK CNNaffinity 6.45145273
REMARK  16 active torsions:
REMARK  status: ('A' for Active; 'I' for Inactive)
REMARK    1  A    between atoms: S1_2  and  C2_3 
REMARK    2  A    between atoms: C2_3  and  C3_4 
REMARK    3  A    between atoms: C3_4  and  C4_5 
REMARK    4  A    between atoms: C4_5  and  N1_6 
REMARK    5  A    between atoms: C4_5  and  C33_44 
REMARK       I    between atoms: N1_6  and  C5_7 
REMARK    6  A    between atoms: C5_7  and  C6_9 
REMARK    7  A    between atoms: C6_9  and  N2_11 
REMARK       I    between atoms: N2_11  and  C8_12 
REMARK    8  A    between atoms: C8_12  and  C9_14 
REMARK    9  A    between atoms: C9_14  and  C10_15 
REMARK   10  A    between atoms: C10_15  and  C11_16 
REMARK   11  A    between atoms: C11_16  and  O4_18 
REMARK   12  A    between atoms: O4_18  and  C12_19 
REMARK   13  A    between atoms: C12_19  and  C13_20 
REMARK   14  A    between atoms: C13_20  and  C14_22 
REMARK   15  A    between atoms: C14_22  and  O6_23 
REMARK   16  A    between atoms: C33_44  and  O10_46 
ROOT
HETATM    1  C12 UNL     1      -8.044  47.109 -26.409  1.00  0.00     0.260 C 
ENDROOT
BRANCH   1   2
HETATM    2  O4  UNL     1      -7.446  47.071 -25.120  1.00  0.00    -0.314 OA
BRANCH   2   3
HETATM    3  C11 UNL     1      -6.430  47.945 -24.908  1.00  0.00     0.259 C 
HETATM    4  O3  UNL     1      -6.229  48.514 -23.847  1.00  0.00    -0.265 OA
BRANCH   3   5
HETATM    5  C10 UNL     1      -5.653  48.206 -26.174  1.00  0.00     0.120 C 
BRANCH   5   6
HETATM    6  C9  UNL     1      -4.154  48.208 -25.891  1.00  0.00     0.112 C 
BRANCH   6   7
HETATM    7  C8  UNL     1      -3.419  49.122 -26.850  1.00  0.00     0.218 C 
HETATM    8  N2  UNL     1      -2.695  50.114 -26.222  1.00  0.00    -0.348 N 
HETATM    9  H14 UNL     1      -2.369  49.900 -25.285  1.00  0.00     0.163 HD
HETATM   10  O2  UNL     1      -3.492  49.012 -28.071  1.00  0.00    -0.274 OA
BRANCH   8  11
HETATM   11  C6  UNL     1      -1.797  50.954 -27.008  1.00  0.00     0.172 C 
HETATM   12  C7  UNL     1      -2.440  52.301 -27.304  1.00  0.00     0.042 C 
BRANCH  11  13
HETATM   13  C5  UNL     1      -0.511  51.168 -26.188  1.00  0.00     0.240 C 
HETATM   14  N1  UNL     1      -0.689  51.855 -25.011  1.00  0.00    -0.345 N 
HETATM   15  H9  UNL     1      -1.540  52.401 -24.903  1.00  0.00     0.163 HD
HETATM   16  O1  UNL     1       0.568  50.698 -26.538  1.00  0.00    -0.271 OA
BRANCH  14  17
HETATM   17  C4  UNL     1       0.446  52.304 -24.201  1.00  0.00     0.183 C 
BRANCH  17  18
HETATM   18  C3  UNL     1       0.191  52.224 -22.687  1.00  0.00     0.046 C 
BRANCH  18  19
HETATM   19  C2  UNL     1      -1.262  52.033 -22.255  1.00  0.00     0.076 C 
BRANCH  19  20
HETATM   20  S1  UNL     1      -1.491  51.411 -20.559  1.00  0.00    -0.173 SA
HETATM   21  C1  UNL     1      -0.051  52.164 -19.760  1.00  0.00     0.089 C 
ENDBRANCH  19  20
ENDBRANCH  18  19
ENDBRANCH  17  18
BRANCH  17  22
HETATM   22  C33 UNL     1       0.856  53.695 -24.683  1.00  0.00     0.163 C 
HETATM   23  O9  UNL     1       1.187  54.625 -23.961  1.00  0.00    -0.648 OA
BRANCH  22  24
HETATM   24  O10 UNL     1       0.755  53.870 -26.015  1.00  0.00    -0.775 OA
HETATM   25  H46 UNL     1       1.029  54.802 -26.153  1.00  0.00     0.167 HD
ENDBRANCH  22  24
ENDBRANCH  17  22
ENDBRANCH  14  17
ENDBRANCH  11  13
ENDBRANCH   8  11
ENDBRANCH   6   7
ENDBRANCH   5   6
ENDBRANCH   3   5
ENDBRANCH   2   3
ENDBRANCH   1   2
BRANCH   1  26
HETATM   26  C13 UNL     1      -9.293  46.290 -26.791  1.00  0.00     0.185 C 
HETATM   27  O5  UNL     1      -9.168  45.096 -27.081  1.00  0.00    -0.292 OA
BRANCH  26  28
HETATM   28  C14 UNL     1     -10.679  46.982 -26.830  1.00  0.00     0.128 C 
HETATM   29  C15 UNL     1     -11.120  47.524 -28.213  1.00  0.00     0.047 C 
HETATM   30  C16 UNL     1     -12.655  47.402 -28.272  1.00  0.00     0.009 C 
HETATM   31  C17 UNL     1     -13.055  46.897 -26.891  1.00  0.00     0.002 C 
HETATM   32  C18 UNL     1     -14.452  46.305 -26.684  1.00  0.00     0.003 C 
HETATM   33  C31 UNL     1     -11.863  46.025 -26.432  1.00  0.00     0.005 C 
HETATM   34  C19 UNL     1     -15.096  45.576 -27.878  1.00  0.00     0.010 C 
HETATM   35  C28 UNL     1     -14.533  45.397 -25.435  1.00  0.00     0.072 C 
HETATM   36  C20 UNL     1     -16.298  44.708 -27.456  1.00  0.00     0.035 C 
HETATM   37  C21 UNL     1     -16.935  45.232 -26.190  1.00  0.00    -0.067 C 
HETATM   38  C22 UNL     1     -18.192  45.707 -26.208  1.00  0.00     0.053 C 
HETATM   39  C26 UNL     1     -16.022  45.291 -24.945  1.00  0.00    -0.009 C 
HETATM   40  C23 UNL     1     -18.807  46.331 -25.012  1.00  0.00     0.149 C 
HETATM   41  O7  UNL     1     -19.994  46.649 -25.051  1.00  0.00    -0.293 OA
HETATM   42  C24 UNL     1     -17.961  46.521 -23.777  1.00  0.00     0.084 C 
HETATM   43  C25 UNL     1     -16.464  46.501 -24.080  1.00  0.00     0.022 C 
HETATM   44  C27 UNL     1     -16.192  43.981 -24.147  1.00  0.00     0.021 C 
HETATM   45  C29 UNL     1     -13.445  45.744 -24.417  1.00  0.00     0.133 C 
HETATM   46  O8  UNL     1     -13.683  45.916 -23.220  1.00  0.00    -0.297 OA
HETATM   47  C30 UNL     1     -12.000  45.746 -24.916  1.00  0.00     0.091 C 
HETATM   48  C32 UNL     1     -11.773  44.687 -27.208  1.00  0.00     0.019 C 
BRANCH  28  49
HETATM   49  O6  UNL     1     -10.680  48.086 -25.917  1.00  0.00    -0.381 OA
HETATM   50  H21 UNL     1      -9.816  48.554 -25.977  1.00  0.00     0.211 HD
ENDBRANCH  28  49
ENDBRANCH  26  28
ENDBRANCH   1  26
TORSDOF 16
ENDMDL
MODEL 5
REMARK minimizedAffinity -7.64535761
REMARK CNNscore 0.335682601
REMARK CNNaffinity 7.20623255
REMARK  16 active torsions:
REMARK  status: ('A' for Active; 'I' for Inactive)
REMARK    1  A    between atoms: S1_2  and  C2_3 
REMARK    2  A    between atoms: C2_3  and  C3_4 
REMARK    3  A    between atoms: C3_4  and  C4_5 
REMARK    4  A    between atoms: C4_5  and  N1_6 
REMARK    5  A    between atoms: C4_5  and  C33_44 
REMARK       I    between atoms: N1_6  and  C5_7 
REMARK    6  A    between atoms: C5_7  and  C6_9 
REMARK    7  A    between atoms: C6_9  and  N2_11 
REMARK       I    between atoms: N2_11  and  C8_12 
REMARK    8  A    between atoms: C8_12  and  C9_14 
REMARK    9  A    between atoms: C9_14  and  C10_15 
REMARK   10  A    between atoms: C10_15  and  C11_16 
REMARK   11  A    between atoms: C11_16  and  O4_18 
REMARK   12  A    between atoms: O4_18  and  C12_19 
REMARK   13  A    between atoms: C12_19  and  C13_20 
REMARK   14  A    between atoms: C13_20  and  C14_22 
REMARK   15  A    between atoms: C14_22  and  O6_23 
REMARK   16  A    between atoms: C33_44  and  O10_46 
ROOT
HETATM    1  C12 UNL     1      -0.333  52.583 -19.171  1.00  0.00     0.260 C 
ENDROOT
BRANCH   1   2
HETATM    2  O4  UNL     1      -0.541  52.552 -20.577  1.00  0.00    -0.314 OA
BRANCH   2   3
HETATM    3  C11 UNL     1       0.282  51.738 -21.284  1.00  0.00     0.259 C 
HETATM    4  O3  UNL     1       0.297  50.522 -21.176  1.00  0.00    -0.265 OA
BRANCH   3   5
HETATM    5  C10 UNL     1       1.247  52.529 -22.132  1.00  0.00     0.120 C 
BRANCH   5   6
HETATM    6  C9  UNL     1       0.492  53.456 -23.080  1.00  0.00     0.112 C 
BRANCH   6   7
HETATM    7  C8  UNL     1      -0.075  52.688 -24.256  1.00  0.00     0.218 C 
HETATM    8  N2  UNL     1      -0.504  53.496 -25.288  1.00  0.00    -0.348 N 
HETATM    9  H14 UNL     1      -0.038  54.394 -25.372  1.00  0.00     0.163 HD
HETATM   10  O2  UNL     1      -0.175  51.464 -24.273  1.00  0.00    -0.274 OA
BRANCH   8  11
HETATM   11  C6  UNL     1      -0.905  52.891 -26.554  1.00  0.00     0.172 C 
HETATM   12  C7  UNL     1       0.141  51.892 -27.028  1.00  0.00     0.042 C 
BRANCH  11  13
HETATM   13  C5  UNL     1      -2.244  52.166 -26.330  1.00  0.00     0.240 C 
HETATM   14  N1  UNL     1      -2.192  50.802 -26.490  1.00  0.00    -0.345 N 
HETATM   15  H9  UNL     1      -1.404  50.413 -27.001  1.00  0.00     0.163 HD
HETATM   16  O1  UNL     1      -3.254  52.765 -25.971  1.00  0.00    -0.271 OA
BRANCH  14  17
HETATM   17  C4  UNL     1      -3.404  49.978 -26.494  1.00  0.00     0.183 C 
BRANCH  17  18
HETATM   18  C3  UNL     1      -3.404  48.878 -25.420  1.00  0.00     0.046 C 
BRANCH  18  19
HETATM   19  C2  UNL     1      -4.667  48.767 -24.566  1.00  0.00     0.076 C 
BRANCH  19  20
HETATM   20  S1  UNL     1      -5.237  50.326 -23.820  1.00  0.00    -0.173 SA
HETATM   21  C1  UNL     1      -6.606  49.701 -22.813  1.00  0.00     0.089 C 
ENDBRANCH  19  20
ENDBRANCH  18  19
ENDBRANCH  17  18
BRANCH  17  22
HETATM   22  C33 UNL     1      -3.619  49.453 -27.912  1.00  0.00     0.163 C 
HETATM   23  O9  UNL     1      -3.781  48.279 -28.215  1.00  0.00    -0.648 OA
BRANCH  22  24
HETATM   24  O10 UNL     1      -3.543  50.398 -28.870  1.00  0.00    -0.775 OA
HETATM   25  H46 UNL     1      -3.680  49.902 -29.704  1.00  0.00     0.167 HD
ENDBRANCH  22  24
ENDBRANCH  17  22
ENDBRANCH  14  17
ENDBRANCH  11  13
ENDBRANCH   8  11
ENDBRANCH   6   7
ENDBRANCH   5   6
ENDBRANCH   3   5
ENDBRANCH   2   3
ENDBRANCH   1   2
BRANCH   1  26
HETATM   26  C13 UNL     1      -0.780  51.452 -18.222  1.00  0.00     0.185 C 
HETATM   27  O5  UNL     1       0.035  50.974 -17.426  1.00  0.00    -0.292 OA
BRANCH  26  28
HETATM   28  C14 UNL     1      -2.231  50.915 -18.302  1.00  0.00     0.128 C 
HETATM   29  C15 UNL     1      -3.076  51.435 -19.492  1.00  0.00     0.047 C 
HETATM   30  C16 UNL     1      -4.044  50.301 -19.882  1.00  0.00     0.009 C 
HETATM   31  C17 UNL     1      -3.802  49.214 -18.843  1.00  0.00     0.002 C 
HETATM   32  C18 UNL     1      -4.308  47.794 -19.111  1.00  0.00     0.003 C 
HETATM   33  C31 UNL     1      -2.308  49.353 -18.470  1.00  0.00     0.005 C 
HETATM   34  C19 UNL     1      -4.355  47.324 -20.578  1.00  0.00     0.010 C 
HETATM   35  C28 UNL     1      -3.571  46.731 -18.264  1.00  0.00     0.072 C 
HETATM   36  C20 UNL     1      -4.505  45.794 -20.699  1.00  0.00     0.035 C 
HETATM   37  C21 UNL     1      -5.179  45.211 -19.479  1.00  0.00    -0.067 C 
HETATM   38  C22 UNL     1      -6.383  44.624 -19.584  1.00  0.00     0.053 C 
HETATM   39  C26 UNL     1      -4.460  45.442 -18.130  1.00  0.00    -0.009 C 
HETATM   40  C23 UNL     1      -7.122  44.143 -18.393  1.00  0.00     0.149 C 
HETATM   41  O7  UNL     1      -8.168  43.517 -18.554  1.00  0.00    -0.293 OA
HETATM   42  C24 UNL     1      -6.545  44.410 -17.024  1.00  0.00     0.084 C 
HETATM   43  C25 UNL     1      -5.540  45.561 -17.023  1.00  0.00     0.022 C 
HETATM   44  C27 UNL     1      -3.544  44.232 -17.848  1.00  0.00     0.021 C 
HETATM   45  C29 UNL     1      -2.966  47.342 -16.999  1.00  0.00     0.133 C 
HETATM   46  O8  UNL     1      -3.121  46.849 -15.880  1.00  0.00    -0.297 OA
HETATM   47  C30 UNL     1      -2.034  48.539 -17.182  1.00  0.00     0.091 C 
HETATM   48  C32 UNL     1      -1.366  48.875 -19.605  1.00  0.00     0.019 C 
BRANCH  28  49
HETATM   49  O6  UNL     1      -2.927  51.262 -17.099  1.00  0.00    -0.381 OA
HETATM   50  H21 UNL     1      -2.681  52.178 -16.837  1.00  0.00     0.211 HD
ENDBRANCH  28  49
ENDBRANCH  26  28
ENDBRANCH   1  26
TORSDOF 16
ENDMDL
MODEL 6
REMARK minimizedAffinity -8.00174522
REMARK CNNscore 0.314799994
REMARK CNNaffinity 6.6115098
REMARK  16 active torsions:
REMARK  status: ('A' for Active; 'I' for Inactive)
REMARK    1  A    between atoms: S1_2  and  C2_3 
REMARK    2  A    between atoms: C2_3  and  C3_4 
REMARK    3  A    between atoms: C3_4  and  C4_5 
REMARK    4  A    between atoms: C4_5  and  N1_6 
REMARK    5  A    between atoms: C4_5  and  C33_44 
REMARK       I    between atoms: N1_6  and  C5_7 
REMARK    6  A    between atoms: C5_7  and  C6_9 
REMARK    7  A    between atoms: C6_9  and  N2_11 
REMARK       I    between atoms: N2_11  and  C8_12 
REMARK    8  A    between atoms: C8_12  and  C9_14 
REMARK    9  A    between atoms: C9_14  and  C10_15 
REMARK   10  A    between atoms: C10_15  and  C11_16 
REMARK   11  A    between atoms: C11_16  and  O4_18 
REMARK   12  A    between atoms: O4_18  and  C12_19 
REMARK   13  A    between atoms: C12_19  and  C13_20 
REMARK   14  A    between atoms: C13_20  and  C14_22 
REMARK   15  A    between atoms: C14_22  and  O6_23 
REMARK   16  A    between atoms: C33_44  and  O10_46 
ROOT
HETATM    1  C12 UNL     1      -2.386  50.000 -16.661  1.00  0.00     0.260 C 
ENDROOT
BRANCH   1   2
HETATM    2  O4  UNL     1      -1.396  50.996 -16.881  1.00  0.00    -0.314 OA
BRANCH   2   3
HETATM    3  C11 UNL     1      -0.384  51.041 -15.979  1.00  0.00     0.259 C 
HETATM    4  O3  UNL     1       0.798  51.100 -16.280  1.00  0.00    -0.265 OA
BRANCH   3   5
HETATM    5  C10 UNL     1      -0.895  50.894 -14.567  1.00  0.00     0.120 C 
BRANCH   5   6
HETATM    6  C9  UNL     1      -2.210  51.648 -14.393  1.00  0.00     0.112 C 
BRANCH   6   7
HETATM    7  C8  UNL     1      -2.585  51.760 -12.929  1.00  0.00     0.218 C 
HETATM    8  N2  UNL     1      -2.986  53.026 -12.558  1.00  0.00    -0.348 N 
HETATM    9  H14 UNL     1      -3.399  53.594 -13.291  1.00  0.00     0.163 HD
HETATM   10  O2  UNL     1      -2.503  50.821 -12.142  1.00  0.00    -0.274 OA
BRANCH   8  11
HETATM   11  C6  UNL     1      -3.546  53.240 -11.227  1.00  0.00     0.172 C 
HETATM   12  C7  UNL     1      -4.414  52.060 -10.812  1.00  0.00     0.042 C 
BRANCH  11  13
HETATM   13  C5  UNL     1      -2.375  53.388 -10.239  1.00  0.00     0.240 C 
HETATM   14  N1  UNL     1      -1.414  54.294 -10.620  1.00  0.00    -0.345 N 
HETATM   15  H9  UNL     1      -1.382  54.570 -11.598  1.00  0.00     0.163 HD
HETATM   16  O1  UNL     1      -2.349  52.789  -9.168  1.00  0.00    -0.271 OA
BRANCH  14  17
HETATM   17  C4  UNL     1      -0.148  54.427  -9.894  1.00  0.00     0.183 C 
BRANCH  17  18
HETATM   18  C3  UNL     1      -0.152  55.559  -8.854  1.00  0.00     0.046 C 
BRANCH  18  19
HETATM   19  C2  UNL     1       0.725  55.346  -7.620  1.00  0.00     0.076 C 
BRANCH  19  20
HETATM   20  S1  UNL     1       0.181  56.227  -6.122  1.00  0.00    -0.173 SA
HETATM   21  C1  UNL     1       1.691  57.153  -5.746  1.00  0.00     0.089 C 
ENDBRANCH  19  20
ENDBRANCH  18  19
ENDBRANCH  17  18
BRANCH  17  22
HETATM   22  C33 UNL     1       0.980  54.537 -10.918  1.00  0.00     0.163 C 
HETATM   23  O9  UNL     1       1.891  55.354 -10.883  1.00  0.00    -0.648 OA
BRANCH  22  24
HETATM   24  O10 UNL     1       0.869  53.688 -11.958  1.00  0.00    -0.775 OA
HETATM   25  H46 UNL     1       1.644  53.898 -12.521  1.00  0.00     0.167 HD
ENDBRANCH  22  24
ENDBRANCH  17  22
ENDBRANCH  14  17
ENDBRANCH  11  13
ENDBRANCH   8  11
ENDBRANCH   6   7
ENDBRANCH   5   6
ENDBRANCH   3   5
ENDBRANCH   2   3
ENDBRANCH   1   2
BRANCH   1  26
HETATM   26  C13 UNL     1      -2.929  49.082 -17.774  1.00  0.00     0.185 C 
HETATM   27  O5  UNL     1      -4.047  48.570 -17.644  1.00  0.00    -0.292 OA
BRANCH  26  28
HETATM   28  C14 UNL     1      -2.057  48.794 -19.021  1.00  0.00     0.128 C 
HETATM   29  C15 UNL     1      -2.184  47.368 -19.615  1.00  0.00     0.047 C 
HETATM   30  C16 UNL     1      -1.972  47.496 -21.136  1.00  0.00     0.009 C 
HETATM   31  C17 UNL     1      -1.627  48.964 -21.354  1.00  0.00     0.002 C 
HETATM   32  C18 UNL     1      -1.710  49.552 -22.765  1.00  0.00     0.003 C 
HETATM   33  C31 UNL     1      -2.400  49.717 -20.248  1.00  0.00     0.005 C 
HETATM   34  C19 UNL     1      -2.767  48.961 -23.718  1.00  0.00     0.010 C 
HETATM   35  C28 UNL     1      -1.840  51.093 -22.759  1.00  0.00     0.072 C 
HETATM   36  C20 UNL     1      -3.021  49.861 -24.943  1.00  0.00     0.035 C 
HETATM   37  C21 UNL     1      -1.813  50.716 -25.255  1.00  0.00    -0.067 C 
HETATM   38  C22 UNL     1      -1.142  50.548 -26.406  1.00  0.00     0.053 C 
HETATM   39  C26 UNL     1      -1.355  51.677 -24.135  1.00  0.00    -0.009 C 
HETATM   40  C23 UNL     1       0.109  51.289 -26.694  1.00  0.00     0.149 C 
HETATM   41  O7  UNL     1       0.623  51.180 -27.805  1.00  0.00    -0.293 OA
HETATM   42  C24 UNL     1       0.688  52.179 -25.621  1.00  0.00     0.084 C 
HETATM   43  C25 UNL     1       0.188  51.818 -24.224  1.00  0.00     0.022 C 
HETATM   44  C27 UNL     1      -2.026  53.049 -24.359  1.00  0.00     0.021 C 
HETATM   45  C29 UNL     1      -1.291  51.698 -21.467  1.00  0.00     0.133 C 
HETATM   46  O8  UNL     1      -0.503  52.646 -21.457  1.00  0.00    -0.297 OA
HETATM   47  C30 UNL     1      -1.858  51.164 -20.152  1.00  0.00     0.091 C 
HETATM   48  C32 UNL     1      -3.928  49.744 -20.505  1.00  0.00     0.019 C 
BRANCH  28  49
HETATM   49  O6  UNL     1      -0.679  48.998 -18.689  1.00  0.00    -0.381 OA
HETATM   50  H21 UNL     1      -0.508  48.640 -17.788  1.00  0.00     0.211 HD
ENDBRANCH  28  49
ENDBRANCH  26  28
ENDBRANCH   1  26
TORSDOF 16
ENDMDL
MODEL 7
REMARK minimizedAffinity -7.4235878
REMARK CNNscore 0.301622927
REMARK CNNaffinity 6.16332579
REMARK  16 active torsions:
REMARK  status: ('A' for Active; 'I' for Inactive)
REMARK    1  A    between atoms: S1_2  and  C2_3 
REMARK    2  A    between atoms: C2_3  and  C3_4 
REMARK    3  A    between atoms: C3_4  and  C4_5 
REMARK    4  A    between atoms: C4_5  and  N1_6 
REMARK    5  A    between atoms: C4_5  and  C33_44 
REMARK       I    between atoms: N1_6  and  C5_7 
REMARK    6  A    between atoms: C5_7  and  C6_9 
REMARK    7  A    between atoms: C6_9  and  N2_11 
REMARK       I    between atoms: N2_11  and  C8_12 
REMARK    8  A    between atoms: C8_12  and  C9_14 
REMARK    9  A    between atoms: C9_14  and  C10_15 
REMARK   10  A    between atoms: C10_15  and  C11_16 
REMARK   11  A    between atoms: C11_16  and  O4_18 
REMARK   12  A    between atoms: O4_18  and  C12_19 
REMARK   13  A    between atoms: C12_19  and  C13_20 
REMARK   14  A    between atoms: C13_20  and  C14_22 
REMARK   15  A    between atoms: C14_22  and  O6_23 
REMARK   16  A    between atoms: C33_44  and  O10_46 
ROOT
HETATM    1  C12 UNL     1      -8.871  46.050 -21.052  1.00  0.00     0.260 C 
ENDROOT
BRANCH   1   2
HETATM    2  O4  UNL     1      -9.994  46.835 -21.432  1.00  0.00    -0.314 OA
BRANCH   2   3
HETATM    3  C11 UNL     1     -11.130  46.636 -20.717  1.00  0.00     0.259 C 
HETATM    4  O3  UNL     1     -11.992  45.825 -21.015  1.00  0.00    -0.265 OA
BRANCH   3   5
HETATM    5  C10 UNL     1     -11.243  47.618 -19.577  1.00  0.00     0.120 C 
BRANCH   5   6
HETATM    6  C9  UNL     1     -11.475  46.884 -18.259  1.00  0.00     0.112 C 
BRANCH   6   7
HETATM    7  C8  UNL     1     -12.864  47.160 -17.719  1.00  0.00     0.218 C 
HETATM    8  N2  UNL     1     -13.853  47.091 -18.677  1.00  0.00    -0.348 N 
HETATM    9  H14 UNL     1     -13.666  46.479 -19.465  1.00  0.00     0.163 HD
HETATM   10  O2  UNL     1     -13.081  47.453 -16.546  1.00  0.00    -0.274 OA
BRANCH   8  11
HETATM   11  C6  UNL     1     -15.253  47.156 -18.270  1.00  0.00     0.172 C 
HETATM   12  C7  UNL     1     -15.786  48.576 -18.398  1.00  0.00     0.042 C 
BRANCH  11  13
HETATM   13  C5  UNL     1     -16.058  46.220 -19.190  1.00  0.00     0.240 C 
HETATM   14  N1  UNL     1     -17.211  46.768 -19.698  1.00  0.00    -0.345 N 
HETATM   15  H9  UNL     1     -17.592  47.589 -19.235  1.00  0.00     0.163 HD
HETATM   16  O1  UNL     1     -15.654  45.100 -19.490  1.00  0.00    -0.271 OA
BRANCH  14  17
HETATM   17  C4  UNL     1     -18.186  45.964 -20.440  1.00  0.00     0.183 C 
BRANCH  17  18
HETATM   18  C3  UNL     1     -18.503  46.517 -21.838  1.00  0.00     0.046 C 
BRANCH  18  19
HETATM   19  C2  UNL     1     -17.879  45.772 -23.018  1.00  0.00     0.076 C 
BRANCH  19  20
HETATM   20  S1  UNL     1     -18.131  46.549 -24.645  1.00  0.00    -0.173 SA
HETATM   21  C1  UNL     1     -19.859  46.091 -24.938  1.00  0.00     0.089 C 
ENDBRANCH  19  20
ENDBRANCH  18  19
ENDBRANCH  17  18
BRANCH  17  22
HETATM   22  C33 UNL     1     -19.419  45.776 -19.558  1.00  0.00     0.163 C 
HETATM   23  O9  UNL     1     -19.969  46.659 -18.914  1.00  0.00    -0.648 OA
BRANCH  22  24
HETATM   24  O10 UNL     1     -19.845  44.501 -19.466  1.00  0.00    -0.775 OA
HETATM   25  H46 UNL     1     -20.614  44.551 -18.860  1.00  0.00     0.167 HD
ENDBRANCH  22  24
ENDBRANCH  17  22
ENDBRANCH  14  17
ENDBRANCH  11  13
ENDBRANCH   8  11
ENDBRANCH   6   7
ENDBRANCH   5   6
ENDBRANCH   3   5
ENDBRANCH   2   3
ENDBRANCH   1   2
BRANCH   1  26
HETATM   26  C13 UNL     1      -7.713  46.589 -20.188  1.00  0.00     0.185 C 
HETATM   27  O5  UNL     1      -7.307  45.918 -19.234  1.00  0.00    -0.292 OA
BRANCH  26  28
HETATM   28  C14 UNL     1      -7.096  47.973 -20.512  1.00  0.00     0.128 C 
HETATM   29  C15 UNL     1      -6.477  48.731 -19.311  1.00  0.00     0.047 C 
HETATM   30  C16 UNL     1      -5.296  49.554 -19.862  1.00  0.00     0.009 C 
HETATM   31  C17 UNL     1      -5.340  49.328 -21.368  1.00  0.00     0.002 C 
HETATM   32  C18 UNL     1      -4.114  49.681 -22.215  1.00  0.00     0.003 C 
HETATM   33  C31 UNL     1      -5.903  47.899 -21.535  1.00  0.00     0.005 C 
HETATM   34  C19 UNL     1      -2.730  49.535 -21.553  1.00  0.00     0.010 C 
HETATM   35  C28 UNL     1      -4.102  48.948 -23.576  1.00  0.00     0.072 C 
HETATM   36  C20 UNL     1      -1.583  49.541 -22.584  1.00  0.00     0.035 C 
HETATM   37  C21 UNL     1      -1.977  50.286 -23.838  1.00  0.00    -0.067 C 
HETATM   38  C22 UNL     1      -1.342  51.418 -24.183  1.00  0.00     0.053 C 
HETATM   39  C26 UNL     1      -3.203  49.733 -24.599  1.00  0.00    -0.009 C 
HETATM   40  C23 UNL     1      -1.775  52.233 -25.343  1.00  0.00     0.149 C 
HETATM   41  O7  UNL     1      -1.093  53.198 -25.680  1.00  0.00    -0.293 OA
HETATM   42  C24 UNL     1      -3.021  51.825 -26.090  1.00  0.00     0.084 C 
HETATM   43  C25 UNL     1      -3.938  50.928 -25.261  1.00  0.00     0.022 C 
HETATM   44  C27 UNL     1      -2.708  48.751 -25.682  1.00  0.00     0.021 C 
HETATM   45  C29 UNL     1      -5.510  48.532 -24.002  1.00  0.00     0.133 C 
HETATM   46  O8  UNL     1      -5.962  48.759 -25.126  1.00  0.00    -0.297 OA
HETATM   47  C30 UNL     1      -6.316  47.691 -23.012  1.00  0.00     0.091 C 
HETATM   48  C32 UNL     1      -4.886  46.807 -21.114  1.00  0.00     0.019 C 
BRANCH  28  49
HETATM   49  O6  UNL     1      -8.107  48.817 -21.077  1.00  0.00    -0.381 OA
HETATM   50  H21 UNL     1      -8.951  48.678 -20.591  1.00  0.00     0.211 HD
ENDBRANCH  28  49
ENDBRANCH  26  28
ENDBRANCH   1  26
TORSDOF 16
ENDMDL
MODEL 8
REMARK minimizedAffinity -9.05230713
REMARK CNNscore 0.281292766
REMARK CNNaffinity 6.69864082
REMARK  16 active torsions:
REMARK  status: ('A' for Active; 'I' for Inactive)
REMARK    1  A    between atoms: S1_2  and  C2_3 
REMARK    2  A    between atoms: C2_3  and  C3_4 
REMARK    3  A    between atoms: C3_4  and  C4_5 
REMARK    4  A    between atoms: C4_5  and  N1_6 
REMARK    5  A    between atoms: C4_5  and  C33_44 
REMARK       I    between atoms: N1_6  and  C5_7 
REMARK    6  A    between atoms: C5_7  and  C6_9 
REMARK    7  A    between atoms: C6_9  and  N2_11 
REMARK       I    between atoms: N2_11  and  C8_12 
REMARK    8  A    between atoms: C8_12  and  C9_14 
REMARK    9  A    between atoms: C9_14  and  C10_15 
REMARK   10  A    between atoms: C10_15  and  C11_16 
REMARK   11  A    between atoms: C11_16  and  O4_18 
REMARK   12  A    between atoms: O4_18  and  C12_19 
REMARK   13  A    between atoms: C12_19  and  C13_20 
REMARK   14  A    between atoms: C13_20  and  C14_22 
REMARK   15  A    between atoms: C14_22  and  O6_23 
REMARK   16  A    between atoms: C33_44  and  O10_46 
ROOT
HETATM    1  C12 UNL     1      -3.065  51.236 -27.193  1.00  0.00     0.260 C 
ENDROOT
BRANCH   1   2
HETATM    2  O4  UNL     1      -2.920  50.043 -27.953  1.00  0.00    -0.314 OA
BRANCH   2   3
HETATM    3  C11 UNL     1      -3.463  48.923 -27.414  1.00  0.00     0.259 C 
HETATM    4  O3  UNL     1      -3.141  48.461 -26.330  1.00  0.00    -0.265 OA
BRANCH   3   5
HETATM    5  C10 UNL     1      -4.427  48.262 -28.368  1.00  0.00     0.120 C 
BRANCH   5   6
HETATM    6  C9  UNL     1      -5.694  47.832 -27.635  1.00  0.00     0.112 C 
BRANCH   6   7
HETATM    7  C8  UNL     1      -6.797  47.481 -28.613  1.00  0.00     0.218 C 
HETATM    8  N2  UNL     1      -7.457  48.582 -29.119  1.00  0.00    -0.348 N 
HETATM    9  H14 UNL     1      -6.920  49.442 -29.159  1.00  0.00     0.163 HD
HETATM   10  O2  UNL     1      -7.097  46.326 -28.900  1.00  0.00    -0.274 OA
BRANCH   8  11
HETATM   11  C6  UNL     1      -8.417  48.407 -30.204  1.00  0.00     0.172 C 
HETATM   12  C7  UNL     1      -7.799  47.617 -31.348  1.00  0.00     0.042 C 
BRANCH  11  13
HETATM   13  C5  UNL     1      -9.628  47.638 -29.645  1.00  0.00     0.240 C 
HETATM   14  N1  UNL     1     -10.269  48.259 -28.599  1.00  0.00    -0.345 N 
HETATM   15  H9  UNL     1      -9.766  48.986 -28.097  1.00  0.00     0.163 HD
HETATM   16  O1  UNL     1     -10.019  46.588 -30.147  1.00  0.00    -0.271 OA
BRANCH  14  17
HETATM   17  C4  UNL     1     -11.322  47.588 -27.832  1.00  0.00     0.183 C 
BRANCH  17  18
HETATM   18  C3  UNL     1     -12.723  47.739 -28.447  1.00  0.00     0.046 C 
BRANCH  18  19
HETATM   19  C2  UNL     1     -13.394  46.451 -28.925  1.00  0.00     0.076 C 
BRANCH  19  20
HETATM   20  S1  UNL     1     -14.649  45.768 -27.798  1.00  0.00    -0.173 SA
HETATM   21  C1  UNL     1     -13.598  44.702 -26.778  1.00  0.00     0.089 C 
ENDBRANCH  19  20
ENDBRANCH  18  19
ENDBRANCH  17  18
BRANCH  17  22
HETATM   22  C33 UNL     1     -11.232  48.062 -26.382  1.00  0.00     0.163 C 
HETATM   23  O9  UNL     1     -11.511  47.389 -25.399  1.00  0.00    -0.648 OA
BRANCH  22  24
HETATM   24  O10 UNL     1     -10.882  49.355 -26.244  1.00  0.00    -0.775 OA
HETATM   25  H46 UNL     1     -10.891  49.502 -25.274  1.00  0.00     0.167 HD
ENDBRANCH  22  24
ENDBRANCH  17  22
ENDBRANCH  14  17
ENDBRANCH  11  13
ENDBRANCH   8  11
ENDBRANCH   6   7
ENDBRANCH   5   6
ENDBRANCH   3   5
ENDBRANCH   2   3
ENDBRANCH   1   2
BRANCH   1  26
HETATM   26  C13 UNL     1      -1.874  52.104 -26.740  1.00  0.00     0.185 C 
HETATM   27  O5  UNL     1      -1.679  53.195 -27.286  1.00  0.00    -0.292 OA
BRANCH  26  28
HETATM   28  C14 UNL     1      -0.927  51.584 -25.630  1.00  0.00     0.128 C 
HETATM   29  C15 UNL     1       0.478  52.236 -25.585  1.00  0.00     0.047 C 
HETATM   30  C16 UNL     1       0.916  52.255 -24.108  1.00  0.00     0.009 C 
HETATM   31  C17 UNL     1      -0.196  51.522 -23.368  1.00  0.00     0.002 C 
HETATM   32  C18 UNL     1      -0.301  51.660 -21.846  1.00  0.00     0.003 C 
HETATM   33  C31 UNL     1      -1.476  51.832 -24.176  1.00  0.00     0.005 C 
HETATM   34  C19 UNL     1       0.158  52.991 -21.222  1.00  0.00     0.010 C 
HETATM   35  C28 UNL     1      -1.711  51.313 -21.315  1.00  0.00     0.072 C 
HETATM   36  C20 UNL     1      -0.339  53.162 -19.773  1.00  0.00     0.035 C 
HETATM   37  C21 UNL     1      -0.583  51.823 -19.115  1.00  0.00    -0.067 C 
HETATM   38  C22 UNL     1       0.158  51.439 -18.062  1.00  0.00     0.053 C 
HETATM   39  C26 UNL     1      -1.628  50.913 -19.797  1.00  0.00    -0.009 C 
HETATM   40  C23 UNL     1       0.023  50.089 -17.465  1.00  0.00     0.149 C 
HETATM   41  O7  UNL     1       0.645  49.828 -16.438  1.00  0.00    -0.293 OA
HETATM   42  C24 UNL     1      -0.903  49.095 -18.122  1.00  0.00     0.084 C 
HETATM   43  C25 UNL     1      -1.196  49.438 -19.582  1.00  0.00     0.022 C 
HETATM   44  C27 UNL     1      -3.002  51.163 -19.140  1.00  0.00     0.021 C 
HETATM   45  C29 UNL     1      -2.464  50.396 -22.278  1.00  0.00     0.133 C 
HETATM   46  O8  UNL     1      -3.036  49.368 -21.911  1.00  0.00    -0.297 OA
HETATM   47  C30 UNL     1      -2.601  50.868 -23.726  1.00  0.00     0.091 C 
HETATM   48  C32 UNL     1      -1.944  53.300 -24.009  1.00  0.00     0.019 C 
BRANCH  28  49
HETATM   49  O6  UNL     1      -0.740  50.174 -25.794  1.00  0.00    -0.381 OA
HETATM   50  H21 UNL     1      -0.647  49.970 -26.752  1.00  0.00     0.211 HD
ENDBRANCH  28  49
ENDBRANCH  26  28
ENDBRANCH   1  26
TORSDOF 16
ENDMDL
MODEL 9
REMARK minimizedAffinity -8.89616776
REMARK CNNscore 0.271244019
REMARK CNNaffinity 6.04539251
REMARK  16 active torsions:
REMARK  status: ('A' for Active; 'I' for Inactive)
REMARK    1  A    between atoms: S1_2  and  C2_3 
REMARK    2  A    between atoms: C2_3  and  C3_4 
REMARK    3  A    between atoms: C3_4  and  C4_5 
REMARK    4  A    between atoms: C4_5  and  N1_6 
REMARK    5  A    between atoms: C4_5  and  C33_44 
REMARK       I    between atoms: N1_6  and  C5_7 
REMARK    6  A    between atoms: C5_7  and  C6_9 
REMARK    7  A    between atoms: C6_9  and  N2_11 
REMARK       I    between atoms: N2_11  and  C8_12 
REMARK    8  A    between atoms: C8_12  and  C9_14 
REMARK    9  A    between atoms: C9_14  and  C10_15 
REMARK   10  A    between atoms: C10_15  and  C11_16 
REMARK   11  A    between atoms: C11_16  and  O4_18 
REMARK   12  A    between atoms: O4_18  and  C12_19 
REMARK   13  A    between atoms: C12_19  and  C13_20 
REMARK   14  A    between atoms: C13_20  and  C14_22 
REMARK   15  A    between atoms: C14_22  and  O6_23 
REMARK   16  A    between atoms: C33_44  and  O10_46 
ROOT
HETATM    1  C12 UNL     1      -8.688  47.347 -28.150  1.00  0.00     0.260 C 
ENDROOT
BRANCH   1   2
HETATM    2  O4  UNL     1      -7.544  48.180 -28.287  1.00  0.00    -0.314 OA
BRANCH   2   3
HETATM    3  C11 UNL     1      -6.348  47.543 -28.358  1.00  0.00     0.259 C 
HETATM    4  O3  UNL     1      -6.088  46.667 -29.167  1.00  0.00    -0.265 OA
BRANCH   3   5
HETATM    5  C10 UNL     1      -5.425  47.975 -27.246  1.00  0.00     0.120 C 
BRANCH   5   6
HETATM    6  C9  UNL     1      -4.036  48.288 -27.794  1.00  0.00     0.112 C 
BRANCH   6   7
HETATM    7  C8  UNL     1      -3.252  49.156 -26.829  1.00  0.00     0.218 C 
HETATM    8  N2  UNL     1      -4.043  50.003 -26.082  1.00  0.00    -0.348 N 
HETATM    9  H14 UNL     1      -4.994  49.690 -25.914  1.00  0.00     0.163 HD
HETATM   10  O2  UNL     1      -2.027  49.131 -26.749  1.00  0.00    -0.274 OA
BRANCH   8  11
HETATM   11  C6  UNL     1      -3.446  50.764 -24.989  1.00  0.00     0.172 C 
HETATM   12  C7  UNL     1      -2.570  49.868 -24.124  1.00  0.00     0.042 C 
BRANCH  11  13
HETATM   13  C5  UNL     1      -2.585  51.882 -25.606  1.00  0.00     0.240 C 
HETATM   14  N1  UNL     1      -1.235  51.626 -25.618  1.00  0.00    -0.345 N 
HETATM   15  H9  UNL     1      -0.882  50.904 -24.996  1.00  0.00     0.163 HD
HETATM   16  O1  UNL     1      -3.086  52.886 -26.104  1.00  0.00    -0.271 OA
BRANCH  14  17
HETATM   17  C4  UNL     1      -0.259  52.651 -25.999  1.00  0.00     0.183 C 
BRANCH  17  18
HETATM   18  C3  UNL     1      -0.168  53.815 -24.999  1.00  0.00     0.046 C 
BRANCH  18  19
HETATM   19  C2  UNL     1       0.835  53.649 -23.858  1.00  0.00     0.076 C 
BRANCH  19  20
HETATM   20  S1  UNL     1       0.316  52.520 -22.528  1.00  0.00    -0.173 SA
HETATM   21  C1  UNL     1       1.007  53.392 -21.099  1.00  0.00     0.089 C 
ENDBRANCH  19  20
ENDBRANCH  18  19
ENDBRANCH  17  18
BRANCH  17  22
HETATM   22  C33 UNL     1      -0.564  53.091 -27.430  1.00  0.00     0.163 C 
HETATM   23  O9  UNL     1      -0.669  54.251 -27.806  1.00  0.00    -0.648 OA
BRANCH  22  24
HETATM   24  O10 UNL     1      -0.795  52.076 -28.284  1.00  0.00    -0.775 OA
HETATM   25  H46 UNL     1      -0.991  52.522 -29.135  1.00  0.00     0.167 HD
ENDBRANCH  22  24
ENDBRANCH  17  22
ENDBRANCH  14  17
ENDBRANCH  11  13
ENDBRANCH   8  11
ENDBRANCH   6   7
ENDBRANCH   5   6
ENDBRANCH   3   5
ENDBRANCH   2   3
ENDBRANCH   1   2
BRANCH   1  26
HETATM   26  C13 UNL     1      -9.642  47.408 -26.940  1.00  0.00     0.185 C 
HETATM   27  O5  UNL     1      -9.213  47.124 -25.817  1.00  0.00    -0.292 OA
BRANCH  26  28
HETATM   28  C14 UNL     1     -11.126  47.796 -27.154  1.00  0.00     0.128 C 
HETATM   29  C15 UNL     1     -11.592  47.882 -28.630  1.00  0.00     0.047 C 
HETATM   30  C16 UNL     1     -13.075  47.464 -28.656  1.00  0.00     0.009 C 
HETATM   31  C17 UNL     1     -13.442  47.257 -27.191  1.00  0.00     0.002 C 
HETATM   32  C18 UNL     1     -14.717  46.486 -26.840  1.00  0.00     0.003 C 
HETATM   33  C31 UNL     1     -12.136  46.767 -26.525  1.00  0.00     0.005 C 
HETATM   34  C19 UNL     1     -15.162  45.373 -27.809  1.00  0.00     0.010 C 
HETATM   35  C28 UNL     1     -14.692  45.921 -25.401  1.00  0.00     0.072 C 
HETATM   36  C20 UNL     1     -16.206  44.430 -27.179  1.00  0.00     0.035 C 
HETATM   37  C21 UNL     1     -16.987  45.127 -26.088  1.00  0.00    -0.067 C 
HETATM   38  C22 UNL     1     -18.306  45.338 -26.227  1.00  0.00     0.053 C 
HETATM   39  C26 UNL     1     -16.159  45.666 -24.900  1.00  0.00    -0.009 C 
HETATM   40  C23 UNL     1     -19.080  46.116 -25.231  1.00  0.00     0.149 C 
HETATM   41  O7  UNL     1     -20.301  46.186 -25.349  1.00  0.00    -0.293 OA
HETATM   42  C24 UNL     1     -18.342  46.764 -24.085  1.00  0.00     0.084 C 
HETATM   43  C25 UNL     1     -16.853  46.950 -24.373  1.00  0.00     0.022 C 
HETATM   44  C27 UNL     1     -16.128  44.589 -23.794  1.00  0.00     0.021 C 
HETATM   45  C29 UNL     1     -13.735  46.709 -24.505  1.00  0.00     0.133 C 
HETATM   46  O8  UNL     1     -14.057  47.129 -23.392  1.00  0.00    -0.297 OA
HETATM   47  C30 UNL     1     -12.292  46.856 -24.988  1.00  0.00     0.091 C 
HETATM   48  C32 UNL     1     -11.769  45.318 -26.934  1.00  0.00     0.019 C 
BRANCH  28  49
HETATM   49  O6  UNL     1     -11.369  49.074 -26.554  1.00  0.00    -0.381 OA
HETATM   50  H21 UNL     1     -10.603  49.665 -26.731  1.00  0.00     0.211 HD
ENDBRANCH  28  49
ENDBRANCH  26  28
ENDBRANCH   1  26
TORSDOF 16
ENDMDL
