MODEL 1
REMARK minimizedAffinity -8.3115139
REMARK CNNscore 0.371340156
REMARK CNNaffinity 7.30744028
REMARK  12 active torsions:
REMARK  status: ('A' for Active; 'I' for Inactive)
REMARK    1  A    between atoms: C2_2  and  O2_4 
REMARK    2  A    between atoms: O2_4  and  C3_5 
REMARK    3  A    between atoms: C4_6  and  O3_7 
REMARK    4  A    between atoms: O3_7  and  C5_8 
REMARK    5  A    between atoms: C11_14  and  O4_15 
REMARK    6  A    between atoms: C14_18  and  C15_19 
REMARK    7  A    between atoms: C19_23  and  C20_24 
REMARK    8  A    between atoms: C20_24  and  O5_27 
REMARK    9  A    between atoms: C35_42  and  C36_43 
REMARK   10  A    between atoms: C36_43  and  O8_44 
REMARK   11  A    between atoms: C37_45  and  O9_46 
REMARK   12  A    between atoms: C38_47  and  O10_48 
ROOT
HETATM    1  C5  UNL     1      -1.872  50.455 -20.654  1.00  0.00     0.133 C 
HETATM    2  C6  UNL     1      -3.042  51.319 -20.197  1.00  0.00     0.034 C 
HETATM    3  C7  UNL     1      -4.401  50.622 -20.042  1.00  0.00     0.012 C 
HETATM    4  C8  UNL     1      -4.455  49.097 -20.343  1.00  0.00    -0.033 C 
HETATM    5  C9  UNL     1      -4.412  48.918 -21.872  1.00  0.00     0.016 C 
HETATM    6  C10 UNL     1      -5.795  48.454 -19.722  1.00  0.00     0.032 C 
HETATM    7  C11 UNL     1      -7.148  49.025 -20.270  1.00  0.00     0.124 C 
HETATM    8  C12 UNL     1      -8.407  48.432 -19.600  1.00  0.00     0.038 C 
HETATM    9  C13 UNL     1      -8.375  46.916 -19.591  1.00  0.00     0.004 C 
HETATM   10  C14 UNL     1      -9.550  46.160 -18.951  1.00  0.00     0.025 C 
HETATM   11  C23 UNL     1      -8.959  44.741 -18.774  1.00  0.00     0.009 C 
HETATM   12  C24 UNL     1      -7.424  44.866 -18.840  1.00  0.00     0.011 C 
HETATM   13  C25 UNL     1      -7.115  46.381 -18.867  1.00  0.00    -0.032 C 
HETATM   14  C26 UNL     1      -7.061  46.832 -17.372  1.00  0.00     0.016 C 
HETATM   15  C27 UNL     1      -5.817  46.857 -19.679  1.00  0.00    -0.030 C 
HETATM   16  C28 UNL     1      -5.815  46.242 -21.115  1.00  0.00     0.016 C 
HETATM   17  C29 UNL     1      -4.523  46.358 -18.985  1.00  0.00     0.011 C 
HETATM   18  C30 UNL     1      -3.238  46.929 -19.577  1.00  0.00     0.007 C 
HETATM   19  C31 UNL     1      -3.222  48.471 -19.592  1.00  0.00     0.004 C 
HETATM   20  C32 UNL     1      -1.800  49.084 -19.923  1.00  0.00    -0.017 C 
HETATM   21  C33 UNL     1      -0.889  48.123 -20.734  1.00  0.00     0.018 C 
HETATM   22  C34 UNL     1      -1.078  49.319 -18.562  1.00  0.00     0.018 C 
ENDROOT
BRANCH   1  23
HETATM   23  O3  UNL     1      -1.918  50.252 -22.075  1.00  0.00    -0.352 OA
BRANCH  23  24
HETATM   24  C4  UNL     1      -2.254  51.423 -22.836  1.00  0.00     0.293 C 
HETATM   25  C3  UNL     1      -0.950  52.092 -23.320  1.00  0.00     0.218 C 
HETATM   26  C38 UNL     1      -1.229  52.925 -24.567  1.00  0.00     0.183 C 
HETATM   27  C37 UNL     1      -1.921  52.114 -25.678  1.00  0.00     0.180 C 
HETATM   28  C35 UNL     1      -2.717  50.903 -25.170  1.00  0.00     0.179 C 
HETATM   29  O7  UNL     1      -3.204  51.093 -23.839  1.00  0.00    -0.348 OA
BRANCH  25  30
HETATM   30  O2  UNL     1      -0.461  52.943 -22.236  1.00  0.00    -0.309 OA
BRANCH  30  31
HETATM   31  C2  UNL     1       0.822  52.741 -21.853  1.00  0.00     0.255 C 
HETATM   32  C1  UNL     1       1.503  54.041 -21.562  1.00  0.00     0.126 C 
HETATM   33  O1  UNL     1       1.357  51.645 -21.780  1.00  0.00    -0.266 OA
ENDBRANCH  30  31
ENDBRANCH  25  30
BRANCH  26  34
HETATM   34  O10 UNL     1      -0.041  53.518 -25.131  1.00  0.00    -0.390 OA
HETATM   35  H64 UNL     1       0.735  53.175 -24.648  1.00  0.00     0.210 HD
ENDBRANCH  26  34
BRANCH  27  36
HETATM   36  O9  UNL     1      -2.833  53.016 -26.339  1.00  0.00    -0.390 OA
HETATM   37  H62 UNL     1      -2.734  52.882 -27.297  1.00  0.00     0.210 HD
ENDBRANCH  27  36
BRANCH  28  38
HETATM   38  C36 UNL     1      -1.990  49.564 -25.364  1.00  0.00     0.198 C 
BRANCH  38  39
HETATM   39  O8  UNL     1      -2.469  48.841 -26.493  1.00  0.00    -0.398 OA
HETATM   40  H60 UNL     1      -1.749  48.257 -26.792  1.00  0.00     0.209 HD
ENDBRANCH  38  39
ENDBRANCH  28  38
ENDBRANCH  23  24
ENDBRANCH   1  23
BRANCH   7  41
HETATM   41  O4  UNL     1      -7.223  50.433 -20.070  1.00  0.00    -0.395 OA
HETATM   42  H16 UNL     1      -8.016  50.751 -20.521  1.00  0.00     0.210 HD
ENDBRANCH   7  41
BRANCH  10  43
HETATM   43  C15 UNL     1     -10.914  46.182 -19.701  1.00  0.00     0.062 C 
HETATM   44  C16 UNL     1     -10.821  45.710 -21.157  1.00  0.00     0.046 C 
HETATM   45  C17 UNL     1     -11.636  47.531 -19.621  1.00  0.00     0.041 C 
HETATM   46  C18 UNL     1     -12.360  47.467 -18.297  1.00  0.00     0.038 C 
HETATM   47  C19 UNL     1     -12.723  45.989 -18.187  1.00  0.00     0.156 C 
HETATM   48  O6  UNL     1     -11.804  45.262 -19.028  1.00  0.00    -0.372 OA
BRANCH  47  49
HETATM   49  C20 UNL     1     -12.726  45.423 -16.742  1.00  0.00     0.076 C 
HETATM   50  C21 UNL     1     -14.154  45.341 -16.186  1.00  0.00     0.048 C 
HETATM   51  C22 UNL     1     -12.063  44.038 -16.698  1.00  0.00     0.048 C 
BRANCH  49  52
HETATM   52  O5  UNL     1     -11.990  46.306 -15.883  1.00  0.00    -0.388 OA
HETATM   53  H35 UNL     1     -11.723  45.801 -15.095  1.00  0.00     0.210 HD
ENDBRANCH  49  52
ENDBRANCH  47  49
ENDBRANCH  10  43
TORSDOF 12
ENDMDL
MODEL 2
REMARK minimizedAffinity -9.07864761
REMARK CNNscore 0.344095141
REMARK CNNaffinity 7.21473694
REMARK  12 active torsions:
REMARK  status: ('A' for Active; 'I' for Inactive)
REMARK    1  A    between atoms: C2_2  and  O2_4 
REMARK    2  A    between atoms: O2_4  and  C3_5 
REMARK    3  A    between atoms: C4_6  and  O3_7 
REMARK    4  A    between atoms: O3_7  and  C5_8 
REMARK    5  A    between atoms: C11_14  and  O4_15 
REMARK    6  A    between atoms: C14_18  and  C15_19 
REMARK    7  A    between atoms: C19_23  and  C20_24 
REMARK    8  A    between atoms: C20_24  and  O5_27 
REMARK    9  A    between atoms: C35_42  and  C36_43 
REMARK   10  A    between atoms: C36_43  and  O8_44 
REMARK   11  A    between atoms: C37_45  and  O9_46 
REMARK   12  A    between atoms: C38_47  and  O10_48 
ROOT
HETATM    1  C5  UNL     1      -2.155  51.253 -23.782  1.00  0.00     0.133 C 
HETATM    2  C6  UNL     1      -3.549  51.723 -24.186  1.00  0.00     0.034 C 
HETATM    3  C7  UNL     1      -4.737  50.909 -23.655  1.00  0.00     0.012 C 
HETATM    4  C8  UNL     1      -4.413  49.695 -22.738  1.00  0.00    -0.033 C 
HETATM    5  C9  UNL     1      -3.890  48.557 -23.633  1.00  0.00     0.016 C 
HETATM    6  C10 UNL     1      -5.731  49.239 -21.932  1.00  0.00     0.032 C 
HETATM    7  C11 UNL     1      -6.945  48.774 -22.808  1.00  0.00     0.124 C 
HETATM    8  C12 UNL     1      -8.210  48.412 -22.000  1.00  0.00     0.038 C 
HETATM    9  C13 UNL     1      -7.899  47.443 -20.876  1.00  0.00     0.004 C 
HETATM   10  C14 UNL     1      -9.046  46.983 -19.963  1.00  0.00     0.025 C 
HETATM   11  C23 UNL     1      -8.278  46.384 -18.761  1.00  0.00     0.009 C 
HETATM   12  C24 UNL     1      -6.844  46.946 -18.800  1.00  0.00     0.011 C 
HETATM   13  C25 UNL     1      -6.830  48.018 -19.914  1.00  0.00    -0.032 C 
HETATM   14  C26 UNL     1      -7.303  49.344 -19.235  1.00  0.00     0.016 C 
HETATM   15  C27 UNL     1      -5.464  48.222 -20.728  1.00  0.00    -0.030 C 
HETATM   16  C28 UNL     1      -4.925  46.850 -21.243  1.00  0.00     0.016 C 
HETATM   17  C29 UNL     1      -4.361  48.812 -19.811  1.00  0.00     0.011 C 
HETATM   18  C30 UNL     1      -3.091  49.222 -20.548  1.00  0.00     0.007 C 
HETATM   19  C31 UNL     1      -3.360  50.221 -21.692  1.00  0.00     0.004 C 
HETATM   20  C32 UNL     1      -2.046  50.882 -22.276  1.00  0.00    -0.017 C 
HETATM   21  C33 UNL     1      -0.773  50.019 -22.057  1.00  0.00     0.018 C 
HETATM   22  C34 UNL     1      -1.813  52.206 -21.486  1.00  0.00     0.018 C 
ENDROOT
BRANCH   1  23
HETATM   23  O3  UNL     1      -1.743  50.141 -24.593  1.00  0.00    -0.352 OA
BRANCH  23  24
HETATM   24  C4  UNL     1      -1.350  50.489 -25.930  1.00  0.00     0.293 C 
HETATM   25  C3  UNL     1      -2.147  51.734 -26.375  1.00  0.00     0.218 C 
HETATM   26  C38 UNL     1      -1.380  52.474 -27.467  1.00  0.00     0.183 C 
HETATM   27  C37 UNL     1       0.062  52.817 -27.049  1.00  0.00     0.180 C 
HETATM   28  C35 UNL     1       0.641  51.891 -25.970  1.00  0.00     0.179 C 
HETATM   29  O7  UNL     1       0.064  50.583 -26.010  1.00  0.00    -0.348 OA
BRANCH  25  30
HETATM   30  O2  UNL     1      -3.440  51.275 -26.879  1.00  0.00    -0.309 OA
BRANCH  30  31
HETATM   31  C2  UNL     1      -3.402  50.263 -27.779  1.00  0.00     0.255 C 
HETATM   32  C1  UNL     1      -3.795  48.968 -27.141  1.00  0.00     0.126 C 
HETATM   33  O1  UNL     1      -3.068  50.389 -28.947  1.00  0.00    -0.266 OA
ENDBRANCH  30  31
ENDBRANCH  25  30
BRANCH  26  34
HETATM   34  O10 UNL     1      -2.022  53.699 -27.879  1.00  0.00    -0.390 OA
HETATM   35  H64 UNL     1      -2.782  53.863 -27.289  1.00  0.00     0.210 HD
ENDBRANCH  26  34
BRANCH  27  36
HETATM   36  O9  UNL     1       0.872  52.698 -28.237  1.00  0.00    -0.390 OA
HETATM   37  H62 UNL     1       1.463  53.470 -28.266  1.00  0.00     0.210 HD
ENDBRANCH  27  36
BRANCH  28  38
HETATM   38  C36 UNL     1       0.641  52.510 -24.564  1.00  0.00     0.198 C 
BRANCH  38  39
HETATM   39  O8  UNL     1       0.785  53.926 -24.590  1.00  0.00    -0.398 OA
HETATM   40  H60 UNL     1       0.384  54.275 -23.775  1.00  0.00     0.209 HD
ENDBRANCH  38  39
ENDBRANCH  28  38
ENDBRANCH  23  24
ENDBRANCH   1  23
BRANCH   7  41
HETATM   41  O4  UNL     1      -7.338  49.800 -23.715  1.00  0.00    -0.395 OA
HETATM   42  H16 UNL     1      -8.009  49.429 -24.303  1.00  0.00     0.210 HD
ENDBRANCH   7  41
BRANCH  10  43
HETATM   43  C15 UNL     1     -10.108  46.021 -20.572  1.00  0.00     0.062 C 
HETATM   44  C16 UNL     1     -11.407  46.724 -20.983  1.00  0.00     0.046 C 
HETATM   45  C17 UNL     1     -10.413  44.806 -19.689  1.00  0.00     0.041 C 
HETATM   46  C18 UNL     1      -9.318  43.828 -20.042  1.00  0.00     0.038 C 
HETATM   47  C19 UNL     1      -9.083  44.112 -21.523  1.00  0.00     0.156 C 
HETATM   48  O6  UNL     1      -9.549  45.452 -21.778  1.00  0.00    -0.372 OA
BRANCH  47  49
HETATM   49  C20 UNL     1      -7.617  43.929 -21.998  1.00  0.00     0.076 C 
HETATM   50  C21 UNL     1      -6.654  43.878 -20.804  1.00  0.00     0.048 C 
HETATM   51  C22 UNL     1      -7.474  42.655 -22.844  1.00  0.00     0.048 C 
BRANCH  49  52
HETATM   52  O5  UNL     1      -7.233  45.054 -22.801  1.00  0.00    -0.388 OA
HETATM   53  H35 UNL     1      -6.471  44.786 -23.345  1.00  0.00     0.210 HD
ENDBRANCH  49  52
ENDBRANCH  47  49
ENDBRANCH  10  43
TORSDOF 12
ENDMDL
MODEL 3
REMARK minimizedAffinity -8.28115177
REMARK CNNscore 0.33467418
REMARK CNNaffinity 6.96968699
REMARK  12 active torsions:
REMARK  status: ('A' for Active; 'I' for Inactive)
REMARK    1  A    between atoms: C2_2  and  O2_4 
REMARK    2  A    between atoms: O2_4  and  C3_5 
REMARK    3  A    between atoms: C4_6  and  O3_7 
REMARK    4  A    between atoms: O3_7  and  C5_8 
REMARK    5  A    between atoms: C11_14  and  O4_15 
REMARK    6  A    between atoms: C14_18  and  C15_19 
REMARK    7  A    between atoms: C19_23  and  C20_24 
REMARK    8  A    between atoms: C20_24  and  O5_27 
REMARK    9  A    between atoms: C35_42  and  C36_43 
REMARK   10  A    between atoms: C36_43  and  O8_44 
REMARK   11  A    between atoms: C37_45  and  O9_46 
REMARK   12  A    between atoms: C38_47  and  O10_48 
ROOT
HETATM    1  C5  UNL     1      -6.468  48.716 -23.238  1.00  0.00     0.133 C 
HETATM    2  C6  UNL     1      -7.134  49.038 -21.904  1.00  0.00     0.034 C 
HETATM    3  C7  UNL     1      -6.219  49.123 -20.674  1.00  0.00     0.012 C 
HETATM    4  C8  UNL     1      -4.697  48.896 -20.905  1.00  0.00    -0.033 C 
HETATM    5  C9  UNL     1      -4.472  47.387 -21.106  1.00  0.00     0.016 C 
HETATM    6  C10 UNL     1      -3.856  49.444 -19.645  1.00  0.00     0.032 C 
HETATM    7  C11 UNL     1      -4.164  48.765 -18.266  1.00  0.00     0.124 C 
HETATM    8  C12 UNL     1      -3.388  49.366 -17.074  1.00  0.00     0.038 C 
HETATM    9  C13 UNL     1      -1.901  49.454 -17.360  1.00  0.00     0.004 C 
HETATM   10  C14 UNL     1      -0.978  50.040 -16.281  1.00  0.00     0.025 C 
HETATM   11  C23 UNL     1       0.310  50.334 -17.086  1.00  0.00     0.009 C 
HETATM   12  C24 UNL     1      -0.076  50.379 -18.577  1.00  0.00     0.011 C 
HETATM   13  C25 UNL     1      -1.619  50.299 -18.627  1.00  0.00    -0.032 C 
HETATM   14  C26 UNL     1      -2.127  51.770 -18.478  1.00  0.00     0.016 C 
HETATM   15  C27 UNL     1      -2.282  49.566 -19.890  1.00  0.00    -0.030 C 
HETATM   16  C28 UNL     1      -1.624  48.168 -20.117  1.00  0.00     0.016 C 
HETATM   17  C29 UNL     1      -2.040  50.382 -21.187  1.00  0.00     0.011 C 
HETATM   18  C30 UNL     1      -2.802  49.862 -22.401  1.00  0.00     0.007 C 
HETATM   19  C31 UNL     1      -4.322  49.771 -22.158  1.00  0.00     0.004 C 
HETATM   20  C32 UNL     1      -5.158  49.519 -23.478  1.00  0.00    -0.017 C 
HETATM   21  C33 UNL     1      -4.340  48.830 -24.604  1.00  0.00     0.018 C 
HETATM   22  C34 UNL     1      -5.565  50.918 -24.033  1.00  0.00     0.018 C 
ENDROOT
BRANCH   1  23
HETATM   23  O3  UNL     1      -6.209  47.308 -23.346  1.00  0.00    -0.352 OA
BRANCH  23  24
HETATM   24  C4  UNL     1      -7.355  46.512 -23.685  1.00  0.00     0.293 C 
HETATM   25  C3  UNL     1      -8.457  46.753 -22.630  1.00  0.00     0.218 C 
HETATM   26  C38 UNL     1      -9.824  46.442 -23.232  1.00  0.00     0.183 C 
HETATM   27  C37 UNL     1     -10.084  47.212 -24.540  1.00  0.00     0.180 C 
HETATM   28  C35 UNL     1      -8.810  47.626 -25.289  1.00  0.00     0.179 C 
HETATM   29  O7  UNL     1      -7.718  46.737 -25.039  1.00  0.00    -0.348 OA
BRANCH  25  30
HETATM   30  O2  UNL     1      -8.184  45.870 -21.497  1.00  0.00    -0.309 OA
BRANCH  30  31
HETATM   31  C2  UNL     1      -8.181  44.543 -21.764  1.00  0.00     0.255 C 
HETATM   32  C1  UNL     1      -6.814  43.964 -21.576  1.00  0.00     0.126 C 
HETATM   33  O1  UNL     1      -9.158  43.909 -22.134  1.00  0.00    -0.266 OA
ENDBRANCH  30  31
ENDBRANCH  25  30
BRANCH  26  34
HETATM   34  O10 UNL     1     -10.916  46.722 -22.332  1.00  0.00    -0.390 OA
HETATM   35  H64 UNL     1     -10.557  47.161 -21.537  1.00  0.00     0.210 HD
ENDBRANCH  26  34
BRANCH  27  36
HETATM   36  O9  UNL     1     -10.848  46.331 -25.390  1.00  0.00    -0.390 OA
HETATM   37  H62 UNL     1     -11.567  46.856 -25.782  1.00  0.00     0.210 HD
ENDBRANCH  27  36
BRANCH  28  38
HETATM   38  C36 UNL     1      -8.440  49.105 -25.103  1.00  0.00     0.198 C 
BRANCH  38  39
HETATM   39  O8  UNL     1      -9.436  49.986 -25.612  1.00  0.00    -0.398 OA
HETATM   40  H60 UNL     1      -9.358  50.826 -25.128  1.00  0.00     0.209 HD
ENDBRANCH  38  39
ENDBRANCH  28  38
ENDBRANCH  23  24
ENDBRANCH   1  23
BRANCH   7  41
HETATM   41  O4  UNL     1      -5.545  48.887 -17.938  1.00  0.00    -0.395 OA
HETATM   42  H16 UNL     1      -5.704  48.362 -17.143  1.00  0.00     0.210 HD
ENDBRANCH   7  41
BRANCH  10  43
HETATM   43  C15 UNL     1      -0.737  49.187 -15.001  1.00  0.00     0.062 C 
HETATM   44  C16 UNL     1       0.422  48.191 -15.136  1.00  0.00     0.046 C 
HETATM   45  C17 UNL     1      -1.995  48.477 -14.490  1.00  0.00     0.041 C 
HETATM   46  C18 UNL     1      -2.686  49.534 -13.662  1.00  0.00     0.038 C 
HETATM   47  C19 UNL     1      -1.515  50.311 -13.069  1.00  0.00     0.156 C 
HETATM   48  O6  UNL     1      -0.379  50.090 -13.929  1.00  0.00    -0.372 OA
BRANCH  47  49
HETATM   49  C20 UNL     1      -1.774  51.827 -12.863  1.00  0.00     0.076 C 
HETATM   50  C21 UNL     1      -3.092  52.255 -13.525  1.00  0.00     0.048 C 
HETATM   51  C22 UNL     1      -1.798  52.177 -11.368  1.00  0.00     0.048 C 
BRANCH  49  52
HETATM   52  O5  UNL     1      -0.725  52.579 -13.489  1.00  0.00    -0.388 OA
HETATM   53  H35 UNL     1      -0.713  53.466 -13.087  1.00  0.00     0.210 HD
ENDBRANCH  49  52
ENDBRANCH  47  49
ENDBRANCH  10  43
TORSDOF 12
ENDMDL
MODEL 4
REMARK minimizedAffinity -9.11506844
REMARK CNNscore 0.327562869
REMARK CNNaffinity 7.07544279
REMARK  12 active torsions:
REMARK  status: ('A' for Active; 'I' for Inactive)
REMARK    1  A    between atoms: C2_2  and  O2_4 
REMARK    2  A    between atoms: O2_4  and  C3_5 
REMARK    3  A    between atoms: C4_6  and  O3_7 
REMARK    4  A    between atoms: O3_7  and  C5_8 
REMARK    5  A    between atoms: C11_14  and  O4_15 
REMARK    6  A    between atoms: C14_18  and  C15_19 
REMARK    7  A    between atoms: C19_23  and  C20_24 
REMARK    8  A    between atoms: C20_24  and  O5_27 
REMARK    9  A    between atoms: C35_42  and  C36_43 
REMARK   10  A    between atoms: C36_43  and  O8_44 
REMARK   11  A    between atoms: C37_45  and  O9_46 
REMARK   12  A    between atoms: C38_47  and  O10_48 
ROOT
HETATM    1  C5  UNL     1      -2.271  51.291 -22.400  1.00  0.00     0.133 C 
HETATM    2  C6  UNL     1      -3.622  51.998 -22.339  1.00  0.00     0.034 C 
HETATM    3  C7  UNL     1      -4.833  51.145 -21.936  1.00  0.00     0.012 C 
HETATM    4  C8  UNL     1      -4.569  49.648 -21.605  1.00  0.00    -0.033 C 
HETATM    5  C9  UNL     1      -4.348  48.905 -22.935  1.00  0.00     0.016 C 
HETATM    6  C10 UNL     1      -5.816  49.029 -20.795  1.00  0.00     0.032 C 
HETATM    7  C11 UNL     1      -7.195  49.044 -21.542  1.00  0.00     0.124 C 
HETATM    8  C12 UNL     1      -8.376  48.505 -20.706  1.00  0.00     0.038 C 
HETATM    9  C13 UNL     1      -8.060  47.155 -20.094  1.00  0.00     0.004 C 
HETATM   10  C14 UNL     1      -9.126  46.476 -19.219  1.00  0.00     0.025 C 
HETATM   11  C23 UNL     1      -8.298  45.396 -18.485  1.00  0.00     0.009 C 
HETATM   12  C24 UNL     1      -6.815  45.806 -18.577  1.00  0.00     0.011 C 
HETATM   13  C25 UNL     1      -6.796  47.221 -19.202  1.00  0.00    -0.032 C 
HETATM   14  C26 UNL     1      -6.970  48.215 -18.009  1.00  0.00     0.016 C 
HETATM   15  C27 UNL     1      -5.540  47.607 -20.120  1.00  0.00    -0.030 C 
HETATM   16  C28 UNL     1      -5.286  46.500 -21.193  1.00  0.00     0.016 C 
HETATM   17  C29 UNL     1      -4.247  47.701 -19.269  1.00  0.00     0.011 C 
HETATM   18  C30 UNL     1      -3.043  48.255 -20.024  1.00  0.00     0.007 C 
HETATM   19  C31 UNL     1      -3.316  49.637 -20.651  1.00  0.00     0.004 C 
HETATM   20  C32 UNL     1      -2.012  50.359 -21.183  1.00  0.00    -0.017 C 
HETATM   21  C33 UNL     1      -0.863  49.375 -21.533  1.00  0.00     0.018 C 
HETATM   22  C34 UNL     1      -1.478  51.249 -20.019  1.00  0.00     0.018 C 
ENDROOT
BRANCH   1  23
HETATM   23  O3  UNL     1      -2.144  50.550 -23.623  1.00  0.00    -0.352 OA
BRANCH  23  24
HETATM   24  C4  UNL     1      -2.291  51.334 -24.817  1.00  0.00     0.293 C 
HETATM   25  C3  UNL     1      -1.030  51.154 -25.690  1.00  0.00     0.218 C 
HETATM   26  C38 UNL     1      -1.368  51.441 -27.150  1.00  0.00     0.183 C 
HETATM   27  C37 UNL     1      -2.558  50.607 -27.657  1.00  0.00     0.180 C 
HETATM   28  C35 UNL     1      -3.520  50.147 -26.553  1.00  0.00     0.179 C 
HETATM   29  O7  UNL     1      -3.535  51.042 -25.437  1.00  0.00    -0.348 OA
BRANCH  25  30
HETATM   30  O2  UNL     1      -0.020  52.092 -25.204  1.00  0.00    -0.309 OA
BRANCH  30  31
HETATM   31  C2  UNL     1       0.966  52.408 -26.077  1.00  0.00     0.255 C 
HETATM   32  C1  UNL     1       2.093  51.428 -25.985  1.00  0.00     0.126 C 
HETATM   33  O1  UNL     1       0.949  53.377 -26.820  1.00  0.00    -0.266 OA
ENDBRANCH  30  31
ENDBRANCH  25  30
BRANCH  26  34
HETATM   34  O10 UNL     1      -0.258  51.214 -28.043  1.00  0.00    -0.390 OA
HETATM   35  H64 UNL     1       0.472  50.814 -27.534  1.00  0.00     0.210 HD
ENDBRANCH  26  34
BRANCH  27  36
HETATM   36  O9  UNL     1      -3.286  51.447 -28.578  1.00  0.00    -0.390 OA
HETATM   37  H62 UNL     1      -3.503  50.907 -29.357  1.00  0.00     0.210 HD
ENDBRANCH  27  36
BRANCH  28  38
HETATM   38  C36 UNL     1      -3.335  48.677 -26.147  1.00  0.00     0.198 C 
BRANCH  38  39
HETATM   39  O8  UNL     1      -4.510  47.900 -26.353  1.00  0.00    -0.398 OA
HETATM   40  H60 UNL     1      -4.231  46.976 -26.474  1.00  0.00     0.209 HD
ENDBRANCH  38  39
ENDBRANCH  28  38
ENDBRANCH  23  24
ENDBRANCH   1  23
BRANCH   7  41
HETATM   41  O4  UNL     1      -7.552  50.370 -21.920  1.00  0.00    -0.395 OA
HETATM   42  H16 UNL     1      -8.345  50.313 -22.469  1.00  0.00     0.210 HD
ENDBRANCH   7  41
BRANCH  10  43
HETATM   43  C15 UNL     1     -10.393  45.918 -19.933  1.00  0.00     0.062 C 
HETATM   44  C16 UNL     1     -10.080  44.861 -20.999  1.00  0.00     0.046 C 
HETATM   45  C17 UNL     1     -11.302  47.008 -20.510  1.00  0.00     0.041 C 
HETATM   46  C18 UNL     1     -12.146  47.426 -19.329  1.00  0.00     0.038 C 
HETATM   47  C19 UNL     1     -12.306  46.122 -18.555  1.00  0.00     0.156 C 
HETATM   48  O6  UNL     1     -11.210  45.265 -18.935  1.00  0.00    -0.372 OA
BRANCH  47  49
HETATM   49  C20 UNL     1     -12.383  46.282 -17.013  1.00  0.00     0.076 C 
HETATM   50  C21 UNL     1     -13.840  46.392 -16.543  1.00  0.00     0.048 C 
HETATM   51  C22 UNL     1     -11.689  45.106 -16.309  1.00  0.00     0.048 C 
BRANCH  49  52
HETATM   52  O5  UNL     1     -11.723  47.496 -16.627  1.00  0.00    -0.388 OA
HETATM   53  H35 UNL     1     -11.491  47.423 -15.685  1.00  0.00     0.210 HD
ENDBRANCH  49  52
ENDBRANCH  47  49
ENDBRANCH  10  43
TORSDOF 12
ENDMDL
MODEL 5
REMARK minimizedAffinity -8.708951
REMARK CNNscore 0.30974561
REMARK CNNaffinity 7.26033354
REMARK  12 active torsions:
REMARK  status: ('A' for Active; 'I' for Inactive)
REMARK    1  A    between atoms: C2_2  and  O2_4 
REMARK    2  A    between atoms: O2_4  and  C3_5 
REMARK    3  A    between atoms: C4_6  and  O3_7 
REMARK    4  A    between atoms: O3_7  and  C5_8 
REMARK    5  A    between atoms: C11_14  and  O4_15 
REMARK    6  A    between atoms: C14_18  and  C15_19 
REMARK    7  A    between atoms: C19_23  and  C20_24 
REMARK    8  A    between atoms: C20_24  and  O5_27 
REMARK    9  A    between atoms: C35_42  and  C36_43 
REMARK   10  A    between atoms: C36_43  and  O8_44 
REMARK   11  A    between atoms: C37_45  and  O9_46 
REMARK   12  A    between atoms: C38_47  and  O10_48 
ROOT
HETATM    1  C5  UNL     1      -2.229  51.942 -22.255  1.00  0.00     0.133 C 
HETATM    2  C6  UNL     1      -3.753  51.990 -22.209  1.00  0.00     0.034 C 
HETATM    3  C7  UNL     1      -4.482  50.660 -21.970  1.00  0.00     0.012 C 
HETATM    4  C8  UNL     1      -3.601  49.393 -21.773  1.00  0.00    -0.033 C 
HETATM    5  C9  UNL     1      -3.062  48.976 -23.154  1.00  0.00     0.016 C 
HETATM    6  C10 UNL     1      -4.469  48.209 -21.110  1.00  0.00     0.032 C 
HETATM    7  C11 UNL     1      -5.708  47.720 -21.936  1.00  0.00     0.124 C 
HETATM    8  C12 UNL     1      -6.552  46.634 -21.235  1.00  0.00     0.038 C 
HETATM    9  C13 UNL     1      -5.692  45.487 -20.741  1.00  0.00     0.004 C 
HETATM   10  C14 UNL     1      -6.371  44.320 -20.007  1.00  0.00     0.025 C 
HETATM   11  C23 UNL     1      -5.168  43.621 -19.333  1.00  0.00     0.009 C 
HETATM   12  C24 UNL     1      -4.007  44.635 -19.290  1.00  0.00     0.011 C 
HETATM   13  C25 UNL     1      -4.593  45.983 -19.769  1.00  0.00    -0.032 C 
HETATM   14  C26 UNL     1      -5.197  46.661 -18.496  1.00  0.00     0.016 C 
HETATM   15  C27 UNL     1      -3.615  46.975 -20.563  1.00  0.00    -0.030 C 
HETATM   16  C28 UNL     1      -2.892  46.217 -21.722  1.00  0.00     0.016 C 
HETATM   17  C29 UNL     1      -2.502  47.513 -19.627  1.00  0.00     0.011 C 
HETATM   18  C30 UNL     1      -1.646  48.613 -20.246  1.00  0.00     0.007 C 
HETATM   19  C31 UNL     1      -2.481  49.808 -20.749  1.00  0.00     0.004 C 
HETATM   20  C32 UNL     1      -1.609  51.075 -21.122  1.00  0.00    -0.017 C 
HETATM   21  C33 UNL     1      -0.143  50.726 -21.495  1.00  0.00     0.018 C 
HETATM   22  C34 UNL     1      -1.530  51.966 -19.845  1.00  0.00     0.018 C 
ENDROOT
BRANCH   1  23
HETATM   23  O3  UNL     1      -1.777  51.475 -23.535  1.00  0.00    -0.352 OA
BRANCH  23  24
HETATM   24  C4  UNL     1      -1.518  52.512 -24.494  1.00  0.00     0.293 C 
HETATM   25  C3  UNL     1      -0.256  52.139 -25.302  1.00  0.00     0.218 C 
HETATM   26  C38 UNL     1      -0.285  52.839 -26.657  1.00  0.00     0.183 C 
HETATM   27  C37 UNL     1      -1.584  52.565 -27.437  1.00  0.00     0.180 C 
HETATM   28  C35 UNL     1      -2.784  52.202 -26.551  1.00  0.00     0.179 C 
HETATM   29  O7  UNL     1      -2.692  52.780 -25.246  1.00  0.00    -0.348 OA
BRANCH  25  30
HETATM   30  O2  UNL     1       0.907  52.571 -24.528  1.00  0.00    -0.309 OA
BRANCH  30  31
HETATM   31  C2  UNL     1       0.883  53.848 -24.080  1.00  0.00     0.255 C 
HETATM   32  C1  UNL     1       1.043  53.894 -22.593  1.00  0.00     0.126 C 
HETATM   33  O1  UNL     1       0.726  54.828 -24.791  1.00  0.00    -0.266 OA
ENDBRANCH  30  31
ENDBRANCH  25  30
BRANCH  26  34
HETATM   34  O10 UNL     1       0.823  52.476 -27.506  1.00  0.00    -0.390 OA
HETATM   35  H64 UNL     1       1.324  51.760 -27.071  1.00  0.00     0.210 HD
ENDBRANCH  26  34
BRANCH  27  36
HETATM   36  O9  UNL     1      -1.896  53.778 -28.154  1.00  0.00    -0.390 OA
HETATM   37  H62 UNL     1      -2.150  53.525 -29.058  1.00  0.00     0.210 HD
ENDBRANCH  27  36
BRANCH  28  38
HETATM   38  C36 UNL     1      -3.098  50.698 -26.526  1.00  0.00     0.198 C 
BRANCH  38  39
HETATM   39  O8  UNL     1      -3.237  50.147 -27.831  1.00  0.00    -0.398 OA
HETATM   40  H60 UNL     1      -3.028  49.199 -27.771  1.00  0.00     0.209 HD
ENDBRANCH  38  39
ENDBRANCH  28  38
ENDBRANCH  23  24
ENDBRANCH   1  23
BRANCH   7  41
HETATM   41  O4  UNL     1      -6.598  48.799 -22.203  1.00  0.00    -0.395 OA
HETATM   42  H16 UNL     1      -7.281  48.472 -22.804  1.00  0.00     0.210 HD
ENDBRANCH   7  41
BRANCH  10  43
HETATM   43  C15 UNL     1      -7.262  43.361 -20.851  1.00  0.00     0.062 C 
HETATM   44  C16 UNL     1      -6.744  43.140 -22.278  1.00  0.00     0.046 C 
HETATM   45  C17 UNL     1      -8.741  43.759 -20.875  1.00  0.00     0.041 C 
HETATM   46  C18 UNL     1      -9.289  43.157 -19.603  1.00  0.00     0.038 C 
HETATM   47  C19 UNL     1      -8.472  41.877 -19.460  1.00  0.00     0.156 C 
HETATM   48  O6  UNL     1      -7.252  42.067 -20.206  1.00  0.00    -0.372 OA
BRANCH  47  49
HETATM   49  C20 UNL     1      -8.173  41.453 -17.998  1.00  0.00     0.076 C 
HETATM   50  C21 UNL     1      -8.080  42.678 -17.077  1.00  0.00     0.048 C 
HETATM   51  C22 UNL     1      -9.250  40.487 -17.481  1.00  0.00     0.048 C 
BRANCH  49  52
HETATM   52  O5  UNL     1      -6.903  40.788 -17.944  1.00  0.00    -0.388 OA
HETATM   53  H35 UNL     1      -6.879  40.254 -17.131  1.00  0.00     0.210 HD
ENDBRANCH  49  52
ENDBRANCH  47  49
ENDBRANCH  10  43
TORSDOF 12
ENDMDL
MODEL 6
REMARK minimizedAffinity -8.06966877
REMARK CNNscore 0.29663977
REMARK CNNaffinity 6.37488222
REMARK  12 active torsions:
REMARK  status: ('A' for Active; 'I' for Inactive)
REMARK    1  A    between atoms: C2_2  and  O2_4 
REMARK    2  A    between atoms: O2_4  and  C3_5 
REMARK    3  A    between atoms: C4_6  and  O3_7 
REMARK    4  A    between atoms: O3_7  and  C5_8 
REMARK    5  A    between atoms: C11_14  and  O4_15 
REMARK    6  A    between atoms: C14_18  and  C15_19 
REMARK    7  A    between atoms: C19_23  and  C20_24 
REMARK    8  A    between atoms: C20_24  and  O5_27 
REMARK    9  A    between atoms: C35_42  and  C36_43 
REMARK   10  A    between atoms: C36_43  and  O8_44 
REMARK   11  A    between atoms: C37_45  and  O9_46 
REMARK   12  A    between atoms: C38_47  and  O10_48 
ROOT
HETATM    1  C5  UNL     1      -4.178  47.670 -19.528  1.00  0.00     0.133 C 
HETATM    2  C6  UNL     1      -4.987  48.508 -18.543  1.00  0.00     0.034 C 
HETATM    3  C7  UNL     1      -6.515  48.438 -18.663  1.00  0.00     0.012 C 
HETATM    4  C8  UNL     1      -7.099  47.503 -19.761  1.00  0.00    -0.033 C 
HETATM    5  C9  UNL     1      -6.913  48.201 -21.120  1.00  0.00     0.016 C 
HETATM    6  C10 UNL     1      -8.655  47.206 -19.471  1.00  0.00     0.032 C 
HETATM    7  C11 UNL     1      -9.601  48.456 -19.456  1.00  0.00     0.124 C 
HETATM    8  C12 UNL     1     -11.071  48.138 -19.106  1.00  0.00     0.038 C 
HETATM    9  C13 UNL     1     -11.616  47.005 -19.954  1.00  0.00     0.004 C 
HETATM   10  C14 UNL     1     -13.066  46.550 -19.728  1.00  0.00     0.025 C 
HETATM   11  C23 UNL     1     -13.087  45.178 -20.442  1.00  0.00     0.009 C 
HETATM   12  C24 UNL     1     -11.625  44.710 -20.589  1.00  0.00     0.011 C 
HETATM   13  C25 UNL     1     -10.766  45.720 -19.794  1.00  0.00    -0.032 C 
HETATM   14  C26 UNL     1     -10.756  45.201 -18.319  1.00  0.00     0.016 C 
HETATM   15  C27 UNL     1      -9.284  46.015 -20.331  1.00  0.00    -0.030 C 
HETATM   16  C28 UNL     1      -9.313  46.358 -21.854  1.00  0.00     0.016 C 
HETATM   17  C29 UNL     1      -8.386  44.761 -20.178  1.00  0.00     0.011 C 
HETATM   18  C30 UNL     1      -6.912  45.010 -20.480  1.00  0.00     0.007 C 
HETATM   19  C31 UNL     1      -6.312  46.146 -19.627  1.00  0.00     0.004 C 
HETATM   20  C32 UNL     1      -4.733  46.228 -19.706  1.00  0.00    -0.017 C 
HETATM   21  C33 UNL     1      -4.148  45.617 -21.008  1.00  0.00     0.018 C 
HETATM   22  C34 UNL     1      -4.173  45.366 -18.533  1.00  0.00     0.018 C 
ENDROOT
BRANCH   1  23
HETATM   23  O3  UNL     1      -4.098  48.327 -20.802  1.00  0.00    -0.352 OA
BRANCH  23  24
HETATM   24  C4  UNL     1      -2.762  48.594 -21.256  1.00  0.00     0.293 C 
HETATM   25  C3  UNL     1      -2.834  49.457 -22.534  1.00  0.00     0.218 C 
HETATM   26  C38 UNL     1      -1.536  50.242 -22.700  1.00  0.00     0.183 C 
HETATM   27  C37 UNL     1      -1.182  51.070 -21.452  1.00  0.00     0.180 C 
HETATM   28  C35 UNL     1      -1.780  50.527 -20.146  1.00  0.00     0.179 C 
HETATM   29  O7  UNL     1      -1.982  49.112 -20.188  1.00  0.00    -0.348 OA
BRANCH  25  30
HETATM   30  O2  UNL     1      -3.033  48.554 -23.667  1.00  0.00    -0.309 OA
BRANCH  30  31
HETATM   31  C2  UNL     1      -3.616  49.093 -24.763  1.00  0.00     0.255 C 
HETATM   32  C1  UNL     1      -3.041  48.509 -26.015  1.00  0.00     0.126 C 
HETATM   33  O1  UNL     1      -4.477  49.959 -24.733  1.00  0.00    -0.266 OA
ENDBRANCH  30  31
ENDBRANCH  25  30
BRANCH  26  34
HETATM   34  O10 UNL     1      -1.557  51.138 -23.831  1.00  0.00    -0.390 OA
HETATM   35  H64 UNL     1      -2.457  51.137 -24.210  1.00  0.00     0.210 HD
ENDBRANCH  26  34
BRANCH  27  36
HETATM   36  O9  UNL     1       0.257  51.048 -21.339  1.00  0.00    -0.390 OA
HETATM   37  H62 UNL     1       0.547  51.955 -21.138  1.00  0.00     0.210 HD
ENDBRANCH  27  36
BRANCH  28  38
HETATM   38  C36 UNL     1      -3.018  51.301 -19.668  1.00  0.00     0.198 C 
BRANCH  38  39
HETATM   39  O8  UNL     1      -2.892  51.756 -18.325  1.00  0.00    -0.398 OA
HETATM   40  H60 UNL     1      -3.468  52.534 -18.226  1.00  0.00     0.209 HD
ENDBRANCH  38  39
ENDBRANCH  28  38
ENDBRANCH  23  24
ENDBRANCH   1  23
BRANCH   7  41
HETATM   41  O4  UNL     1      -9.165  49.411 -18.493  1.00  0.00    -0.395 OA
HETATM   42  H16 UNL     1      -9.709  50.203 -18.600  1.00  0.00     0.210 HD
ENDBRANCH   7  41
BRANCH  10  43
HETATM   43  C15 UNL     1     -14.201  47.512 -20.187  1.00  0.00     0.062 C 
HETATM   44  C16 UNL     1     -14.311  48.781 -19.333  1.00  0.00     0.046 C 
HETATM   45  C17 UNL     1     -15.569  46.833 -20.312  1.00  0.00     0.041 C 
HETATM   46  C18 UNL     1     -15.531  46.214 -21.689  1.00  0.00     0.038 C 
HETATM   47  C19 UNL     1     -14.696  47.215 -22.482  1.00  0.00     0.156 C 
HETATM   48  O6  UNL     1     -13.896  47.947 -21.532  1.00  0.00    -0.372 OA
BRANCH  47  49
HETATM   49  C20 UNL     1     -13.813  46.592 -23.595  1.00  0.00     0.076 C 
HETATM   50  C21 UNL     1     -13.843  45.058 -23.528  1.00  0.00     0.048 C 
HETATM   51  C22 UNL     1     -14.270  47.067 -24.982  1.00  0.00     0.048 C 
BRANCH  49  52
HETATM   52  O5  UNL     1     -12.450  46.995 -23.403  1.00  0.00    -0.388 OA
HETATM   53  H35 UNL     1     -11.984  46.885 -24.251  1.00  0.00     0.210 HD
ENDBRANCH  49  52
ENDBRANCH  47  49
ENDBRANCH  10  43
TORSDOF 12
ENDMDL
MODEL 7
REMARK minimizedAffinity -8.47025681
REMARK CNNscore 0.293658316
REMARK CNNaffinity 7.30169058
REMARK  12 active torsions:
REMARK  status: ('A' for Active; 'I' for Inactive)
REMARK    1  A    between atoms: C2_2  and  O2_4 
REMARK    2  A    between atoms: O2_4  and  C3_5 
REMARK    3  A    between atoms: C4_6  and  O3_7 
REMARK    4  A    between atoms: O3_7  and  C5_8 
REMARK    5  A    between atoms: C11_14  and  O4_15 
REMARK    6  A    between atoms: C14_18  and  C15_19 
REMARK    7  A    between atoms: C19_23  and  C20_24 
REMARK    8  A    between atoms: C20_24  and  O5_27 
REMARK    9  A    between atoms: C35_42  and  C36_43 
REMARK   10  A    between atoms: C36_43  and  O8_44 
REMARK   11  A    between atoms: C37_45  and  O9_46 
REMARK   12  A    between atoms: C38_47  and  O10_48 
ROOT
HETATM    1  C5  UNL     1      -1.768  49.057 -14.232  1.00  0.00     0.133 C 
HETATM    2  C6  UNL     1      -2.364  50.385 -14.686  1.00  0.00     0.034 C 
HETATM    3  C7  UNL     1      -2.421  50.640 -16.198  1.00  0.00     0.012 C 
HETATM    4  C8  UNL     1      -1.888  49.513 -17.128  1.00  0.00    -0.033 C 
HETATM    5  C9  UNL     1      -0.350  49.544 -17.069  1.00  0.00     0.016 C 
HETATM    6  C10 UNL     1      -2.414  49.739 -18.635  1.00  0.00     0.032 C 
HETATM    7  C11 UNL     1      -1.973  51.077 -19.322  1.00  0.00     0.124 C 
HETATM    8  C12 UNL     1      -2.554  51.287 -20.737  1.00  0.00     0.038 C 
HETATM    9  C13 UNL     1      -2.328  50.076 -21.621  1.00  0.00     0.004 C 
HETATM   10  C14 UNL     1      -2.854  50.110 -23.064  1.00  0.00     0.025 C 
HETATM   11  C23 UNL     1      -2.803  48.616 -23.459  1.00  0.00     0.009 C 
HETATM   12  C24 UNL     1      -2.744  47.794 -22.157  1.00  0.00     0.011 C 
HETATM   13  C25 UNL     1      -2.949  48.800 -21.001  1.00  0.00    -0.032 C 
HETATM   14  C26 UNL     1      -4.496  48.928 -20.817  1.00  0.00     0.016 C 
HETATM   15  C27 UNL     1      -2.208  48.492 -19.612  1.00  0.00    -0.030 C 
HETATM   16  C28 UNL     1      -0.695  48.194 -19.854  1.00  0.00     0.016 C 
HETATM   17  C29 UNL     1      -2.805  47.228 -18.941  1.00  0.00     0.011 C 
HETATM   18  C30 UNL     1      -2.298  46.975 -17.525  1.00  0.00     0.007 C 
HETATM   19  C31 UNL     1      -2.522  48.178 -16.587  1.00  0.00     0.004 C 
HETATM   20  C32 UNL     1      -2.277  47.842 -15.060  1.00  0.00    -0.017 C 
HETATM   21  C33 UNL     1      -1.318  46.641 -14.840  1.00  0.00     0.018 C 
HETATM   22  C34 UNL     1      -3.652  47.414 -14.462  1.00  0.00     0.018 C 
ENDROOT
BRANCH   1  23
HETATM   23  O3  UNL     1      -0.333  49.109 -14.267  1.00  0.00    -0.352 OA
BRANCH  23  24
HETATM   24  C4  UNL     1       0.271  49.731 -13.123  1.00  0.00     0.293 C 
HETATM   25  C3  UNL     1       1.743  49.272 -13.027  1.00  0.00     0.218 C 
HETATM   26  C38 UNL     1       2.557  50.307 -12.257  1.00  0.00     0.183 C 
HETATM   27  C37 UNL     1       2.421  51.724 -12.844  1.00  0.00     0.180 C 
HETATM   28  C35 UNL     1       1.121  51.958 -13.627  1.00  0.00     0.179 C 
HETATM   29  O7  UNL     1       0.049  51.133 -13.161  1.00  0.00    -0.348 OA
BRANCH  25  30
HETATM   30  O2  UNL     1       1.759  47.987 -12.330  1.00  0.00    -0.309 OA
BRANCH  30  31
HETATM   31  C2  UNL     1       2.561  47.033 -12.861  1.00  0.00     0.255 C 
HETATM   32  C1  UNL     1       2.489  47.047 -14.355  1.00  0.00     0.126 C 
HETATM   33  O1  UNL     1       3.232  46.251 -12.205  1.00  0.00    -0.266 OA
ENDBRANCH  30  31
ENDBRANCH  25  30
BRANCH  26  34
HETATM   34  O10 UNL     1       3.963  49.990 -12.194  1.00  0.00    -0.390 OA
HETATM   35  H64 UNL     1       4.130  49.211 -12.759  1.00  0.00     0.210 HD
ENDBRANCH  26  34
BRANCH  27  36
HETATM   36  O9  UNL     1       2.452  52.637 -11.726  1.00  0.00    -0.390 OA
HETATM   37  H62 UNL     1       3.040  53.373 -11.967  1.00  0.00     0.210 HD
ENDBRANCH  27  36
BRANCH  28  38
HETATM   38  C36 UNL     1       1.304  51.908 -15.152  1.00  0.00     0.198 C 
BRANCH  38  39
HETATM   39  O8  UNL     1       1.404  53.203 -15.733  1.00  0.00    -0.398 OA
HETATM   40  H60 UNL     1       1.902  53.113 -16.563  1.00  0.00     0.209 HD
ENDBRANCH  38  39
ENDBRANCH  28  38
ENDBRANCH  23  24
ENDBRANCH   1  23
BRANCH   7  41
HETATM   41  O4  UNL     1      -2.390  52.203 -18.555  1.00  0.00    -0.395 OA
HETATM   42  H16 UNL     1      -2.001  52.991 -18.957  1.00  0.00     0.210 HD
ENDBRANCH   7  41
BRANCH  10  43
HETATM   43  C15 UNL     1      -2.128  51.050 -24.072  1.00  0.00     0.062 C 
HETATM   44  C16 UNL     1      -0.732  51.485 -23.609  1.00  0.00     0.046 C 
HETATM   45  C17 UNL     1      -2.960  52.270 -24.481  1.00  0.00     0.041 C 
HETATM   46  C18 UNL     1      -3.835  51.744 -25.594  1.00  0.00     0.038 C 
HETATM   47  C19 UNL     1      -2.931  50.721 -26.274  1.00  0.00     0.156 C 
HETATM   48  O6  UNL     1      -1.942  50.317 -25.304  1.00  0.00    -0.372 OA
BRANCH  47  49
HETATM   49  C20 UNL     1      -3.667  49.491 -26.867  1.00  0.00     0.076 C 
HETATM   50  C21 UNL     1      -2.712  48.299 -27.022  1.00  0.00     0.048 C 
HETATM   51  C22 UNL     1      -4.863  49.096 -25.988  1.00  0.00     0.048 C 
BRANCH  49  52
HETATM   52  O5  UNL     1      -4.154  49.813 -28.178  1.00  0.00    -0.388 OA
HETATM   53  H35 UNL     1      -4.867  49.187 -28.394  1.00  0.00     0.210 HD
ENDBRANCH  49  52
ENDBRANCH  47  49
ENDBRANCH  10  43
TORSDOF 12
ENDMDL
MODEL 8
REMARK minimizedAffinity -8.92903233
REMARK CNNscore 0.286359459
REMARK CNNaffinity 6.75210714
REMARK  12 active torsions:
REMARK  status: ('A' for Active; 'I' for Inactive)
REMARK    1  A    between atoms: C2_2  and  O2_4 
REMARK    2  A    between atoms: O2_4  and  C3_5 
REMARK    3  A    between atoms: C4_6  and  O3_7 
REMARK    4  A    between atoms: O3_7  and  C5_8 
REMARK    5  A    between atoms: C11_14  and  O4_15 
REMARK    6  A    between atoms: C14_18  and  C15_19 
REMARK    7  A    between atoms: C19_23  and  C20_24 
REMARK    8  A    between atoms: C20_24  and  O5_27 
REMARK    9  A    between atoms: C35_42  and  C36_43 
REMARK   10  A    between atoms: C36_43  and  O8_44 
REMARK   11  A    between atoms: C37_45  and  O9_46 
REMARK   12  A    between atoms: C38_47  and  O10_48 
ROOT
HETATM    1  C5  UNL     1      -7.274  46.317 -20.119  1.00  0.00     0.133 C 
HETATM    2  C6  UNL     1      -6.408  47.063 -19.108  1.00  0.00     0.034 C 
HETATM    3  C7  UNL     1      -5.332  48.000 -19.674  1.00  0.00     0.012 C 
HETATM    4  C8  UNL     1      -5.238  48.121 -21.222  1.00  0.00    -0.033 C 
HETATM    5  C9  UNL     1      -4.562  46.843 -21.753  1.00  0.00     0.016 C 
HETATM    6  C10 UNL     1      -4.396  49.433 -21.629  1.00  0.00     0.032 C 
HETATM    7  C11 UNL     1      -2.912  49.479 -21.126  1.00  0.00     0.124 C 
HETATM    8  C12 UNL     1      -2.162  50.782 -21.477  1.00  0.00     0.038 C 
HETATM    9  C13 UNL     1      -2.289  51.123 -22.949  1.00  0.00     0.004 C 
HETATM   10  C14 UNL     1      -1.609  52.398 -23.470  1.00  0.00     0.025 C 
HETATM   11  C23 UNL     1      -2.301  52.594 -24.840  1.00  0.00     0.009 C 
HETATM   12  C24 UNL     1      -3.610  51.780 -24.819  1.00  0.00     0.011 C 
HETATM   13  C25 UNL     1      -3.773  51.262 -23.371  1.00  0.00    -0.032 C 
HETATM   14  C26 UNL     1      -4.502  52.403 -22.590  1.00  0.00     0.016 C 
HETATM   15  C27 UNL     1      -4.498  49.846 -23.169  1.00  0.00    -0.030 C 
HETATM   16  C28 UNL     1      -3.857  48.766 -24.098  1.00  0.00     0.016 C 
HETATM   17  C29 UNL     1      -5.995  49.935 -23.564  1.00  0.00     0.011 C 
HETATM   18  C30 UNL     1      -6.806  48.691 -23.218  1.00  0.00     0.007 C 
HETATM   19  C31 UNL     1      -6.717  48.317 -21.725  1.00  0.00     0.004 C 
HETATM   20  C32 UNL     1      -7.769  47.219 -21.285  1.00  0.00    -0.017 C 
HETATM   21  C33 UNL     1      -8.245  46.317 -22.456  1.00  0.00     0.018 C 
HETATM   22  C34 UNL     1      -9.035  47.978 -20.781  1.00  0.00     0.018 C 
ENDROOT
BRANCH   1  23
HETATM   23  O3  UNL     1      -6.571  45.179 -20.642  1.00  0.00    -0.352 OA
BRANCH  23  24
HETATM   24  C4  UNL     1      -7.086  43.909 -20.214  1.00  0.00     0.293 C 
HETATM   25  C3  UNL     1      -6.783  42.857 -21.302  1.00  0.00     0.218 C 
HETATM   26  C38 UNL     1      -6.750  41.464 -20.679  1.00  0.00     0.183 C 
HETATM   27  C37 UNL     1      -5.780  41.372 -19.487  1.00  0.00     0.180 C 
HETATM   28  C35 UNL     1      -5.518  42.712 -18.785  1.00  0.00     0.179 C 
HETATM   29  O7  UNL     1      -6.622  43.614 -18.905  1.00  0.00    -0.348 OA
BRANCH  25  30
HETATM   30  O2  UNL     1      -7.842  42.942 -22.307  1.00  0.00    -0.309 OA
BRANCH  30  31
HETATM   31  C2  UNL     1      -8.065  41.821 -23.032  1.00  0.00     0.255 C 
HETATM   32  C1  UNL     1      -9.296  41.115 -22.558  1.00  0.00     0.126 C 
HETATM   33  O1  UNL     1      -7.344  41.427 -23.936  1.00  0.00    -0.266 OA
ENDBRANCH  30  31
ENDBRANCH  25  30
BRANCH  26  34
HETATM   34  O10 UNL     1      -6.389  40.431 -21.619  1.00  0.00    -0.390 OA
HETATM   35  H64 UNL     1      -6.133  40.854 -22.461  1.00  0.00     0.210 HD
ENDBRANCH  26  34
BRANCH  27  36
HETATM   36  O9  UNL     1      -6.382  40.468 -18.536  1.00  0.00    -0.390 OA
HETATM   37  H62 UNL     1      -5.685  39.867 -18.224  1.00  0.00     0.210 HD
ENDBRANCH  27  36
BRANCH  28  38
HETATM   38  C36 UNL     1      -4.172  43.351 -19.160  1.00  0.00     0.198 C 
BRANCH  38  39
HETATM   39  O8  UNL     1      -3.108  42.405 -19.191  1.00  0.00    -0.398 OA
HETATM   40  H60 UNL     1      -2.429  42.750 -19.796  1.00  0.00     0.209 HD
ENDBRANCH  38  39
ENDBRANCH  28  38
ENDBRANCH  23  24
ENDBRANCH   1  23
BRANCH   7  41
HETATM   41  O4  UNL     1      -2.853  49.361 -19.708  1.00  0.00    -0.395 OA
HETATM   42  H16 UNL     1      -1.922  49.282 -19.460  1.00  0.00     0.210 HD
ENDBRANCH   7  41
BRANCH  10  43
HETATM   43  C15 UNL     1      -0.054  52.404 -23.547  1.00  0.00     0.062 C 
HETATM   44  C16 UNL     1       0.624  51.835 -22.295  1.00  0.00     0.046 C 
HETATM   45  C17 UNL     1       0.538  53.773 -23.900  1.00  0.00     0.041 C 
HETATM   46  C18 UNL     1       0.459  53.814 -25.407  1.00  0.00     0.038 C 
HETATM   47  C19 UNL     1       0.689  52.356 -25.793  1.00  0.00     0.156 C 
HETATM   48  O6  UNL     1       0.338  51.553 -24.648  1.00  0.00    -0.372 OA
BRANCH  47  49
HETATM   49  C20 UNL     1      -0.074  51.888 -27.061  1.00  0.00     0.076 C 
HETATM   50  C21 UNL     1      -1.127  52.922 -27.483  1.00  0.00     0.048 C 
HETATM   51  C22 UNL     1       0.902  51.627 -28.218  1.00  0.00     0.048 C 
BRANCH  49  52
HETATM   52  O5  UNL     1      -0.773  50.668 -26.773  1.00  0.00    -0.388 OA
HETATM   53  H35 UNL     1      -0.961  50.225 -27.619  1.00  0.00     0.210 HD
ENDBRANCH  49  52
ENDBRANCH  47  49
ENDBRANCH  10  43
TORSDOF 12
ENDMDL
MODEL 9
REMARK minimizedAffinity -9.2399931
REMARK CNNscore 0.277756661
REMARK CNNaffinity 7.22318506
REMARK  12 active torsions:
REMARK  status: ('A' for Active; 'I' for Inactive)
REMARK    1  A    between atoms: C2_2  and  O2_4 
REMARK    2  A    between atoms: O2_4  and  C3_5 
REMARK    3  A    between atoms: C4_6  and  O3_7 
REMARK    4  A    between atoms: O3_7  and  C5_8 
REMARK    5  A    between atoms: C11_14  and  O4_15 
REMARK    6  A    between atoms: C14_18  and  C15_19 
REMARK    7  A    between atoms: C19_23  and  C20_24 
REMARK    8  A    between atoms: C20_24  and  O5_27 
REMARK    9  A    between atoms: C35_42  and  C36_43 
REMARK   10  A    between atoms: C36_43  and  O8_44 
REMARK   11  A    between atoms: C37_45  and  O9_46 
REMARK   12  A    between atoms: C38_47  and  O10_48 
ROOT
HETATM    1  C5  UNL     1      -2.254  51.194 -23.698  1.00  0.00     0.133 C 
HETATM    2  C6  UNL     1      -3.649  51.700 -24.053  1.00  0.00     0.034 C 
HETATM    3  C7  UNL     1      -4.838  50.922 -23.475  1.00  0.00     0.012 C 
HETATM    4  C8  UNL     1      -4.513  49.704 -22.562  1.00  0.00    -0.033 C 
HETATM    5  C9  UNL     1      -4.054  48.547 -23.468  1.00  0.00     0.016 C 
HETATM    6  C10 UNL     1      -5.813  49.288 -21.706  1.00  0.00     0.032 C 
HETATM    7  C11 UNL     1      -7.070  48.852 -22.535  1.00  0.00     0.124 C 
HETATM    8  C12 UNL     1      -8.315  48.528 -21.680  1.00  0.00     0.038 C 
HETATM    9  C13 UNL     1      -7.989  47.557 -20.562  1.00  0.00     0.004 C 
HETATM   10  C14 UNL     1      -9.114  47.134 -19.605  1.00  0.00     0.025 C 
HETATM   11  C23 UNL     1      -8.320  46.520 -18.428  1.00  0.00     0.009 C 
HETATM   12  C24 UNL     1      -6.873  47.043 -18.522  1.00  0.00     0.011 C 
HETATM   13  C25 UNL     1      -6.871  48.109 -19.643  1.00  0.00    -0.032 C 
HETATM   14  C26 UNL     1      -7.283  49.451 -18.955  1.00  0.00     0.016 C 
HETATM   15  C27 UNL     1      -5.530  48.271 -20.507  1.00  0.00    -0.030 C 
HETATM   16  C28 UNL     1      -5.047  46.882 -21.032  1.00  0.00     0.016 C 
HETATM   17  C29 UNL     1      -4.380  48.836 -19.634  1.00  0.00     0.011 C 
HETATM   18  C30 UNL     1      -3.126  49.207 -20.419  1.00  0.00     0.007 C 
HETATM   19  C31 UNL     1      -3.410  50.206 -21.559  1.00  0.00     0.004 C 
HETATM   20  C32 UNL     1      -2.100  50.828 -22.194  1.00  0.00    -0.017 C 
HETATM   21  C33 UNL     1      -0.844  49.933 -22.016  1.00  0.00     0.018 C 
HETATM   22  C34 UNL     1      -1.803  52.150 -21.422  1.00  0.00     0.018 C 
ENDROOT
BRANCH   1  23
HETATM   23  O3  UNL     1      -1.902  50.068 -24.516  1.00  0.00    -0.352 OA
BRANCH  23  24
HETATM   24  C4  UNL     1      -1.473  50.403 -25.845  1.00  0.00     0.293 C 
HETATM   25  C3  UNL     1      -2.265  51.639 -26.325  1.00  0.00     0.218 C 
HETATM   26  C38 UNL     1      -1.472  52.372 -27.403  1.00  0.00     0.183 C 
HETATM   27  C37 UNL     1      -0.045  52.729 -26.949  1.00  0.00     0.180 C 
HETATM   28  C35 UNL     1       0.509  51.819 -25.844  1.00  0.00     0.179 C 
HETATM   29  O7  UNL     1      -0.058  50.506 -25.886  1.00  0.00    -0.348 OA
BRANCH  25  30
HETATM   30  O2  UNL     1      -3.540  51.166 -26.861  1.00  0.00    -0.309 OA
BRANCH  30  31
HETATM   31  C2  UNL     1      -3.469  50.161 -27.766  1.00  0.00     0.255 C 
HETATM   32  C1  UNL     1      -3.816  48.850 -27.135  1.00  0.00     0.126 C 
HETATM   33  O1  UNL     1      -3.142  50.304 -28.934  1.00  0.00    -0.266 OA
ENDBRANCH  30  31
ENDBRANCH  25  30
BRANCH  26  34
HETATM   34  O10 UNL     1      -2.110  53.588 -27.846  1.00  0.00    -0.390 OA
HETATM   35  H64 UNL     1      -2.888  53.754 -27.280  1.00  0.00     0.210 HD
ENDBRANCH  26  34
BRANCH  27  36
HETATM   36  O9  UNL     1       0.800  52.602 -28.112  1.00  0.00    -0.390 OA
HETATM   37  H62 UNL     1       1.386  53.378 -28.133  1.00  0.00     0.210 HD
ENDBRANCH  27  36
BRANCH  28  38
HETATM   38  C36 UNL     1       0.466  52.452 -24.445  1.00  0.00     0.198 C 
BRANCH  38  39
HETATM   39  O8  UNL     1       0.884  53.813 -24.448  1.00  0.00    -0.398 OA
HETATM   40  H60 UNL     1       0.467  54.248 -23.685  1.00  0.00     0.209 HD
ENDBRANCH  38  39
ENDBRANCH  28  38
ENDBRANCH  23  24
ENDBRANCH   1  23
BRANCH   7  41
HETATM   41  O4  UNL     1      -7.468  49.883 -23.434  1.00  0.00    -0.395 OA
HETATM   42  H16 UNL     1      -8.170  49.527 -23.995  1.00  0.00     0.210 HD
ENDBRANCH   7  41
BRANCH  10  43
HETATM   43  C15 UNL     1     -10.223  46.197 -20.169  1.00  0.00     0.062 C 
HETATM   44  C16 UNL     1      -9.696  45.143 -21.149  1.00  0.00     0.046 C 
HETATM   45  C17 UNL     1     -11.410  46.951 -20.780  1.00  0.00     0.041 C 
HETATM   46  C18 UNL     1     -12.278  47.270 -19.587  1.00  0.00     0.038 C 
HETATM   47  C19 UNL     1     -12.060  46.061 -18.682  1.00  0.00     0.156 C 
HETATM   48  O6  UNL     1     -10.797  45.473 -19.056  1.00  0.00    -0.372 OA
BRANCH  47  49
HETATM   49  C20 UNL     1     -12.106  46.366 -17.162  1.00  0.00     0.076 C 
HETATM   50  C21 UNL     1     -13.554  46.504 -16.671  1.00  0.00     0.048 C 
HETATM   51  C22 UNL     1     -11.382  45.270 -16.365  1.00  0.00     0.048 C 
BRANCH  49  52
HETATM   52  O5  UNL     1     -11.454  47.619 -16.907  1.00  0.00    -0.388 OA
HETATM   53  H35 UNL     1     -11.202  47.638 -15.967  1.00  0.00     0.210 HD
ENDBRANCH  49  52
ENDBRANCH  47  49
ENDBRANCH  10  43
TORSDOF 12
ENDMDL
