MODEL 1
REMARK minimizedAffinity -6.5384326
REMARK CNNscore 0.33791706
REMARK CNNaffinity 6.95951843
REMARK  9 active torsions:
REMARK  status: ('A' for Active; 'I' for Inactive)
REMARK    1  A    between atoms: O1_2  and  C2_3 
REMARK    2  A    between atoms: C2_3  and  C3_4 
REMARK    3  A    between atoms: C3_4  and  C4_5 
REMARK    4  A    between atoms: C4_5  and  O2_6 
REMARK    5  A    between atoms: O2_6  and  C5_7 
REMARK    6  A    between atoms: C15_18  and  O4_19 
REMARK    7  A    between atoms: C21_25  and  O5_27 
REMARK    8  A    between atoms: C23_28  and  O6_29 
REMARK    9  A    between atoms: C29_37  and  O8_38 
ROOT
HETATM    1  C5  UNL     1      -3.934  19.370   3.207  1.00  0.00     0.122 C 
HETATM    2  C6  UNL     1      -2.793  20.347   3.561  1.00  0.00     0.033 C 
HETATM    3  C7  UNL     1      -1.413  19.834   3.139  1.00  0.00     0.014 C 
HETATM    4  C8  UNL     1      -1.052  18.429   3.758  1.00  0.00    -0.010 C 
HETATM    5  C9  UNL     1      -0.667  18.710   5.240  1.00  0.00     0.018 C 
HETATM    6  C10 UNL     1      -2.337  17.538   3.874  1.00  0.00     0.073 C 
HETATM    7  C11 UNL     1      -3.440  17.952   2.892  1.00  0.00     0.045 C 
HETATM    8  C12 UNL     1      -2.129  16.029   3.896  1.00  0.00     0.161 C 
HETATM    9  O3  UNL     1      -3.083  15.275   4.118  1.00  0.00    -0.292 OA
HETATM   10  C13 UNL     1      -0.792  15.426   3.644  1.00  0.00    -0.005 C 
HETATM   11  C14 UNL     1       0.205  16.200   3.171  1.00  0.00    -0.013 C 
HETATM   12  C15 UNL     1       1.401  15.495   2.596  1.00  0.00     0.095 C 
HETATM   13  C16 UNL     1       1.711  14.103   3.142  1.00  0.00     0.026 C 
HETATM   14  C17 UNL     1       0.482  13.216   3.014  1.00  0.00     0.013 C 
HETATM   15  C18 UNL     1      -0.709  13.900   3.739  1.00  0.00     0.043 C 
HETATM   16  C19 UNL     1       3.011  13.729   2.387  1.00  0.00     0.016 C 
HETATM   17  C20 UNL     1       3.603  15.094   1.853  1.00  0.00     0.034 C 
HETATM   18  C21 UNL     1       5.127  15.116   1.503  1.00  0.00     0.087 C 
HETATM   19  C22 UNL     1       6.016  14.541   2.627  1.00  0.00     0.049 C 
HETATM   20  C23 UNL     1       5.383  14.292   0.159  1.00  0.00     0.181 C 
HETATM   21  C24 UNL     1       5.099  14.900  -1.259  1.00  0.00     0.158 C 
HETATM   22  O7  UNL     1       5.109  13.740  -2.189  1.00  0.00    -0.373 OA
HETATM   23  C25 UNL     1       3.716  13.354  -2.449  1.00  0.00     0.185 C 
HETATM   24  C26 UNL     1       2.859  14.336  -1.652  1.00  0.00     0.028 C 
HETATM   25  C27 UNL     1       1.461  14.472  -2.232  1.00  0.00     0.053 C 
HETATM   26  C28 UNL     1       1.467  14.983  -3.673  1.00  0.00     0.309 C 
HETATM   27  N1  UNL     1       2.685  14.600  -4.418  1.00  0.00     0.128 N 
HETATM   28  C29 UNL     1       3.322  13.372  -3.971  1.00  0.00     0.384 C 
HETATM   29  C30 UNL     1       1.248  16.523  -3.678  1.00  0.00     0.233 C 
HETATM   30  O9  UNL     1       2.069  17.342  -4.094  1.00  0.00    -0.277 OA
HETATM   31  N2  UNL     1      -0.020  16.874  -3.167  1.00  0.00    -0.243 NA
HETATM   32  C31 UNL     1      -0.605  18.130  -3.533  1.00  0.00     0.120 A 
HETATM   33  C32 UNL     1      -0.183  17.863  -2.120  1.00  0.00     0.090 A 
HETATM   34  C33 UNL     1      -1.270  17.680  -1.092  1.00  0.00     0.115 C 
HETATM   35  C34 UNL     1      -0.681  17.760   0.262  1.00  0.00    -0.104 C 
HETATM   36  C35 UNL     1      -0.328  17.769   1.417  1.00  0.00    -0.090 C 
HETATM   37  C36 UNL     1       0.110  17.709   2.883  1.00  0.00     0.062 C 
HETATM   38  C37 UNL     1       1.582  18.380   2.945  1.00  0.00     0.012 C 
HETATM   39  C38 UNL     1       2.244  18.557   4.338  1.00  0.00     0.007 C 
HETATM   40  C39 UNL     1       3.552  17.790   4.531  1.00  0.00     0.001 C 
HETATM   41  C40 UNL     1       3.313  16.336   4.135  1.00  0.00     0.013 C 
HETATM   42  C41 UNL     1       2.805  16.187   2.668  1.00  0.00     0.002 C 
HETATM   43  C42 UNL     1       2.593  17.586   2.054  1.00  0.00     0.020 C 
HETATM   44  C43 UNL     1       3.794  15.544  -1.677  1.00  0.00     0.020 C 
HETATM   45  C44 UNL     1       3.360  16.844  -1.063  1.00  0.00     0.013 C 
HETATM   46  H42 UNL     1       2.525  14.624  -5.420  1.00  0.00     0.320 HD
ENDROOT
BRANCH   1  47
HETATM   47  O2  UNL     1      -4.812  19.278   4.340  1.00  0.00    -0.386 OA
BRANCH  47  48
HETATM   48  C4  UNL     1      -6.067  18.663   4.063  1.00  0.00     0.170 C 
BRANCH  48  49
HETATM   49  C3  UNL     1      -6.427  17.572   5.075  1.00  0.00     0.052 C 
BRANCH  49  50
HETATM   50  C2  UNL     1      -7.577  16.690   4.587  1.00  0.00     0.169 C 
BRANCH  50  51
HETATM   51  O1  UNL     1      -8.286  16.174   5.711  1.00  0.00    -0.396 OA
HETATM   52  C1  UNL     1      -8.997  14.978   5.390  1.00  0.00     0.201 C 
ENDBRANCH  50  51
ENDBRANCH  49  50
ENDBRANCH  48  49
ENDBRANCH  47  48
ENDBRANCH   1  47
BRANCH  12  53
HETATM   53  O4  UNL     1       1.046  15.288   1.200  1.00  0.00    -0.384 OA
HETATM   54  H21 UNL     1       0.081  15.211   1.124  1.00  0.00     0.211 HD
ENDBRANCH  12  53
BRANCH  18  55
HETATM   55  O5  UNL     1       5.568  16.465   1.317  1.00  0.00    -0.387 OA
HETATM   56  H33 UNL     1       6.496  16.411   1.020  1.00  0.00     0.210 HD
ENDBRANCH  18  55
BRANCH  20  57
HETATM   57  O6  UNL     1       6.793  13.934   0.102  1.00  0.00    -0.390 OA
HETATM   58  H35 UNL     1       6.906  13.455  -0.747  1.00  0.00     0.210 HD
ENDBRANCH  20  57
BRANCH  28  59
HETATM   59  O8  UNL     1       2.432  12.305  -4.238  1.00  0.00    -0.366 OA
HETATM   60  H44 UNL     1       2.425  12.199  -5.199  1.00  0.00     0.212 HD
ENDBRANCH  28  59
TORSDOF 9
ENDMDL
MODEL 2
REMARK minimizedAffinity -6.96458101
REMARK CNNscore 0.316005081
REMARK CNNaffinity 6.69875479
REMARK  9 active torsions:
REMARK  status: ('A' for Active; 'I' for Inactive)
REMARK    1  A    between atoms: O1_2  and  C2_3 
REMARK    2  A    between atoms: C2_3  and  C3_4 
REMARK    3  A    between atoms: C3_4  and  C4_5 
REMARK    4  A    between atoms: C4_5  and  O2_6 
REMARK    5  A    between atoms: O2_6  and  C5_7 
REMARK    6  A    between atoms: C15_18  and  O4_19 
REMARK    7  A    between atoms: C21_25  and  O5_27 
REMARK    8  A    between atoms: C23_28  and  O6_29 
REMARK    9  A    between atoms: C29_37  and  O8_38 
ROOT
HETATM    1  C5  UNL     1     -19.667  -8.016   7.195  1.00  0.00     0.122 C 
HETATM    2  C6  UNL     1     -19.564  -8.885   8.466  1.00  0.00     0.033 C 
HETATM    3  C7  UNL     1     -18.949  -8.138   9.653  1.00  0.00     0.014 C 
HETATM    4  C8  UNL     1     -17.514  -7.556   9.351  1.00  0.00    -0.010 C 
HETATM    5  C9  UNL     1     -16.546  -8.773   9.415  1.00  0.00     0.018 C 
HETATM    6  C10 UNL     1     -17.420  -7.088   7.858  1.00  0.00     0.073 C 
HETATM    7  C11 UNL     1     -18.788  -6.759   7.248  1.00  0.00     0.045 C 
HETATM    8  C12 UNL     1     -16.380  -6.021   7.535  1.00  0.00     0.161 C 
HETATM    9  O3  UNL     1     -16.162  -5.703   6.362  1.00  0.00    -0.292 OA
HETATM   10  C13 UNL     1     -15.615  -5.333   8.611  1.00  0.00    -0.005 C 
HETATM   11  C14 UNL     1     -15.994  -5.486   9.895  1.00  0.00    -0.013 C 
HETATM   12  C15 UNL     1     -15.438  -4.507  10.891  1.00  0.00     0.095 C 
HETATM   13  C16 UNL     1     -14.082  -3.886  10.566  1.00  0.00     0.026 C 
HETATM   14  C17 UNL     1     -14.128  -3.245   9.187  1.00  0.00     0.013 C 
HETATM   15  C18 UNL     1     -14.569  -4.314   8.150  1.00  0.00     0.043 C 
HETATM   16  C19 UNL     1     -13.808  -3.008  11.813  1.00  0.00     0.016 C 
HETATM   17  C20 UNL     1     -14.764  -3.562  12.944  1.00  0.00     0.034 C 
HETATM   18  C21 UNL     1     -14.374  -3.236  14.423  1.00  0.00     0.087 C 
HETATM   19  C22 UNL     1     -12.901  -3.563  14.748  1.00  0.00     0.049 C 
HETATM   20  C23 UNL     1     -14.647  -1.691  14.724  1.00  0.00     0.181 C 
HETATM   21  C24 UNL     1     -16.084  -1.142  15.033  1.00  0.00     0.158 C 
HETATM   22  O7  UNL     1     -15.975   0.334  14.891  1.00  0.00    -0.373 OA
HETATM   23  C25 UNL     1     -16.488   0.703  13.566  1.00  0.00     0.185 C 
HETATM   24  C26 UNL     1     -16.927  -0.607  12.913  1.00  0.00     0.028 C 
HETATM   25  C27 UNL     1     -17.979  -0.384  11.839  1.00  0.00     0.053 C 
HETATM   26  C28 UNL     1     -19.250   0.269  12.385  1.00  0.00     0.309 C 
HETATM   27  N1  UNL     1     -18.998   1.140  13.553  1.00  0.00     0.128 N 
HETATM   28  C29 UNL     1     -17.673   1.735  13.605  1.00  0.00     0.384 C 
HETATM   29  C30 UNL     1     -20.302  -0.833  12.704  1.00  0.00     0.233 C 
HETATM   30  O9  UNL     1     -20.745  -1.068  13.829  1.00  0.00    -0.277 OA
HETATM   31  N2  UNL     1     -20.710  -1.520  11.541  1.00  0.00    -0.243 NA
HETATM   32  C31 UNL     1     -21.977  -2.188  11.524  1.00  0.00     0.120 A 
HETATM   33  C32 UNL     1     -20.698  -2.967  11.455  1.00  0.00     0.090 A 
HETATM   34  C33 UNL     1     -20.356  -3.628  10.146  1.00  0.00     0.115 C 
HETATM   35  C34 UNL     1     -19.262  -4.600  10.359  1.00  0.00    -0.104 C 
HETATM   36  C35 UNL     1     -18.355  -5.396  10.387  1.00  0.00    -0.090 C 
HETATM   37  C36 UNL     1     -17.163  -6.358  10.388  1.00  0.00     0.062 C 
HETATM   38  C37 UNL     1     -16.925  -6.785  11.932  1.00  0.00     0.012 C 
HETATM   39  C38 UNL     1     -15.835  -7.848  12.235  1.00  0.00     0.007 C 
HETATM   40  C39 UNL     1     -14.685  -7.358  13.114  1.00  0.00     0.001 C 
HETATM   41  C40 UNL     1     -14.144  -6.065  12.513  1.00  0.00     0.013 C 
HETATM   42  C41 UNL     1     -15.236  -4.959  12.378  1.00  0.00     0.002 C 
HETATM   43  C42 UNL     1     -16.600  -5.532  12.810  1.00  0.00     0.020 C 
HETATM   44  C43 UNL     1     -17.305  -1.386  14.172  1.00  0.00     0.020 C 
HETATM   45  C44 UNL     1     -17.887  -2.766  14.057  1.00  0.00     0.013 C 
HETATM   46  H42 UNL     1     -19.744   1.818  13.672  1.00  0.00     0.320 HD
ENDROOT
BRANCH   1  47
HETATM   47  O2  UNL     1     -19.224  -8.803   6.077  1.00  0.00    -0.386 OA
BRANCH  47  48
HETATM   48  C4  UNL     1     -19.416  -8.183   4.809  1.00  0.00     0.170 C 
BRANCH  48  49
HETATM   49  C3  UNL     1     -20.894  -8.037   4.440  1.00  0.00     0.052 C 
BRANCH  49  50
HETATM   50  C2  UNL     1     -21.088  -7.664   2.970  1.00  0.00     0.169 C 
BRANCH  50  51
HETATM   51  O1  UNL     1     -22.059  -6.625   2.868  1.00  0.00    -0.396 OA
HETATM   52  C1  UNL     1     -22.879  -6.546   4.033  1.00  0.00     0.201 C 
ENDBRANCH  50  51
ENDBRANCH  49  50
ENDBRANCH  48  49
ENDBRANCH  47  48
ENDBRANCH   1  47
BRANCH  12  53
HETATM   53  O4  UNL     1     -16.384  -3.401  10.858  1.00  0.00    -0.384 OA
HETATM   54  H21 UNL     1     -16.788  -3.353   9.976  1.00  0.00     0.211 HD
ENDBRANCH  12  53
BRANCH  18  55
HETATM   55  O5  UNL     1     -15.153  -4.032  15.322  1.00  0.00    -0.387 OA
HETATM   56  H33 UNL     1     -14.929  -3.728  16.221  1.00  0.00     0.210 HD
ENDBRANCH  18  55
BRANCH  20  57
HETATM   57  O6  UNL     1     -13.874  -1.309  15.897  1.00  0.00    -0.390 OA
HETATM   58  H35 UNL     1     -14.092  -0.366  16.056  1.00  0.00     0.210 HD
ENDBRANCH  20  57
BRANCH  28  59
HETATM   59  O8  UNL     1     -17.558   2.623  12.508  1.00  0.00    -0.366 OA
HETATM   60  H44 UNL     1     -18.132   3.373  12.713  1.00  0.00     0.212 HD
ENDBRANCH  28  59
TORSDOF 9
ENDMDL
MODEL 3
REMARK minimizedAffinity -6.56048918
REMARK CNNscore 0.23969765
REMARK CNNaffinity 6.51997805
REMARK  9 active torsions:
REMARK  status: ('A' for Active; 'I' for Inactive)
REMARK    1  A    between atoms: O1_2  and  C2_3 
REMARK    2  A    between atoms: C2_3  and  C3_4 
REMARK    3  A    between atoms: C3_4  and  C4_5 
REMARK    4  A    between atoms: C4_5  and  O2_6 
REMARK    5  A    between atoms: O2_6  and  C5_7 
REMARK    6  A    between atoms: C15_18  and  O4_19 
REMARK    7  A    between atoms: C21_25  and  O5_27 
REMARK    8  A    between atoms: C23_28  and  O6_29 
REMARK    9  A    between atoms: C29_37  and  O8_38 
ROOT
HETATM    1  C5  UNL     1      -7.337  13.140  22.263  1.00  0.00     0.122 C 
HETATM    2  C6  UNL     1      -8.342  13.255  21.097  1.00  0.00     0.033 C 
HETATM    3  C7  UNL     1      -7.680  13.657  19.775  1.00  0.00     0.014 C 
HETATM    4  C8  UNL     1      -6.887  15.018  19.862  1.00  0.00    -0.010 C 
HETATM    5  C9  UNL     1      -7.969  16.137  19.842  1.00  0.00     0.018 C 
HETATM    6  C10 UNL     1      -6.223  15.172  21.273  1.00  0.00     0.073 C 
HETATM    7  C11 UNL     1      -5.996  13.828  21.976  1.00  0.00     0.045 C 
HETATM    8  C12 UNL     1      -5.000  16.078  21.364  1.00  0.00     0.161 C 
HETATM    9  O3  UNL     1      -4.510  16.348  22.465  1.00  0.00    -0.292 OA
HETATM   10  C13 UNL     1      -4.364  16.646  20.144  1.00  0.00    -0.005 C 
HETATM   11  C14 UNL     1      -4.727  16.185  18.931  1.00  0.00    -0.013 C 
HETATM   12  C15 UNL     1      -3.822  16.514  17.778  1.00  0.00     0.095 C 
HETATM   13  C16 UNL     1      -2.996  17.794  17.891  1.00  0.00     0.026 C 
HETATM   14  C17 UNL     1      -2.196  17.776  19.183  1.00  0.00     0.013 C 
HETATM   15  C18 UNL     1      -3.170  17.576  20.376  1.00  0.00     0.043 C 
HETATM   16  C19 UNL     1      -2.258  17.836  16.529  1.00  0.00     0.016 C 
HETATM   17  C20 UNL     1      -3.069  16.874  15.572  1.00  0.00     0.034 C 
HETATM   18  C21 UNL     1      -2.888  17.089  14.034  1.00  0.00     0.087 C 
HETATM   19  C22 UNL     1      -3.065  18.560  13.601  1.00  0.00     0.049 C 
HETATM   20  C23 UNL     1      -1.442  16.580  13.585  1.00  0.00     0.181 C 
HETATM   21  C24 UNL     1      -1.124  15.060  13.361  1.00  0.00     0.158 C 
HETATM   22  O7  UNL     1       0.360  14.975  13.320  1.00  0.00    -0.373 OA
HETATM   23  C25 UNL     1       0.827  14.530  14.638  1.00  0.00     0.185 C 
HETATM   24  C26 UNL     1      -0.434  14.333  15.479  1.00  0.00     0.028 C 
HETATM   25  C27 UNL     1      -0.210  13.355  16.620  1.00  0.00     0.053 C 
HETATM   26  C28 UNL     1       0.200  11.964  16.134  1.00  0.00     0.309 C 
HETATM   27  N1  UNL     1       0.940  11.993  14.854  1.00  0.00     0.128 N 
HETATM   28  C29 UNL     1       1.687  13.214  14.600  1.00  0.00     0.384 C 
HETATM   29  C30 UNL     1      -1.058  11.052  16.053  1.00  0.00     0.233 C 
HETATM   30  O9  UNL     1      -1.489  10.553  15.013  1.00  0.00    -0.277 OA
HETATM   31  N2  UNL     1      -1.637  10.843  17.322  1.00  0.00    -0.243 NA
HETATM   32  C31 UNL     1      -2.453   9.686  17.544  1.00  0.00     0.120 A 
HETATM   33  C32 UNL     1      -3.048  11.062  17.573  1.00  0.00     0.090 A 
HETATM   34  C33 UNL     1      -3.487  11.602  18.909  1.00  0.00     0.115 C 
HETATM   35  C34 UNL     1      -4.331  12.798  18.700  1.00  0.00    -0.104 C 
HETATM   36  C35 UNL     1      -5.002  13.802  18.674  1.00  0.00    -0.090 C 
HETATM   37  C36 UNL     1      -5.797  15.111  18.663  1.00  0.00     0.062 C 
HETATM   38  C37 UNL     1      -6.384  15.274  17.163  1.00  0.00     0.012 C 
HETATM   39  C38 UNL     1      -7.330  16.471  16.877  1.00  0.00     0.007 C 
HETATM   40  C39 UNL     1      -6.815  17.464  15.835  1.00  0.00     0.001 C 
HETATM   41  C40 UNL     1      -5.397  17.869  16.225  1.00  0.00     0.013 C 
HETATM   42  C41 UNL     1      -4.431  16.650  16.341  1.00  0.00     0.002 C 
HETATM   43  C42 UNL     1      -5.223  15.346  16.117  1.00  0.00     0.020 C 
HETATM   44  C43 UNL     1      -1.409  13.961  14.363  1.00  0.00     0.020 C 
HETATM   45  C44 UNL     1      -2.826  13.588  14.695  1.00  0.00     0.013 C 
HETATM   46  H42 UNL     1       1.496  11.153  14.733  1.00  0.00     0.320 HD
ENDROOT
BRANCH   1  47
HETATM   47  O2  UNL     1      -7.912  13.780  23.413  1.00  0.00    -0.386 OA
BRANCH  47  48
HETATM   48  C4  UNL     1      -8.812  12.960  24.154  1.00  0.00     0.170 C 
BRANCH  48  49
HETATM   49  C3  UNL     1     -10.220  13.554  24.239  1.00  0.00     0.052 C 
BRANCH  49  50
HETATM   50  C2  UNL     1     -11.303  12.476  24.216  1.00  0.00     0.169 C 
BRANCH  50  51
HETATM   51  O1  UNL     1     -10.822  11.306  24.873  1.00  0.00    -0.396 OA
HETATM   52  C1  UNL     1     -11.229  10.113  24.206  1.00  0.00     0.201 C 
ENDBRANCH  50  51
ENDBRANCH  49  50
ENDBRANCH  48  49
ENDBRANCH  47  48
ENDBRANCH   1  47
BRANCH  12  53
HETATM   53  O4  UNL     1      -2.850  15.430  17.778  1.00  0.00    -0.384 OA
HETATM   54  H21 UNL     1      -2.741  15.099  18.685  1.00  0.00     0.211 HD
ENDBRANCH  12  53
BRANCH  18  55
HETATM   55  O5  UNL     1      -3.886  16.355  13.316  1.00  0.00    -0.387 OA
HETATM   56  H33 UNL     1      -3.672  16.457  12.369  1.00  0.00     0.210 HD
ENDBRANCH  18  55
BRANCH  20  57
HETATM   57  O6  UNL     1      -1.118  17.191  12.304  1.00  0.00    -0.390 OA
HETATM   58  H35 UNL     1      -0.238  16.831  12.059  1.00  0.00     0.210 HD
ENDBRANCH  20  57
BRANCH  28  59
HETATM   59  O8  UNL     1       2.715  13.297  15.569  1.00  0.00    -0.366 OA
HETATM   60  H44 UNL     1       3.354  12.610  15.339  1.00  0.00     0.212 HD
ENDBRANCH  28  59
TORSDOF 9
ENDMDL
MODEL 4
REMARK minimizedAffinity -7.74977255
REMARK CNNscore 0.215796471
REMARK CNNaffinity 6.0867672
REMARK  9 active torsions:
REMARK  status: ('A' for Active; 'I' for Inactive)
REMARK    1  A    between atoms: O1_2  and  C2_3 
REMARK    2  A    between atoms: C2_3  and  C3_4 
REMARK    3  A    between atoms: C3_4  and  C4_5 
REMARK    4  A    between atoms: C4_5  and  O2_6 
REMARK    5  A    between atoms: O2_6  and  C5_7 
REMARK    6  A    between atoms: C15_18  and  O4_19 
REMARK    7  A    between atoms: C21_25  and  O5_27 
REMARK    8  A    between atoms: C23_28  and  O6_29 
REMARK    9  A    between atoms: C29_37  and  O8_38 
ROOT
HETATM    1  C5  UNL     1       3.921  12.319  19.024  1.00  0.00     0.122 C 
HETATM    2  C6  UNL     1       3.209  10.999  18.659  1.00  0.00     0.033 C 
HETATM    3  C7  UNL     1       1.789  11.213  18.125  1.00  0.00     0.014 C 
HETATM    4  C8  UNL     1       0.857  12.002  19.124  1.00  0.00    -0.010 C 
HETATM    5  C9  UNL     1       0.457  10.975  20.223  1.00  0.00     0.018 C 
HETATM    6  C10 UNL     1       1.686  13.077  19.907  1.00  0.00     0.073 C 
HETATM    7  C11 UNL     1       2.958  13.506  19.167  1.00  0.00     0.045 C 
HETATM    8  C12 UNL     1       0.916  14.272  20.459  1.00  0.00     0.161 C 
HETATM    9  O3  UNL     1       1.481  15.086  21.197  1.00  0.00    -0.292 OA
HETATM   10  C13 UNL     1      -0.516  14.496  20.120  1.00  0.00    -0.005 C 
HETATM   11  C14 UNL     1      -1.087  13.766  19.142  1.00  0.00    -0.013 C 
HETATM   12  C15 UNL     1      -2.395  14.265  18.595  1.00  0.00     0.095 C 
HETATM   13  C16 UNL     1      -3.267  15.091  19.537  1.00  0.00     0.026 C 
HETATM   14  C17 UNL     1      -2.464  16.258  20.089  1.00  0.00     0.013 C 
HETATM   15  C18 UNL     1      -1.184  15.708  20.775  1.00  0.00     0.043 C 
HETATM   16  C19 UNL     1      -4.526  15.364  18.675  1.00  0.00     0.016 C 
HETATM   17  C20 UNL     1      -4.493  14.286  17.518  1.00  0.00     0.034 C 
HETATM   18  C21 UNL     1      -5.848  13.975  16.803  1.00  0.00     0.087 C 
HETATM   19  C22 UNL     1      -7.000  13.680  17.786  1.00  0.00     0.049 C 
HETATM   20  C23 UNL     1      -6.258  15.203  15.868  1.00  0.00     0.181 C 
HETATM   21  C24 UNL     1      -5.618  15.425  14.452  1.00  0.00     0.158 C 
HETATM   22  O7  UNL     1      -5.973  16.820  14.079  1.00  0.00    -0.373 OA
HETATM   23  C25 UNL     1      -4.814  17.676  14.363  1.00  0.00     0.185 C 
HETATM   24  C26 UNL     1      -3.735  16.742  14.910  1.00  0.00     0.028 C 
HETATM   25  C27 UNL     1      -2.339  17.308  14.710  1.00  0.00     0.053 C 
HETATM   26  C28 UNL     1      -1.999  17.535  13.236  1.00  0.00     0.309 C 
HETATM   27  N1  UNL     1      -3.187  17.835  12.408  1.00  0.00     0.128 N 
HETATM   28  C29 UNL     1      -4.287  18.471  13.114  1.00  0.00     0.384 C 
HETATM   29  C30 UNL     1      -1.210  16.311  12.691  1.00  0.00     0.233 C 
HETATM   30  O9  UNL     1      -1.609  15.570  11.791  1.00  0.00    -0.277 OA
HETATM   31  N2  UNL     1       0.035  16.159  13.337  1.00  0.00    -0.243 NA
HETATM   32  C31 UNL     1       1.090  15.447  12.679  1.00  0.00     0.120 A 
HETATM   33  C32 UNL     1       0.454  14.901  13.922  1.00  0.00     0.090 A 
HETATM   34  C33 UNL     1       1.275  14.908  15.185  1.00  0.00     0.115 C 
HETATM   35  C34 UNL     1       0.624  14.048  16.196  1.00  0.00    -0.104 C 
HETATM   36  C35 UNL     1       0.184  13.409  17.121  1.00  0.00    -0.090 C 
HETATM   37  C36 UNL     1      -0.394  12.660  18.326  1.00  0.00     0.062 C 
HETATM   38  C37 UNL     1      -1.496  11.631  17.736  1.00  0.00     0.012 C 
HETATM   39  C38 UNL     1      -2.181  10.651  18.725  1.00  0.00     0.007 C 
HETATM   40  C39 UNL     1      -3.695  10.818  18.852  1.00  0.00     0.001 C 
HETATM   41  C40 UNL     1      -3.990  12.289  19.128  1.00  0.00     0.013 C 
HETATM   42  C41 UNL     1      -3.428  13.235  18.022  1.00  0.00     0.002 C 
HETATM   43  C42 UNL     1      -2.635  12.404  16.993  1.00  0.00     0.020 C 
HETATM   44  C43 UNL     1      -4.130  15.463  14.174  1.00  0.00     0.020 C 
HETATM   45  C44 UNL     1      -3.299  14.221  14.325  1.00  0.00     0.013 C 
HETATM   46  H42 UNL     1      -2.927  18.320  11.555  1.00  0.00     0.320 HD
ENDROOT
BRANCH   1  47
HETATM   47  O2  UNL     1       4.575  12.140  20.290  1.00  0.00    -0.386 OA
BRANCH  47  48
HETATM   48  C4  UNL     1       4.320  10.882  20.910  1.00  0.00     0.170 C 
BRANCH  48  49
HETATM   49  C3  UNL     1       4.493  10.926  22.430  1.00  0.00     0.052 C 
BRANCH  49  50
HETATM   50  C2  UNL     1       3.178  10.674  23.168  1.00  0.00     0.169 C 
BRANCH  50  51
HETATM   51  O1  UNL     1       3.189   9.361  23.721  1.00  0.00    -0.396 OA
HETATM   52  C1  UNL     1       2.495   8.428  22.893  1.00  0.00     0.201 C 
ENDBRANCH  50  51
ENDBRANCH  49  50
ENDBRANCH  48  49
ENDBRANCH  47  48
ENDBRANCH   1  47
BRANCH  12  53
HETATM   53  O4  UNL     1      -2.003  15.180  17.534  1.00  0.00    -0.384 OA
HETATM   54  H21 UNL     1      -1.138  15.567  17.749  1.00  0.00     0.211 HD
ENDBRANCH  12  53
BRANCH  18  55
HETATM   55  O5  UNL     1      -5.719  12.798  15.999  1.00  0.00    -0.387 OA
HETATM   56  H33 UNL     1      -6.561  12.702  15.515  1.00  0.00     0.210 HD
ENDBRANCH  18  55
BRANCH  20  57
HETATM   57  O6  UNL     1      -7.684  15.111  15.588  1.00  0.00    -0.390 OA
HETATM   58  H35 UNL     1      -7.882  15.867  14.994  1.00  0.00     0.210 HD
ENDBRANCH  20  57
BRANCH  28  59
HETATM   59  O8  UNL     1      -3.849  19.753  13.524  1.00  0.00    -0.366 OA
HETATM   60  H44 UNL     1      -3.783  20.282  12.719  1.00  0.00     0.212 HD
ENDBRANCH  28  59
TORSDOF 9
ENDMDL
MODEL 5
REMARK minimizedAffinity -6.7628994
REMARK CNNscore 0.199887648
REMARK CNNaffinity 6.29061699
REMARK  9 active torsions:
REMARK  status: ('A' for Active; 'I' for Inactive)
REMARK    1  A    between atoms: O1_2  and  C2_3 
REMARK    2  A    between atoms: C2_3  and  C3_4 
REMARK    3  A    between atoms: C3_4  and  C4_5 
REMARK    4  A    between atoms: C4_5  and  O2_6 
REMARK    5  A    between atoms: O2_6  and  C5_7 
REMARK    6  A    between atoms: C15_18  and  O4_19 
REMARK    7  A    between atoms: C21_25  and  O5_27 
REMARK    8  A    between atoms: C23_28  and  O6_29 
REMARK    9  A    between atoms: C29_37  and  O8_38 
ROOT
HETATM    1  C5  UNL     1       3.266  14.074  -3.320  1.00  0.00     0.122 C 
HETATM    2  C6  UNL     1       4.295  13.292  -2.476  1.00  0.00     0.033 C 
HETATM    3  C7  UNL     1       4.303  13.713  -1.003  1.00  0.00     0.014 C 
HETATM    4  C8  UNL     1       4.579  15.252  -0.794  1.00  0.00    -0.010 C 
HETATM    5  C9  UNL     1       6.108  15.438  -1.018  1.00  0.00     0.018 C 
HETATM    6  C10 UNL     1       3.932  16.084  -1.954  1.00  0.00     0.073 C 
HETATM    7  C11 UNL     1       2.769  15.353  -2.635  1.00  0.00     0.045 C 
HETATM    8  C12 UNL     1       3.595  17.539  -1.653  1.00  0.00     0.161 C 
HETATM    9  O3  UNL     1       3.207  18.286  -2.558  1.00  0.00    -0.292 OA
HETATM   10  C13 UNL     1       3.710  18.094  -0.276  1.00  0.00    -0.005 C 
HETATM   11  C14 UNL     1       3.900  17.255   0.762  1.00  0.00    -0.013 C 
HETATM   12  C15 UNL     1       3.649  17.806   2.137  1.00  0.00     0.095 C 
HETATM   13  C16 UNL     1       3.844  19.309   2.325  1.00  0.00     0.026 C 
HETATM   14  C17 UNL     1       3.006  20.067   1.308  1.00  0.00     0.013 C 
HETATM   15  C18 UNL     1       3.384  19.581  -0.118  1.00  0.00     0.043 C 
HETATM   16  C19 UNL     1       3.570  19.494   3.839  1.00  0.00     0.016 C 
HETATM   17  C20 UNL     1       3.722  18.057   4.480  1.00  0.00     0.034 C 
HETATM   18  C21 UNL     1       4.003  17.994   6.018  1.00  0.00     0.087 C 
HETATM   19  C22 UNL     1       5.163  18.911   6.460  1.00  0.00     0.049 C 
HETATM   20  C23 UNL     1       2.683  18.392   6.824  1.00  0.00     0.181 C 
HETATM   21  C24 UNL     1       1.505  17.380   7.048  1.00  0.00     0.158 C 
HETATM   22  O7  UNL     1       0.358  18.212   7.497  1.00  0.00    -0.373 OA
HETATM   23  C25 UNL     1      -0.514  18.447   6.339  1.00  0.00     0.185 C 
HETATM   24  C26 UNL     1       0.142  17.711   5.171  1.00  0.00     0.028 C 
HETATM   25  C27 UNL     1      -0.862  17.353   4.088  1.00  0.00     0.053 C 
HETATM   26  C28 UNL     1      -1.977  16.438   4.596  1.00  0.00     0.309 C 
HETATM   27  N1  UNL     1      -2.276  16.632   6.031  1.00  0.00     0.128 N 
HETATM   28  C29 UNL     1      -1.995  17.962   6.547  1.00  0.00     0.384 C 
HETATM   29  C30 UNL     1      -1.620  14.958   4.276  1.00  0.00     0.233 C 
HETATM   30  O9  UNL     1      -1.435  14.087   5.127  1.00  0.00    -0.277 OA
HETATM   31  N2  UNL     1      -1.555  14.724   2.886  1.00  0.00    -0.243 NA
HETATM   32  C31 UNL     1      -1.737  13.394   2.386  1.00  0.00     0.120 A 
HETATM   33  C32 UNL     1      -0.412  14.084   2.264  1.00  0.00     0.090 A 
HETATM   34  C33 UNL     1       0.022  14.520   0.889  1.00  0.00     0.115 C 
HETATM   35  C34 UNL     1       1.458  14.869   0.917  1.00  0.00    -0.104 C 
HETATM   36  C35 UNL     1       2.610  15.217   0.807  1.00  0.00    -0.090 C 
HETATM   37  C36 UNL     1       4.047  15.726   0.664  1.00  0.00     0.062 C 
HETATM   38  C37 UNL     1       4.858  15.164   1.948  1.00  0.00     0.012 C 
HETATM   39  C38 UNL     1       6.385  15.435   2.021  1.00  0.00     0.007 C 
HETATM   40  C39 UNL     1       6.832  16.277   3.215  1.00  0.00     0.001 C 
HETATM   41  C40 UNL     1       5.973  17.537   3.258  1.00  0.00     0.013 C 
HETATM   42  C41 UNL     1       4.448  17.224   3.352  1.00  0.00     0.002 C 
HETATM   43  C42 UNL     1       4.232  15.699   3.278  1.00  0.00     0.020 C 
HETATM   44  C43 UNL     1       0.826  16.589   5.950  1.00  0.00     0.020 C 
HETATM   45  C44 UNL     1       1.575  15.513   5.217  1.00  0.00     0.013 C 
HETATM   46  H42 UNL     1      -3.210  16.306   6.259  1.00  0.00     0.320 HD
ENDROOT
BRANCH   1  47
HETATM   47  O2  UNL     1       3.899  14.462  -4.550  1.00  0.00    -0.386 OA
BRANCH  47  48
HETATM   48  C4  UNL     1       4.943  13.589  -4.974  1.00  0.00     0.170 C 
BRANCH  48  49
HETATM   49  C3  UNL     1       4.439  12.459  -5.875  1.00  0.00     0.052 C 
BRANCH  49  50
HETATM   50  C2  UNL     1       4.941  11.089  -5.417  1.00  0.00     0.169 C 
BRANCH  50  51
HETATM   51  O1  UNL     1       5.327  10.322  -6.554  1.00  0.00    -0.396 OA
HETATM   52  C1  UNL     1       6.657  10.622  -6.974  1.00  0.00     0.201 C 
ENDBRANCH  50  51
ENDBRANCH  49  50
ENDBRANCH  48  49
ENDBRANCH  47  48
ENDBRANCH   1  47
BRANCH  12  53
HETATM   53  O4  UNL     1       2.228  17.575   2.351  1.00  0.00    -0.384 OA
HETATM   54  H21 UNL     1       1.770  17.587   1.494  1.00  0.00     0.211 HD
ENDBRANCH  12  53
BRANCH  18  55
HETATM   55  O5  UNL     1       4.398  16.670   6.390  1.00  0.00    -0.387 OA
HETATM   56  H33 UNL     1       4.477  16.670   7.362  1.00  0.00     0.210 HD
ENDBRANCH  18  55
BRANCH  20  57
HETATM   57  O6  UNL     1       3.068  18.774   8.175  1.00  0.00    -0.390 OA
HETATM   58  H35 UNL     1       2.228  18.984   8.636  1.00  0.00     0.210 HD
ENDBRANCH  20  57
BRANCH  28  59
HETATM   59  O8  UNL     1      -2.878  18.865   5.908  1.00  0.00    -0.366 OA
HETATM   60  H44 UNL     1      -3.755  18.681   6.271  1.00  0.00     0.212 HD
ENDBRANCH  28  59
TORSDOF 9
ENDMDL
MODEL 6
REMARK minimizedAffinity -6.3952589
REMARK CNNscore 0.195524871
REMARK CNNaffinity 6.59576941
REMARK  9 active torsions:
REMARK  status: ('A' for Active; 'I' for Inactive)
REMARK    1  A    between atoms: O1_2  and  C2_3 
REMARK    2  A    between atoms: C2_3  and  C3_4 
REMARK    3  A    between atoms: C3_4  and  C4_5 
REMARK    4  A    between atoms: C4_5  and  O2_6 
REMARK    5  A    between atoms: O2_6  and  C5_7 
REMARK    6  A    between atoms: C15_18  and  O4_19 
REMARK    7  A    between atoms: C21_25  and  O5_27 
REMARK    8  A    between atoms: C23_28  and  O6_29 
REMARK    9  A    between atoms: C29_37  and  O8_38 
ROOT
HETATM    1  C5  UNL     1      -7.279  13.215  21.129  1.00  0.00     0.122 C 
HETATM    2  C6  UNL     1      -7.826  13.800  19.809  1.00  0.00     0.033 C 
HETATM    3  C7  UNL     1      -6.726  14.089  18.782  1.00  0.00     0.014 C 
HETATM    4  C8  UNL     1      -5.612  15.069  19.318  1.00  0.00    -0.010 C 
HETATM    5  C9  UNL     1      -6.247  16.490  19.271  1.00  0.00     0.018 C 
HETATM    6  C10 UNL     1      -5.363  14.827  20.846  1.00  0.00     0.073 C 
HETATM    7  C11 UNL     1      -5.768  13.420  21.301  1.00  0.00     0.045 C 
HETATM    8  C12 UNL     1      -4.000  15.234  21.394  1.00  0.00     0.161 C 
HETATM    9  O3  UNL     1      -3.784  15.194  22.611  1.00  0.00    -0.292 OA
HETATM   10  C13 UNL     1      -2.901  15.674  20.492  1.00  0.00    -0.005 C 
HETATM   11  C14 UNL     1      -3.028  15.505  19.162  1.00  0.00    -0.013 C 
HETATM   12  C15 UNL     1      -1.777  15.621  18.338  1.00  0.00     0.095 C 
HETATM   13  C16 UNL     1      -0.666  16.512  18.890  1.00  0.00     0.026 C 
HETATM   14  C17 UNL     1      -0.312  16.075  20.302  1.00  0.00     0.013 C 
HETATM   15  C18 UNL     1      -1.597  16.098  21.174  1.00  0.00     0.043 C 
HETATM   16  C19 UNL     1       0.404  16.443  17.772  1.00  0.00     0.016 C 
HETATM   17  C20 UNL     1      -0.356  15.935  16.482  1.00  0.00     0.034 C 
HETATM   18  C21 UNL     1       0.312  16.240  15.101  1.00  0.00     0.087 C 
HETATM   19  C22 UNL     1       0.725  17.718  14.940  1.00  0.00     0.049 C 
HETATM   20  C23 UNL     1       1.597  15.312  14.907  1.00  0.00     0.181 C 
HETATM   21  C24 UNL     1       1.483  13.810  14.465  1.00  0.00     0.158 C 
HETATM   22  O7  UNL     1       2.817  13.218  14.751  1.00  0.00    -0.373 OA
HETATM   23  C25 UNL     1       2.730  12.497  16.027  1.00  0.00     0.185 C 
HETATM   24  C26 UNL     1       1.285  12.661  16.498  1.00  0.00     0.028 C 
HETATM   25  C27 UNL     1       0.864  11.548  17.443  1.00  0.00     0.053 C 
HETATM   26  C28 UNL     1       0.948  10.164  16.798  1.00  0.00     0.309 C 
HETATM   27  N1  UNL     1       1.992  10.073  15.755  1.00  0.00     0.128 N 
HETATM   28  C29 UNL     1       3.118  10.977  15.928  1.00  0.00     0.384 C 
HETATM   29  C30 UNL     1      -0.451   9.761  16.249  1.00  0.00     0.233 C 
HETATM   30  O9  UNL     1      -0.701   9.561  15.060  1.00  0.00    -0.277 OA
HETATM   31  N2  UNL     1      -1.402   9.630  17.283  1.00  0.00    -0.243 NA
HETATM   32  C31 UNL     1      -2.562   8.814  17.076  1.00  0.00     0.120 A 
HETATM   33  C32 UNL     1      -2.688  10.299  17.240  1.00  0.00     0.090 A 
HETATM   34  C33 UNL     1      -3.301  10.808  18.518  1.00  0.00     0.115 C 
HETATM   35  C34 UNL     1      -3.641  12.239  18.361  1.00  0.00    -0.104 C 
HETATM   36  C35 UNL     1      -3.936  13.410  18.380  1.00  0.00    -0.090 C 
HETATM   37  C36 UNL     1      -4.253  14.907  18.446  1.00  0.00     0.062 C 
HETATM   38  C37 UNL     1      -4.310  15.427  16.914  1.00  0.00     0.012 C 
HETATM   39  C38 UNL     1      -4.720  16.903  16.660  1.00  0.00     0.007 C 
HETATM   40  C39 UNL     1      -3.652  17.761  15.984  1.00  0.00     0.001 C 
HETATM   41  C40 UNL     1      -2.350  17.602  16.764  1.00  0.00     0.013 C 
HETATM   42  C41 UNL     1      -1.880  16.117  16.855  1.00  0.00     0.002 C 
HETATM   43  C42 UNL     1      -2.936  15.204  16.200  1.00  0.00     0.020 C 
HETATM   44  C43 UNL     1       0.602  12.777  15.136  1.00  0.00     0.020 C 
HETATM   45  C44 UNL     1      -0.894  12.888  15.051  1.00  0.00     0.013 C 
HETATM   46  H42 UNL     1       2.275   9.110  15.602  1.00  0.00     0.320 HD
ENDROOT
BRANCH   1  47
HETATM   47  O2  UNL     1      -7.932  13.886  22.219  1.00  0.00    -0.386 OA
BRANCH  47  48
HETATM   48  C4  UNL     1      -8.204  13.053  23.343  1.00  0.00     0.170 C 
BRANCH  48  49
HETATM   49  C3  UNL     1      -9.517  12.280  23.202  1.00  0.00     0.052 C 
BRANCH  49  50
HETATM   50  C2  UNL     1     -10.306  12.238  24.511  1.00  0.00     0.169 C 
BRANCH  50  51
HETATM   51  O1  UNL     1     -11.273  11.194  24.448  1.00  0.00    -0.396 OA
HETATM   52  C1  UNL     1     -10.811  10.083  23.682  1.00  0.00     0.201 C 
ENDBRANCH  50  51
ENDBRANCH  49  50
ENDBRANCH  48  49
ENDBRANCH  47  48
ENDBRANCH   1  47
BRANCH  12  53
HETATM   53  O4  UNL     1      -1.226  14.273  18.348  1.00  0.00    -0.384 OA
HETATM   54  H21 UNL     1      -1.487  13.828  19.170  1.00  0.00     0.211 HD
ENDBRANCH  12  53
BRANCH  18  55
HETATM   55  O5  UNL     1      -0.616  15.983  14.041  1.00  0.00    -0.387 OA
HETATM   56  H33 UNL     1      -0.122  16.108  13.209  1.00  0.00     0.210 HD
ENDBRANCH  18  55
BRANCH  20  57
HETATM   57  O6  UNL     1       2.443  15.907  13.882  1.00  0.00    -0.390 OA
HETATM   58  H35 UNL     1       3.201  15.292  13.781  1.00  0.00     0.210 HD
ENDBRANCH  20  57
BRANCH  28  59
HETATM   59  O8  UNL     1       3.802  10.590  17.105  1.00  0.00    -0.366 OA
HETATM   60  H44 UNL     1       4.237   9.752  16.897  1.00  0.00     0.212 HD
ENDBRANCH  28  59
TORSDOF 9
ENDMDL
MODEL 7
REMARK minimizedAffinity -9.55619335
REMARK CNNscore 0.175629765
REMARK CNNaffinity 6.38126755
REMARK  9 active torsions:
REMARK  status: ('A' for Active; 'I' for Inactive)
REMARK    1  A    between atoms: O1_2  and  C2_3 
REMARK    2  A    between atoms: C2_3  and  C3_4 
REMARK    3  A    between atoms: C3_4  and  C4_5 
REMARK    4  A    between atoms: C4_5  and  O2_6 
REMARK    5  A    between atoms: O2_6  and  C5_7 
REMARK    6  A    between atoms: C15_18  and  O4_19 
REMARK    7  A    between atoms: C21_25  and  O5_27 
REMARK    8  A    between atoms: C23_28  and  O6_29 
REMARK    9  A    between atoms: C29_37  and  O8_38 
ROOT
HETATM    1  C5  UNL     1      -0.146  10.789  17.351  1.00  0.00     0.122 C 
HETATM    2  C6  UNL     1      -0.243  12.320  17.184  1.00  0.00     0.033 C 
HETATM    3  C7  UNL     1       1.006  13.056  17.681  1.00  0.00     0.014 C 
HETATM    4  C8  UNL     1       1.348  12.757  19.191  1.00  0.00    -0.010 C 
HETATM    5  C9  UNL     1       0.333  13.593  20.024  1.00  0.00     0.018 C 
HETATM    6  C10 UNL     1       0.986  11.275  19.549  1.00  0.00     0.073 C 
HETATM    7  C11 UNL     1       0.959  10.355  18.322  1.00  0.00     0.045 C 
HETATM    8  C12 UNL     1       1.735  10.646  20.718  1.00  0.00     0.161 C 
HETATM    9  O3  UNL     1       1.407   9.530  21.136  1.00  0.00    -0.292 OA
HETATM   10  C13 UNL     1       2.875  11.343  21.374  1.00  0.00    -0.005 C 
HETATM   11  C14 UNL     1       3.402  12.440  20.796  1.00  0.00    -0.013 C 
HETATM   12  C15 UNL     1       4.751  12.887  21.284  1.00  0.00     0.095 C 
HETATM   13  C16 UNL     1       5.115  12.535  22.725  1.00  0.00     0.026 C 
HETATM   14  C17 UNL     1       4.960  11.038  22.943  1.00  0.00     0.013 C 
HETATM   15  C18 UNL     1       3.513  10.622  22.565  1.00  0.00     0.043 C 
HETATM   16  C19 UNL     1       6.507  13.196  22.888  1.00  0.00     0.016 C 
HETATM   17  C20 UNL     1       6.612  14.265  21.728  1.00  0.00     0.034 C 
HETATM   18  C21 UNL     1       7.649  15.420  21.922  1.00  0.00     0.087 C 
HETATM   19  C22 UNL     1       7.531  16.117  23.294  1.00  0.00     0.049 C 
HETATM   20  C23 UNL     1       9.130  14.849  21.750  1.00  0.00     0.181 C 
HETATM   21  C24 UNL     1       9.763  14.583  20.339  1.00  0.00     0.158 C 
HETATM   22  O7  UNL     1      10.959  13.739  20.602  1.00  0.00    -0.373 OA
HETATM   23  C25 UNL     1      10.598  12.342  20.327  1.00  0.00     0.185 C 
HETATM   24  C26 UNL     1       9.139  12.373  19.872  1.00  0.00     0.028 C 
HETATM   25  C27 UNL     1       8.784  11.169  19.017  1.00  0.00     0.053 C 
HETATM   26  C28 UNL     1       9.627  11.080  17.743  1.00  0.00     0.309 C 
HETATM   27  N1  UNL     1      10.973  11.673  17.898  1.00  0.00     0.128 N 
HETATM   28  C29 UNL     1      11.508  11.649  19.249  1.00  0.00     0.384 C 
HETATM   29  C30 UNL     1       8.846  11.721  16.560  1.00  0.00     0.233 C 
HETATM   30  O9  UNL     1       9.221  12.714  15.935  1.00  0.00    -0.277 OA
HETATM   31  N2  UNL     1       7.661  11.012  16.269  1.00  0.00    -0.243 NA
HETATM   32  C31 UNL     1       7.082  11.113  14.962  1.00  0.00     0.120 A 
HETATM   33  C32 UNL     1       6.375  11.671  16.161  1.00  0.00     0.090 A 
HETATM   34  C33 UNL     1       5.135  10.955  16.633  1.00  0.00     0.115 C 
HETATM   35  C34 UNL     1       4.408  11.816  17.589  1.00  0.00    -0.104 C 
HETATM   36  C35 UNL     1       3.735  12.399  18.406  1.00  0.00    -0.090 C 
HETATM   37  C36 UNL     1       2.907  13.093  19.492  1.00  0.00     0.062 C 
HETATM   38  C37 UNL     1       3.331  14.655  19.458  1.00  0.00     0.012 C 
HETATM   39  C38 UNL     1       2.570  15.637  20.389  1.00  0.00     0.007 C 
HETATM   40  C39 UNL     1       3.438  16.335  21.435  1.00  0.00     0.001 C 
HETATM   41  C40 UNL     1       4.240  15.269  22.175  1.00  0.00     0.013 C 
HETATM   42  C41 UNL     1       5.123  14.407  21.221  1.00  0.00     0.002 C 
HETATM   43  C42 UNL     1       4.856  14.824  19.761  1.00  0.00     0.020 C 
HETATM   44  C43 UNL     1       9.116  13.765  19.242  1.00  0.00     0.020 C 
HETATM   45  C44 UNL     1       7.872  14.261  18.561  1.00  0.00     0.013 C 
HETATM   46  H42 UNL     1      11.618  11.303  17.207  1.00  0.00     0.320 HD
ENDROOT
BRANCH   1  47
HETATM   47  O2  UNL     1      -1.395  10.317  17.881  1.00  0.00    -0.386 OA
BRANCH  47  48
HETATM   48  C4  UNL     1      -2.301   9.821  16.899  1.00  0.00     0.170 C 
BRANCH  48  49
HETATM   49  C3  UNL     1      -2.108   8.329  16.617  1.00  0.00     0.052 C 
BRANCH  49  50
HETATM   50  C2  UNL     1      -3.027   7.829  15.502  1.00  0.00     0.169 C 
BRANCH  50  51
HETATM   51  O1  UNL     1      -3.371   6.468  15.746  1.00  0.00    -0.396 OA
HETATM   52  C1  UNL     1      -2.920   5.607  14.702  1.00  0.00     0.201 C 
ENDBRANCH  50  51
ENDBRANCH  49  50
ENDBRANCH  48  49
ENDBRANCH  47  48
ENDBRANCH   1  47
BRANCH  12  53
HETATM   53  O4  UNL     1       5.686  12.136  20.459  1.00  0.00    -0.384 OA
HETATM   54  H21 UNL     1       5.277  11.296  20.196  1.00  0.00     0.211 HD
ENDBRANCH  12  53
BRANCH  18  55
HETATM   55  O5  UNL     1       7.426  16.446  20.949  1.00  0.00    -0.387 OA
HETATM   56  H33 UNL     1       8.148  17.093  21.063  1.00  0.00     0.210 HD
ENDBRANCH  18  55
BRANCH  20  57
HETATM   57  O6  UNL     1      10.058  15.784  22.371  1.00  0.00    -0.390 OA
HETATM   58  H35 UNL     1      10.950  15.406  22.218  1.00  0.00     0.210 HD
ENDBRANCH  20  57
BRANCH  28  59
HETATM   59  O8  UNL     1      11.709  10.294  19.606  1.00  0.00    -0.366 OA
HETATM   60  H44 UNL     1      12.459   9.989  19.079  1.00  0.00     0.212 HD
ENDBRANCH  28  59
TORSDOF 9
ENDMDL
MODEL 8
REMARK minimizedAffinity -8.02026749
REMARK CNNscore 0.175311595
REMARK CNNaffinity 6.11777353
REMARK  9 active torsions:
REMARK  status: ('A' for Active; 'I' for Inactive)
REMARK    1  A    between atoms: O1_2  and  C2_3 
REMARK    2  A    between atoms: C2_3  and  C3_4 
REMARK    3  A    between atoms: C3_4  and  C4_5 
REMARK    4  A    between atoms: C4_5  and  O2_6 
REMARK    5  A    between atoms: O2_6  and  C5_7 
REMARK    6  A    between atoms: C15_18  and  O4_19 
REMARK    7  A    between atoms: C21_25  and  O5_27 
REMARK    8  A    between atoms: C23_28  and  O6_29 
REMARK    9  A    between atoms: C29_37  and  O8_38 
ROOT
HETATM    1  C5  UNL     1      -1.415  13.511  17.091  1.00  0.00     0.122 C 
HETATM    2  C6  UNL     1      -1.018  14.964  17.427  1.00  0.00     0.033 C 
HETATM    3  C7  UNL     1       0.418  15.086  17.948  1.00  0.00     0.014 C 
HETATM    4  C8  UNL     1       0.698  14.204  19.224  1.00  0.00    -0.010 C 
HETATM    5  C9  UNL     1       0.037  14.962  20.412  1.00  0.00     0.018 C 
HETATM    6  C10 UNL     1      -0.110  12.863  19.147  1.00  0.00     0.073 C 
HETATM    7  C11 UNL     1      -0.475  12.468  17.711  1.00  0.00     0.045 C 
HETATM    8  C12 UNL     1       0.437  11.683  19.942  1.00  0.00     0.161 C 
HETATM    9  O3  UNL     1      -0.219  10.639  20.032  1.00  0.00    -0.292 OA
HETATM   10  C13 UNL     1       1.763  11.748  20.615  1.00  0.00    -0.005 C 
HETATM   11  C14 UNL     1       2.595  12.772  20.341  1.00  0.00    -0.013 C 
HETATM   12  C15 UNL     1       4.032  12.610  20.748  1.00  0.00     0.095 C 
HETATM   13  C16 UNL     1       4.314  11.697  21.940  1.00  0.00     0.026 C 
HETATM   14  C17 UNL     1       3.692  10.331  21.698  1.00  0.00     0.013 C 
HETATM   15  C18 UNL     1       2.175  10.511  21.418  1.00  0.00     0.043 C 
HETATM   16  C19 UNL     1       5.850  11.825  22.103  1.00  0.00     0.016 C 
HETATM   17  C20 UNL     1       6.253  13.146  21.334  1.00  0.00     0.034 C 
HETATM   18  C21 UNL     1       7.613  13.809  21.730  1.00  0.00     0.087 C 
HETATM   19  C22 UNL     1       7.774  13.998  23.254  1.00  0.00     0.049 C 
HETATM   20  C23 UNL     1       8.824  12.925  21.180  1.00  0.00     0.181 C 
HETATM   21  C24 UNL     1       9.288  12.986  19.682  1.00  0.00     0.158 C 
HETATM   22  O7  UNL     1      10.155  11.792  19.495  1.00  0.00    -0.373 OA
HETATM   23  C25 UNL     1       9.354  10.744  18.851  1.00  0.00     0.185 C 
HETATM   24  C26 UNL     1       7.968  11.353  18.640  1.00  0.00     0.028 C 
HETATM   25  C27 UNL     1       7.214  10.673  17.510  1.00  0.00     0.053 C 
HETATM   26  C28 UNL     1       7.937  10.784  16.167  1.00  0.00     0.309 C 
HETATM   27  N1  UNL     1       9.407  10.867  16.307  1.00  0.00     0.128 N 
HETATM   28  C29 UNL     1       9.952  10.227  17.493  1.00  0.00     0.384 C 
HETATM   29  C30 UNL     1       7.364  11.988  15.367  1.00  0.00     0.233 C 
HETATM   30  O9  UNL     1       8.017  12.979  15.038  1.00  0.00    -0.277 OA
HETATM   31  N2  UNL     1       6.005  11.801  15.039  1.00  0.00    -0.243 NA
HETATM   32  C31 UNL     1       5.443  12.507  13.926  1.00  0.00     0.120 A 
HETATM   33  C32 UNL     1       4.996  12.801  15.327  1.00  0.00     0.090 A 
HETATM   34  C33 UNL     1       3.609  12.363  15.721  1.00  0.00     0.115 C 
HETATM   35  C34 UNL     1       3.233  13.017  16.992  1.00  0.00    -0.104 C 
HETATM   36  C35 UNL     1       2.813  13.455  18.037  1.00  0.00    -0.090 C 
HETATM   37  C36 UNL     1       2.292  13.945  19.391  1.00  0.00     0.062 C 
HETATM   38  C37 UNL     1       3.195  15.229  19.788  1.00  0.00     0.012 C 
HETATM   39  C38 UNL     1       2.825  16.010  21.078  1.00  0.00     0.007 C 
HETATM   40  C39 UNL     1       3.908  16.022  22.156  1.00  0.00     0.001 C 
HETATM   41  C40 UNL     1       4.349  14.583  22.403  1.00  0.00     0.013 C 
HETATM   42  C41 UNL     1       4.873  13.882  21.112  1.00  0.00     0.002 C 
HETATM   43  C42 UNL     1       4.703  14.831  19.909  1.00  0.00     0.020 C 
HETATM   44  C43 UNL     1       8.373  12.818  18.487  1.00  0.00     0.020 C 
HETATM   45  C44 UNL     1       7.333  13.858  18.179  1.00  0.00     0.013 C 
HETATM   46  H42 UNL     1       9.874  10.584  15.451  1.00  0.00     0.320 HD
ENDROOT
BRANCH   1  47
HETATM   47  O2  UNL     1      -2.730  13.273  17.618  1.00  0.00    -0.386 OA
BRANCH  47  48
HETATM   48  C4  UNL     1      -3.664  12.773  16.665  1.00  0.00     0.170 C 
BRANCH  48  49
HETATM   49  C3  UNL     1      -3.836  11.255  16.745  1.00  0.00     0.052 C 
BRANCH  49  50
HETATM   50  C2  UNL     1      -3.735  10.589  15.372  1.00  0.00     0.169 C 
BRANCH  50  51
HETATM   51  O1  UNL     1      -2.865   9.463  15.455  1.00  0.00    -0.396 OA
HETATM   52  C1  UNL     1      -2.364   9.271  16.777  1.00  0.00     0.201 C 
ENDBRANCH  50  51
ENDBRANCH  49  50
ENDBRANCH  48  49
ENDBRANCH  47  48
ENDBRANCH   1  47
BRANCH  12  53
HETATM   53  O4  UNL     1       4.646  11.949  19.606  1.00  0.00    -0.384 OA
HETATM   54  H21 UNL     1       3.978  11.408  19.154  1.00  0.00     0.211 HD
ENDBRANCH  12  53
BRANCH  18  55
HETATM   55  O5  UNL     1       7.699  15.123  21.169  1.00  0.00    -0.387 OA
HETATM   56  H33 UNL     1       8.595  15.451  21.377  1.00  0.00     0.210 HD
ENDBRANCH  18  55
BRANCH  20  57
HETATM   57  O6  UNL     1      10.024  13.277  21.925  1.00  0.00    -0.390 OA
HETATM   58  H35 UNL     1      10.741  12.731  21.536  1.00  0.00     0.210 HD
ENDBRANCH  20  57
BRANCH  28  59
HETATM   59  O8  UNL     1       9.718   8.836  17.375  1.00  0.00    -0.366 OA
HETATM   60  H44 UNL     1      10.311   8.525  16.679  1.00  0.00     0.212 HD
ENDBRANCH  28  59
TORSDOF 9
ENDMDL
MODEL 9
REMARK minimizedAffinity -6.68002319
REMARK CNNscore 0.164466202
REMARK CNNaffinity 5.79739761
REMARK  9 active torsions:
REMARK  status: ('A' for Active; 'I' for Inactive)
REMARK    1  A    between atoms: O1_2  and  C2_3 
REMARK    2  A    between atoms: C2_3  and  C3_4 
REMARK    3  A    between atoms: C3_4  and  C4_5 
REMARK    4  A    between atoms: C4_5  and  O2_6 
REMARK    5  A    between atoms: O2_6  and  C5_7 
REMARK    6  A    between atoms: C15_18  and  O4_19 
REMARK    7  A    between atoms: C21_25  and  O5_27 
REMARK    8  A    between atoms: C23_28  and  O6_29 
REMARK    9  A    between atoms: C29_37  and  O8_38 
ROOT
HETATM    1  C5  UNL     1     -15.621 -10.851   7.639  1.00  0.00     0.122 C 
HETATM    2  C6  UNL     1     -14.328 -10.081   7.293  1.00  0.00     0.033 C 
HETATM    3  C7  UNL     1     -14.100  -8.862   8.194  1.00  0.00     0.014 C 
HETATM    4  C8  UNL     1     -15.294  -7.833   8.169  1.00  0.00    -0.010 C 
HETATM    5  C9  UNL     1     -15.154  -7.061   6.824  1.00  0.00     0.018 C 
HETATM    6  C10 UNL     1     -16.660  -8.587   8.021  1.00  0.00     0.073 C 
HETATM    7  C11 UNL     1     -16.594 -10.041   8.505  1.00  0.00     0.045 C 
HETATM    8  C12 UNL     1     -17.902  -7.870   8.536  1.00  0.00     0.161 C 
HETATM    9  O3  UNL     1     -19.023  -8.347   8.332  1.00  0.00    -0.292 OA
HETATM   10  C13 UNL     1     -17.802  -6.595   9.299  1.00  0.00    -0.005 C 
HETATM   11  C14 UNL     1     -16.597  -6.178   9.737  1.00  0.00    -0.013 C 
HETATM   12  C15 UNL     1     -16.589  -5.108  10.791  1.00  0.00     0.095 C 
HETATM   13  C16 UNL     1     -17.781  -4.153  10.816  1.00  0.00     0.026 C 
HETATM   14  C17 UNL     1     -19.073  -4.949  10.903  1.00  0.00     0.013 C 
HETATM   15  C18 UNL     1     -19.127  -5.954   9.721  1.00  0.00     0.043 C 
HETATM   16  C19 UNL     1     -17.401  -3.175  11.956  1.00  0.00     0.016 C 
HETATM   17  C20 UNL     1     -15.842  -3.337  12.158  1.00  0.00     0.034 C 
HETATM   18  C21 UNL     1     -15.092  -2.156  12.858  1.00  0.00     0.087 C 
HETATM   19  C22 UNL     1     -15.419  -0.780  12.242  1.00  0.00     0.049 C 
HETATM   20  C23 UNL     1     -15.455  -2.134  14.413  1.00  0.00     0.181 C 
HETATM   21  C24 UNL     1     -14.779  -3.108  15.441  1.00  0.00     0.158 C 
HETATM   22  O7  UNL     1     -15.623  -3.030  16.663  1.00  0.00    -0.373 OA
HETATM   23  C25 UNL     1     -16.523  -4.191  16.670  1.00  0.00     0.185 C 
HETATM   24  C26 UNL     1     -16.181  -4.986  15.410  1.00  0.00     0.028 C 
HETATM   25  C27 UNL     1     -16.563  -6.451  15.540  1.00  0.00     0.053 C 
HETATM   26  C28 UNL     1     -15.842  -7.149  16.694  1.00  0.00     0.309 C 
HETATM   27  N1  UNL     1     -15.509  -6.234  17.806  1.00  0.00     0.128 N 
HETATM   28  C29 UNL     1     -16.395  -5.091  17.952  1.00  0.00     0.384 C 
HETATM   29  C30 UNL     1     -14.581  -7.881  16.151  1.00  0.00     0.233 C 
HETATM   30  O9  UNL     1     -13.425  -7.611  16.478  1.00  0.00    -0.277 OA
HETATM   31  N2  UNL     1     -14.921  -8.912  15.250  1.00  0.00    -0.243 NA
HETATM   32  C31 UNL     1     -14.003  -9.991  15.034  1.00  0.00     0.120 A 
HETATM   33  C32 UNL     1     -14.317  -9.020  13.936  1.00  0.00     0.090 A 
HETATM   34  C33 UNL     1     -15.144  -9.520  12.781  1.00  0.00     0.115 C 
HETATM   35  C34 UNL     1     -15.069  -8.548  11.669  1.00  0.00    -0.104 C 
HETATM   36  C35 UNL     1     -15.123  -7.827  10.702  1.00  0.00    -0.090 C 
HETATM   37  C36 UNL     1     -15.257  -6.895   9.493  1.00  0.00     0.062 C 
HETATM   38  C37 UNL     1     -14.035  -5.838   9.597  1.00  0.00     0.012 C 
HETATM   39  C38 UNL     1     -13.850  -4.822   8.437  1.00  0.00     0.007 C 
HETATM   40  C39 UNL     1     -13.991  -3.355   8.838  1.00  0.00     0.001 C 
HETATM   41  C40 UNL     1     -15.300  -3.194   9.604  1.00  0.00     0.013 C 
HETATM   42  C41 UNL     1     -15.380  -4.113  10.862  1.00  0.00     0.002 C 
HETATM   43  C42 UNL     1     -14.127  -5.010  10.921  1.00  0.00     0.020 C 
HETATM   44  C43 UNL     1     -14.705  -4.613  15.285  1.00  0.00     0.020 C 
HETATM   45  C44 UNL     1     -13.864  -5.220  14.199  1.00  0.00     0.013 C 
HETATM   46  H42 UNL     1     -15.371  -6.744  18.673  1.00  0.00     0.320 HD
ENDROOT
BRANCH   1  47
HETATM   47  O2  UNL     1     -16.296 -11.164   6.410  1.00  0.00    -0.386 OA
BRANCH  47  48
HETATM   48  C4  UNL     1     -16.012 -10.268   5.339  1.00  0.00     0.170 C 
BRANCH  48  49
HETATM   49  C3  UNL     1     -15.802 -10.989   4.005  1.00  0.00     0.052 C 
BRANCH  49  50
HETATM   50  C2  UNL     1     -14.562 -10.485   3.266  1.00  0.00     0.169 C 
BRANCH  50  51
HETATM   51  O1  UNL     1     -14.922  -9.385   2.434  1.00  0.00    -0.396 OA
HETATM   52  C1  UNL     1     -15.003  -9.759   1.059  1.00  0.00     0.201 C 
ENDBRANCH  50  51
ENDBRANCH  49  50
ENDBRANCH  48  49
ENDBRANCH  47  48
ENDBRANCH   1  47
BRANCH  12  53
HETATM   53  O4  UNL     1     -16.665  -5.849  12.041  1.00  0.00    -0.384 OA
HETATM   54  H21 UNL     1     -17.141  -6.682  11.890  1.00  0.00     0.211 HD
ENDBRANCH  12  53
BRANCH  18  55
HETATM   55  O5  UNL     1     -13.677  -2.317  12.709  1.00  0.00    -0.387 OA
HETATM   56  H33 UNL     1     -13.264  -1.605  13.233  1.00  0.00     0.210 HD
ENDBRANCH  18  55
BRANCH  20  57
HETATM   57  O6  UNL     1     -15.144  -0.813  14.938  1.00  0.00    -0.390 OA
HETATM   58  H35 UNL     1     -15.358  -0.855  15.895  1.00  0.00     0.210 HD
ENDBRANCH  20  57
BRANCH  28  59
HETATM   59  O8  UNL     1     -17.673  -5.581  18.311  1.00  0.00    -0.366 OA
HETATM   60  H44 UNL     1     -17.590  -5.899  19.220  1.00  0.00     0.212 HD
ENDBRANCH  28  59
TORSDOF 9
ENDMDL
