MODEL 1
REMARK minimizedAffinity -9.83348751
REMARK  9 active torsions:
REMARK  status: ('A' for Active; 'I' for Inactive)
REMARK    1  A    between atoms: C2_2  and  C30_34 
REMARK    2  A    between atoms: C3_3  and  C4_4 
REMARK    3  A    between atoms: C4_4  and  C5_5 
REMARK    4  A    between atoms: C5_5  and  C6_6 
REMARK    5  A    between atoms: C6_6  and  C8_8 
REMARK    6  A    between atoms: C10_10  and  O1_12 
REMARK    7  A    between atoms: C14_15  and  O2_16 
REMARK    8  A    between atoms: C25_28  and  O4_29 
REMARK    9  A    between atoms: C30_34  and  O5_35 
ROOT
HETATM    1  C8  UNL     1       0.753   8.388  13.075  1.00  0.00     0.005 C 
HETATM    2  C9  UNL     1       0.714   9.675  13.899  1.00  0.00     0.048 C 
HETATM    3  C10 UNL     1      -0.424   9.440  14.917  1.00  0.00     0.079 C 
HETATM    4  C11 UNL     1       0.166   8.935  16.240  1.00  0.00     0.051 C 
HETATM    5  C12 UNL     1      -1.350   8.456  14.213  1.00  0.00    -0.030 C 
HETATM    6  C13 UNL     1      -2.461   7.854  14.707  1.00  0.00    -0.011 C 
HETATM    7  C14 UNL     1      -3.083   8.228  16.033  1.00  0.00     0.151 C 
HETATM    8  C15 UNL     1      -4.595   8.441  15.945  1.00  0.00     0.043 C 
HETATM    9  C16 UNL     1      -5.333   7.257  15.278  1.00  0.00     0.015 C 
HETATM   10  C17 UNL     1      -6.895   7.373  15.372  1.00  0.00     0.018 C 
HETATM   11  C18 UNL     1      -7.430   8.810  15.208  1.00  0.00     0.023 C 
HETATM   12  C19 UNL     1      -7.332   6.900  16.782  1.00  0.00     0.023 C 
HETATM   13  C20 UNL     1      -7.655   6.474  14.378  1.00  0.00     0.135 C 
HETATM   14  O3  UNL     1      -8.880   6.308  14.487  1.00  0.00    -0.297 OA
HETATM   15  C21 UNL     1      -6.958   5.900  13.168  1.00  0.00     0.080 C 
HETATM   16  C22 UNL     1      -5.461   5.707  13.331  1.00  0.00     0.020 C 
HETATM   17  C23 UNL     1      -4.734   6.971  13.853  1.00  0.00    -0.004 C 
HETATM   18  C24 UNL     1      -4.985   8.150  12.876  1.00  0.00     0.019 C 
HETATM   19  C25 UNL     1      -3.167   6.696  13.985  1.00  0.00     0.092 C 
HETATM   20  C26 UNL     1      -2.514   6.278  12.636  1.00  0.00     0.044 C 
HETATM   21  C27 UNL     1      -1.020   6.602  12.565  1.00  0.00     0.017 C 
HETATM   22  C28 UNL     1      -0.759   8.092  12.854  1.00  0.00    -0.013 C 
HETATM   23  C29 UNL     1      -1.391   8.981  11.762  1.00  0.00     0.021 C 
ENDROOT
BRANCH   1  24
HETATM   24  C6  UNL     1       1.668   8.381  11.814  1.00  0.00    -0.013 C 
HETATM   25  C7  UNL     1       0.888   7.845  10.608  1.00  0.00     0.010 C 
BRANCH  24  26
HETATM   26  C5  UNL     1       3.084   7.754  11.944  1.00  0.00     0.008 C 
BRANCH  26  27
HETATM   27  C4  UNL     1       3.929   7.519  10.678  1.00  0.00     0.028 C 
BRANCH  27  28
HETATM   28  C3  UNL     1       4.095   6.074  10.301  1.00  0.00    -0.022 C 
HETATM   29  C2  UNL     1       3.597   5.419   9.232  1.00  0.00    -0.064 C 
HETATM   30  C1  UNL     1       2.736   6.033   8.160  1.00  0.00     0.045 C 
BRANCH  29  31
HETATM   31  C30 UNL     1       3.868   3.945   9.052  1.00  0.00     0.197 C 
BRANCH  31  32
HETATM   32  O5  UNL     1       3.099   3.186   9.969  1.00  0.00    -0.397 OA
HETATM   33  H48 UNL     1       2.906   3.747  10.738  1.00  0.00     0.209 HD
ENDBRANCH  31  32
ENDBRANCH  29  31
ENDBRANCH  27  28
ENDBRANCH  26  27
ENDBRANCH  24  26
ENDBRANCH   1  24
BRANCH   3  34
HETATM   34  O1  UNL     1      -1.124  10.661  15.129  1.00  0.00    -0.386 OA
HETATM   35  H19 UNL     1      -0.473  11.318  15.427  1.00  0.00     0.211 HD
ENDBRANCH   3  34
BRANCH   7  36
HETATM   36  O2  UNL     1      -2.816   7.153  16.938  1.00  0.00    -0.391 OA
HETATM   37  H21 UNL     1      -3.074   7.462  17.824  1.00  0.00     0.210 HD
ENDBRANCH   7  36
BRANCH  19  38
HETATM   38  O4  UNL     1      -2.980   5.526  14.813  1.00  0.00    -0.384 OA
HETATM   39  H38 UNL     1      -2.824   5.834  15.730  1.00  0.00     0.211 HD
ENDBRANCH  19  38
TORSDOF 9
ENDMDL
MODEL 2
REMARK minimizedAffinity -9.8230772
REMARK  9 active torsions:
REMARK  status: ('A' for Active; 'I' for Inactive)
REMARK    1  A    between atoms: C2_2  and  C30_34 
REMARK    2  A    between atoms: C3_3  and  C4_4 
REMARK    3  A    between atoms: C4_4  and  C5_5 
REMARK    4  A    between atoms: C5_5  and  C6_6 
REMARK    5  A    between atoms: C6_6  and  C8_8 
REMARK    6  A    between atoms: C10_10  and  O1_12 
REMARK    7  A    between atoms: C14_15  and  O2_16 
REMARK    8  A    between atoms: C25_28  and  O4_29 
REMARK    9  A    between atoms: C30_34  and  O5_35 
ROOT
HETATM    1  C8  UNL     1      -5.203   4.010  13.297  1.00  0.00     0.005 C 
HETATM    2  C9  UNL     1      -5.210   3.555  11.837  1.00  0.00     0.048 C 
HETATM    3  C10 UNL     1      -3.721   3.558  11.430  1.00  0.00     0.079 C 
HETATM    4  C11 UNL     1      -3.144   2.145  11.582  1.00  0.00     0.051 C 
HETATM    5  C12 UNL     1      -3.092   4.606  12.341  1.00  0.00    -0.030 C 
HETATM    6  C13 UNL     1      -1.782   4.939  12.451  1.00  0.00    -0.011 C 
HETATM    7  C14 UNL     1      -0.716   4.425  11.511  1.00  0.00     0.151 C 
HETATM    8  C15 UNL     1       0.198   5.532  10.983  1.00  0.00     0.043 C 
HETATM    9  C16 UNL     1       0.798   6.407  12.108  1.00  0.00     0.015 C 
HETATM   10  C17 UNL     1       1.895   7.405  11.593  1.00  0.00     0.018 C 
HETATM   11  C18 UNL     1       1.586   8.022  10.214  1.00  0.00     0.023 C 
HETATM   12  C19 UNL     1       3.226   6.625  11.438  1.00  0.00     0.023 C 
HETATM   13  C20 UNL     1       2.201   8.561  12.565  1.00  0.00     0.135 C 
HETATM   14  O3  UNL     1       3.186   9.293  12.383  1.00  0.00    -0.297 OA
HETATM   15  C21 UNL     1       1.233   8.920  13.667  1.00  0.00     0.080 C 
HETATM   16  C22 UNL     1       0.365   7.771  14.147  1.00  0.00     0.020 C 
HETATM   17  C23 UNL     1      -0.346   7.017  12.997  1.00  0.00    -0.004 C 
HETATM   18  C24 UNL     1      -1.228   8.011  12.196  1.00  0.00     0.019 C 
HETATM   19  C25 UNL     1      -1.247   5.835  13.579  1.00  0.00     0.092 C 
HETATM   20  C26 UNL     1      -2.330   6.340  14.576  1.00  0.00     0.044 C 
HETATM   21  C27 UNL     1      -3.544   5.413  14.666  1.00  0.00     0.017 C 
HETATM   22  C28 UNL     1      -4.160   5.166  13.276  1.00  0.00    -0.013 C 
HETATM   23  C29 UNL     1      -4.727   6.474  12.687  1.00  0.00     0.021 C 
ENDROOT
BRANCH   1  24
HETATM   24  C6  UNL     1      -6.582   4.313  13.953  1.00  0.00    -0.013 C 
HETATM   25  C7  UNL     1      -7.572   3.189  13.629  1.00  0.00     0.010 C 
BRANCH  24  26
HETATM   26  C5  UNL     1      -7.190   5.729  13.753  1.00  0.00     0.008 C 
BRANCH  26  27
HETATM   27  C4  UNL     1      -8.333   5.928  12.741  1.00  0.00     0.028 C 
BRANCH  27  28
HETATM   28  C3  UNL     1      -9.650   6.307  13.356  1.00  0.00    -0.022 C 
HETATM   29  C2  UNL     1      -9.908   7.253  14.283  1.00  0.00    -0.064 C 
HETATM   30  C1  UNL     1      -8.879   8.154  14.913  1.00  0.00     0.045 C 
BRANCH  29  31
HETATM   31  C30 UNL     1     -11.316   7.457  14.788  1.00  0.00     0.197 C 
BRANCH  31  32
HETATM   32  O5  UNL     1     -12.043   6.241  14.728  1.00  0.00    -0.397 OA
HETATM   33  H48 UNL     1     -11.649   5.688  14.034  1.00  0.00     0.209 HD
ENDBRANCH  31  32
ENDBRANCH  29  31
ENDBRANCH  27  28
ENDBRANCH  26  27
ENDBRANCH  24  26
ENDBRANCH   1  24
BRANCH   3  34
HETATM   34  O1  UNL     1      -3.604   3.991  10.080  1.00  0.00    -0.386 OA
HETATM   35  H19 UNL     1      -4.148   3.395   9.538  1.00  0.00     0.211 HD
ENDBRANCH   3  34
BRANCH   7  36
HETATM   36  O2  UNL     1       0.070   3.482  12.245  1.00  0.00    -0.391 OA
HETATM   37  H21 UNL     1       0.648   3.039  11.600  1.00  0.00     0.210 HD
ENDBRANCH   7  36
BRANCH  19  38
HETATM   38  O4  UNL     1      -0.412   4.994  14.406  1.00  0.00    -0.384 OA
HETATM   39  H38 UNL     1      -0.104   4.247  13.852  1.00  0.00     0.211 HD
ENDBRANCH  19  38
TORSDOF 9
ENDMDL
MODEL 3
REMARK minimizedAffinity -9.65292168
REMARK  9 active torsions:
REMARK  status: ('A' for Active; 'I' for Inactive)
REMARK    1  A    between atoms: C2_2  and  C30_34 
REMARK    2  A    between atoms: C3_3  and  C4_4 
REMARK    3  A    between atoms: C4_4  and  C5_5 
REMARK    4  A    between atoms: C5_5  and  C6_6 
REMARK    5  A    between atoms: C6_6  and  C8_8 
REMARK    6  A    between atoms: C10_10  and  O1_12 
REMARK    7  A    between atoms: C14_15  and  O2_16 
REMARK    8  A    between atoms: C25_28  and  O4_29 
REMARK    9  A    between atoms: C30_34  and  O5_35 
ROOT
HETATM    1  C8  UNL     1      -5.376   4.157  13.474  1.00  0.00     0.005 C 
HETATM    2  C9  UNL     1      -5.392   3.653  12.030  1.00  0.00     0.048 C 
HETATM    3  C10 UNL     1      -3.905   3.641  11.614  1.00  0.00     0.079 C 
HETATM    4  C11 UNL     1      -3.328   2.233  11.810  1.00  0.00     0.051 C 
HETATM    5  C12 UNL     1      -3.270   4.719  12.485  1.00  0.00    -0.030 C 
HETATM    6  C13 UNL     1      -1.959   5.054  12.577  1.00  0.00    -0.011 C 
HETATM    7  C14 UNL     1      -0.900   4.509  11.647  1.00  0.00     0.151 C 
HETATM    8  C15 UNL     1       0.012   5.597  11.077  1.00  0.00     0.043 C 
HETATM    9  C16 UNL     1       0.619   6.508  12.168  1.00  0.00     0.015 C 
HETATM   10  C17 UNL     1       1.713   7.488  11.613  1.00  0.00     0.018 C 
HETATM   11  C18 UNL     1       1.396   8.059  10.216  1.00  0.00     0.023 C 
HETATM   12  C19 UNL     1       3.043   6.702  11.477  1.00  0.00     0.023 C 
HETATM   13  C20 UNL     1       2.026   8.676  12.544  1.00  0.00     0.135 C 
HETATM   14  O3  UNL     1       3.010   9.401  12.331  1.00  0.00    -0.297 OA
HETATM   15  C21 UNL     1       1.064   9.073  13.639  1.00  0.00     0.080 C 
HETATM   16  C22 UNL     1       0.199   7.940  14.163  1.00  0.00     0.020 C 
HETATM   17  C23 UNL     1      -0.519   7.149  13.043  1.00  0.00    -0.004 C 
HETATM   18  C24 UNL     1      -1.406   8.116  12.215  1.00  0.00     0.019 C 
HETATM   19  C25 UNL     1      -1.417   5.988  13.671  1.00  0.00     0.092 C 
HETATM   20  C26 UNL     1      -2.494   6.527  14.656  1.00  0.00     0.044 C 
HETATM   21  C27 UNL     1      -3.708   5.604  14.784  1.00  0.00     0.017 C 
HETATM   22  C28 UNL     1      -4.332   5.311  13.408  1.00  0.00    -0.013 C 
HETATM   23  C29 UNL     1      -4.903   6.599  12.778  1.00  0.00     0.021 C 
ENDROOT
BRANCH   1  24
HETATM   24  C6  UNL     1      -6.751   4.482  14.128  1.00  0.00    -0.013 C 
HETATM   25  C7  UNL     1      -7.887   4.090  13.176  1.00  0.00     0.010 C 
BRANCH  24  26
HETATM   26  C5  UNL     1      -6.947   5.892  14.751  1.00  0.00     0.008 C 
BRANCH  26  27
HETATM   27  C4  UNL     1      -7.338   6.019  16.235  1.00  0.00     0.028 C 
BRANCH  27  28
HETATM   28  C3  UNL     1      -8.173   7.225  16.557  1.00  0.00    -0.022 C 
HETATM   29  C2  UNL     1      -9.311   7.646  15.967  1.00  0.00    -0.064 C 
HETATM   30  C1  UNL     1      -9.996   6.961  14.814  1.00  0.00     0.045 C 
BRANCH  29  31
HETATM   31  C30 UNL     1      -9.986   8.912  16.436  1.00  0.00     0.197 C 
BRANCH  31  32
HETATM   32  O5  UNL     1     -10.522   8.732  17.736  1.00  0.00    -0.397 OA
HETATM   33  H48 UNL     1     -10.702   7.786  17.861  1.00  0.00     0.209 HD
ENDBRANCH  31  32
ENDBRANCH  29  31
ENDBRANCH  27  28
ENDBRANCH  26  27
ENDBRANCH  24  26
ENDBRANCH   1  24
BRANCH   3  34
HETATM   34  O1  UNL     1      -3.796   4.028  10.249  1.00  0.00    -0.386 OA
HETATM   35  H19 UNL     1      -4.343   3.415   9.731  1.00  0.00     0.211 HD
ENDBRANCH   3  34
BRANCH   7  36
HETATM   36  O2  UNL     1      -0.109   3.591  12.408  1.00  0.00    -0.391 OA
HETATM   37  H21 UNL     1       0.464   3.125  11.775  1.00  0.00     0.210 HD
ENDBRANCH   7  36
BRANCH  19  38
HETATM   38  O4  UNL     1      -0.577   5.174  14.520  1.00  0.00    -0.384 OA
HETATM   39  H38 UNL     1      -0.273   4.409  13.990  1.00  0.00     0.211 HD
ENDBRANCH  19  38
TORSDOF 9
ENDMDL
MODEL 4
REMARK minimizedAffinity -9.33481979
REMARK  9 active torsions:
REMARK  status: ('A' for Active; 'I' for Inactive)
REMARK    1  A    between atoms: C2_2  and  C30_34 
REMARK    2  A    between atoms: C3_3  and  C4_4 
REMARK    3  A    between atoms: C4_4  and  C5_5 
REMARK    4  A    between atoms: C5_5  and  C6_6 
REMARK    5  A    between atoms: C6_6  and  C8_8 
REMARK    6  A    between atoms: C10_10  and  O1_12 
REMARK    7  A    between atoms: C14_15  and  O2_16 
REMARK    8  A    between atoms: C25_28  and  O4_29 
REMARK    9  A    between atoms: C30_34  and  O5_35 
ROOT
HETATM    1  C8  UNL     1      -2.292   5.480  13.072  1.00  0.00     0.005 C 
HETATM    2  C9  UNL     1      -2.005   5.518  14.573  1.00  0.00     0.048 C 
HETATM    3  C10 UNL     1      -1.041   6.712  14.746  1.00  0.00     0.079 C 
HETATM    4  C11 UNL     1      -1.836   7.961  15.145  1.00  0.00     0.051 C 
HETATM    5  C12 UNL     1      -0.330   6.809  13.402  1.00  0.00    -0.030 C 
HETATM    6  C13 UNL     1       0.560   7.747  12.993  1.00  0.00    -0.011 C 
HETATM    7  C14 UNL     1       1.150   8.786  13.919  1.00  0.00     0.151 C 
HETATM    8  C15 UNL     1       2.670   8.898  13.799  1.00  0.00     0.043 C 
HETATM    9  C16 UNL     1       3.148   9.092  12.341  1.00  0.00     0.015 C 
HETATM   10  C17 UNL     1       4.680   9.416  12.233  1.00  0.00     0.018 C 
HETATM   11  C18 UNL     1       5.559   8.647  13.239  1.00  0.00     0.023 C 
HETATM   12  C19 UNL     1       4.878  10.924  12.537  1.00  0.00     0.023 C 
HETATM   13  C20 UNL     1       5.273   9.195  10.828  1.00  0.00     0.135 C 
HETATM   14  O3  UNL     1       6.409   9.610  10.551  1.00  0.00    -0.297 OA
HETATM   15  C21 UNL     1       4.553   8.341   9.812  1.00  0.00     0.080 C 
HETATM   16  C22 UNL     1       3.046   8.283   9.987  1.00  0.00     0.020 C 
HETATM   17  C23 UNL     1       2.610   7.930  11.430  1.00  0.00    -0.004 C 
HETATM   18  C24 UNL     1       3.214   6.558  11.830  1.00  0.00     0.019 C 
HETATM   19  C25 UNL     1       1.018   7.875  11.531  1.00  0.00     0.092 C 
HETATM   20  C26 UNL     1       0.388   6.833  10.561  1.00  0.00     0.044 C 
HETATM   21  C27 UNL     1      -0.972   6.316  11.034  1.00  0.00     0.017 C 
HETATM   22  C28 UNL     1      -0.884   5.743  12.461  1.00  0.00    -0.013 C 
HETATM   23  C29 UNL     1       0.026   4.498  12.497  1.00  0.00     0.021 C 
ENDROOT
BRANCH   1  24
HETATM   24  C6  UNL     1      -3.081   4.251  12.531  1.00  0.00    -0.013 C 
HETATM   25  C7  UNL     1      -2.526   3.836  11.164  1.00  0.00     0.010 C 
BRANCH  24  26
HETATM   26  C5  UNL     1      -4.633   4.310  12.559  1.00  0.00     0.008 C 
BRANCH  26  27
HETATM   27  C4  UNL     1      -5.345   5.056  13.703  1.00  0.00     0.028 C 
BRANCH  27  28
HETATM   28  C3  UNL     1      -6.674   5.647  13.329  1.00  0.00    -0.022 C 
HETATM   29  C2  UNL     1      -7.825   5.012  13.028  1.00  0.00    -0.064 C 
HETATM   30  C1  UNL     1      -8.013   3.518  13.004  1.00  0.00     0.045 C 
BRANCH  29  31
HETATM   31  C30 UNL     1      -9.054   5.805  12.653  1.00  0.00     0.197 C 
BRANCH  31  32
HETATM   32  O5  UNL     1      -9.787   6.158  13.814  1.00  0.00    -0.397 OA
HETATM   33  H48 UNL     1      -9.592   5.504  14.504  1.00  0.00     0.209 HD
ENDBRANCH  31  32
ENDBRANCH  29  31
ENDBRANCH  27  28
ENDBRANCH  26  27
ENDBRANCH  24  26
ENDBRANCH   1  24
BRANCH   3  34
HETATM   34  O1  UNL     1      -0.084   6.401  15.753  1.00  0.00    -0.386 OA
HETATM   35  H19 UNL     1      -0.577   6.186  16.562  1.00  0.00     0.211 HD
ENDBRANCH   3  34
BRANCH   7  36
HETATM   36  O2  UNL     1       0.561  10.042  13.568  1.00  0.00    -0.391 OA
HETATM   37  H21 UNL     1       0.817  10.674  14.262  1.00  0.00     0.210 HD
ENDBRANCH   7  36
BRANCH  19  38
HETATM   38  O4  UNL     1       0.489   9.130  11.048  1.00  0.00    -0.384 OA
HETATM   39  H38 UNL     1       0.341   9.708  11.825  1.00  0.00     0.211 HD
ENDBRANCH  19  38
TORSDOF 9
ENDMDL
MODEL 5
REMARK minimizedAffinity -9.32091141
REMARK  9 active torsions:
REMARK  status: ('A' for Active; 'I' for Inactive)
REMARK    1  A    between atoms: C2_2  and  C30_34 
REMARK    2  A    between atoms: C3_3  and  C4_4 
REMARK    3  A    between atoms: C4_4  and  C5_5 
REMARK    4  A    between atoms: C5_5  and  C6_6 
REMARK    5  A    between atoms: C6_6  and  C8_8 
REMARK    6  A    between atoms: C10_10  and  O1_12 
REMARK    7  A    between atoms: C14_15  and  O2_16 
REMARK    8  A    between atoms: C25_28  and  O4_29 
REMARK    9  A    between atoms: C30_34  and  O5_35 
ROOT
HETATM    1  C8  UNL     1      -2.389   5.840  12.896  1.00  0.00     0.005 C 
HETATM    2  C9  UNL     1      -3.218   5.273  14.049  1.00  0.00     0.048 C 
HETATM    3  C10 UNL     1      -3.544   6.503  14.923  1.00  0.00     0.079 C 
HETATM    4  C11 UNL     1      -4.932   7.043  14.553  1.00  0.00     0.051 C 
HETATM    5  C12 UNL     1      -2.392   7.463  14.654  1.00  0.00    -0.030 C 
HETATM    6  C13 UNL     1      -2.238   8.732  15.108  1.00  0.00    -0.011 C 
HETATM    7  C14 UNL     1      -3.139   9.351  16.152  1.00  0.00     0.151 C 
HETATM    8  C15 UNL     1      -2.365  10.043  17.275  1.00  0.00     0.043 C 
HETATM    9  C16 UNL     1      -1.315  11.051  16.751  1.00  0.00     0.015 C 
HETATM   10  C17 UNL     1      -0.666  11.913  17.892  1.00  0.00     0.018 C 
HETATM   11  C18 UNL     1      -0.410  11.136  19.199  1.00  0.00     0.023 C 
HETATM   12  C19 UNL     1      -1.646  13.061  18.247  1.00  0.00     0.023 C 
HETATM   13  C20 UNL     1       0.652  12.601  17.490  1.00  0.00     0.135 C 
HETATM   14  O3  UNL     1       1.154  13.473  18.215  1.00  0.00    -0.297 OA
HETATM   15  C21 UNL     1       1.436  12.126  16.290  1.00  0.00     0.080 C 
HETATM   16  C22 UNL     1       0.601  11.458  15.212  1.00  0.00     0.020 C 
HETATM   17  C23 UNL     1      -0.324  10.343  15.757  1.00  0.00    -0.004 C 
HETATM   18  C24 UNL     1       0.533   9.263  16.469  1.00  0.00     0.019 C 
HETATM   19  C25 UNL     1      -1.157   9.681  14.567  1.00  0.00     0.092 C 
HETATM   20  C26 UNL     1      -0.246   9.065  13.465  1.00  0.00     0.044 C 
HETATM   21  C27 UNL     1      -0.925   7.939  12.683  1.00  0.00     0.017 C 
HETATM   22  C28 UNL     1      -1.448   6.842  13.628  1.00  0.00    -0.013 C 
HETATM   23  C29 UNL     1      -0.281   6.144  14.358  1.00  0.00     0.021 C 
ENDROOT
BRANCH   1  24
HETATM   24  C6  UNL     1      -1.719   4.816  11.932  1.00  0.00    -0.013 C 
HETATM   25  C7  UNL     1      -0.533   5.471  11.217  1.00  0.00     0.010 C 
BRANCH  24  26
HETATM   26  C5  UNL     1      -2.637   4.013  10.968  1.00  0.00     0.008 C 
BRANCH  26  27
HETATM   27  C4  UNL     1      -3.423   2.801  11.500  1.00  0.00     0.028 C 
BRANCH  27  28
HETATM   28  C3  UNL     1      -4.787   3.131  12.036  1.00  0.00    -0.022 C 
HETATM   29  C2  UNL     1      -5.939   2.442  11.894  1.00  0.00    -0.064 C 
HETATM   30  C1  UNL     1      -6.091   1.152  11.134  1.00  0.00     0.045 C 
BRANCH  29  31
HETATM   31  C30 UNL     1      -7.217   2.968  12.501  1.00  0.00     0.197 C 
BRANCH  31  32
HETATM   32  O5  UNL     1      -8.152   1.916  12.670  1.00  0.00    -0.397 OA
HETATM   33  H48 UNL     1      -7.949   1.224  12.019  1.00  0.00     0.209 HD
ENDBRANCH  31  32
ENDBRANCH  29  31
ENDBRANCH  27  28
ENDBRANCH  26  27
ENDBRANCH  24  26
ENDBRANCH   1  24
BRANCH   3  34
HETATM   34  O1  UNL     1      -3.518   6.125  16.295  1.00  0.00    -0.386 OA
HETATM   35  H19 UNL     1      -4.152   5.397  16.405  1.00  0.00     0.211 HD
ENDBRANCH   3  34
BRANCH   7  36
HETATM   36  O2  UNL     1      -3.951  10.319  15.481  1.00  0.00    -0.391 OA
HETATM   37  H21 UNL     1      -4.634  10.599  16.115  1.00  0.00     0.210 HD
ENDBRANCH   7  36
BRANCH  19  38
HETATM   38  O4  UNL     1      -1.855  10.732  13.861  1.00  0.00    -0.384 OA
HETATM   39  H38 UNL     1      -2.761  10.784  14.230  1.00  0.00     0.211 HD
ENDBRANCH  19  38
TORSDOF 9
ENDMDL
MODEL 6
REMARK minimizedAffinity -9.22939968
REMARK  9 active torsions:
REMARK  status: ('A' for Active; 'I' for Inactive)
REMARK    1  A    between atoms: C2_2  and  C30_34 
REMARK    2  A    between atoms: C3_3  and  C4_4 
REMARK    3  A    between atoms: C4_4  and  C5_5 
REMARK    4  A    between atoms: C5_5  and  C6_6 
REMARK    5  A    between atoms: C6_6  and  C8_8 
REMARK    6  A    between atoms: C10_10  and  O1_12 
REMARK    7  A    between atoms: C14_15  and  O2_16 
REMARK    8  A    between atoms: C25_28  and  O4_29 
REMARK    9  A    between atoms: C30_34  and  O5_35 
ROOT
HETATM    1  C8  UNL     1      -5.405   7.863  14.779  1.00  0.00     0.005 C 
HETATM    2  C9  UNL     1      -5.160   8.567  16.114  1.00  0.00     0.048 C 
HETATM    3  C10 UNL     1      -3.847   9.350  15.895  1.00  0.00     0.079 C 
HETATM    4  C11 UNL     1      -4.171  10.798  15.504  1.00  0.00     0.051 C 
HETATM    5  C12 UNL     1      -3.113   8.548  14.827  1.00  0.00    -0.030 C 
HETATM    6  C13 UNL     1      -1.944   8.852  14.210  1.00  0.00    -0.011 C 
HETATM    7  C14 UNL     1      -1.054   9.995  14.641  1.00  0.00     0.151 C 
HETATM    8  C15 UNL     1       0.414   9.590  14.781  1.00  0.00     0.043 C 
HETATM    9  C16 UNL     1       0.964   8.876  13.524  1.00  0.00     0.015 C 
HETATM   10  C17 UNL     1       2.516   8.646  13.577  1.00  0.00     0.018 C 
HETATM   11  C18 UNL     1       3.050   8.274  14.975  1.00  0.00     0.023 C 
HETATM   12  C19 UNL     1       3.216   9.971  13.177  1.00  0.00     0.023 C 
HETATM   13  C20 UNL     1       3.030   7.587  12.582  1.00  0.00     0.135 C 
HETATM   14  O3  UNL     1       4.246   7.461  12.370  1.00  0.00    -0.297 OA
HETATM   15  C21 UNL     1       2.085   6.587  11.962  1.00  0.00     0.080 C 
HETATM   16  C22 UNL     1       0.647   7.061  11.847  1.00  0.00     0.020 C 
HETATM   17  C23 UNL     1       0.080   7.624  13.173  1.00  0.00    -0.004 C 
HETATM   18  C24 UNL     1       0.163   6.535  14.275  1.00  0.00     0.019 C 
HETATM   19  C25 UNL     1      -1.435   8.088  12.977  1.00  0.00     0.092 C 
HETATM   20  C26 UNL     1      -2.361   6.932  12.502  1.00  0.00     0.044 C 
HETATM   21  C27 UNL     1      -3.828   7.139  12.887  1.00  0.00     0.017 C 
HETATM   22  C28 UNL     1      -3.979   7.365  14.403  1.00  0.00    -0.013 C 
HETATM   23  C29 UNL     1      -3.556   6.108  15.190  1.00  0.00     0.021 C 
ENDROOT
BRANCH   1  24
HETATM   24  C6  UNL     1      -6.556   6.815  14.731  1.00  0.00    -0.013 C 
HETATM   25  C7  UNL     1      -7.113   6.586  16.140  1.00  0.00     0.010 C 
BRANCH  24  26
HETATM   26  C5  UNL     1      -6.305   5.490  13.958  1.00  0.00     0.008 C 
BRANCH  26  27
HETATM   27  C4  UNL     1      -7.441   4.459  13.828  1.00  0.00     0.028 C 
BRANCH  27  28
HETATM   28  C3  UNL     1      -7.149   3.327  12.885  1.00  0.00    -0.022 C 
HETATM   29  C2  UNL     1      -6.019   3.077  12.191  1.00  0.00    -0.064 C 
HETATM   30  C1  UNL     1      -4.775   3.924  12.224  1.00  0.00     0.045 C 
BRANCH  29  31
HETATM   31  C30 UNL     1      -5.942   1.883  11.272  1.00  0.00     0.197 C 
BRANCH  31  32
HETATM   32  O5  UNL     1      -4.677   1.252  11.386  1.00  0.00    -0.397 OA
HETATM   33  H48 UNL     1      -4.035   1.917  11.683  1.00  0.00     0.209 HD
ENDBRANCH  31  32
ENDBRANCH  29  31
ENDBRANCH  27  28
ENDBRANCH  26  27
ENDBRANCH  24  26
ENDBRANCH   1  24
BRANCH   3  34
HETATM   34  O1  UNL     1      -3.082   9.329  17.095  1.00  0.00    -0.386 OA
HETATM   35  H19 UNL     1      -3.638   9.702  17.798  1.00  0.00     0.211 HD
ENDBRANCH   3  34
BRANCH   7  36
HETATM   36  O2  UNL     1      -1.165  11.011  13.639  1.00  0.00    -0.391 OA
HETATM   37  H21 UNL     1      -0.723  11.802  13.994  1.00  0.00     0.210 HD
ENDBRANCH   7  36
BRANCH  19  38
HETATM   38  O4  UNL     1      -1.485   9.020  11.873  1.00  0.00    -0.384 OA
HETATM   39  H38 UNL     1      -1.442   9.924  12.247  1.00  0.00     0.211 HD
ENDBRANCH  19  38
TORSDOF 9
ENDMDL
MODEL 7
REMARK minimizedAffinity -9.20359898
REMARK  9 active torsions:
REMARK  status: ('A' for Active; 'I' for Inactive)
REMARK    1  A    between atoms: C2_2  and  C30_34 
REMARK    2  A    between atoms: C3_3  and  C4_4 
REMARK    3  A    between atoms: C4_4  and  C5_5 
REMARK    4  A    between atoms: C5_5  and  C6_6 
REMARK    5  A    between atoms: C6_6  and  C8_8 
REMARK    6  A    between atoms: C10_10  and  O1_12 
REMARK    7  A    between atoms: C14_15  and  O2_16 
REMARK    8  A    between atoms: C25_28  and  O4_29 
REMARK    9  A    between atoms: C30_34  and  O5_35 
ROOT
HETATM    1  C8  UNL     1      -2.225   7.609  13.821  1.00  0.00     0.005 C 
HETATM    2  C9  UNL     1      -1.907   7.031  15.201  1.00  0.00     0.048 C 
HETATM    3  C10 UNL     1      -0.488   7.554  15.514  1.00  0.00     0.079 C 
HETATM    4  C11 UNL     1      -0.585   8.823  16.370  1.00  0.00     0.051 C 
HETATM    5  C12 UNL     1       0.142   7.755  14.141  1.00  0.00    -0.030 C 
HETATM    6  C13 UNL     1       1.356   8.284  13.848  1.00  0.00    -0.011 C 
HETATM    7  C14 UNL     1       2.396   8.598  14.899  1.00  0.00     0.151 C 
HETATM    8  C15 UNL     1       3.784   8.063  14.544  1.00  0.00     0.043 C 
HETATM    9  C16 UNL     1       4.250   8.485  13.131  1.00  0.00     0.015 C 
HETATM   10  C17 UNL     1       5.749   8.119  12.843  1.00  0.00     0.018 C 
HETATM   11  C18 UNL     1       6.191   6.765  13.431  1.00  0.00     0.023 C 
HETATM   12  C19 UNL     1       6.647   9.199  13.501  1.00  0.00     0.023 C 
HETATM   13  C20 UNL     1       6.123   8.125  11.348  1.00  0.00     0.135 C 
HETATM   14  O3  UNL     1       7.310   8.064  10.995  1.00  0.00    -0.297 OA
HETATM   15  C21 UNL     1       5.053   8.051  10.285  1.00  0.00     0.080 C 
HETATM   16  C22 UNL     1       3.704   8.609  10.704  1.00  0.00     0.020 C 
HETATM   17  C23 UNL     1       3.198   8.039  12.052  1.00  0.00    -0.004 C 
HETATM   18  C24 UNL     1       3.094   6.495  11.953  1.00  0.00     0.019 C 
HETATM   19  C25 UNL     1       1.774   8.660  12.417  1.00  0.00     0.092 C 
HETATM   20  C26 UNL     1       0.696   8.374  11.331  1.00  0.00     0.044 C 
HETATM   21  C27 UNL     1      -0.731   8.385  11.882  1.00  0.00     0.017 C 
HETATM   22  C28 UNL     1      -0.880   7.408  13.062  1.00  0.00    -0.013 C 
HETATM   23  C29 UNL     1      -0.666   5.951  12.599  1.00  0.00     0.021 C 
ENDROOT
BRANCH   1  24
HETATM   24  C6  UNL     1      -3.517   7.098  13.118  1.00  0.00    -0.013 C 
HETATM   25  C7  UNL     1      -4.598   8.184  13.159  1.00  0.00     0.010 C 
BRANCH  24  26
HETATM   26  C5  UNL     1      -4.057   5.695  13.514  1.00  0.00     0.008 C 
BRANCH  26  27
HETATM   27  C4  UNL     1      -4.057   4.560  12.474  1.00  0.00     0.028 C 
BRANCH  27  28
HETATM   28  C3  UNL     1      -5.268   3.673  12.520  1.00  0.00    -0.022 C 
HETATM   29  C2  UNL     1      -6.444   3.884  13.146  1.00  0.00    -0.064 C 
HETATM   30  C1  UNL     1      -6.788   5.101  13.963  1.00  0.00     0.045 C 
BRANCH  29  31
HETATM   31  C30 UNL     1      -7.535   2.842  13.083  1.00  0.00     0.197 C 
BRANCH  31  32
HETATM   32  O5  UNL     1      -8.811   3.460  13.115  1.00  0.00    -0.397 OA
HETATM   33  H48 UNL     1      -8.720   4.316  13.565  1.00  0.00     0.209 HD
ENDBRANCH  31  32
ENDBRANCH  29  31
ENDBRANCH  27  28
ENDBRANCH  26  27
ENDBRANCH  24  26
ENDBRANCH   1  24
BRANCH   3  34
HETATM   34  O1  UNL     1       0.239   6.549  16.211  1.00  0.00    -0.386 OA
HETATM   35  H19 UNL     1      -0.271   6.324  17.007  1.00  0.00     0.211 HD
ENDBRANCH   3  34
BRANCH   7  36
HETATM   36  O2  UNL     1       2.460  10.023  15.010  1.00  0.00    -0.391 OA
HETATM   37  H21 UNL     1       3.006  10.218  15.791  1.00  0.00     0.210 HD
ENDBRANCH   7  36
BRANCH  19  38
HETATM   38  O4  UNL     1       1.886  10.101  12.392  1.00  0.00    -0.384 OA
HETATM   39  H38 UNL     1       2.054  10.400  13.310  1.00  0.00     0.211 HD
ENDBRANCH  19  38
TORSDOF 9
ENDMDL
MODEL 8
REMARK minimizedAffinity -9.10150051
REMARK  9 active torsions:
REMARK  status: ('A' for Active; 'I' for Inactive)
REMARK    1  A    between atoms: C2_2  and  C30_34 
REMARK    2  A    between atoms: C3_3  and  C4_4 
REMARK    3  A    between atoms: C4_4  and  C5_5 
REMARK    4  A    between atoms: C5_5  and  C6_6 
REMARK    5  A    between atoms: C6_6  and  C8_8 
REMARK    6  A    between atoms: C10_10  and  O1_12 
REMARK    7  A    between atoms: C14_15  and  O2_16 
REMARK    8  A    between atoms: C25_28  and  O4_29 
REMARK    9  A    between atoms: C30_34  and  O5_35 
ROOT
HETATM    1  C8  UNL     1       2.781   8.404  13.863  1.00  0.00     0.005 C 
HETATM    2  C9  UNL     1       2.338   9.846  14.113  1.00  0.00     0.048 C 
HETATM    3  C10 UNL     1       0.964   9.707  14.805  1.00  0.00     0.079 C 
HETATM    4  C11 UNL     1       1.145   9.789  16.327  1.00  0.00     0.051 C 
HETATM    5  C12 UNL     1       0.428   8.375  14.296  1.00  0.00    -0.030 C 
HETATM    6  C13 UNL     1      -0.711   7.737  14.664  1.00  0.00    -0.011 C 
HETATM    7  C14 UNL     1      -1.765   8.369  15.543  1.00  0.00     0.151 C 
HETATM    8  C15 UNL     1      -3.181   8.212  14.986  1.00  0.00     0.043 C 
HETATM    9  C16 UNL     1      -3.530   6.747  14.633  1.00  0.00     0.015 C 
HETATM   10  C17 UNL     1      -5.042   6.548  14.260  1.00  0.00     0.018 C 
HETATM   11  C18 UNL     1      -5.647   7.707  13.442  1.00  0.00     0.023 C 
HETATM   12  C19 UNL     1      -5.858   6.464  15.576  1.00  0.00     0.023 C 
HETATM   13  C20 UNL     1      -5.337   5.237  13.504  1.00  0.00     0.135 C 
HETATM   14  O3  UNL     1      -6.506   4.855  13.339  1.00  0.00    -0.297 OA
HETATM   15  C21 UNL     1      -4.228   4.473  12.822  1.00  0.00     0.080 C 
HETATM   16  C22 UNL     1      -2.853   4.670  13.435  1.00  0.00     0.020 C 
HETATM   17  C23 UNL     1      -2.476   6.159  13.626  1.00  0.00    -0.004 C 
HETATM   18  C24 UNL     1      -2.522   6.884  12.255  1.00  0.00     0.019 C 
HETATM   19  C25 UNL     1      -1.016   6.286  14.260  1.00  0.00     0.092 C 
HETATM   20  C26 UNL     1       0.081   5.612  13.385  1.00  0.00     0.044 C 
HETATM   21  C27 UNL     1       1.472   6.211  13.598  1.00  0.00     0.017 C 
HETATM   22  C28 UNL     1       1.463   7.734  13.375  1.00  0.00    -0.013 C 
HETATM   23  C29 UNL     1       1.127   8.072  11.908  1.00  0.00     0.021 C 
ENDROOT
BRANCH   1  24
HETATM   24  C6  UNL     1       4.049   8.194  12.984  1.00  0.00    -0.013 C 
HETATM   25  C7  UNL     1       5.268   7.943  13.879  1.00  0.00     0.010 C 
BRANCH  24  26
HETATM   26  C5  UNL     1       4.332   9.222  11.854  1.00  0.00     0.008 C 
BRANCH  26  27
HETATM   27  C4  UNL     1       4.739   8.721  10.456  1.00  0.00     0.028 C 
BRANCH  27  28
HETATM   28  C3  UNL     1       4.280   7.327  10.137  1.00  0.00    -0.022 C 
HETATM   29  C2  UNL     1       3.368   6.926   9.227  1.00  0.00    -0.064 C 
HETATM   30  C1  UNL     1       2.594   7.838   8.313  1.00  0.00     0.045 C 
BRANCH  29  31
HETATM   31  C30 UNL     1       3.034   5.461   9.082  1.00  0.00     0.197 C 
BRANCH  31  32
HETATM   32  O5  UNL     1       3.304   5.021   7.761  1.00  0.00    -0.397 OA
HETATM   33  H48 UNL     1       3.242   5.789   7.169  1.00  0.00     0.209 HD
ENDBRANCH  31  32
ENDBRANCH  29  31
ENDBRANCH  27  28
ENDBRANCH  26  27
ENDBRANCH  24  26
ENDBRANCH   1  24
BRANCH   3  34
HETATM   34  O1  UNL     1       0.106  10.751  14.360  1.00  0.00    -0.386 OA
HETATM   35  H19 UNL     1       0.550  11.592  14.555  1.00  0.00     0.211 HD
ENDBRANCH   3  34
BRANCH   7  36
HETATM   36  O2  UNL     1      -1.691   7.721  16.817  1.00  0.00    -0.391 OA
HETATM   37  H21 UNL     1      -2.254   8.233  17.423  1.00  0.00     0.210 HD
ENDBRANCH   7  36
BRANCH  19  38
HETATM   38  O4  UNL     1      -0.982   5.509  15.479  1.00  0.00    -0.384 OA
HETATM   39  H38 UNL     1      -1.165   6.119  16.223  1.00  0.00     0.211 HD
ENDBRANCH  19  38
TORSDOF 9
ENDMDL
MODEL 9
REMARK minimizedAffinity -9.02740192
REMARK  9 active torsions:
REMARK  status: ('A' for Active; 'I' for Inactive)
REMARK    1  A    between atoms: C2_2  and  C30_34 
REMARK    2  A    between atoms: C3_3  and  C4_4 
REMARK    3  A    between atoms: C4_4  and  C5_5 
REMARK    4  A    between atoms: C5_5  and  C6_6 
REMARK    5  A    between atoms: C6_6  and  C8_8 
REMARK    6  A    between atoms: C10_10  and  O1_12 
REMARK    7  A    between atoms: C14_15  and  O2_16 
REMARK    8  A    between atoms: C25_28  and  O4_29 
REMARK    9  A    between atoms: C30_34  and  O5_35 
ROOT
HETATM    1  C8  UNL     1      -2.961   4.588  12.925  1.00  0.00     0.005 C 
HETATM    2  C9  UNL     1      -2.165   4.643  11.620  1.00  0.00     0.048 C 
HETATM    3  C10 UNL     1      -0.813   5.270  12.025  1.00  0.00     0.079 C 
HETATM    4  C11 UNL     1       0.212   4.158  12.283  1.00  0.00     0.051 C 
HETATM    5  C12 UNL     1      -1.152   6.122  13.243  1.00  0.00    -0.030 C 
HETATM    6  C13 UNL     1      -0.302   6.817  14.038  1.00  0.00    -0.011 C 
HETATM    7  C14 UNL     1       1.161   7.014  13.714  1.00  0.00     0.151 C 
HETATM    8  C15 UNL     1       1.614   8.468  13.852  1.00  0.00     0.043 C 
HETATM    9  C16 UNL     1       1.242   9.088  15.219  1.00  0.00     0.015 C 
HETATM   10  C17 UNL     1       1.883  10.502  15.448  1.00  0.00     0.018 C 
HETATM   11  C18 UNL     1       1.929  11.385  14.185  1.00  0.00     0.023 C 
HETATM   12  C19 UNL     1       3.353  10.300  15.899  1.00  0.00     0.023 C 
HETATM   13  C20 UNL     1       1.214  11.323  16.569  1.00  0.00     0.135 C 
HETATM   14  O3  UNL     1       1.748  12.358  16.995  1.00  0.00    -0.297 OA
HETATM   15  C21 UNL     1      -0.169  10.971  17.063  1.00  0.00     0.080 C 
HETATM   16  C22 UNL     1      -0.546   9.510  16.902  1.00  0.00     0.020 C 
HETATM   17  C23 UNL     1      -0.305   8.969  15.471  1.00  0.00    -0.004 C 
HETATM   18  C24 UNL     1      -1.121   9.812  14.456  1.00  0.00     0.019 C 
HETATM   19  C25 UNL     1      -0.737   7.435  15.377  1.00  0.00     0.092 C 
HETATM   20  C26 UNL     1      -2.234   7.208  15.740  1.00  0.00     0.044 C 
HETATM   21  C27 UNL     1      -2.825   5.952  15.096  1.00  0.00     0.017 C 
HETATM   22  C28 UNL     1      -2.635   5.968  13.568  1.00  0.00    -0.013 C 
HETATM   23  C29 UNL     1      -3.426   7.129  12.929  1.00  0.00     0.021 C 
ENDROOT
BRANCH   1  24
HETATM   24  C6  UNL     1      -4.463   4.191  12.823  1.00  0.00    -0.013 C 
HETATM   25  C7  UNL     1      -4.739   3.535  11.466  1.00  0.00     0.010 C 
BRANCH  24  26
HETATM   26  C5  UNL     1      -5.527   5.258  13.206  1.00  0.00     0.008 C 
BRANCH  26  27
HETATM   27  C4  UNL     1      -7.021   4.884  13.180  1.00  0.00     0.028 C 
BRANCH  27  28
HETATM   28  C3  UNL     1      -7.921   5.872  13.866  1.00  0.00    -0.022 C 
HETATM   29  C2  UNL     1      -7.906   6.275  15.153  1.00  0.00    -0.064 C 
HETATM   30  C1  UNL     1      -6.944   5.788  16.205  1.00  0.00     0.045 C 
BRANCH  29  31
HETATM   31  C30 UNL     1      -8.926   7.272  15.648  1.00  0.00     0.197 C 
BRANCH  31  32
HETATM   32  O5  UNL     1     -10.237   6.755  15.492  1.00  0.00    -0.397 OA
HETATM   33  H48 UNL     1     -10.222   6.109  14.767  1.00  0.00     0.209 HD
ENDBRANCH  31  32
ENDBRANCH  29  31
ENDBRANCH  27  28
ENDBRANCH  26  27
ENDBRANCH  24  26
ENDBRANCH   1  24
BRANCH   3  34
HETATM   34  O1  UNL     1      -0.358   6.121  10.980  1.00  0.00    -0.386 OA
HETATM   35  H19 UNL     1      -0.304   5.583  10.173  1.00  0.00     0.211 HD
ENDBRANCH   3  34
BRANCH   7  36
HETATM   36  O2  UNL     1       1.905   6.204  14.630  1.00  0.00    -0.391 OA
HETATM   37  H21 UNL     1       2.826   6.206  14.319  1.00  0.00     0.210 HD
ENDBRANCH   7  36
BRANCH  19  38
HETATM   38  O4  UNL     1      -0.038   6.702  16.409  1.00  0.00    -0.384 OA
HETATM   39  H38 UNL     1       0.766   6.317  16.004  1.00  0.00     0.211 HD
ENDBRANCH  19  38
TORSDOF 9
ENDMDL
