MODEL 1
REMARK minimizedAffinity -6.98277044
REMARK CNNscore 0.646990776
REMARK CNNaffinity 6.70833397
REMARK  4 active torsions:
REMARK  status: ('A' for Active; 'I' for Inactive)
REMARK    1  A    between atoms: C2_2  and  C3_3 
REMARK    2  A    between atoms: C7_7  and  C8_8 
REMARK    3  A    between atoms: C8_8  and  C9_9 
REMARK    4  A    between atoms: C26_31  and  O5_32 
ROOT
HETATM    1  C3  UNL     1     -16.412   8.304  27.519  1.00  0.00     0.008 C 
HETATM    2  C4  UNL     1     -17.272   7.093  27.787  1.00  0.00    -0.026 C 
HETATM    3  C5  UNL     1     -17.000   6.096  28.649  1.00  0.00    -0.028 C 
HETATM    4  C6  UNL     1     -15.765   5.954  29.499  1.00  0.00     0.059 C 
HETATM    5  C7  UNL     1     -15.231   4.511  29.566  1.00  0.00     0.135 C 
HETATM    6  O1  UNL     1     -14.657   4.123  28.289  1.00  0.00    -0.315 OA
HETATM    7  C12 UNL     1     -15.341   3.183  27.570  1.00  0.00     0.276 C 
HETATM    8  O2  UNL     1     -16.480   2.809  27.839  1.00  0.00    -0.264 OA
HETATM    9  C13 UNL     1     -14.465   2.555  26.415  1.00  0.00     0.095 C 
HETATM   10  C14 UNL     1     -15.090   1.138  26.223  1.00  0.00     0.036 C 
HETATM   11  C15 UNL     1     -13.045   2.364  26.934  1.00  0.00     0.003 C 
HETATM   12  C16 UNL     1     -12.001   1.853  26.269  1.00  0.00     0.072 C 
HETATM   13  C17 UNL     1     -11.990   1.355  24.882  1.00  0.00     0.245 C 
HETATM   14  O3  UNL     1     -11.141   0.526  24.561  1.00  0.00    -0.268 OA
HETATM   15  N1  UNL     1     -12.837   1.861  23.950  1.00  0.00    -0.320 N 
HETATM   16  C18 UNL     1     -13.802   2.844  23.977  1.00  0.00     0.098 C 
HETATM   17  C19 UNL     1     -14.483   3.279  25.057  1.00  0.00     0.045 C 
HETATM   18  C20 UNL     1     -15.375   4.467  24.888  1.00  0.00     0.194 C 
HETATM   19  O4  UNL     1     -15.956   4.956  25.841  1.00  0.00    -0.287 OA
HETATM   20  C21 UNL     1     -15.599   5.070  23.561  1.00  0.00     0.046 A 
HETATM   21  C22 UNL     1     -15.058   4.453  22.441  1.00  0.00     0.032 A 
HETATM   22  C23 UNL     1     -15.384   4.888  21.146  1.00  0.00     0.026 A 
HETATM   23  C24 UNL     1     -16.279   5.945  20.952  1.00  0.00    -0.027 A 
HETATM   24  C25 UNL     1     -16.653   6.383  19.564  1.00  0.00     0.051 C 
HETATM   25  C26 UNL     1     -16.788   6.595  22.078  1.00  0.00     0.086 A 
HETATM   26  C27 UNL     1     -16.412   6.199  23.373  1.00  0.00     0.059 A 
HETATM   27  C28 UNL     1     -16.810   7.117  24.461  1.00  0.00     0.163 C 
HETATM   28  O6  UNL     1     -18.010   7.244  24.687  1.00  0.00    -0.292 OA
HETATM   29  C29 UNL     1     -15.744   8.075  24.973  1.00  0.00     0.084 C 
HETATM   30  C30 UNL     1     -15.346   8.013  26.444  1.00  0.00     0.016 C 
HETATM   31  C31 UNL     1     -14.100   3.359  22.602  1.00  0.00     0.210 C 
HETATM   32  O7  UNL     1     -13.541   2.865  21.626  1.00  0.00    -0.285 OA
HETATM   33  H26 UNL     1     -12.570   1.560  23.010  1.00  0.00     0.169 HD
ENDROOT
BRANCH   5  34
HETATM   34  C8  UNL     1     -14.077   4.365  30.579  1.00  0.00     0.037 C 
BRANCH  34  35
HETATM   35  C9  UNL     1     -13.681   2.931  30.974  1.00  0.00    -0.020 C 
HETATM   36  C10 UNL     1     -12.264   2.570  30.529  1.00  0.00     0.009 C 
HETATM   37  C11 UNL     1     -13.806   2.763  32.492  1.00  0.00     0.009 C 
ENDBRANCH  34  35
ENDBRANCH   5  34
BRANCH   1  38
HETATM   38  C2  UNL     1     -17.286   9.545  27.251  1.00  0.00     0.004 C 
HETATM   39  C1  UNL     1     -17.214  10.583  28.364  1.00  0.00     0.006 C 
ENDBRANCH   1  38
BRANCH  25  40
HETATM   40  O5  UNL     1     -17.661   7.634  21.872  1.00  0.00    -0.359 OA
HETATM   41  H31 UNL     1     -18.207   7.753  22.679  1.00  0.00     0.217 HD
ENDBRANCH  25  40
TORSDOF 4
ENDMDL
MODEL 2
REMARK minimizedAffinity -10.4726534
REMARK CNNscore 0.63730979
REMARK CNNaffinity 7.36488008
REMARK  4 active torsions:
REMARK  status: ('A' for Active; 'I' for Inactive)
REMARK    1  A    between atoms: C2_2  and  C3_3 
REMARK    2  A    between atoms: C7_7  and  C8_8 
REMARK    3  A    between atoms: C8_8  and  C9_9 
REMARK    4  A    between atoms: C26_31  and  O5_32 
ROOT
HETATM    1  C3  UNL     1      -6.648   8.496  14.719  1.00  0.00     0.008 C 
HETATM    2  C4  UNL     1      -5.660   8.030  15.761  1.00  0.00    -0.026 C 
HETATM    3  C5  UNL     1      -4.489   8.617  16.068  1.00  0.00    -0.028 C 
HETATM    4  C6  UNL     1      -3.895   9.836  15.414  1.00  0.00     0.059 C 
HETATM    5  C7  UNL     1      -2.377   9.726  15.181  1.00  0.00     0.135 C 
HETATM    6  O1  UNL     1      -2.094   8.762  14.131  1.00  0.00    -0.315 OA
HETATM    7  C12 UNL     1      -1.498   7.593  14.517  1.00  0.00     0.276 C 
HETATM    8  O2  UNL     1      -1.376   7.239  15.687  1.00  0.00    -0.264 OA
HETATM    9  C13 UNL     1      -0.890   6.797  13.296  1.00  0.00     0.095 C 
HETATM   10  C14 UNL     1       0.269   5.978  13.945  1.00  0.00     0.036 C 
HETATM   11  C15 UNL     1      -0.263   7.795  12.330  1.00  0.00     0.003 C 
HETATM   12  C16 UNL     1       0.363   7.525  11.178  1.00  0.00     0.072 C 
HETATM   13  C17 UNL     1       0.591   6.197  10.582  1.00  0.00     0.245 C 
HETATM   14  O3  UNL     1       1.534   6.054   9.805  1.00  0.00    -0.268 OA
HETATM   15  N1  UNL     1      -0.268   5.172  10.809  1.00  0.00    -0.320 N 
HETATM   16  C18 UNL     1      -1.439   5.054  11.527  1.00  0.00     0.098 C 
HETATM   17  C19 UNL     1      -1.828   5.816  12.569  1.00  0.00     0.045 C 
HETATM   18  C20 UNL     1      -3.210   5.615  13.102  1.00  0.00     0.194 C 
HETATM   19  O4  UNL     1      -3.649   6.325  13.991  1.00  0.00    -0.287 OA
HETATM   20  C21 UNL     1      -4.078   4.540  12.587  1.00  0.00     0.046 A 
HETATM   21  C22 UNL     1      -3.558   3.635  11.673  1.00  0.00     0.032 A 
HETATM   22  C23 UNL     1      -4.285   2.497  11.285  1.00  0.00     0.026 A 
HETATM   23  C24 UNL     1      -5.549   2.239  11.827  1.00  0.00    -0.027 A 
HETATM   24  C25 UNL     1      -6.307   1.003  11.437  1.00  0.00     0.051 C 
HETATM   25  C26 UNL     1      -6.092   3.172  12.712  1.00  0.00     0.086 A 
HETATM   26  C27 UNL     1      -5.388   4.341  13.051  1.00  0.00     0.059 A 
HETATM   27  C28 UNL     1      -6.166   5.363  13.784  1.00  0.00     0.163 C 
HETATM   28  O6  UNL     1      -6.544   5.082  14.919  1.00  0.00    -0.292 OA
HETATM   29  C29 UNL     1      -6.722   6.520  12.966  1.00  0.00     0.084 C 
HETATM   30  C30 UNL     1      -6.299   7.941  13.323  1.00  0.00     0.016 C 
HETATM   31  C31 UNL     1      -2.249   3.881  11.065  1.00  0.00     0.210 C 
HETATM   32  O7  UNL     1      -1.815   3.142  10.187  1.00  0.00    -0.285 OA
HETATM   33  H26 UNL     1      -0.084   4.391  10.175  1.00  0.00     0.169 HD
ENDROOT
BRANCH   5  34
HETATM   34  C8  UNL     1      -1.769  11.051  14.674  1.00  0.00     0.037 C 
BRANCH  34  35
HETATM   35  C9  UNL     1      -2.313  12.346  15.303  1.00  0.00    -0.020 C 
HETATM   36  C10 UNL     1      -1.719  12.621  16.684  1.00  0.00     0.009 C 
HETATM   37  C11 UNL     1      -2.027  13.529  14.372  1.00  0.00     0.009 C 
ENDBRANCH  34  35
ENDBRANCH   5  34
BRANCH   1  38
HETATM   38  C2  UNL     1      -8.094   8.232  15.182  1.00  0.00     0.004 C 
HETATM   39  C1  UNL     1      -8.174   7.451  16.488  1.00  0.00     0.006 C 
ENDBRANCH   1  38
BRANCH  25  40
HETATM   40  O5  UNL     1      -7.334   2.908  13.231  1.00  0.00    -0.359 OA
HETATM   41  H31 UNL     1      -7.438   3.405  14.071  1.00  0.00     0.217 HD
ENDBRANCH  25  40
TORSDOF 4
ENDMDL
MODEL 3
REMARK minimizedAffinity -6.55755329
REMARK CNNscore 0.610148668
REMARK CNNaffinity 6.39422369
REMARK  4 active torsions:
REMARK  status: ('A' for Active; 'I' for Inactive)
REMARK    1  A    between atoms: C2_2  and  C3_3 
REMARK    2  A    between atoms: C7_7  and  C8_8 
REMARK    3  A    between atoms: C8_8  and  C9_9 
REMARK    4  A    between atoms: C26_31  and  O5_32 
ROOT
HETATM    1  C3  UNL     1     -21.716   1.825  11.933  1.00  0.00     0.008 C 
HETATM    2  C4  UNL     1     -20.809   1.447  10.787  1.00  0.00    -0.026 C 
HETATM    3  C5  UNL     1     -20.551   0.201  10.352  1.00  0.00    -0.028 C 
HETATM    4  C6  UNL     1     -21.075  -1.083  10.937  1.00  0.00     0.059 C 
HETATM    5  C7  UNL     1     -20.021  -2.203  10.999  1.00  0.00     0.135 C 
HETATM    6  O1  UNL     1     -19.021  -1.901  12.010  1.00  0.00    -0.315 OA
HETATM    7  C12 UNL     1     -17.768  -1.589  11.558  1.00  0.00     0.276 C 
HETATM    8  O2  UNL     1     -17.501  -1.359  10.382  1.00  0.00    -0.264 OA
HETATM    9  C13 UNL     1     -16.683  -1.659  12.703  1.00  0.00     0.095 C 
HETATM   10  C14 UNL     1     -15.367  -1.978  11.928  1.00  0.00     0.036 C 
HETATM   11  C15 UNL     1     -16.994  -2.855  13.594  1.00  0.00     0.003 C 
HETATM   12  C16 UNL     1     -16.309  -3.266  14.669  1.00  0.00     0.072 C 
HETATM   13  C17 UNL     1     -15.094  -2.653  15.234  1.00  0.00     0.245 C 
HETATM   14  O3  UNL     1     -14.335  -3.355  15.901  1.00  0.00    -0.268 OA
HETATM   15  N1  UNL     1     -14.854  -1.324  15.103  1.00  0.00    -0.320 N 
HETATM   16  C18 UNL     1     -15.549  -0.286  14.520  1.00  0.00     0.098 C 
HETATM   17  C19 UNL     1     -16.458  -0.379  13.528  1.00  0.00     0.045 C 
HETATM   18  C20 UNL     1     -17.209   0.858  13.153  1.00  0.00     0.194 C 
HETATM   19  O4  UNL     1     -18.098   0.824  12.320  1.00  0.00    -0.287 OA
HETATM   20  C21 UNL     1     -16.884   2.162  13.760  1.00  0.00     0.046 A 
HETATM   21  C22 UNL     1     -15.791   2.256  14.609  1.00  0.00     0.032 A 
HETATM   22  C23 UNL     1     -15.338   3.502  15.075  1.00  0.00     0.026 A 
HETATM   23  C24 UNL     1     -15.970   4.684  14.677  1.00  0.00    -0.027 A 
HETATM   24  C25 UNL     1     -15.460   6.016  15.147  1.00  0.00     0.051 C 
HETATM   25  C26 UNL     1     -17.097   4.589  13.859  1.00  0.00     0.086 A 
HETATM   26  C27 UNL     1     -17.586   3.337  13.445  1.00  0.00     0.059 A 
HETATM   27  C28 UNL     1     -18.918   3.353  12.804  1.00  0.00     0.163 C 
HETATM   28  O6  UNL     1     -19.019   3.919  11.719  1.00  0.00    -0.292 OA
HETATM   29  C29 UNL     1     -20.105   2.980  13.681  1.00  0.00     0.084 C 
HETATM   30  C30 UNL     1     -20.966   1.787  13.281  1.00  0.00     0.016 C 
HETATM   31  C31 UNL     1     -15.117   1.040  15.068  1.00  0.00     0.210 C 
HETATM   32  O7  UNL     1     -14.208   1.098  15.891  1.00  0.00    -0.285 OA
HETATM   33  H26 UNL     1     -14.088  -1.027  15.712  1.00  0.00     0.169 HD
ENDROOT
BRANCH   5  34
HETATM   34  C8  UNL     1     -20.629  -3.552  11.437  1.00  0.00     0.037 C 
BRANCH  34  35
HETATM   35  C9  UNL     1     -19.641  -4.699  11.713  1.00  0.00    -0.020 C 
HETATM   36  C10 UNL     1     -20.335  -5.959  12.228  1.00  0.00     0.009 C 
HETATM   37  C11 UNL     1     -18.861  -5.024  10.435  1.00  0.00     0.009 C 
ENDBRANCH  34  35
ENDBRANCH   5  34
BRANCH   1  38
HETATM   38  C2  UNL     1     -22.453   3.145  11.634  1.00  0.00     0.004 C 
HETATM   39  C1  UNL     1     -22.208   3.663  10.222  1.00  0.00     0.006 C 
ENDBRANCH   1  38
BRANCH  25  40
HETATM   40  O5  UNL     1     -17.710   5.757  13.481  1.00  0.00    -0.359 OA
HETATM   41  H31 UNL     1     -18.220   5.595  12.659  1.00  0.00     0.217 HD
ENDBRANCH  25  40
TORSDOF 4
ENDMDL
MODEL 4
REMARK minimizedAffinity -6.62478638
REMARK CNNscore 0.410424739
REMARK CNNaffinity 6.34431219
REMARK  4 active torsions:
REMARK  status: ('A' for Active; 'I' for Inactive)
REMARK    1  A    between atoms: C2_2  and  C3_3 
REMARK    2  A    between atoms: C7_7  and  C8_8 
REMARK    3  A    between atoms: C8_8  and  C9_9 
REMARK    4  A    between atoms: C26_31  and  O5_32 
ROOT
HETATM    1  C3  UNL     1     -15.854   7.356  23.954  1.00  0.00     0.008 C 
HETATM    2  C4  UNL     1     -17.041   6.491  24.307  1.00  0.00    -0.026 C 
HETATM    3  C5  UNL     1     -17.933   6.723  25.287  1.00  0.00    -0.028 C 
HETATM    4  C6  UNL     1     -17.918   7.867  26.265  1.00  0.00     0.059 C 
HETATM    5  C7  UNL     1     -18.290   7.450  27.700  1.00  0.00     0.135 C 
HETATM    6  O1  UNL     1     -17.226   6.653  28.288  1.00  0.00    -0.315 OA
HETATM    7  C12 UNL     1     -17.494   5.327  28.490  1.00  0.00     0.276 C 
HETATM    8  O2  UNL     1     -18.476   4.749  28.033  1.00  0.00    -0.264 OA
HETATM    9  C13 UNL     1     -16.454   4.647  29.465  1.00  0.00     0.095 C 
HETATM   10  C14 UNL     1     -17.269   3.476  30.096  1.00  0.00     0.036 C 
HETATM   11  C15 UNL     1     -16.120   5.629  30.581  1.00  0.00     0.003 C 
HETATM   12  C16 UNL     1     -15.287   5.434  31.610  1.00  0.00     0.072 C 
HETATM   13  C17 UNL     1     -14.504   4.220  31.900  1.00  0.00     0.245 C 
HETATM   14  O3  UNL     1     -14.160   4.004  33.061  1.00  0.00    -0.268 OA
HETATM   15  N1  UNL     1     -14.089   3.400  30.902  1.00  0.00    -0.320 N 
HETATM   16  C18 UNL     1     -14.221   3.430  29.530  1.00  0.00     0.098 C 
HETATM   17  C19 UNL     1     -15.182   4.060  28.825  1.00  0.00     0.045 C 
HETATM   18  C20 UNL     1     -15.045   4.095  27.337  1.00  0.00     0.194 C 
HETATM   19  O4  UNL     1     -15.838   4.714  26.648  1.00  0.00    -0.287 OA
HETATM   20  C21 UNL     1     -13.963   3.364  26.653  1.00  0.00     0.046 A 
HETATM   21  C22 UNL     1     -13.129   2.543  27.398  1.00  0.00     0.032 A 
HETATM   22  C23 UNL     1     -12.197   1.697  26.775  1.00  0.00     0.026 A 
HETATM   23  C24 UNL     1     -12.100   1.647  25.380  1.00  0.00    -0.027 A 
HETATM   24  C25 UNL     1     -11.128   0.713  24.716  1.00  0.00     0.051 C 
HETATM   25  C26 UNL     1     -12.907   2.504  24.630  1.00  0.00     0.086 A 
HETATM   26  C27 UNL     1     -13.795   3.395  25.259  1.00  0.00     0.059 A 
HETATM   27  C28 UNL     1     -14.398   4.420  24.380  1.00  0.00     0.163 C 
HETATM   28  O6  UNL     1     -15.169   4.034  23.505  1.00  0.00    -0.292 OA
HETATM   29  C29 UNL     1     -13.764   5.803  24.403  1.00  0.00     0.084 C 
HETATM   30  C30 UNL     1     -14.621   6.997  24.809  1.00  0.00     0.016 C 
HETATM   31  C31 UNL     1     -13.182   2.583  28.861  1.00  0.00     0.210 C 
HETATM   32  O7  UNL     1     -12.389   1.935  29.537  1.00  0.00    -0.285 OA
HETATM   33  H26 UNL     1     -13.399   2.726  31.243  1.00  0.00     0.169 HD
ENDROOT
BRANCH   5  34
HETATM   34  C8  UNL     1     -18.437   8.665  28.639  1.00  0.00     0.037 C 
BRANCH  34  35
HETATM   35  C9  UNL     1     -17.140   9.236  29.240  1.00  0.00    -0.020 C 
HETATM   36  C10 UNL     1     -16.852  10.660  28.766  1.00  0.00     0.009 C 
HETATM   37  C11 UNL     1     -17.225   9.207  30.769  1.00  0.00     0.009 C 
ENDBRANCH  34  35
ENDBRANCH   5  34
BRANCH   1  38
HETATM   38  C2  UNL     1     -15.614   7.357  22.432  1.00  0.00     0.004 C 
HETATM   39  C1  UNL     1     -14.715   8.496  21.966  1.00  0.00     0.006 C 
ENDBRANCH   1  38
BRANCH  25  40
HETATM   40  O5  UNL     1     -12.798   2.448  23.264  1.00  0.00    -0.359 OA
HETATM   41  H31 UNL     1     -13.625   2.795  22.866  1.00  0.00     0.217 HD
ENDBRANCH  25  40
TORSDOF 4
ENDMDL
MODEL 5
REMARK minimizedAffinity -6.86629343
REMARK CNNscore 0.402116776
REMARK CNNaffinity 6.06691313
REMARK  4 active torsions:
REMARK  status: ('A' for Active; 'I' for Inactive)
REMARK    1  A    between atoms: C2_2  and  C3_3 
REMARK    2  A    between atoms: C7_7  and  C8_8 
REMARK    3  A    between atoms: C8_8  and  C9_9 
REMARK    4  A    between atoms: C26_31  and  O5_32 
ROOT
HETATM    1  C3  UNL     1      -9.919  14.578   3.169  1.00  0.00     0.008 C 
HETATM    2  C4  UNL     1      -9.600  15.913   2.539  1.00  0.00    -0.026 C 
HETATM    3  C5  UNL     1      -8.497  16.218   1.834  1.00  0.00    -0.028 C 
HETATM    4  C6  UNL     1      -7.327  15.312   1.556  1.00  0.00     0.059 C 
HETATM    5  C7  UNL     1      -5.964  16.020   1.669  1.00  0.00     0.135 C 
HETATM    6  O1  UNL     1      -5.668  16.331   3.057  1.00  0.00    -0.315 OA
HETATM    7  C12 UNL     1      -5.692  17.653   3.408  1.00  0.00     0.276 C 
HETATM    8  O2  UNL     1      -6.132  18.545   2.689  1.00  0.00    -0.264 OA
HETATM    9  C13 UNL     1      -4.994  17.917   4.801  1.00  0.00     0.095 C 
HETATM   10  C14 UNL     1      -4.506  19.394   4.680  1.00  0.00     0.036 C 
HETATM   11  C15 UNL     1      -3.759  17.031   4.900  1.00  0.00     0.003 C 
HETATM   12  C16 UNL     1      -2.890  16.961   5.916  1.00  0.00     0.072 C 
HETATM   13  C17 UNL     1      -2.931  17.730   7.172  1.00  0.00     0.245 C 
HETATM   14  O3  UNL     1      -1.881  17.911   7.787  1.00  0.00    -0.268 OA
HETATM   15  N1  UNL     1      -4.109  18.157   7.694  1.00  0.00    -0.320 N 
HETATM   16  C18 UNL     1      -5.425  18.022   7.305  1.00  0.00     0.098 C 
HETATM   17  C19 UNL     1      -5.879  17.801   6.055  1.00  0.00     0.045 C 
HETATM   18  C20 UNL     1      -7.339  17.530   5.882  1.00  0.00     0.194 C 
HETATM   19  O4  UNL     1      -7.799  17.246   4.789  1.00  0.00    -0.287 OA
HETATM   20  C21 UNL     1      -8.272  17.620   7.019  1.00  0.00     0.046 A 
HETATM   21  C22 UNL     1      -7.800  18.072   8.243  1.00  0.00     0.032 A 
HETATM   22  C23 UNL     1      -8.679  18.339   9.307  1.00  0.00     0.026 A 
HETATM   23  C24 UNL     1     -10.059  18.172   9.150  1.00  0.00    -0.027 A 
HETATM   24  C25 UNL     1     -10.998  18.494  10.278  1.00  0.00     0.051 C 
HETATM   25  C26 UNL     1     -10.531  17.675   7.935  1.00  0.00     0.086 A 
HETATM   26  C27 UNL     1      -9.644  17.350   6.893  1.00  0.00     0.059 A 
HETATM   27  C28 UNL     1     -10.234  16.599   5.765  1.00  0.00     0.163 C 
HETATM   28  O6  UNL     1     -11.070  17.176   5.074  1.00  0.00    -0.292 OA
HETATM   29  C29 UNL     1     -10.023  15.092   5.759  1.00  0.00     0.084 C 
HETATM   30  C30 UNL     1      -9.300  14.456   4.577  1.00  0.00     0.016 C 
HETATM   31  C31 UNL     1      -6.361  18.237   8.455  1.00  0.00     0.210 C 
HETATM   32  O7  UNL     1      -5.919  18.545   9.558  1.00  0.00    -0.285 OA
HETATM   33  H26 UNL     1      -3.986  18.493   8.652  1.00  0.00     0.169 HD
ENDROOT
BRANCH   5  34
HETATM   34  C8  UNL     1      -4.800  15.118   1.210  1.00  0.00     0.037 C 
BRANCH  34  35
HETATM   35  C9  UNL     1      -3.402  15.463   1.754  1.00  0.00    -0.020 C 
HETATM   36  C10 UNL     1      -2.700  14.256   2.376  1.00  0.00     0.009 C 
HETATM   37  C11 UNL     1      -2.539  16.038   0.626  1.00  0.00     0.009 C 
ENDBRANCH  34  35
ENDBRANCH   5  34
BRANCH   1  38
HETATM   38  C2  UNL     1     -11.430  14.287   3.095  1.00  0.00     0.004 C 
HETATM   39  C1  UNL     1     -11.939  14.105   1.669  1.00  0.00     0.006 C 
ENDBRANCH   1  38
BRANCH  25  40
HETATM   40  O5  UNL     1     -11.886  17.512   7.798  1.00  0.00    -0.359 OA
HETATM   41  H31 UNL     1     -12.111  17.520   6.843  1.00  0.00     0.217 HD
ENDBRANCH  25  40
TORSDOF 4
ENDMDL
MODEL 6
REMARK minimizedAffinity -6.36119986
REMARK CNNscore 0.390144318
REMARK CNNaffinity 6.38053513
REMARK  4 active torsions:
REMARK  status: ('A' for Active; 'I' for Inactive)
REMARK    1  A    between atoms: C2_2  and  C3_3 
REMARK    2  A    between atoms: C7_7  and  C8_8 
REMARK    3  A    between atoms: C8_8  and  C9_9 
REMARK    4  A    between atoms: C26_31  and  O5_32 
ROOT
HETATM    1  C3  UNL     1      13.263  -6.160   6.858  1.00  0.00     0.008 C 
HETATM    2  C4  UNL     1      12.354  -6.384   5.674  1.00  0.00    -0.026 C 
HETATM    3  C5  UNL     1      12.259  -7.510   4.943  1.00  0.00    -0.028 C 
HETATM    4  C6  UNL     1      13.064  -8.769   5.122  1.00  0.00     0.059 C 
HETATM    5  C7  UNL     1      13.514  -9.402   3.792  1.00  0.00     0.135 C 
HETATM    6  O1  UNL     1      14.536  -8.584   3.162  1.00  0.00    -0.315 OA
HETATM    7  C12 UNL     1      14.176  -7.927   2.018  1.00  0.00     0.276 C 
HETATM    8  O2  UNL     1      13.019  -7.831   1.618  1.00  0.00    -0.264 OA
HETATM    9  C13 UNL     1      15.426  -7.393   1.213  1.00  0.00     0.095 C 
HETATM   10  C14 UNL     1      14.910  -7.350  -0.259  1.00  0.00     0.036 C 
HETATM   11  C15 UNL     1      16.530  -8.441   1.282  1.00  0.00     0.003 C 
HETATM   12  C16 UNL     1      17.745  -8.377   0.723  1.00  0.00     0.072 C 
HETATM   13  C17 UNL     1      18.290  -7.276  -0.091  1.00  0.00     0.245 C 
HETATM   14  O3  UNL     1      19.189  -7.525  -0.892  1.00  0.00    -0.268 OA
HETATM   15  N1  UNL     1      17.879  -5.997   0.097  1.00  0.00    -0.320 N 
HETATM   16  C18 UNL     1      16.989  -5.402   0.966  1.00  0.00     0.098 C 
HETATM   17  C19 UNL     1      15.946  -5.993   1.584  1.00  0.00     0.045 C 
HETATM   18  C20 UNL     1      15.203  -5.199   2.610  1.00  0.00     0.194 C 
HETATM   19  O4  UNL     1      14.302  -5.701   3.260  1.00  0.00    -0.287 OA
HETATM   20  C21 UNL     1      15.520  -3.780   2.854  1.00  0.00     0.046 A 
HETATM   21  C22 UNL     1      16.447  -3.148   2.038  1.00  0.00     0.032 A 
HETATM   22  C23 UNL     1      16.656  -1.761   2.117  1.00  0.00     0.026 A 
HETATM   23  C24 UNL     1      15.918  -0.978   3.010  1.00  0.00    -0.027 A 
HETATM   24  C25 UNL     1      16.119   0.510   3.065  1.00  0.00     0.051 C 
HETATM   25  C26 UNL     1      15.018  -1.619   3.863  1.00  0.00     0.086 A 
HETATM   26  C27 UNL     1      14.856  -3.014   3.826  1.00  0.00     0.059 A 
HETATM   27  C28 UNL     1      14.076  -3.596   4.939  1.00  0.00     0.163 C 
HETATM   28  O6  UNL     1      12.883  -3.309   5.007  1.00  0.00    -0.292 OA
HETATM   29  C29 UNL     1      14.868  -4.209   6.085  1.00  0.00     0.084 C 
HETATM   30  C30 UNL     1      14.661  -5.683   6.414  1.00  0.00     0.016 C 
HETATM   31  C31 UNL     1      17.256  -3.935   1.105  1.00  0.00     0.210 C 
HETATM   32  O7  UNL     1      18.145  -3.406   0.444  1.00  0.00    -0.285 OA
HETATM   33  H26 UNL     1      18.487  -5.339  -0.396  1.00  0.00     0.169 HD
ENDROOT
BRANCH   5  34
HETATM   34  C8  UNL     1      14.182 -10.778   3.999  1.00  0.00     0.037 C 
BRANCH  34  35
HETATM   35  C9  UNL     1      13.255 -12.006   3.975  1.00  0.00    -0.020 C 
HETATM   36  C10 UNL     1      12.476 -12.179   5.279  1.00  0.00     0.009 C 
HETATM   37  C11 UNL     1      12.278 -11.891   2.800  1.00  0.00     0.009 C 
ENDBRANCH  34  35
ENDBRANCH   5  34
BRANCH   1  38
HETATM   38  C2  UNL     1      12.576  -5.272   7.913  1.00  0.00     0.004 C 
HETATM   39  C1  UNL     1      11.970  -6.065   9.065  1.00  0.00     0.006 C 
ENDBRANCH   1  38
BRANCH  25  40
HETATM   40  O5  UNL     1      14.305  -0.839   4.738  1.00  0.00    -0.359 OA
HETATM   41  H31 UNL     1      13.490  -1.318   4.998  1.00  0.00     0.217 HD
ENDBRANCH  25  40
TORSDOF 4
ENDMDL
MODEL 7
REMARK minimizedAffinity -7.4250536
REMARK CNNscore 0.290359199
REMARK CNNaffinity 6.09328699
REMARK  4 active torsions:
REMARK  status: ('A' for Active; 'I' for Inactive)
REMARK    1  A    between atoms: C2_2  and  C3_3 
REMARK    2  A    between atoms: C7_7  and  C8_8 
REMARK    3  A    between atoms: C8_8  and  C9_9 
REMARK    4  A    between atoms: C26_31  and  O5_32 
ROOT
HETATM    1  C3  UNL     1      13.833  -5.832   5.292  1.00  0.00     0.008 C 
HETATM    2  C4  UNL     1      13.221  -4.471   5.519  1.00  0.00    -0.026 C 
HETATM    3  C5  UNL     1      13.108  -3.486   4.610  1.00  0.00    -0.028 C 
HETATM    4  C6  UNL     1      13.602  -3.512   3.188  1.00  0.00     0.059 C 
HETATM    5  C7  UNL     1      14.245  -2.187   2.739  1.00  0.00     0.135 C 
HETATM    6  O1  UNL     1      15.522  -1.993   3.404  1.00  0.00    -0.315 OA
HETATM    7  C12 UNL     1      15.581  -0.993   4.336  1.00  0.00     0.276 C 
HETATM    8  O2  UNL     1      14.596  -0.405   4.773  1.00  0.00    -0.264 OA
HETATM    9  C13 UNL     1      17.066  -0.610   4.712  1.00  0.00     0.095 C 
HETATM   10  C14 UNL     1      16.948   0.880   5.158  1.00  0.00     0.036 C 
HETATM   11  C15 UNL     1      17.911  -0.644   3.444  1.00  0.00     0.003 C 
HETATM   12  C16 UNL     1      19.217  -0.373   3.333  1.00  0.00     0.072 C 
HETATM   13  C17 UNL     1      20.136   0.024   4.414  1.00  0.00     0.245 C 
HETATM   14  O3  UNL     1      21.146   0.664   4.124  1.00  0.00    -0.268 OA
HETATM   15  N1  UNL     1      19.930  -0.382   5.692  1.00  0.00    -0.320 N 
HETATM   16  C18 UNL     1      18.975  -1.172   6.296  1.00  0.00     0.098 C 
HETATM   17  C19 UNL     1      17.723  -1.406   5.854  1.00  0.00     0.045 C 
HETATM   18  C20 UNL     1      16.905  -2.423   6.583  1.00  0.00     0.194 C 
HETATM   19  O4  UNL     1      15.796  -2.737   6.188  1.00  0.00    -0.287 OA
HETATM   20  C21 UNL     1      17.403  -3.061   7.816  1.00  0.00     0.046 A 
HETATM   21  C22 UNL     1      18.601  -2.626   8.362  1.00  0.00     0.032 A 
HETATM   22  C23 UNL     1      19.032  -3.078   9.621  1.00  0.00     0.026 A 
HETATM   23  C24 UNL     1      18.249  -3.968  10.365  1.00  0.00    -0.027 A 
HETATM   24  C25 UNL     1      18.695  -4.420  11.726  1.00  0.00     0.051 C 
HETATM   25  C26 UNL     1      17.065  -4.441   9.797  1.00  0.00     0.086 A 
HETATM   26  C27 UNL     1      16.668  -4.035   8.511  1.00  0.00     0.059 A 
HETATM   27  C28 UNL     1      15.545  -4.794   7.921  1.00  0.00     0.163 C 
HETATM   28  O6  UNL     1      14.445  -4.689   8.457  1.00  0.00    -0.292 OA
HETATM   29  C29 UNL     1      15.904  -5.893   6.931  1.00  0.00     0.084 C 
HETATM   30  C30 UNL     1      15.360  -5.807   5.509  1.00  0.00     0.016 C 
HETATM   31  C31 UNL     1      19.460  -1.713   7.606  1.00  0.00     0.210 C 
HETATM   32  O7  UNL     1      20.566  -1.391   8.033  1.00  0.00    -0.285 OA
HETATM   33  H26 UNL     1      20.750  -0.194   6.274  1.00  0.00     0.169 HD
ENDROOT
BRANCH   5  34
HETATM   34  C8  UNL     1      14.581  -2.185   1.233  1.00  0.00     0.037 C 
BRANCH  34  35
HETATM   35  C9  UNL     1      15.255  -3.450   0.673  1.00  0.00    -0.020 C 
HETATM   36  C10 UNL     1      16.222  -4.089   1.670  1.00  0.00     0.009 C 
HETATM   37  C11 UNL     1      14.184  -4.468   0.268  1.00  0.00     0.009 C 
ENDBRANCH  34  35
ENDBRANCH   5  34
BRANCH   1  38
HETATM   38  C2  UNL     1      13.078  -6.910   6.093  1.00  0.00     0.004 C 
HETATM   39  C1  UNL     1      13.281  -8.318   5.547  1.00  0.00     0.006 C 
ENDBRANCH   1  38
BRANCH  25  40
HETATM   40  O5  UNL     1      16.312  -5.318  10.535  1.00  0.00    -0.359 OA
HETATM   41  H31 UNL     1      15.384  -5.284  10.216  1.00  0.00     0.217 HD
ENDBRANCH  25  40
TORSDOF 4
ENDMDL
MODEL 8
REMARK minimizedAffinity -8.50287628
REMARK CNNscore 0.177197099
REMARK CNNaffinity 6.55370569
REMARK  4 active torsions:
REMARK  status: ('A' for Active; 'I' for Inactive)
REMARK    1  A    between atoms: C2_2  and  C3_3 
REMARK    2  A    between atoms: C7_7  and  C8_8 
REMARK    3  A    between atoms: C8_8  and  C9_9 
REMARK    4  A    between atoms: C26_31  and  O5_32 
ROOT
HETATM    1  C3  UNL     1      -0.533   3.412  11.600  1.00  0.00     0.008 C 
HETATM    2  C4  UNL     1      -0.568   4.714  10.836  1.00  0.00    -0.026 C 
HETATM    3  C5  UNL     1       0.215   5.786  11.052  1.00  0.00    -0.028 C 
HETATM    4  C6  UNL     1       1.262   5.935  12.124  1.00  0.00     0.059 C 
HETATM    5  C7  UNL     1       1.270   7.327  12.783  1.00  0.00     0.135 C 
HETATM    6  O1  UNL     1       0.090   7.501  13.612  1.00  0.00    -0.315 OA
HETATM    7  C12 UNL     1      -0.846   8.395  13.168  1.00  0.00     0.276 C 
HETATM    8  O2  UNL     1      -0.840   8.891  12.044  1.00  0.00    -0.264 OA
HETATM    9  C13 UNL     1      -1.875   8.796  14.296  1.00  0.00     0.095 C 
HETATM   10  C14 UNL     1      -2.338  10.223  13.865  1.00  0.00     0.036 C 
HETATM   11  C15 UNL     1      -1.122   8.936  15.613  1.00  0.00     0.003 C 
HETATM   12  C16 UNL     1      -1.629   9.272  16.805  1.00  0.00     0.072 C 
HETATM   13  C17 UNL     1      -3.035   9.586  17.115  1.00  0.00     0.245 C 
HETATM   14  O3  UNL     1      -3.279  10.296  18.089  1.00  0.00    -0.268 OA
HETATM   15  N1  UNL     1      -4.049   9.036  16.401  1.00  0.00    -0.320 N 
HETATM   16  C18 UNL     1      -4.097   8.146  15.349  1.00  0.00     0.098 C 
HETATM   17  C19 UNL     1      -3.124   7.909  14.446  1.00  0.00     0.045 C 
HETATM   18  C20 UNL     1      -3.328   6.786  13.481  1.00  0.00     0.194 C 
HETATM   19  O4  UNL     1      -2.454   6.471  12.692  1.00  0.00    -0.287 OA
HETATM   20  C21 UNL     1      -4.598   6.039  13.436  1.00  0.00     0.046 A 
HETATM   21  C22 UNL     1      -5.656   6.461  14.228  1.00  0.00     0.032 A 
HETATM   22  C23 UNL     1      -6.934   5.893  14.095  1.00  0.00     0.026 A 
HETATM   23  C24 UNL     1      -7.176   4.896  13.145  1.00  0.00    -0.027 A 
HETATM   24  C25 UNL     1      -8.552   4.317  12.980  1.00  0.00     0.051 C 
HETATM   25  C26 UNL     1      -6.102   4.438  12.378  1.00  0.00     0.086 A 
HETATM   26  C27 UNL     1      -4.811   4.965  12.557  1.00  0.00     0.059 A 
HETATM   27  C28 UNL     1      -3.723   4.228  11.879  1.00  0.00     0.163 C 
HETATM   28  O6  UNL     1      -3.716   4.228  10.651  1.00  0.00    -0.292 OA
HETATM   29  C29 UNL     1      -2.916   3.259  12.731  1.00  0.00     0.084 C 
HETATM   30  C30 UNL     1      -1.413   3.477  12.866  1.00  0.00     0.016 C 
HETATM   31  C31 UNL     1      -5.439   7.486  15.250  1.00  0.00     0.210 C 
HETATM   32  O7  UNL     1      -6.339   7.805  16.022  1.00  0.00    -0.285 OA
HETATM   33  H26 UNL     1      -4.950   9.193  16.860  1.00  0.00     0.169 HD
ENDROOT
BRANCH   5  34
HETATM   34  C8  UNL     1       2.460   7.507  13.747  1.00  0.00     0.037 C 
BRANCH  34  35
HETATM   35  C9  UNL     1       3.606   8.417  13.269  1.00  0.00    -0.020 C 
HETATM   36  C10 UNL     1       4.835   8.336  14.173  1.00  0.00     0.009 C 
HETATM   37  C11 UNL     1       3.994   8.044  11.834  1.00  0.00     0.009 C 
ENDBRANCH  34  35
ENDBRANCH   5  34
BRANCH   1  38
HETATM   38  C2  UNL     1      -0.823   2.223  10.665  1.00  0.00     0.004 C 
HETATM   39  C1  UNL     1      -1.562   1.082  11.353  1.00  0.00     0.006 C 
ENDBRANCH   1  38
BRANCH  25  40
HETATM   40  O5  UNL     1      -6.353   3.456  11.454  1.00  0.00    -0.359 OA
HETATM   41  H31 UNL     1      -5.656   3.485  10.764  1.00  0.00     0.217 HD
ENDBRANCH  25  40
TORSDOF 4
ENDMDL
MODEL 9
REMARK minimizedAffinity -6.98648739
REMARK CNNscore 0.147789523
REMARK CNNaffinity 5.69251013
REMARK  4 active torsions:
REMARK  status: ('A' for Active; 'I' for Inactive)
REMARK    1  A    between atoms: C2_2  and  C3_3 
REMARK    2  A    between atoms: C7_7  and  C8_8 
REMARK    3  A    between atoms: C8_8  and  C9_9 
REMARK    4  A    between atoms: C26_31  and  O5_32 
ROOT
HETATM    1  C3  UNL     1      -0.821  16.041   2.349  1.00  0.00     0.008 C 
HETATM    2  C4  UNL     1      -0.020  14.834   2.776  1.00  0.00    -0.026 C 
HETATM    3  C5  UNL     1       1.070  14.839   3.564  1.00  0.00    -0.028 C 
HETATM    4  C6  UNL     1       1.749  16.047   4.153  1.00  0.00     0.059 C 
HETATM    5  C7  UNL     1       3.286  15.968   4.109  1.00  0.00     0.135 C 
HETATM    6  O1  UNL     1       3.761  16.103   2.743  1.00  0.00    -0.315 OA
HETATM    7  C12 UNL     1       4.301  14.984   2.168  1.00  0.00     0.276 C 
HETATM    8  O2  UNL     1       4.225  13.859   2.655  1.00  0.00    -0.264 OA
HETATM    9  C13 UNL     1       5.123  15.318   0.862  1.00  0.00     0.095 C 
HETATM   10  C14 UNL     1       6.165  14.159   0.791  1.00  0.00     0.036 C 
HETATM   11  C15 UNL     1       5.891  16.614   1.089  1.00  0.00     0.003 C 
HETATM   12  C16 UNL     1       6.711  17.232   0.230  1.00  0.00     0.072 C 
HETATM   13  C17 UNL     1       7.059  16.796  -1.133  1.00  0.00     0.245 C 
HETATM   14  O3  UNL     1       8.124  17.175  -1.619  1.00  0.00    -0.268 OA
HETATM   15  N1  UNL     1       6.191  16.067  -1.879  1.00  0.00    -0.320 N 
HETATM   16  C18 UNL     1       4.916  15.592  -1.659  1.00  0.00     0.098 C 
HETATM   17  C19 UNL     1       4.341  15.345  -0.464  1.00  0.00     0.045 C 
HETATM   18  C20 UNL     1       2.891  14.982  -0.450  1.00  0.00     0.194 C 
HETATM   19  O4  UNL     1       2.294  14.824   0.601  1.00  0.00    -0.287 OA
HETATM   20  C21 UNL     1       2.142  14.781  -1.704  1.00  0.00     0.046 A 
HETATM   21  C22 UNL     1       2.826  14.823  -2.911  1.00  0.00     0.032 A 
HETATM   22  C23 UNL     1       2.195  14.469  -4.115  1.00  0.00     0.026 A 
HETATM   23  C24 UNL     1       0.862  14.048  -4.125  1.00  0.00    -0.027 A 
HETATM   24  C25 UNL     1       0.202  13.635  -5.410  1.00  0.00     0.051 C 
HETATM   25  C26 UNL     1       0.159  14.049  -2.919  1.00  0.00     0.086 A 
HETATM   26  C27 UNL     1       0.775  14.462  -1.724  1.00  0.00     0.059 A 
HETATM   27  C28 UNL     1      -0.134  14.664  -0.576  1.00  0.00     0.163 C 
HETATM   28  O6  UNL     1      -0.698  13.673  -0.118  1.00  0.00    -0.292 OA
HETATM   29  C29 UNL     1      -0.559  16.095  -0.280  1.00  0.00     0.084 C 
HETATM   30  C30 UNL     1      -0.227  16.692   1.083  1.00  0.00     0.016 C 
HETATM   31  C31 UNL     1       4.216  15.281  -2.946  1.00  0.00     0.210 C 
HETATM   32  O7  UNL     1       4.807  15.413  -4.014  1.00  0.00    -0.285 OA
HETATM   33  H26 UNL     1       6.495  16.019  -2.855  1.00  0.00     0.169 HD
ENDROOT
BRANCH   5  34
HETATM   34  C8  UNL     1       3.951  17.131   4.874  1.00  0.00     0.037 C 
BRANCH  34  35
HETATM   35  C9  UNL     1       4.089  16.967   6.398  1.00  0.00    -0.020 C 
HETATM   36  C10 UNL     1       5.519  17.204   6.886  1.00  0.00     0.009 C 
HETATM   37  C11 UNL     1       3.134  17.931   7.108  1.00  0.00     0.009 C 
ENDBRANCH  34  35
ENDBRANCH   5  34
BRANCH   1  38
HETATM   38  C2  UNL     1      -2.320  15.697   2.263  1.00  0.00     0.004 C 
HETATM   39  C1  UNL     1      -2.637  14.273   2.704  1.00  0.00     0.006 C 
ENDBRANCH   1  38
BRANCH  25  40
HETATM   40  O5  UNL     1      -1.149  13.638  -2.945  1.00  0.00    -0.359 OA
HETATM   41  H31 UNL     1      -1.405  13.338  -2.046  1.00  0.00     0.217 HD
ENDBRANCH  25  40
TORSDOF 4
ENDMDL
