MODEL 1
REMARK minimizedAffinity -6.62547255
REMARK CNNscore 0.483046651
REMARK CNNaffinity 6.220541
REMARK  10 active torsions:
REMARK  status: ('A' for Active; 'I' for Inactive)
REMARK    1  A    between atoms: C2_2  and  C3_3 
REMARK    2  A    between atoms: C4_4  and  O1_5 
REMARK    3  A    between atoms: C12_13  and  C13_14 
REMARK    4  A    between atoms: C13_14  and  C15_16 
REMARK    5  A    between atoms: C15_16  and  C16_17 
REMARK    6  A    between atoms: C16_17  and  C17_18 
REMARK    7  A    between atoms: C26_27  and  C27_28 
REMARK    8  A    between atoms: C27_28  and  C28_29 
REMARK    9  A    between atoms: C28_29  and  C29_30 
REMARK   10  A    between atoms: C29_30  and  O3_32 
ROOT
HETATM    1  C3  UNL     1      -9.960  47.084 -37.156  1.00  0.00     0.045 C 
HETATM    2  C4  UNL     1      -8.462  47.357 -36.884  1.00  0.00     0.127 C 
HETATM    3  C5  UNL     1      -8.222  47.707 -35.422  1.00  0.00     0.038 C 
HETATM    4  C6  UNL     1      -8.475  46.480 -34.542  1.00  0.00     0.006 C 
HETATM    5  C7  UNL     1      -9.920  45.956 -34.714  1.00  0.00    -0.027 A 
HETATM    6  C8  UNL     1     -10.754  45.822 -33.435  1.00  0.00     0.011 C 
HETATM    7  C9  UNL     1     -10.029  45.370 -32.153  1.00  0.00     0.011 C 
HETATM    8  C10 UNL     1      -8.498  45.416 -32.223  1.00  0.00    -0.032 C 
HETATM    9  C11 UNL     1      -8.005  44.071 -32.841  1.00  0.00     0.016 C 
HETATM   10  C12 UNL     1      -7.740  45.660 -30.873  1.00  0.00    -0.002 C 
HETATM   11  C21 UNL     1      -6.380  46.225 -31.361  1.00  0.00     0.006 C 
HETATM   12  C22 UNL     1      -6.566  46.733 -32.800  1.00  0.00     0.011 C 
HETATM   13  C23 UNL     1      -8.084  46.686 -33.053  1.00  0.00    -0.032 C 
HETATM   14  C24 UNL     1      -8.657  48.035 -32.513  1.00  0.00     0.016 C 
HETATM   15  C25 UNL     1     -10.106  44.863 -35.748  1.00  0.00     0.022 A 
HETATM   16  C26 UNL     1     -10.659  46.235 -36.066  1.00  0.00    -0.022 A 
ENDROOT
BRANCH  10  17
HETATM   17  C13 UNL     1      -7.584  44.502 -29.838  1.00  0.00    -0.014 C 
HETATM   18  C14 UNL     1      -8.873  43.672 -29.722  1.00  0.00     0.010 C 
BRANCH  17  19
HETATM   19  C15 UNL     1      -7.239  45.024 -28.413  1.00  0.00     0.008 C 
BRANCH  19  20
HETATM   20  C16 UNL     1      -7.711  46.454 -28.125  1.00  0.00     0.028 C 
BRANCH  20  21
HETATM   21  C17 UNL     1      -6.870  47.102 -27.057  1.00  0.00    -0.025 C 
HETATM   22  C18 UNL     1      -5.716  47.777 -27.221  1.00  0.00    -0.091 C 
HETATM   23  C19 UNL     1      -4.974  48.332 -26.033  1.00  0.00     0.042 C 
HETATM   24  C20 UNL     1      -5.065  48.060 -28.547  1.00  0.00     0.042 C 
ENDBRANCH  20  21
ENDBRANCH  19  20
ENDBRANCH  17  19
ENDBRANCH  10  17
BRANCH  16  25
HETATM   25  C27 UNL     1     -12.188  46.419 -36.070  1.00  0.00     0.021 C 
BRANCH  25  26
HETATM   26  C28 UNL     1     -12.759  46.808 -37.435  1.00  0.00     0.111 C 
BRANCH  26  27
HETATM   27  C29 UNL     1     -13.644  48.020 -37.330  1.00  0.00     0.139 C 
HETATM   28  O2  UNL     1     -14.843  48.052 -37.117  1.00  0.00    -0.650 OA
BRANCH  27  29
HETATM   29  O3  UNL     1     -12.951  49.164 -37.503  1.00  0.00    -0.776 OA
HETATM   30  H46 UNL     1     -13.626  49.866 -37.407  1.00  0.00     0.167 HD
ENDBRANCH  27  29
ENDBRANCH  26  27
ENDBRANCH  25  26
ENDBRANCH  16  25
BRANCH   2  31
HETATM   31  O1  UNL     1      -8.008  48.474 -37.662  1.00  0.00    -0.395 OA
HETATM   32  H6  UNL     1      -8.206  48.272 -38.593  1.00  0.00     0.210 HD
ENDBRANCH   2  31
BRANCH   1  33
HETATM   33  C2  UNL     1     -10.112  46.497 -38.551  1.00  0.00    -0.029 C 
HETATM   34  C1  UNL     1      -9.761  45.250 -38.893  1.00  0.00     0.007 C 
ENDBRANCH   1  33
TORSDOF 10
ENDMDL
MODEL 2
REMARK minimizedAffinity -6.43230057
REMARK CNNscore 0.391958207
REMARK CNNaffinity 6.50659704
REMARK  10 active torsions:
REMARK  status: ('A' for Active; 'I' for Inactive)
REMARK    1  A    between atoms: C2_2  and  C3_3 
REMARK    2  A    between atoms: C4_4  and  O1_5 
REMARK    3  A    between atoms: C12_13  and  C13_14 
REMARK    4  A    between atoms: C13_14  and  C15_16 
REMARK    5  A    between atoms: C15_16  and  C16_17 
REMARK    6  A    between atoms: C16_17  and  C17_18 
REMARK    7  A    between atoms: C26_27  and  C27_28 
REMARK    8  A    between atoms: C27_28  and  C28_29 
REMARK    9  A    between atoms: C28_29  and  C29_30 
REMARK   10  A    between atoms: C29_30  and  O3_32 
ROOT
HETATM    1  C3  UNL     1       0.658  52.671 -11.602  1.00  0.00     0.045 C 
HETATM    2  C4  UNL     1       2.177  52.445 -11.786  1.00  0.00     0.127 C 
HETATM    3  C5  UNL     1       2.964  53.711 -11.480  1.00  0.00     0.038 C 
HETATM    4  C6  UNL     1       2.880  54.030  -9.985  1.00  0.00     0.006 C 
HETATM    5  C7  UNL     1       1.413  54.215  -9.532  1.00  0.00    -0.027 A 
HETATM    6  C8  UNL     1       1.077  55.535  -8.829  1.00  0.00     0.011 C 
HETATM    7  C9  UNL     1       2.143  56.138  -7.895  1.00  0.00     0.011 C 
HETATM    8  C10 UNL     1       3.542  55.522  -8.023  1.00  0.00    -0.032 C 
HETATM    9  C11 UNL     1       3.601  54.270  -7.096  1.00  0.00     0.016 C 
HETATM   10  C12 UNL     1       4.753  56.457  -7.689  1.00  0.00    -0.002 C 
HETATM   11  C21 UNL     1       5.914  55.774  -8.459  1.00  0.00     0.006 C 
HETATM   12  C22 UNL     1       5.298  54.860  -9.531  1.00  0.00     0.011 C 
HETATM   13  C23 UNL     1       3.798  55.203  -9.542  1.00  0.00    -0.032 C 
HETATM   14  C24 UNL     1       3.636  56.423 -10.503  1.00  0.00     0.016 C 
HETATM   15  C25 UNL     1       0.730  52.976  -8.987  1.00  0.00     0.022 A 
HETATM   16  C26 UNL     1       0.286  53.488 -10.340  1.00  0.00    -0.022 A 
ENDROOT
BRANCH  10  17
HETATM   17  C13 UNL     1       5.112  56.779  -6.204  1.00  0.00    -0.014 C 
HETATM   18  C14 UNL     1       4.252  57.927  -5.652  1.00  0.00     0.010 C 
BRANCH  17  19
HETATM   19  C15 UNL     1       6.603  57.193  -6.031  1.00  0.00     0.008 C 
BRANCH  19  20
HETATM   20  C16 UNL     1       6.908  57.953  -4.736  1.00  0.00     0.028 C 
BRANCH  20  21
HETATM   21  C17 UNL     1       7.710  59.198  -5.010  1.00  0.00    -0.025 C 
HETATM   22  C18 UNL     1       9.051  59.315  -5.052  1.00  0.00    -0.091 C 
HETATM   23  C19 UNL     1       9.698  60.652  -5.303  1.00  0.00     0.042 C 
HETATM   24  C20 UNL     1      10.021  58.179  -4.878  1.00  0.00     0.042 C 
ENDBRANCH  20  21
ENDBRANCH  19  20
ENDBRANCH  17  19
ENDBRANCH  10  17
BRANCH  16  25
HETATM   25  C27 UNL     1      -1.106  54.136 -10.451  1.00  0.00     0.021 C 
BRANCH  25  26
HETATM   26  C28 UNL     1      -2.169  53.468  -9.577  1.00  0.00     0.111 C 
BRANCH  26  27
HETATM   27  C29 UNL     1      -3.387  53.105 -10.382  1.00  0.00     0.139 C 
HETATM   28  O2  UNL     1      -4.034  53.825 -11.122  1.00  0.00    -0.650 OA
BRANCH  27  29
HETATM   29  O3  UNL     1      -3.737  51.814 -10.208  1.00  0.00    -0.776 OA
HETATM   30  H46 UNL     1      -4.525  51.704 -10.779  1.00  0.00     0.167 HD
ENDBRANCH  27  29
ENDBRANCH  26  27
ENDBRANCH  25  26
ENDBRANCH  16  25
BRANCH   2  31
HETATM   31  O1  UNL     1       2.469  52.090 -13.146  1.00  0.00    -0.395 OA
HETATM   32  H6  UNL     1       1.928  51.309 -13.358  1.00  0.00     0.210 HD
ENDBRANCH   2  31
BRANCH   1  33
HETATM   33  C2  UNL     1      -0.055  51.329 -11.670  1.00  0.00    -0.029 C 
HETATM   34  C1  UNL     1      -1.002  51.016 -12.564  1.00  0.00     0.007 C 
ENDBRANCH   1  33
TORSDOF 10
ENDMDL
MODEL 3
REMARK minimizedAffinity -8.58350086
REMARK CNNscore 0.374859154
REMARK CNNaffinity 6.57468414
REMARK  10 active torsions:
REMARK  status: ('A' for Active; 'I' for Inactive)
REMARK    1  A    between atoms: C2_2  and  C3_3 
REMARK    2  A    between atoms: C4_4  and  O1_5 
REMARK    3  A    between atoms: C12_13  and  C13_14 
REMARK    4  A    between atoms: C13_14  and  C15_16 
REMARK    5  A    between atoms: C15_16  and  C16_17 
REMARK    6  A    between atoms: C16_17  and  C17_18 
REMARK    7  A    between atoms: C26_27  and  C27_28 
REMARK    8  A    between atoms: C27_28  and  C28_29 
REMARK    9  A    between atoms: C28_29  and  C29_30 
REMARK   10  A    between atoms: C29_30  and  O3_32 
ROOT
HETATM    1  C3  UNL     1      -5.926  47.702 -24.480  1.00  0.00     0.045 C 
HETATM    2  C4  UNL     1      -6.103  47.699 -22.943  1.00  0.00     0.127 C 
HETATM    3  C5  UNL     1      -4.757  47.730 -22.233  1.00  0.00     0.038 C 
HETATM    4  C6  UNL     1      -4.076  49.083 -22.461  1.00  0.00     0.006 C 
HETATM    5  C7  UNL     1      -3.869  49.359 -23.969  1.00  0.00    -0.027 A 
HETATM    6  C8  UNL     1      -2.436  49.673 -24.414  1.00  0.00     0.011 C 
HETATM    7  C9  UNL     1      -1.556  50.499 -23.457  1.00  0.00     0.011 C 
HETATM    8  C10 UNL     1      -2.102  50.641 -22.031  1.00  0.00    -0.032 C 
HETATM    9  C11 UNL     1      -3.075  51.860 -22.008  1.00  0.00     0.016 C 
HETATM   10  C12 UNL     1      -1.045  50.816 -20.889  1.00  0.00    -0.002 C 
HETATM   11  C21 UNL     1      -1.832  50.338 -19.640  1.00  0.00     0.006 C 
HETATM   12  C22 UNL     1      -3.020  49.492 -20.125  1.00  0.00     0.011 C 
HETATM   13  C23 UNL     1      -2.779  49.279 -21.630  1.00  0.00    -0.032 C 
HETATM   14  C24 UNL     1      -1.852  48.028 -21.750  1.00  0.00     0.016 C 
HETATM   15  C25 UNL     1      -4.968  50.150 -24.652  1.00  0.00     0.022 A 
HETATM   16  C26 UNL     1      -4.841  48.681 -24.992  1.00  0.00    -0.022 A 
ENDROOT
BRANCH  10  17
HETATM   17  C13 UNL     1      -0.338  52.192 -20.675  1.00  0.00    -0.014 C 
HETATM   18  C14 UNL     1       1.133  52.145 -21.117  1.00  0.00     0.010 C 
BRANCH  17  19
HETATM   19  C15 UNL     1      -0.361  52.644 -19.186  1.00  0.00     0.008 C 
BRANCH  19  20
HETATM   20  C16 UNL     1       1.020  52.741 -18.527  1.00  0.00     0.028 C 
BRANCH  20  21
HETATM   21  C17 UNL     1       1.031  52.064 -17.182  1.00  0.00    -0.025 C 
HETATM   22  C18 UNL     1       2.032  52.051 -16.280  1.00  0.00    -0.091 C 
HETATM   23  C19 UNL     1       1.894  51.286 -14.990  1.00  0.00     0.042 C 
HETATM   24  C20 UNL     1       3.340  52.776 -16.436  1.00  0.00     0.042 C 
ENDBRANCH  20  21
ENDBRANCH  19  20
ENDBRANCH  17  19
ENDBRANCH  10  17
BRANCH  16  25
HETATM   25  C27 UNL     1      -4.324  48.301 -26.392  1.00  0.00     0.021 C 
BRANCH  25  26
HETATM   26  C28 UNL     1      -3.059  49.055 -26.809  1.00  0.00     0.111 C 
BRANCH  26  27
HETATM   27  C29 UNL     1      -3.360  50.076 -27.872  1.00  0.00     0.139 C 
HETATM   28  O2  UNL     1      -3.087  51.264 -27.864  1.00  0.00    -0.650 OA
BRANCH  27  29
HETATM   29  O3  UNL     1      -4.008  49.532 -28.922  1.00  0.00    -0.776 OA
HETATM   30  H46 UNL     1      -4.138  50.284 -29.535  1.00  0.00     0.167 HD
ENDBRANCH  27  29
ENDBRANCH  26  27
ENDBRANCH  25  26
ENDBRANCH  16  25
BRANCH   2  31
HETATM   31  O1  UNL     1      -6.772  46.502 -22.520  1.00  0.00    -0.395 OA
HETATM   32  H6  UNL     1      -7.612  46.457 -23.010  1.00  0.00     0.210 HD
ENDBRANCH   2  31
BRANCH   1  33
HETATM   33  C2  UNL     1      -7.281  47.926 -25.134  1.00  0.00    -0.029 C 
HETATM   34  C1  UNL     1      -8.241  48.720 -24.641  1.00  0.00     0.007 C 
ENDBRANCH   1  33
TORSDOF 10
ENDMDL
MODEL 4
REMARK minimizedAffinity -7.30346823
REMARK CNNscore 0.369001418
REMARK CNNaffinity 6.51801825
REMARK  10 active torsions:
REMARK  status: ('A' for Active; 'I' for Inactive)
REMARK    1  A    between atoms: C2_2  and  C3_3 
REMARK    2  A    between atoms: C4_4  and  O1_5 
REMARK    3  A    between atoms: C12_13  and  C13_14 
REMARK    4  A    between atoms: C13_14  and  C15_16 
REMARK    5  A    between atoms: C15_16  and  C16_17 
REMARK    6  A    between atoms: C16_17  and  C17_18 
REMARK    7  A    between atoms: C26_27  and  C27_28 
REMARK    8  A    between atoms: C27_28  and  C28_29 
REMARK    9  A    between atoms: C28_29  and  C29_30 
REMARK   10  A    between atoms: C29_30  and  O3_32 
ROOT
HETATM    1  C3  UNL     1      -6.772  47.587 -19.273  1.00  0.00     0.045 C 
HETATM    2  C4  UNL     1      -5.681  48.320 -18.456  1.00  0.00     0.127 C 
HETATM    3  C5  UNL     1      -4.310  48.154 -19.096  1.00  0.00     0.038 C 
HETATM    4  C6  UNL     1      -4.258  48.911 -20.426  1.00  0.00     0.006 C 
HETATM    5  C7  UNL     1      -5.345  48.404 -21.403  1.00  0.00    -0.027 A 
HETATM    6  C8  UNL     1      -4.860  47.936 -22.779  1.00  0.00     0.011 C 
HETATM    7  C9  UNL     1      -3.691  48.703 -23.424  1.00  0.00     0.011 C 
HETATM    8  C10 UNL     1      -2.932  49.643 -22.479  1.00  0.00    -0.032 C 
HETATM    9  C11 UNL     1      -3.675  51.014 -22.466  1.00  0.00     0.016 C 
HETATM   10  C12 UNL     1      -1.419  49.892 -22.803  1.00  0.00    -0.002 C 
HETATM   11  C21 UNL     1      -0.860  50.336 -21.425  1.00  0.00     0.006 C 
HETATM   12  C22 UNL     1      -1.847  49.872 -20.341  1.00  0.00     0.011 C 
HETATM   13  C23 UNL     1      -2.844  48.952 -21.069  1.00  0.00    -0.032 C 
HETATM   14  C24 UNL     1      -2.200  47.530 -21.076  1.00  0.00     0.016 C 
HETATM   15  C25 UNL     1      -6.657  49.163 -21.380  1.00  0.00     0.022 A 
HETATM   16  C26 UNL     1      -6.643  47.764 -20.806  1.00  0.00    -0.022 A 
ENDROOT
BRANCH  10  17
HETATM   17  C13 UNL     1      -1.010  50.851 -23.965  1.00  0.00    -0.014 C 
HETATM   18  C14 UNL     1      -1.073  52.323 -23.530  1.00  0.00     0.010 C 
BRANCH  17  19
HETATM   19  C15 UNL     1      -1.929  50.696 -25.212  1.00  0.00     0.008 C 
BRANCH  19  20
HETATM   20  C16 UNL     1      -1.181  50.469 -26.531  1.00  0.00     0.028 C 
BRANCH  20  21
HETATM   21  C17 UNL     1       0.297  50.708 -26.368  1.00  0.00    -0.025 C 
HETATM   22  C18 UNL     1       1.078  51.533 -27.092  1.00  0.00    -0.091 C 
HETATM   23  C19 UNL     1       2.557  51.624 -26.822  1.00  0.00     0.042 C 
HETATM   24  C20 UNL     1       0.591  52.431 -28.195  1.00  0.00     0.042 C 
ENDBRANCH  20  21
ENDBRANCH  19  20
ENDBRANCH  17  19
ENDBRANCH  10  17
BRANCH  16  25
HETATM   25  C27 UNL     1      -7.366  46.651 -21.586  1.00  0.00     0.021 C 
BRANCH  25  26
HETATM   26  C28 UNL     1      -8.873  46.592 -21.324  1.00  0.00     0.111 C 
BRANCH  26  27
HETATM   27  C29 UNL     1      -9.655  46.859 -22.581  1.00  0.00     0.139 C 
HETATM   28  O2  UNL     1      -9.314  47.523 -23.545  1.00  0.00    -0.650 OA
BRANCH  27  29
HETATM   29  O3  UNL     1     -10.862  46.257 -22.559  1.00  0.00    -0.776 OA
HETATM   30  H46 UNL     1     -11.263  46.499 -23.419  1.00  0.00     0.167 HD
ENDBRANCH  27  29
ENDBRANCH  26  27
ENDBRANCH  25  26
ENDBRANCH  16  25
BRANCH   2  31
HETATM   31  O1  UNL     1      -5.594  47.771 -17.133  1.00  0.00    -0.395 OA
HETATM   32  H6  UNL     1      -6.483  47.832 -16.741  1.00  0.00     0.210 HD
ENDBRANCH   2  31
BRANCH   1  33
HETATM   33  C2  UNL     1      -8.140  47.989 -18.744  1.00  0.00    -0.029 C 
HETATM   34  C1  UNL     1      -8.448  49.208 -18.281  1.00  0.00     0.007 C 
ENDBRANCH   1  33
TORSDOF 10
ENDMDL
MODEL 5
REMARK minimizedAffinity -6.925982
REMARK CNNscore 0.310900152
REMARK CNNaffinity 5.49670267
REMARK  10 active torsions:
REMARK  status: ('A' for Active; 'I' for Inactive)
REMARK    1  A    between atoms: C2_2  and  C3_3 
REMARK    2  A    between atoms: C4_4  and  O1_5 
REMARK    3  A    between atoms: C12_13  and  C13_14 
REMARK    4  A    between atoms: C13_14  and  C15_16 
REMARK    5  A    between atoms: C15_16  and  C16_17 
REMARK    6  A    between atoms: C16_17  and  C17_18 
REMARK    7  A    between atoms: C26_27  and  C27_28 
REMARK    8  A    between atoms: C27_28  and  C28_29 
REMARK    9  A    between atoms: C28_29  and  C29_30 
REMARK   10  A    between atoms: C29_30  and  O3_32 
ROOT
HETATM    1  C3  UNL     1      -9.112  46.701 -31.934  1.00  0.00     0.045 C 
HETATM    2  C4  UNL     1     -10.613  46.501 -32.253  1.00  0.00     0.127 C 
HETATM    3  C5  UNL     1     -11.309  45.706 -31.157  1.00  0.00     0.038 C 
HETATM    4  C6  UNL     1     -11.377  46.536 -29.872  1.00  0.00     0.006 C 
HETATM    5  C7  UNL     1      -9.964  46.945 -29.393  1.00  0.00    -0.027 A 
HETATM    6  C8  UNL     1      -9.594  46.560 -27.956  1.00  0.00     0.011 C 
HETATM    7  C9  UNL     1     -10.704  46.625 -26.890  1.00  0.00     0.011 C 
HETATM    8  C10 UNL     1     -12.128  46.755 -27.444  1.00  0.00    -0.032 C 
HETATM    9  C11 UNL     1     -12.417  48.270 -27.674  1.00  0.00     0.016 C 
HETATM   10  C12 UNL     1     -13.279  46.148 -26.570  1.00  0.00    -0.002 C 
HETATM   11  C21 UNL     1     -14.396  45.915 -27.621  1.00  0.00     0.006 C 
HETATM   12  C22 UNL     1     -13.743  45.902 -29.013  1.00  0.00     0.011 C 
HETATM   13  C23 UNL     1     -12.227  45.883 -28.748  1.00  0.00    -0.032 C 
HETATM   14  C24 UNL     1     -11.837  44.382 -28.563  1.00  0.00     0.016 C 
HETATM   15  C25 UNL     1      -9.472  48.297 -29.869  1.00  0.00     0.022 A 
HETATM   16  C26 UNL     1      -8.822  47.064 -30.456  1.00  0.00    -0.022 A 
ENDROOT
BRANCH  10  17
HETATM   17  C13 UNL     1     -13.783  46.902 -25.300  1.00  0.00    -0.014 C 
HETATM   18  C14 UNL     1     -12.985  46.497 -24.050  1.00  0.00     0.010 C 
BRANCH  17  19
HETATM   19  C15 UNL     1     -15.285  46.621 -25.001  1.00  0.00     0.008 C 
BRANCH  19  20
HETATM   20  C16 UNL     1     -15.794  47.210 -23.681  1.00  0.00     0.028 C 
BRANCH  20  21
HETATM   21  C17 UNL     1     -16.861  46.339 -23.071  1.00  0.00    -0.025 C 
HETATM   22  C18 UNL     1     -18.171  46.312 -23.381  1.00  0.00    -0.091 C 
HETATM   23  C19 UNL     1     -19.117  45.402 -22.641  1.00  0.00     0.042 C 
HETATM   24  C20 UNL     1     -18.818  47.135 -24.460  1.00  0.00     0.042 C 
ENDBRANCH  20  21
ENDBRANCH  19  20
ENDBRANCH  17  19
ENDBRANCH  10  17
BRANCH  16  25
HETATM   25  C27 UNL     1      -7.371  46.744 -30.050  1.00  0.00     0.021 C 
BRANCH  25  26
HETATM   26  C28 UNL     1      -6.406  47.917 -30.231  1.00  0.00     0.111 C 
BRANCH  26  27
HETATM   27  C29 UNL     1      -5.576  48.135 -28.995  1.00  0.00     0.139 C 
HETATM   28  O2  UNL     1      -4.362  48.085 -28.894  1.00  0.00    -0.650 OA
BRANCH  27  29
HETATM   29  O3  UNL     1      -6.340  48.412 -27.919  1.00  0.00    -0.776 OA
HETATM   30  H46 UNL     1      -5.693  48.536 -27.195  1.00  0.00     0.167 HD
ENDBRANCH  27  29
ENDBRANCH  26  27
ENDBRANCH  25  26
ENDBRANCH  16  25
BRANCH   2  31
HETATM   31  O1  UNL     1     -10.769  45.758 -33.471  1.00  0.00    -0.395 OA
HETATM   32  H6  UNL     1     -10.283  46.241 -34.163  1.00  0.00     0.210 HD
ENDBRANCH   2  31
BRANCH   1  33
HETATM   33  C2  UNL     1      -8.526  47.703 -32.916  1.00  0.00    -0.029 C 
HETATM   34  C1  UNL     1      -7.629  47.403 -33.864  1.00  0.00     0.007 C 
ENDBRANCH   1  33
TORSDOF 10
ENDMDL
MODEL 6
REMARK minimizedAffinity -8.85960674
REMARK CNNscore 0.238117635
REMARK CNNaffinity 6.22209024
REMARK  10 active torsions:
REMARK  status: ('A' for Active; 'I' for Inactive)
REMARK    1  A    between atoms: C2_2  and  C3_3 
REMARK    2  A    between atoms: C4_4  and  O1_5 
REMARK    3  A    between atoms: C12_13  and  C13_14 
REMARK    4  A    between atoms: C13_14  and  C15_16 
REMARK    5  A    between atoms: C15_16  and  C16_17 
REMARK    6  A    between atoms: C16_17  and  C17_18 
REMARK    7  A    between atoms: C26_27  and  C27_28 
REMARK    8  A    between atoms: C27_28  and  C28_29 
REMARK    9  A    between atoms: C28_29  and  C29_30 
REMARK   10  A    between atoms: C29_30  and  O3_32 
ROOT
HETATM    1  C3  UNL     1      -1.024  51.340 -19.395  1.00  0.00     0.045 C 
HETATM    2  C4  UNL     1      -2.493  50.949 -19.108  1.00  0.00     0.127 C 
HETATM    3  C5  UNL     1      -3.379  51.210 -20.319  1.00  0.00     0.038 C 
HETATM    4  C6  UNL     1      -3.019  50.241 -21.449  1.00  0.00     0.006 C 
HETATM    5  C7  UNL     1      -1.534  50.385 -21.859  1.00  0.00    -0.027 A 
HETATM    6  C8  UNL     1      -1.259  50.666 -23.340  1.00  0.00     0.011 C 
HETATM    7  C9  UNL     1      -2.174  49.988 -24.377  1.00  0.00     0.011 C 
HETATM    8  C10 UNL     1      -3.455  49.367 -23.806  1.00  0.00    -0.032 C 
HETATM    9  C11 UNL     1      -3.115  47.922 -23.328  1.00  0.00     0.016 C 
HETATM   10  C12 UNL     1      -4.693  49.305 -24.764  1.00  0.00    -0.002 C 
HETATM   11  C21 UNL     1      -5.875  49.212 -23.763  1.00  0.00     0.006 C 
HETATM   12  C22 UNL     1      -5.376  49.704 -22.394  1.00  0.00     0.011 C 
HETATM   13  C23 UNL     1      -3.986  50.307 -22.663  1.00  0.00    -0.032 C 
HETATM   14  C24 UNL     1      -4.230  51.788 -23.094  1.00  0.00     0.016 C 
HETATM   15  C25 UNL     1      -0.565  49.446 -21.167  1.00  0.00     0.022 A 
HETATM   16  C26 UNL     1      -0.514  50.911 -20.793  1.00  0.00    -0.022 A 
ENDROOT
BRANCH  10  17
HETATM   17  C13 UNL     1      -4.762  48.228 -25.891  1.00  0.00    -0.014 C 
HETATM   18  C14 UNL     1      -3.846  48.587 -27.072  1.00  0.00     0.010 C 
BRANCH  17  19
HETATM   19  C15 UNL     1      -6.202  48.054 -26.458  1.00  0.00     0.008 C 
BRANCH  19  20
HETATM   20  C16 UNL     1      -6.279  47.277 -27.777  1.00  0.00     0.028 C 
BRANCH  20  21
HETATM   21  C17 UNL     1      -6.967  48.085 -28.846  1.00  0.00    -0.025 C 
HETATM   22  C18 UNL     1      -8.288  48.145 -29.104  1.00  0.00    -0.091 C 
HETATM   23  C19 UNL     1      -8.810  48.978 -30.245  1.00  0.00     0.042 C 
HETATM   24  C20 UNL     1      -9.353  47.434 -28.315  1.00  0.00     0.042 C 
ENDBRANCH  20  21
ENDBRANCH  19  20
ENDBRANCH  17  19
ENDBRANCH  10  17
BRANCH  16  25
HETATM   25  C27 UNL     1       0.703  51.736 -21.251  1.00  0.00     0.021 C 
BRANCH  25  26
HETATM   26  C28 UNL     1       0.371  53.189 -21.594  1.00  0.00     0.111 C 
BRANCH  26  27
HETATM   27  C29 UNL     1       1.409  54.129 -21.044  1.00  0.00     0.139 C 
HETATM   28  O2  UNL     1       2.138  54.882 -21.666  1.00  0.00    -0.650 OA
BRANCH  27  29
HETATM   29  O3  UNL     1       1.478  54.069 -19.698  1.00  0.00    -0.776 OA
HETATM   30  H46 UNL     1       2.173  54.719 -19.468  1.00  0.00     0.167 HD
ENDBRANCH  27  29
ENDBRANCH  26  27
ENDBRANCH  25  26
ENDBRANCH  16  25
BRANCH   2  31
HETATM   31  O1  UNL     1      -3.018  51.736 -18.029  1.00  0.00    -0.395 OA
HETATM   32  H6  UNL     1      -2.423  51.608 -17.269  1.00  0.00     0.210 HD
ENDBRANCH   2  31
BRANCH   1  33
HETATM   33  C2  UNL     1      -0.145  50.831 -18.263  1.00  0.00    -0.029 C 
HETATM   34  C1  UNL     1       0.482  51.615 -17.376  1.00  0.00     0.007 C 
ENDBRANCH   1  33
TORSDOF 10
ENDMDL
MODEL 7
REMARK minimizedAffinity -7.89308119
REMARK CNNscore 0.230119005
REMARK CNNaffinity 6.58024836
REMARK  10 active torsions:
REMARK  status: ('A' for Active; 'I' for Inactive)
REMARK    1  A    between atoms: C2_2  and  C3_3 
REMARK    2  A    between atoms: C4_4  and  O1_5 
REMARK    3  A    between atoms: C12_13  and  C13_14 
REMARK    4  A    between atoms: C13_14  and  C15_16 
REMARK    5  A    between atoms: C15_16  and  C16_17 
REMARK    6  A    between atoms: C16_17  and  C17_18 
REMARK    7  A    between atoms: C26_27  and  C27_28 
REMARK    8  A    between atoms: C27_28  and  C28_29 
REMARK    9  A    between atoms: C28_29  and  C29_30 
REMARK   10  A    between atoms: C29_30  and  O3_32 
ROOT
HETATM    1  C3  UNL     1      -0.453  52.885 -23.694  1.00  0.00     0.045 C 
HETATM    2  C4  UNL     1       0.477  52.608 -22.489  1.00  0.00     0.127 C 
HETATM    3  C5  UNL     1      -0.325  52.247 -21.246  1.00  0.00     0.038 C 
HETATM    4  C6  UNL     1      -0.996  50.884 -21.435  1.00  0.00     0.006 C 
HETATM    5  C7  UNL     1      -1.931  50.885 -22.666  1.00  0.00    -0.027 A 
HETATM    6  C8  UNL     1      -3.385  50.466 -22.420  1.00  0.00     0.011 C 
HETATM    7  C9  UNL     1      -3.641  49.350 -21.390  1.00  0.00     0.011 C 
HETATM    8  C10 UNL     1      -2.446  49.008 -20.492  1.00  0.00    -0.032 C 
HETATM    9  C11 UNL     1      -1.568  47.959 -21.241  1.00  0.00     0.016 C 
HETATM   10  C12 UNL     1      -2.777  48.461 -19.061  1.00  0.00    -0.002 C 
HETATM   11  C21 UNL     1      -1.477  48.790 -18.279  1.00  0.00     0.006 C 
HETATM   12  C22 UNL     1      -0.716  49.875 -19.059  1.00  0.00     0.011 C 
HETATM   13  C23 UNL     1      -1.691  50.345 -20.154  1.00  0.00    -0.032 C 
HETATM   14  C24 UNL     1      -2.579  51.451 -19.501  1.00  0.00     0.016 C 
HETATM   15  C25 UNL     1      -1.311  50.409 -23.966  1.00  0.00     0.022 A 
HETATM   16  C26 UNL     1      -1.626  51.883 -23.833  1.00  0.00    -0.022 A 
ENDROOT
BRANCH  10  17
HETATM   17  C13 UNL     1      -3.246  46.985 -18.872  1.00  0.00    -0.014 C 
HETATM   18  C14 UNL     1      -3.411  46.268 -20.221  1.00  0.00     0.010 C 
BRANCH  17  19
HETATM   19  C15 UNL     1      -4.609  46.888 -18.126  1.00  0.00     0.008 C 
BRANCH  19  20
HETATM   20  C16 UNL     1      -5.837  46.838 -19.043  1.00  0.00     0.028 C 
BRANCH  20  21
HETATM   21  C17 UNL     1      -7.015  47.534 -18.415  1.00  0.00    -0.025 C 
HETATM   22  C18 UNL     1      -7.563  48.709 -18.782  1.00  0.00    -0.091 C 
HETATM   23  C19 UNL     1      -8.723  49.289 -18.016  1.00  0.00     0.042 C 
HETATM   24  C20 UNL     1      -7.115  49.539 -19.953  1.00  0.00     0.042 C 
ENDBRANCH  20  21
ENDBRANCH  19  20
ENDBRANCH  17  19
ENDBRANCH  10  17
BRANCH  16  25
HETATM   25  C27 UNL     1      -2.788  52.455 -24.666  1.00  0.00     0.021 C 
BRANCH  25  26
HETATM   26  C28 UNL     1      -3.135  51.619 -25.899  1.00  0.00     0.111 C 
BRANCH  26  27
HETATM   27  C29 UNL     1      -2.617  52.264 -27.156  1.00  0.00     0.139 C 
HETATM   28  O2  UNL     1      -2.161  53.387 -27.286  1.00  0.00    -0.650 OA
BRANCH  27  29
HETATM   29  O3  UNL     1      -2.703  51.436 -28.217  1.00  0.00    -0.776 OA
HETATM   30  H46 UNL     1      -2.337  51.961 -28.958  1.00  0.00     0.167 HD
ENDBRANCH  27  29
ENDBRANCH  26  27
ENDBRANCH  25  26
ENDBRANCH  16  25
BRANCH   2  31
HETATM   31  O1  UNL     1       1.241  53.780 -22.168  1.00  0.00    -0.395 OA
HETATM   32  H6  UNL     1       1.716  54.040 -22.977  1.00  0.00     0.210 HD
ENDBRANCH   2  31
BRANCH   1  33
HETATM   33  C2  UNL     1       0.390  52.989 -24.956  1.00  0.00    -0.029 C 
HETATM   34  C1  UNL     1       1.225  52.037 -25.393  1.00  0.00     0.007 C 
ENDBRANCH   1  33
TORSDOF 10
ENDMDL
MODEL 8
REMARK minimizedAffinity -8.58614159
REMARK CNNscore 0.229300261
REMARK CNNaffinity 6.47399187
REMARK  10 active torsions:
REMARK  status: ('A' for Active; 'I' for Inactive)
REMARK    1  A    between atoms: C2_2  and  C3_3 
REMARK    2  A    between atoms: C4_4  and  O1_5 
REMARK    3  A    between atoms: C12_13  and  C13_14 
REMARK    4  A    between atoms: C13_14  and  C15_16 
REMARK    5  A    between atoms: C15_16  and  C16_17 
REMARK    6  A    between atoms: C16_17  and  C17_18 
REMARK    7  A    between atoms: C26_27  and  C27_28 
REMARK    8  A    between atoms: C27_28  and  C28_29 
REMARK    9  A    between atoms: C28_29  and  C29_30 
REMARK   10  A    between atoms: C29_30  and  O3_32 
ROOT
HETATM    1  C3  UNL     1      -3.784  49.472 -26.507  1.00  0.00     0.045 C 
HETATM    2  C4  UNL     1      -2.366  50.060 -26.699  1.00  0.00     0.127 C 
HETATM    3  C5  UNL     1      -2.101  51.193 -25.716  1.00  0.00     0.038 C 
HETATM    4  C6  UNL     1      -2.014  50.640 -24.291  1.00  0.00     0.006 C 
HETATM    5  C7  UNL     1      -3.317  49.909 -23.893  1.00  0.00    -0.027 A 
HETATM    6  C8  UNL     1      -4.005  50.390 -22.611  1.00  0.00     0.011 C 
HETATM    7  C9  UNL     1      -3.106  50.834 -21.442  1.00  0.00     0.011 C 
HETATM    8  C10 UNL     1      -1.631  51.051 -21.803  1.00  0.00    -0.032 C 
HETATM    9  C11 UNL     1      -0.903  49.676 -21.692  1.00  0.00     0.016 C 
HETATM   10  C12 UNL     1      -0.848  52.108 -20.951  1.00  0.00    -0.002 C 
HETATM   11  C21 UNL     1       0.315  52.494 -21.902  1.00  0.00     0.006 C 
HETATM   12  C22 UNL     1      -0.084  52.085 -23.330  1.00  0.00     0.011 C 
HETATM   13  C23 UNL     1      -1.569  51.691 -23.238  1.00  0.00    -0.032 C 
HETATM   14  C24 UNL     1      -2.382  53.014 -23.400  1.00  0.00     0.016 C 
HETATM   15  C25 UNL     1      -3.335  48.412 -24.138  1.00  0.00     0.022 A 
HETATM   16  C26 UNL     1      -4.197  49.282 -25.027  1.00  0.00    -0.022 A 
ENDROOT
BRANCH  10  17
HETATM   17  C13 UNL     1      -0.367  51.756 -19.509  1.00  0.00    -0.014 C 
HETATM   18  C14 UNL     1      -1.537  51.320 -18.614  1.00  0.00     0.010 C 
BRANCH  17  19
HETATM   19  C15 UNL     1       0.331  52.958 -18.807  1.00  0.00     0.008 C 
BRANCH  19  20
HETATM   20  C16 UNL     1       1.717  52.644 -18.233  1.00  0.00     0.028 C 
BRANCH  20  21
HETATM   21  C17 UNL     1       1.627  52.228 -16.788  1.00  0.00    -0.025 C 
HETATM   22  C18 UNL     1       2.633  52.144 -15.897  1.00  0.00    -0.091 C 
HETATM   23  C19 UNL     1       2.376  51.668 -14.491  1.00  0.00     0.042 C 
HETATM   24  C20 UNL     1       4.065  52.511 -16.176  1.00  0.00     0.042 C 
ENDBRANCH  20  21
ENDBRANCH  19  20
ENDBRANCH  17  19
ENDBRANCH  10  17
BRANCH  16  25
HETATM   25  C27 UNL     1      -5.725  49.212 -24.849  1.00  0.00     0.021 C 
BRANCH  25  26
HETATM   26  C28 UNL     1      -6.237  47.831 -24.438  1.00  0.00     0.111 C 
BRANCH  26  27
HETATM   27  C29 UNL     1      -7.307  47.344 -25.378  1.00  0.00     0.139 C 
HETATM   28  O2  UNL     1      -7.952  46.313 -25.304  1.00  0.00    -0.650 OA
BRANCH  27  29
HETATM   29  O3  UNL     1      -7.515  48.209 -26.392  1.00  0.00    -0.776 OA
HETATM   30  H46 UNL     1      -8.224  47.788 -26.920  1.00  0.00     0.167 HD
ENDBRANCH  27  29
ENDBRANCH  26  27
ENDBRANCH  25  26
ENDBRANCH  16  25
BRANCH   2  31
HETATM   31  O1  UNL     1      -2.227  50.609 -28.017  1.00  0.00    -0.395 OA
HETATM   32  H6  UNL     1      -2.444  49.898 -28.646  1.00  0.00     0.210 HD
ENDBRANCH   2  31
BRANCH   1  33
HETATM   33  C2  UNL     1      -3.906  48.196 -27.324  1.00  0.00    -0.029 C 
HETATM   34  C1  UNL     1      -4.686  48.056 -28.405  1.00  0.00     0.007 C 
ENDBRANCH   1  33
TORSDOF 10
ENDMDL
MODEL 9
REMARK minimizedAffinity -8.26824665
REMARK CNNscore 0.21686326
REMARK CNNaffinity 6.38042641
REMARK  10 active torsions:
REMARK  status: ('A' for Active; 'I' for Inactive)
REMARK    1  A    between atoms: C2_2  and  C3_3 
REMARK    2  A    between atoms: C4_4  and  O1_5 
REMARK    3  A    between atoms: C12_13  and  C13_14 
REMARK    4  A    between atoms: C13_14  and  C15_16 
REMARK    5  A    between atoms: C15_16  and  C16_17 
REMARK    6  A    between atoms: C16_17  and  C17_18 
REMARK    7  A    between atoms: C26_27  and  C27_28 
REMARK    8  A    between atoms: C27_28  and  C28_29 
REMARK    9  A    between atoms: C28_29  and  C29_30 
REMARK   10  A    between atoms: C29_30  and  O3_32 
ROOT
HETATM    1  C3  UNL     1      -5.952  48.031 -19.947  1.00  0.00     0.045 C 
HETATM    2  C4  UNL     1      -5.242  48.759 -18.782  1.00  0.00     0.127 C 
HETATM    3  C5  UNL     1      -3.730  48.738 -18.959  1.00  0.00     0.038 C 
HETATM    4  C6  UNL     1      -3.331  49.609 -20.154  1.00  0.00     0.006 C 
HETATM    5  C7  UNL     1      -4.008  49.119 -21.455  1.00  0.00    -0.027 A 
HETATM    6  C8  UNL     1      -3.077  48.804 -22.631  1.00  0.00     0.011 C 
HETATM    7  C9  UNL     1      -1.837  49.698 -22.821  1.00  0.00     0.011 C 
HETATM    8  C10 UNL     1      -1.499  50.600 -21.627  1.00  0.00    -0.032 C 
HETATM    9  C11 UNL     1      -2.328  51.913 -21.768  1.00  0.00     0.016 C 
HETATM   10  C12 UNL     1       0.011  50.973 -21.435  1.00  0.00    -0.002 C 
HETATM   11  C21 UNL     1       0.068  51.331 -19.926  1.00  0.00     0.006 C 
HETATM   12  C22 UNL     1      -1.164  50.713 -19.245  1.00  0.00     0.011 C 
HETATM   13  C23 UNL     1      -1.797  49.797 -20.308  1.00  0.00    -0.032 C 
HETATM   14  C24 UNL     1      -1.059  48.425 -20.197  1.00  0.00     0.016 C 
HETATM   15  C25 UNL     1      -5.323  49.787 -21.807  1.00  0.00     0.022 A 
HETATM   16  C26 UNL     1      -5.365  48.347 -21.345  1.00  0.00    -0.022 A 
ENDROOT
BRANCH  10  17
HETATM   17  C13 UNL     1       0.676  52.053 -22.345  1.00  0.00    -0.014 C 
HETATM   18  C14 UNL     1       0.835  53.392 -21.607  1.00  0.00     0.010 C 
BRANCH  17  19
HETATM   19  C15 UNL     1      -0.147  52.329 -23.636  1.00  0.00     0.008 C 
BRANCH  19  20
HETATM   20  C16 UNL     1       0.526  53.283 -24.630  1.00  0.00     0.028 C 
BRANCH  20  21
HETATM   21  C17 UNL     1       0.303  52.835 -26.051  1.00  0.00    -0.025 C 
HETATM   22  C18 UNL     1       1.106  52.053 -26.798  1.00  0.00    -0.091 C 
HETATM   23  C19 UNL     1       0.753  51.730 -28.226  1.00  0.00     0.042 C 
HETATM   24  C20 UNL     1       2.385  51.423 -26.317  1.00  0.00     0.042 C 
ENDBRANCH  20  21
ENDBRANCH  19  20
ENDBRANCH  17  19
ENDBRANCH  10  17
BRANCH  16  25
HETATM   25  C27 UNL     1      -5.707  47.261 -22.382  1.00  0.00     0.021 C 
BRANCH  25  26
HETATM   26  C28 UNL     1      -6.844  47.648 -23.329  1.00  0.00     0.111 C 
BRANCH  26  27
HETATM   27  C29 UNL     1      -6.332  48.440 -24.501  1.00  0.00     0.139 C 
HETATM   28  O2  UNL     1      -5.382  48.180 -25.219  1.00  0.00    -0.650 OA
BRANCH  27  29
HETATM   29  O3  UNL     1      -7.064  49.552 -24.714  1.00  0.00    -0.776 OA
HETATM   30  H46 UNL     1      -6.640  49.969 -25.492  1.00  0.00     0.167 HD
ENDBRANCH  27  29
ENDBRANCH  26  27
ENDBRANCH  25  26
ENDBRANCH  16  25
BRANCH   2  31
HETATM   31  O1  UNL     1      -5.526  48.105 -17.537  1.00  0.00    -0.395 OA
HETATM   32  H6  UNL     1      -6.494  48.074 -17.446  1.00  0.00     0.210 HD
ENDBRANCH   2  31
BRANCH   1  33
HETATM   33  C2  UNL     1      -7.447  48.296 -19.859  1.00  0.00    -0.029 C 
HETATM   34  C1  UNL     1      -8.258  48.438 -20.916  1.00  0.00     0.007 C 
ENDBRANCH   1  33
TORSDOF 10
ENDMDL
