MODEL 1
REMARK minimizedAffinity -9.97488785
REMARK CNNscore 0.600101769
REMARK CNNaffinity 7.1667428
REMARK  7 active torsions:
REMARK  status: ('A' for Active; 'I' for Inactive)
REMARK    1  A    between atoms: C5_5  and  C6_6 
REMARK    2  A    between atoms: C8_8  and  O1_9 
REMARK    3  A    between atoms: C10_11  and  C11_12 
REMARK    4  A    between atoms: C11_12  and  O2_13 
REMARK    5  A    between atoms: C20_24  and  O5_25 
REMARK    6  A    between atoms: C25_30  and  C26_31 
REMARK    7  A    between atoms: C26_31  and  O6_32 
ROOT
HETATM    1  C1  UNL     1      -3.448  46.148 -21.426  1.00  0.00     0.036 C 
HETATM    2  C2  UNL     1      -4.064  46.963 -20.334  1.00  0.00    -0.018 C 
HETATM    3  C3  UNL     1      -3.656  48.162 -19.860  1.00  0.00     0.015 C 
HETATM    4  C4  UNL     1      -4.422  48.880 -18.770  1.00  0.00     0.066 C 
HETATM    5  C5  UNL     1      -4.023  48.575 -17.298  1.00  0.00     0.102 C 
HETATM    6  C13 UNL     1      -2.865  49.385 -16.864  1.00  0.00    -0.096 C 
HETATM    7  C14 UNL     1      -1.975  50.132 -16.552  1.00  0.00    -0.096 C 
HETATM    8  C15 UNL     1      -0.908  51.130 -16.311  1.00  0.00     0.110 C 
HETATM    9  C16 UNL     1       0.242  50.481 -15.559  1.00  0.00     0.133 C 
HETATM   10  C17 UNL     1       1.393  51.434 -15.430  1.00  0.00     0.265 C 
HETATM   11  O3  UNL     1       1.995  51.604 -14.374  1.00  0.00    -0.265 OA
HETATM   12  O4  UNL     1       1.796  52.047 -16.609  1.00  0.00    -0.278 OA
HETATM   13  C18 UNL     1       0.932  52.102 -17.714  1.00  0.00     0.089 A 
HETATM   14  C19 UNL     1       1.452  52.594 -18.908  1.00  0.00     0.075 A 
HETATM   15  C20 UNL     1       0.623  52.691 -20.023  1.00  0.00     0.074 A 
HETATM   16  C21 UNL     1      -0.725  52.326 -19.954  1.00  0.00    -0.022 A 
HETATM   17  C22 UNL     1      -1.231  51.889 -18.720  1.00  0.00     0.021 A 
HETATM   18  C23 UNL     1      -0.400  51.716 -17.606  1.00  0.00    -0.007 A 
HETATM   19  C24 UNL     1      -1.632  52.216 -21.164  1.00  0.00     0.077 C 
HETATM   20  C25 UNL     1      -1.730  50.744 -21.626  1.00  0.00     0.171 C 
HETATM   21  O8  UNL     1      -2.732  50.084 -20.803  1.00  0.00    -0.309 OA
HETATM   22  C36 UNL     1      -2.456  48.798 -20.461  1.00  0.00     0.289 C 
HETATM   23  O9  UNL     1      -1.411  48.210 -20.692  1.00  0.00    -0.260 OA
ENDROOT
BRANCH  20  24
HETATM   24  C26 UNL     1      -2.091  50.557 -23.146  1.00  0.00     0.089 C 
HETATM   25  C27 UNL     1      -2.360  49.068 -23.448  1.00  0.00     0.041 C 
HETATM   26  C28 UNL     1      -2.904  48.843 -24.862  1.00  0.00     0.004 C 
HETATM   27  C29 UNL     1      -2.317  49.803 -25.897  1.00  0.00     0.005 C 
HETATM   28  C30 UNL     1      -0.945  50.347 -25.483  1.00  0.00    -0.001 C 
HETATM   29  C31 UNL     1      -0.339  51.169 -26.631  1.00  0.00     0.083 C 
HETATM   30  C35 UNL     1      -1.006  51.121 -24.123  1.00  0.00     0.027 C 
HETATM   31  C32 UNL     1       0.646  52.177 -26.097  1.00  0.00     0.127 C 
HETATM   32  O7  UNL     1       1.814  52.216 -26.481  1.00  0.00    -0.298 OA
HETATM   33  C33 UNL     1       0.109  53.181 -25.106  1.00  0.00     0.079 C 
HETATM   34  C34 UNL     1      -1.127  52.638 -24.390  1.00  0.00     0.015 C 
BRANCH  24  35
HETATM   35  O6  UNL     1      -3.323  51.251 -23.411  1.00  0.00    -0.387 OA
HETATM   36  H24 UNL     1      -3.947  51.070 -22.678  1.00  0.00     0.210 HD
ENDBRANCH  24  35
ENDBRANCH  20  24
BRANCH  15  37
HETATM   37  O5  UNL     1       1.201  53.135 -21.175  1.00  0.00    -0.360 OA
HETATM   38  H19 UNL     1       0.573  53.716 -21.632  1.00  0.00     0.217 HD
ENDBRANCH  15  37
BRANCH   5  39
HETATM   39  C6  UNL     1      -3.904  47.090 -16.994  1.00  0.00    -0.039 A 
HETATM   40  C7  UNL     1      -4.895  46.168 -17.365  1.00  0.00     0.045 A 
HETATM   41  C8  UNL     1      -4.768  44.825 -17.018  1.00  0.00     0.066 A 
HETATM   42  C9  UNL     1      -3.677  44.371 -16.287  1.00  0.00     0.045 A 
HETATM   43  C10 UNL     1      -2.688  45.277 -15.883  1.00  0.00    -0.032 A 
HETATM   44  C12 UNL     1      -2.799  46.625 -16.259  1.00  0.00     0.018 A 
BRANCH  41  45
HETATM   45  O1  UNL     1      -5.753  43.974 -17.424  1.00  0.00    -0.361 OA
HETATM   46  H9  UNL     1      -5.551  43.078 -17.112  1.00  0.00     0.217 HD
ENDBRANCH  41  45
BRANCH  43  47
HETATM   47  C11 UNL     1      -1.490  44.808 -15.101  1.00  0.00     0.203 C 
BRANCH  47  48
HETATM   48  O2  UNL     1      -0.834  43.746 -15.776  1.00  0.00    -0.396 OA
HETATM   49  H13 UNL     1      -1.339  43.538 -16.582  1.00  0.00     0.209 HD
ENDBRANCH  47  48
ENDBRANCH  43  47
ENDBRANCH   5  39
TORSDOF 7
ENDMDL
MODEL 2
REMARK minimizedAffinity -10.007266
REMARK CNNscore 0.553824902
REMARK CNNaffinity 6.65836
REMARK  7 active torsions:
REMARK  status: ('A' for Active; 'I' for Inactive)
REMARK    1  A    between atoms: C5_5  and  C6_6 
REMARK    2  A    between atoms: C8_8  and  O1_9 
REMARK    3  A    between atoms: C10_11  and  C11_12 
REMARK    4  A    between atoms: C11_12  and  O2_13 
REMARK    5  A    between atoms: C20_24  and  O5_25 
REMARK    6  A    between atoms: C25_30  and  C26_31 
REMARK    7  A    between atoms: C26_31  and  O6_32 
ROOT
HETATM    1  C1  UNL     1       1.828  56.431  -7.383  1.00  0.00     0.036 C 
HETATM    2  C2  UNL     1       3.052  56.406  -8.242  1.00  0.00    -0.018 C 
HETATM    3  C3  UNL     1       3.516  55.386  -8.999  1.00  0.00     0.015 C 
HETATM    4  C4  UNL     1       4.758  55.539  -9.850  1.00  0.00     0.066 C 
HETATM    5  C5  UNL     1       6.122  55.186  -9.192  1.00  0.00     0.102 C 
HETATM    6  C13 UNL     1       6.399  53.735  -9.245  1.00  0.00    -0.096 C 
HETATM    7  C14 UNL     1       6.598  52.558  -9.395  1.00  0.00    -0.096 C 
HETATM    8  C15 UNL     1       6.711  51.110  -9.681  1.00  0.00     0.110 C 
HETATM    9  C16 UNL     1       7.221  50.382  -8.449  1.00  0.00     0.133 C 
HETATM   10  C17 UNL     1       7.207  48.898  -8.669  1.00  0.00     0.265 C 
HETATM   11  O3  UNL     1       8.154  48.177  -8.370  1.00  0.00    -0.265 OA
HETATM   12  O4  UNL     1       6.013  48.377  -9.148  1.00  0.00    -0.278 OA
HETATM   13  C18 UNL     1       5.074  49.210  -9.777  1.00  0.00     0.089 A 
HETATM   14  C19 UNL     1       3.838  48.653 -10.096  1.00  0.00     0.075 A 
HETATM   15  C20 UNL     1       2.887  49.436 -10.745  1.00  0.00     0.074 A 
HETATM   16  C21 UNL     1       3.161  50.760 -11.099  1.00  0.00    -0.022 A 
HETATM   17  C22 UNL     1       4.436  51.272 -10.815  1.00  0.00     0.021 A 
HETATM   18  C23 UNL     1       5.383  50.527 -10.101  1.00  0.00    -0.007 A 
HETATM   19  C24 UNL     1       2.116  51.726 -11.623  1.00  0.00     0.077 C 
HETATM   20  C25 UNL     1       1.597  52.624 -10.476  1.00  0.00     0.171 C 
HETATM   21  O8  UNL     1       2.539  53.718 -10.304  1.00  0.00    -0.309 OA
HETATM   22  C36 UNL     1       2.758  54.109  -9.021  1.00  0.00     0.289 C 
HETATM   23  O9  UNL     1       2.322  53.553  -8.025  1.00  0.00    -0.260 OA
ENDROOT
BRANCH  20  24
HETATM   24  C26 UNL     1       0.151  53.202 -10.701  1.00  0.00     0.089 C 
HETATM   25  C27 UNL     1      -0.014  54.529  -9.930  1.00  0.00     0.041 C 
HETATM   26  C28 UNL     1      -1.329  55.242 -10.260  1.00  0.00     0.004 C 
HETATM   27  C29 UNL     1      -2.492  54.282 -10.514  1.00  0.00     0.005 C 
HETATM   28  C30 UNL     1      -2.294  52.925  -9.829  1.00  0.00    -0.001 C 
HETATM   29  C31 UNL     1      -3.562  52.071  -9.982  1.00  0.00     0.083 C 
HETATM   30  C35 UNL     1      -0.992  52.205 -10.317  1.00  0.00     0.027 C 
HETATM   31  C32 UNL     1      -3.227  50.605  -9.888  1.00  0.00     0.127 C 
HETATM   32  O7  UNL     1      -3.759  49.865  -9.063  1.00  0.00    -0.298 OA
HETATM   33  C33 UNL     1      -2.243  50.074 -10.903  1.00  0.00     0.079 C 
HETATM   34  C34 UNL     1      -1.341  51.190 -11.428  1.00  0.00     0.015 C 
BRANCH  24  35
HETATM   35  O6  UNL     1       0.001  53.526 -12.096  1.00  0.00    -0.387 OA
HETATM   36  H24 UNL     1       0.818  53.970 -12.402  1.00  0.00     0.210 HD
ENDBRANCH  24  35
ENDBRANCH  20  24
BRANCH  15  37
HETATM   37  O5  UNL     1       1.679  48.850 -10.989  1.00  0.00    -0.360 OA
HETATM   38  H19 UNL     1       1.368  49.135 -11.862  1.00  0.00     0.217 HD
ENDBRANCH  15  37
BRANCH   5  39
HETATM   39  C6  UNL     1       6.319  55.817  -7.823  1.00  0.00    -0.039 A 
HETATM   40  C7  UNL     1       5.454  56.801  -7.319  1.00  0.00     0.045 A 
HETATM   41  C8  UNL     1       5.704  57.388  -6.082  1.00  0.00     0.066 A 
HETATM   42  C9  UNL     1       6.817  57.033  -5.329  1.00  0.00     0.045 A 
HETATM   43  C10 UNL     1       7.709  56.071  -5.822  1.00  0.00    -0.032 A 
HETATM   44  C12 UNL     1       7.440  55.456  -7.055  1.00  0.00     0.018 A 
BRANCH  41  45
HETATM   45  O1  UNL     1       4.817  58.323  -5.638  1.00  0.00    -0.361 OA
HETATM   46  H9  UNL     1       5.109  58.659  -4.776  1.00  0.00     0.217 HD
ENDBRANCH  41  45
BRANCH  43  47
HETATM   47  C11 UNL     1       8.914  55.659  -5.019  1.00  0.00     0.203 C 
BRANCH  47  48
HETATM   48  O2  UNL     1      10.101  56.192  -5.585  1.00  0.00    -0.396 OA
HETATM   49  H13 UNL     1       9.862  56.677  -6.395  1.00  0.00     0.209 HD
ENDBRANCH  47  48
ENDBRANCH  43  47
ENDBRANCH   5  39
TORSDOF 7
ENDMDL
MODEL 3
REMARK minimizedAffinity -9.38691711
REMARK CNNscore 0.549743354
REMARK CNNaffinity 6.55080271
REMARK  7 active torsions:
REMARK  status: ('A' for Active; 'I' for Inactive)
REMARK    1  A    between atoms: C5_5  and  C6_6 
REMARK    2  A    between atoms: C8_8  and  O1_9 
REMARK    3  A    between atoms: C10_11  and  C11_12 
REMARK    4  A    between atoms: C11_12  and  O2_13 
REMARK    5  A    between atoms: C20_24  and  O5_25 
REMARK    6  A    between atoms: C25_30  and  C26_31 
REMARK    7  A    between atoms: C26_31  and  O6_32 
ROOT
HETATM    1  C1  UNL     1      -5.431  47.094 -29.271  1.00  0.00     0.036 C 
HETATM    2  C2  UNL     1      -6.587  47.892 -29.784  1.00  0.00    -0.018 C 
HETATM    3  C3  UNL     1      -7.801  48.058 -29.214  1.00  0.00     0.015 C 
HETATM    4  C4  UNL     1      -8.855  48.939 -29.848  1.00  0.00     0.066 C 
HETATM    5  C5  UNL     1      -9.830  48.273 -30.860  1.00  0.00     0.102 C 
HETATM    6  C13 UNL     1     -10.958  47.605 -30.177  1.00  0.00    -0.096 C 
HETATM    7  C14 UNL     1     -11.889  47.154 -29.564  1.00  0.00    -0.096 C 
HETATM    8  C15 UNL     1     -12.974  46.678 -28.677  1.00  0.00     0.110 C 
HETATM    9  C16 UNL     1     -13.399  45.278 -29.088  1.00  0.00     0.133 C 
HETATM   10  C17 UNL     1     -14.395  44.721 -28.116  1.00  0.00     0.265 C 
HETATM   11  O3  UNL     1     -15.423  44.155 -28.475  1.00  0.00    -0.265 OA
HETATM   12  O4  UNL     1     -14.036  44.804 -26.778  1.00  0.00    -0.278 OA
HETATM   13  C18 UNL     1     -13.049  45.712 -26.361  1.00  0.00     0.089 A 
HETATM   14  C19 UNL     1     -12.630  45.637 -25.035  1.00  0.00     0.075 A 
HETATM   15  C20 UNL     1     -11.673  46.536 -24.572  1.00  0.00     0.074 A 
HETATM   16  C21 UNL     1     -11.145  47.523 -25.410  1.00  0.00    -0.022 A 
HETATM   17  C22 UNL     1     -11.631  47.608 -26.723  1.00  0.00     0.021 A 
HETATM   18  C23 UNL     1     -12.540  46.671 -27.230  1.00  0.00    -0.007 A 
HETATM   19  C24 UNL     1      -9.966  48.401 -25.038  1.00  0.00     0.077 C 
HETATM   20  C25 UNL     1      -8.664  47.833 -25.650  1.00  0.00     0.171 C 
HETATM   21  O8  UNL     1      -8.583  48.290 -27.029  1.00  0.00    -0.309 OA
HETATM   22  C36 UNL     1      -8.079  47.391 -27.916  1.00  0.00     0.289 C 
HETATM   23  O9  UNL     1      -7.802  46.228 -27.669  1.00  0.00    -0.260 OA
ENDROOT
BRANCH  20  24
HETATM   24  C26 UNL     1      -7.350  48.236 -24.883  1.00  0.00     0.089 C 
HETATM   25  C27 UNL     1      -6.113  47.915 -25.748  1.00  0.00     0.041 C 
HETATM   26  C28 UNL     1      -4.815  48.459 -25.143  1.00  0.00     0.004 C 
HETATM   27  C29 UNL     1      -4.792  48.410 -23.615  1.00  0.00     0.005 C 
HETATM   28  C30 UNL     1      -5.727  47.337 -23.046  1.00  0.00    -0.001 C 
HETATM   29  C31 UNL     1      -5.535  47.226 -21.526  1.00  0.00     0.083 C 
HETATM   30  C35 UNL     1      -7.216  47.569 -23.474  1.00  0.00     0.027 C 
HETATM   31  C32 UNL     1      -6.779  46.680 -20.874  1.00  0.00     0.127 C 
HETATM   32  O7  UNL     1      -6.759  45.670 -20.174  1.00  0.00    -0.298 OA
HETATM   33  C33 UNL     1      -8.047  47.474 -21.076  1.00  0.00     0.079 C 
HETATM   34  C34 UNL     1      -7.972  48.313 -22.351  1.00  0.00     0.015 C 
BRANCH  24  35
HETATM   35  O6  UNL     1      -7.351  49.663 -24.695  1.00  0.00    -0.387 OA
HETATM   36  H24 UNL     1      -7.647  50.087 -25.527  1.00  0.00     0.210 HD
ENDBRANCH  24  35
ENDBRANCH  20  24
BRANCH  15  37
HETATM   37  O5  UNL     1     -11.269  46.383 -23.279  1.00  0.00    -0.360 OA
HETATM   38  H19 UNL     1     -11.149  47.262 -22.886  1.00  0.00     0.217 HD
ENDBRANCH  15  37
BRANCH   5  39
HETATM   39  C6  UNL     1      -9.130  47.420 -31.907  1.00  0.00    -0.039 A 
HETATM   40  C7  UNL     1      -9.418  46.057 -32.078  1.00  0.00     0.045 A 
HETATM   41  C8  UNL     1      -8.715  45.303 -33.013  1.00  0.00     0.066 A 
HETATM   42  C9  UNL     1      -7.706  45.871 -33.782  1.00  0.00     0.045 A 
HETATM   43  C10 UNL     1      -7.383  47.224 -33.612  1.00  0.00    -0.032 A 
HETATM   44  C12 UNL     1      -8.113  47.992 -32.691  1.00  0.00     0.018 A 
BRANCH  41  45
HETATM   45  O1  UNL     1      -9.053  43.990 -33.147  1.00  0.00    -0.361 OA
HETATM   46  H9  UNL     1      -8.486  43.579 -33.819  1.00  0.00     0.217 HD
ENDBRANCH  41  45
BRANCH  43  47
HETATM   47  C11 UNL     1      -6.303  47.866 -34.442  1.00  0.00     0.203 C 
BRANCH  47  48
HETATM   48  O2  UNL     1      -6.674  47.900 -35.811  1.00  0.00    -0.396 OA
HETATM   49  H13 UNL     1      -7.539  47.459 -35.904  1.00  0.00     0.209 HD
ENDBRANCH  47  48
ENDBRANCH  43  47
ENDBRANCH   5  39
TORSDOF 7
ENDMDL
MODEL 4
REMARK minimizedAffinity -9.11945915
REMARK CNNscore 0.467274576
REMARK CNNaffinity 6.89452171
REMARK  7 active torsions:
REMARK  status: ('A' for Active; 'I' for Inactive)
REMARK    1  A    between atoms: C5_5  and  C6_6 
REMARK    2  A    between atoms: C8_8  and  O1_9 
REMARK    3  A    between atoms: C10_11  and  C11_12 
REMARK    4  A    between atoms: C11_12  and  O2_13 
REMARK    5  A    between atoms: C20_24  and  O5_25 
REMARK    6  A    between atoms: C25_30  and  C26_31 
REMARK    7  A    between atoms: C26_31  and  O6_32 
ROOT
HETATM    1  C1  UNL     1      -0.440  55.018  -9.689  1.00  0.00     0.036 C 
HETATM    2  C2  UNL     1       0.940  55.500 -10.003  1.00  0.00    -0.018 C 
HETATM    3  C3  UNL     1       2.048  54.760 -10.231  1.00  0.00     0.015 C 
HETATM    4  C4  UNL     1       3.370  55.407 -10.581  1.00  0.00     0.066 C 
HETATM    5  C5  UNL     1       4.313  55.786  -9.403  1.00  0.00     0.102 C 
HETATM    6  C13 UNL     1       5.123  54.633  -8.956  1.00  0.00    -0.096 C 
HETATM    7  C14 UNL     1       5.806  53.677  -8.698  1.00  0.00    -0.096 C 
HETATM    8  C15 UNL     1       6.587  52.432  -8.518  1.00  0.00     0.110 C 
HETATM    9  C16 UNL     1       6.730  52.125  -7.037  1.00  0.00     0.133 C 
HETATM   10  C17 UNL     1       7.392  50.795  -6.835  1.00  0.00     0.265 C 
HETATM   11  O3  UNL     1       8.302  50.625  -6.029  1.00  0.00    -0.265 OA
HETATM   12  O4  UNL     1       6.846  49.740  -7.554  1.00  0.00    -0.278 OA
HETATM   13  C18 UNL     1       6.047  49.987  -8.682  1.00  0.00     0.089 A 
HETATM   14  C19 UNL     1       5.409  48.894  -9.264  1.00  0.00     0.075 A 
HETATM   15  C20 UNL     1       4.628  49.088 -10.400  1.00  0.00     0.074 A 
HETATM   16  C21 UNL     1       4.494  50.355 -10.976  1.00  0.00    -0.022 A 
HETATM   17  C22 UNL     1       5.197  51.424 -10.399  1.00  0.00     0.021 A 
HETATM   18  C23 UNL     1       5.930  51.265  -9.216  1.00  0.00    -0.007 A 
HETATM   19  C24 UNL     1       3.511  50.678 -12.085  1.00  0.00     0.077 C 
HETATM   20  C25 UNL     1       2.232  51.315 -11.494  1.00  0.00     0.171 C 
HETATM   21  O8  UNL     1       2.490  52.733 -11.297  1.00  0.00    -0.309 OA
HETATM   22  C36 UNL     1       1.942  53.279 -10.179  1.00  0.00     0.289 C 
HETATM   23  O9  UNL     1       1.361  52.663  -9.300  1.00  0.00    -0.260 OA
ENDROOT
BRANCH  20  24
HETATM   24  C26 UNL     1       0.942  51.132 -12.377  1.00  0.00     0.089 C 
HETATM   25  C27 UNL     1       1.153  51.778 -13.763  1.00  0.00     0.041 C 
HETATM   26  C28 UNL     1       0.012  51.469 -14.737  1.00  0.00     0.004 C 
HETATM   27  C29 UNL     1      -1.357  51.390 -14.060  1.00  0.00     0.005 C 
HETATM   28  C30 UNL     1      -1.415  52.190 -12.754  1.00  0.00    -0.001 C 
HETATM   29  C31 UNL     1      -2.852  52.208 -12.213  1.00  0.00     0.083 C 
HETATM   30  C35 UNL     1      -0.360  51.689 -11.711  1.00  0.00     0.027 C 
HETATM   31  C32 UNL     1      -2.854  52.423 -10.722  1.00  0.00     0.127 C 
HETATM   32  O7  UNL     1      -3.466  53.352 -10.197  1.00  0.00    -0.298 OA
HETATM   33  C33 UNL     1      -2.112  51.401  -9.895  1.00  0.00     0.079 C 
HETATM   34  C34 UNL     1      -1.029  50.709 -10.721  1.00  0.00     0.015 C 
BRANCH  24  35
HETATM   35  O6  UNL     1       0.747  49.726 -12.614  1.00  0.00    -0.387 OA
HETATM   36  H24 UNL     1       1.613  49.322 -12.828  1.00  0.00     0.210 HD
ENDBRANCH  24  35
ENDBRANCH  20  24
BRANCH  15  37
HETATM   37  O5  UNL     1       3.991  47.989 -10.897  1.00  0.00    -0.360 OA
HETATM   38  H19 UNL     1       4.019  48.027 -11.866  1.00  0.00     0.217 HD
ENDBRANCH  15  37
BRANCH   5  39
HETATM   39  C6  UNL     1       3.615  56.540  -8.283  1.00  0.00    -0.039 A 
HETATM   40  C7  UNL     1       4.325  57.210  -7.274  1.00  0.00     0.045 A 
HETATM   41  C8  UNL     1       3.644  57.843  -6.238  1.00  0.00     0.066 A 
HETATM   42  C9  UNL     1       2.256  57.813  -6.166  1.00  0.00     0.045 A 
HETATM   43  C10 UNL     1       1.526  57.129  -7.147  1.00  0.00    -0.032 A 
HETATM   44  C12 UNL     1       2.211  56.517  -8.209  1.00  0.00     0.018 A 
BRANCH  41  45
HETATM   45  O1  UNL     1       4.388  58.493  -5.299  1.00  0.00    -0.361 OA
HETATM   46  H9  UNL     1       3.798  58.880  -4.633  1.00  0.00     0.217 HD
ENDBRANCH  41  45
BRANCH  43  47
HETATM   47  C11 UNL     1       0.022  57.093  -7.099  1.00  0.00     0.203 C 
BRANCH  47  48
HETATM   48  O2  UNL     1      -0.439  57.095  -5.757  1.00  0.00    -0.396 OA
HETATM   49  H13 UNL     1       0.337  57.081  -5.168  1.00  0.00     0.209 HD
ENDBRANCH  47  48
ENDBRANCH  43  47
ENDBRANCH   5  39
TORSDOF 7
ENDMDL
MODEL 5
REMARK minimizedAffinity -8.55660248
REMARK CNNscore 0.444886297
REMARK CNNaffinity 6.59531927
REMARK  7 active torsions:
REMARK  status: ('A' for Active; 'I' for Inactive)
REMARK    1  A    between atoms: C5_5  and  C6_6 
REMARK    2  A    between atoms: C8_8  and  O1_9 
REMARK    3  A    between atoms: C10_11  and  C11_12 
REMARK    4  A    between atoms: C11_12  and  O2_13 
REMARK    5  A    between atoms: C20_24  and  O5_25 
REMARK    6  A    between atoms: C25_30  and  C26_31 
REMARK    7  A    between atoms: C26_31  and  O6_32 
ROOT
HETATM    1  C1  UNL     1       0.642  55.210  -9.365  1.00  0.00     0.036 C 
HETATM    2  C2  UNL     1       2.053  55.453  -9.800  1.00  0.00    -0.018 C 
HETATM    3  C3  UNL     1       2.994  54.535 -10.117  1.00  0.00     0.015 C 
HETATM    4  C4  UNL     1       4.372  54.951 -10.584  1.00  0.00     0.066 C 
HETATM    5  C5  UNL     1       5.464  55.154  -9.495  1.00  0.00     0.102 C 
HETATM    6  C13 UNL     1       6.100  53.877  -9.110  1.00  0.00    -0.096 C 
HETATM    7  C14 UNL     1       6.630  52.816  -8.905  1.00  0.00    -0.096 C 
HETATM    8  C15 UNL     1       7.200  51.455  -8.783  1.00  0.00     0.110 C 
HETATM    9  C16 UNL     1       7.415  51.117  -7.317  1.00  0.00     0.133 C 
HETATM   10  C17 UNL     1       7.856  49.692  -7.163  1.00  0.00     0.265 C 
HETATM   11  O3  UNL     1       8.789  49.363  -6.437  1.00  0.00    -0.265 OA
HETATM   12  O4  UNL     1       7.078  48.752  -7.825  1.00  0.00    -0.278 OA
HETATM   13  C18 UNL     1       6.238  49.139  -8.881  1.00  0.00     0.089 A 
HETATM   14  C19 UNL     1       5.376  48.176  -9.398  1.00  0.00     0.075 A 
HETATM   15  C20 UNL     1       4.544  48.508 -10.464  1.00  0.00     0.074 A 
HETATM   16  C21 UNL     1       4.580  49.784 -11.036  1.00  0.00    -0.022 A 
HETATM   17  C22 UNL     1       5.501  50.712 -10.529  1.00  0.00     0.021 A 
HETATM   18  C23 UNL     1       6.296  50.423  -9.413  1.00  0.00    -0.007 A 
HETATM   19  C24 UNL     1       3.574  50.277 -12.059  1.00  0.00     0.077 C 
HETATM   20  C25 UNL     1       2.478  51.119 -11.365  1.00  0.00     0.171 C 
HETATM   21  O8  UNL     1       2.991  52.470 -11.202  1.00  0.00    -0.309 OA
HETATM   22  C36 UNL     1       2.642  53.095 -10.045  1.00  0.00     0.289 C 
HETATM   23  O9  UNL     1       2.042  52.581  -9.114  1.00  0.00    -0.260 OA
ENDROOT
BRANCH  20  24
HETATM   24  C26 UNL     1       1.105  51.165 -12.133  1.00  0.00     0.089 C 
HETATM   25  C27 UNL     1       1.268  51.928 -13.465  1.00  0.00     0.041 C 
HETATM   26  C28 UNL     1       0.020  51.843 -14.348  1.00  0.00     0.004 C 
HETATM   27  C29 UNL     1      -1.286  51.837 -13.553  1.00  0.00     0.005 C 
HETATM   28  C30 UNL     1      -1.140  52.497 -12.178  1.00  0.00    -0.001 C 
HETATM   29  C31 UNL     1      -2.515  52.608 -11.501  1.00  0.00     0.083 C 
HETATM   30  C35 UNL     1      -0.063  51.782 -11.294  1.00  0.00     0.027 C 
HETATM   31  C32 UNL     1      -2.364  52.664 -10.003  1.00  0.00     0.127 C 
HETATM   32  O7  UNL     1      -2.819  53.591  -9.335  1.00  0.00    -0.298 OA
HETATM   33  C33 UNL     1      -1.674  51.489  -9.352  1.00  0.00     0.079 C 
HETATM   34  C34 UNL     1      -0.751  50.779 -10.342  1.00  0.00     0.015 C 
BRANCH  24  35
HETATM   35  O6  UNL     1       0.732  49.820 -12.482  1.00  0.00    -0.387 OA
HETATM   36  H24 UNL     1       1.526  49.353 -12.816  1.00  0.00     0.210 HD
ENDBRANCH  24  35
ENDBRANCH  20  24
BRANCH  15  37
HETATM   37  O5  UNL     1       3.689  47.538 -10.896  1.00  0.00    -0.360 OA
HETATM   38  H19 UNL     1       3.640  47.578 -11.864  1.00  0.00     0.217 HD
ENDBRANCH  15  37
BRANCH   5  39
HETATM   39  C6  UNL     1       5.004  56.008  -8.324  1.00  0.00    -0.039 A 
HETATM   40  C7  UNL     1       3.958  56.937  -8.438  1.00  0.00     0.045 A 
HETATM   41  C8  UNL     1       3.607  57.735  -7.354  1.00  0.00     0.066 A 
HETATM   42  C9  UNL     1       4.288  57.648  -6.146  1.00  0.00     0.045 A 
HETATM   43  C10 UNL     1       5.353  56.746  -6.014  1.00  0.00    -0.032 A 
HETATM   44  C12 UNL     1       5.687  55.919  -7.098  1.00  0.00     0.018 A 
BRANCH  41  45
HETATM   45  O1  UNL     1       2.569  58.604  -7.520  1.00  0.00    -0.361 OA
HETATM   46  H9  UNL     1       2.434  59.104  -6.700  1.00  0.00     0.217 HD
ENDBRANCH  41  45
BRANCH  43  47
HETATM   47  C11 UNL     1       6.098  56.623  -4.713  1.00  0.00     0.203 C 
BRANCH  47  48
HETATM   48  O2  UNL     1       7.465  56.316  -4.943  1.00  0.00    -0.396 OA
HETATM   49  H13 UNL     1       7.598  56.218  -5.903  1.00  0.00     0.209 HD
ENDBRANCH  47  48
ENDBRANCH  43  47
ENDBRANCH   5  39
TORSDOF 7
ENDMDL
MODEL 6
REMARK minimizedAffinity -9.91647434
REMARK CNNscore 0.384167641
REMARK CNNaffinity 6.70993471
REMARK  7 active torsions:
REMARK  status: ('A' for Active; 'I' for Inactive)
REMARK    1  A    between atoms: C5_5  and  C6_6 
REMARK    2  A    between atoms: C8_8  and  O1_9 
REMARK    3  A    between atoms: C10_11  and  C11_12 
REMARK    4  A    between atoms: C11_12  and  O2_13 
REMARK    5  A    between atoms: C20_24  and  O5_25 
REMARK    6  A    between atoms: C25_30  and  C26_31 
REMARK    7  A    between atoms: C26_31  and  O6_32 
ROOT
HETATM    1  C1  UNL     1      -6.392  47.289 -20.638  1.00  0.00     0.036 C 
HETATM    2  C2  UNL     1      -5.065  47.130 -21.310  1.00  0.00    -0.018 C 
HETATM    3  C3  UNL     1      -3.854  47.531 -20.862  1.00  0.00     0.015 C 
HETATM    4  C4  UNL     1      -2.592  47.253 -21.650  1.00  0.00     0.066 C 
HETATM    5  C5  UNL     1      -2.151  48.320 -22.692  1.00  0.00     0.102 C 
HETATM    6  C13 UNL     1      -1.385  49.418 -22.065  1.00  0.00    -0.096 C 
HETATM    7  C14 UNL     1      -0.702  50.233 -21.504  1.00  0.00    -0.096 C 
HETATM    8  C15 UNL     1       0.137  51.136 -20.684  1.00  0.00     0.110 C 
HETATM    9  C16 UNL     1      -0.176  52.583 -21.027  1.00  0.00     0.133 C 
HETATM   10  C17 UNL     1       0.558  53.514 -20.108  1.00  0.00     0.265 C 
HETATM   11  O3  UNL     1       1.165  54.500 -20.513  1.00  0.00    -0.265 OA
HETATM   12  O4  UNL     1       0.429  53.241 -18.753  1.00  0.00    -0.278 OA
HETATM   13  C18 UNL     1       0.021  51.969 -18.319  1.00  0.00     0.089 A 
HETATM   14  C19 UNL     1      -0.234  51.809 -16.960  1.00  0.00     0.075 A 
HETATM   15  C20 UNL     1      -0.615  50.558 -16.481  1.00  0.00     0.074 A 
HETATM   16  C21 UNL     1      -0.722  49.459 -17.339  1.00  0.00    -0.022 A 
HETATM   17  C22 UNL     1      -0.402  49.642 -18.693  1.00  0.00     0.021 A 
HETATM   18  C23 UNL     1      -0.086  50.905 -19.208  1.00  0.00    -0.007 A 
HETATM   19  C24 UNL     1      -1.319  48.126 -16.931  1.00  0.00     0.077 C 
HETATM   20  C25 UNL     1      -2.795  48.042 -17.382  1.00  0.00     0.171 C 
HETATM   21  O8  UNL     1      -2.812  47.634 -18.778  1.00  0.00    -0.309 OA
HETATM   22  C36 UNL     1      -3.768  48.218 -19.549  1.00  0.00     0.289 C 
HETATM   23  O9  UNL     1      -4.517  49.114 -19.193  1.00  0.00    -0.260 OA
ENDROOT
BRANCH  20  24
HETATM   24  C26 UNL     1      -3.683  47.058 -16.534  1.00  0.00     0.089 C 
HETATM   25  C27 UNL     1      -3.383  47.235 -15.030  1.00  0.00     0.041 C 
HETATM   26  C28 UNL     1      -4.348  46.447 -14.141  1.00  0.00     0.004 C 
HETATM   27  C29 UNL     1      -4.777  45.110 -14.747  1.00  0.00     0.005 C 
HETATM   28  C30 UNL     1      -3.758  44.567 -15.754  1.00  0.00    -0.001 C 
HETATM   29  C31 UNL     1      -4.162  43.154 -16.199  1.00  0.00     0.083 C 
HETATM   30  C35 UNL     1      -3.526  45.556 -16.946  1.00  0.00     0.027 C 
HETATM   31  C32 UNL     1      -3.592  42.843 -17.559  1.00  0.00     0.127 C 
HETATM   32  O7  UNL     1      -2.874  41.866 -17.759  1.00  0.00    -0.298 OA
HETATM   33  C33 UNL     1      -3.997  43.765 -18.684  1.00  0.00     0.079 C 
HETATM   34  C34 UNL     1      -4.401  45.139 -18.149  1.00  0.00     0.015 C 
BRANCH  24  35
HETATM   35  O6  UNL     1      -5.065  47.420 -16.714  1.00  0.00    -0.387 OA
HETATM   36  H24 UNL     1      -5.140  48.395 -16.669  1.00  0.00     0.210 HD
ENDBRANCH  24  35
ENDBRANCH  20  24
BRANCH  15  37
HETATM   37  O5  UNL     1      -0.896  50.475 -15.149  1.00  0.00    -0.360 OA
HETATM   38  H19 UNL     1      -0.555  49.631 -14.813  1.00  0.00     0.217 HD
ENDBRANCH  15  37
BRANCH   5  39
HETATM   39  C6  UNL     1      -3.276  48.778 -23.608  1.00  0.00    -0.039 A 
HETATM   40  C7  UNL     1      -4.360  49.538 -23.142  1.00  0.00     0.045 A 
HETATM   41  C8  UNL     1      -5.394  49.889 -24.005  1.00  0.00     0.066 A 
HETATM   42  C9  UNL     1      -5.389  49.484 -25.335  1.00  0.00     0.045 A 
HETATM   43  C10 UNL     1      -4.330  48.704 -25.818  1.00  0.00    -0.032 A 
HETATM   44  C12 UNL     1      -3.272  48.376 -24.955  1.00  0.00     0.018 A 
BRANCH  41  45
HETATM   45  O1  UNL     1      -6.409  50.644 -23.499  1.00  0.00    -0.361 OA
HETATM   46  H9  UNL     1      -7.064  50.810 -24.195  1.00  0.00     0.217 HD
ENDBRANCH  41  45
BRANCH  43  47
HETATM   47  C11 UNL     1      -4.294  48.264 -27.257  1.00  0.00     0.203 C 
BRANCH  47  48
HETATM   48  O2  UNL     1      -3.625  49.224 -28.060  1.00  0.00    -0.396 OA
HETATM   49  H13 UNL     1      -3.373  49.974 -27.492  1.00  0.00     0.209 HD
ENDBRANCH  47  48
ENDBRANCH  43  47
ENDBRANCH   5  39
TORSDOF 7
ENDMDL
MODEL 7
REMARK minimizedAffinity -9.19639015
REMARK CNNscore 0.364273816
REMARK CNNaffinity 6.56746721
REMARK  7 active torsions:
REMARK  status: ('A' for Active; 'I' for Inactive)
REMARK    1  A    between atoms: C5_5  and  C6_6 
REMARK    2  A    between atoms: C8_8  and  O1_9 
REMARK    3  A    between atoms: C10_11  and  C11_12 
REMARK    4  A    between atoms: C11_12  and  O2_13 
REMARK    5  A    between atoms: C20_24  and  O5_25 
REMARK    6  A    between atoms: C25_30  and  C26_31 
REMARK    7  A    between atoms: C26_31  and  O6_32 
ROOT
HETATM    1  C1  UNL     1      -2.894  49.212 -18.867  1.00  0.00     0.036 C 
HETATM    2  C2  UNL     1      -2.977  47.769 -19.252  1.00  0.00    -0.018 C 
HETATM    3  C3  UNL     1      -3.781  47.200 -20.179  1.00  0.00     0.015 C 
HETATM    4  C4  UNL     1      -3.709  45.719 -20.481  1.00  0.00     0.066 C 
HETATM    5  C5  UNL     1      -4.620  44.775 -19.645  1.00  0.00     0.102 C 
HETATM    6  C13 UNL     1      -5.991  44.708 -20.194  1.00  0.00    -0.096 C 
HETATM    7  C14 UNL     1      -7.061  44.637 -20.739  1.00  0.00    -0.096 C 
HETATM    8  C15 UNL     1      -8.308  44.630 -21.537  1.00  0.00     0.110 C 
HETATM    9  C16 UNL     1      -9.510  44.739 -20.613  1.00  0.00     0.133 C 
HETATM   10  C17 UNL     1     -10.775  44.878 -21.407  1.00  0.00     0.265 C 
HETATM   11  O3  UNL     1     -11.787  44.231 -21.156  1.00  0.00    -0.265 OA
HETATM   12  O4  UNL     1     -10.759  45.858 -22.389  1.00  0.00    -0.278 OA
HETATM   13  C18 UNL     1      -9.540  46.357 -22.878  1.00  0.00     0.089 A 
HETATM   14  C19 UNL     1      -9.597  47.441 -23.749  1.00  0.00     0.075 A 
HETATM   15  C20 UNL     1      -8.414  47.951 -24.279  1.00  0.00     0.074 A 
HETATM   16  C21 UNL     1      -7.178  47.376 -23.969  1.00  0.00    -0.022 A 
HETATM   17  C22 UNL     1      -7.161  46.249 -23.134  1.00  0.00     0.021 A 
HETATM   18  C23 UNL     1      -8.330  45.763 -22.534  1.00  0.00    -0.007 A 
HETATM   19  C24 UNL     1      -5.844  47.992 -24.344  1.00  0.00     0.077 C 
HETATM   20  C25 UNL     1      -5.263  48.779 -23.146  1.00  0.00     0.171 C 
HETATM   21  O8  UNL     1      -4.591  47.829 -22.273  1.00  0.00    -0.309 OA
HETATM   22  C36 UNL     1      -4.717  48.065 -20.940  1.00  0.00     0.289 C 
HETATM   23  O9  UNL     1      -5.423  48.924 -20.435  1.00  0.00    -0.260 OA
ENDROOT
BRANCH  20  24
HETATM   24  C26 UNL     1      -4.266  49.930 -23.540  1.00  0.00     0.089 C 
HETATM   25  C27 UNL     1      -4.801  51.289 -23.041  1.00  0.00     0.041 C 
HETATM   26  C28 UNL     1      -3.787  52.422 -23.221  1.00  0.00     0.004 C 
HETATM   27  C29 UNL     1      -2.939  52.282 -24.486  1.00  0.00     0.005 C 
HETATM   28  C30 UNL     1      -3.632  51.447 -25.569  1.00  0.00    -0.001 C 
HETATM   29  C31 UNL     1      -2.809  51.482 -26.865  1.00  0.00     0.083 C 
HETATM   30  C35 UNL     1      -3.959  49.998 -25.074  1.00  0.00     0.027 C 
HETATM   31  C32 UNL     1      -3.089  50.261 -27.703  1.00  0.00     0.127 C 
HETATM   32  O7  UNL     1      -3.486  50.342 -28.864  1.00  0.00    -0.298 OA
HETATM   33  C33 UNL     1      -2.798  48.925 -27.062  1.00  0.00     0.079 C 
HETATM   34  C34 UNL     1      -2.852  49.025 -25.538  1.00  0.00     0.015 C 
BRANCH  24  35
HETATM   35  O6  UNL     1      -3.020  49.710 -22.853  1.00  0.00    -0.387 OA
HETATM   36  H24 UNL     1      -3.216  49.453 -21.929  1.00  0.00     0.210 HD
ENDBRANCH  24  35
ENDBRANCH  20  24
BRANCH  15  37
HETATM   37  O5  UNL     1      -8.529  49.042 -25.089  1.00  0.00    -0.360 OA
HETATM   38  H19 UNL     1      -7.900  48.952 -25.821  1.00  0.00     0.217 HD
ENDBRANCH  15  37
BRANCH   5  39
HETATM   39  C6  UNL     1      -4.551  45.031 -18.148  1.00  0.00    -0.039 A 
HETATM   40  C7  UNL     1      -5.575  45.692 -17.452  1.00  0.00     0.045 A 
HETATM   41  C8  UNL     1      -5.444  45.951 -16.090  1.00  0.00     0.066 A 
HETATM   42  C9  UNL     1      -4.299  45.581 -15.395  1.00  0.00     0.045 A 
HETATM   43  C10 UNL     1      -3.253  44.942 -16.073  1.00  0.00    -0.032 A 
HETATM   44  C12 UNL     1      -3.397  44.653 -17.439  1.00  0.00     0.018 A 
BRANCH  41  45
HETATM   45  O1  UNL     1      -6.481  46.579 -15.466  1.00  0.00    -0.361 OA
HETATM   46  H9  UNL     1      -6.261  46.708 -14.529  1.00  0.00     0.217 HD
ENDBRANCH  41  45
BRANCH  43  47
HETATM   47  C11 UNL     1      -2.008  44.520 -15.339  1.00  0.00     0.203 C 
BRANCH  47  48
HETATM   48  O2  UNL     1      -1.201  43.687 -16.157  1.00  0.00    -0.396 OA
HETATM   49  H13 UNL     1      -1.664  43.550 -17.003  1.00  0.00     0.209 HD
ENDBRANCH  47  48
ENDBRANCH  43  47
ENDBRANCH   5  39
TORSDOF 7
ENDMDL
MODEL 8
REMARK minimizedAffinity -8.56172943
REMARK CNNscore 0.306637406
REMARK CNNaffinity 6.05516958
REMARK  7 active torsions:
REMARK  status: ('A' for Active; 'I' for Inactive)
REMARK    1  A    between atoms: C5_5  and  C6_6 
REMARK    2  A    between atoms: C8_8  and  O1_9 
REMARK    3  A    between atoms: C10_11  and  C11_12 
REMARK    4  A    between atoms: C11_12  and  O2_13 
REMARK    5  A    between atoms: C20_24  and  O5_25 
REMARK    6  A    between atoms: C25_30  and  C26_31 
REMARK    7  A    between atoms: C26_31  and  O6_32 
ROOT
HETATM    1  C1  UNL     1     -11.937  45.353 -34.708  1.00  0.00     0.036 C 
HETATM    2  C2  UNL     1     -11.759  43.952 -34.213  1.00  0.00    -0.018 C 
HETATM    3  C3  UNL     1     -10.638  43.382 -33.717  1.00  0.00     0.015 C 
HETATM    4  C4  UNL     1     -10.637  41.954 -33.216  1.00  0.00     0.066 C 
HETATM    5  C5  UNL     1     -10.308  40.836 -34.246  1.00  0.00     0.102 C 
HETATM    6  C13 UNL     1      -8.850  40.660 -34.418  1.00  0.00    -0.096 C 
HETATM    7  C14 UNL     1      -7.657  40.515 -34.448  1.00  0.00    -0.096 C 
HETATM    8  C15 UNL     1      -6.181  40.436 -34.354  1.00  0.00     0.110 C 
HETATM    9  C16 UNL     1      -5.583  40.317 -35.745  1.00  0.00     0.133 C 
HETATM   10  C17 UNL     1      -4.085  40.380 -35.683  1.00  0.00     0.265 C 
HETATM   11  O3  UNL     1      -3.365  39.598 -36.296  1.00  0.00    -0.265 OA
HETATM   12  O4  UNL     1      -3.562  41.442 -34.959  1.00  0.00    -0.278 OA
HETATM   13  C18 UNL     1      -4.354  42.124 -34.021  1.00  0.00     0.089 A 
HETATM   14  C19 UNL     1      -3.816  43.270 -33.443  1.00  0.00     0.075 A 
HETATM   15  C20 UNL     1      -4.556  43.962 -32.488  1.00  0.00     0.074 A 
HETATM   16  C21 UNL     1      -5.816  43.510 -32.085  1.00  0.00    -0.022 A 
HETATM   17  C22 UNL     1      -6.304  42.319 -32.644  1.00  0.00     0.021 A 
HETATM   18  C23 UNL     1      -5.609  41.647 -33.657  1.00  0.00    -0.007 A 
HETATM   19  C24 UNL     1      -6.757  44.311 -31.205  1.00  0.00     0.077 C 
HETATM   20  C25 UNL     1      -7.805  45.045 -32.074  1.00  0.00     0.171 C 
HETATM   21  O8  UNL     1      -8.871  44.103 -32.377  1.00  0.00    -0.309 OA
HETATM   22  C36 UNL     1      -9.401  44.198 -33.625  1.00  0.00     0.289 C 
HETATM   23  O9  UNL     1      -8.986  44.917 -34.520  1.00  0.00    -0.260 OA
ENDROOT
BRANCH  20  24
HETATM   24  C26 UNL     1      -8.413  46.337 -31.414  1.00  0.00     0.089 C 
HETATM   25  C27 UNL     1      -7.743  47.598 -32.001  1.00  0.00     0.041 C 
HETATM   26  C28 UNL     1      -8.423  48.891 -31.543  1.00  0.00     0.004 C 
HETATM   27  C29 UNL     1      -8.948  48.826 -30.109  1.00  0.00     0.005 C 
HETATM   28  C30 UNL     1      -8.204  47.792 -29.256  1.00  0.00    -0.001 C 
HETATM   29  C31 UNL     1      -8.662  47.891 -27.794  1.00  0.00     0.083 C 
HETATM   30  C35 UNL     1      -8.317  46.349 -29.852  1.00  0.00     0.027 C 
HETATM   31  C32 UNL     1      -8.449  46.580 -27.082  1.00  0.00     0.127 C 
HETATM   32  O7  UNL     1      -7.774  46.494 -26.058  1.00  0.00    -0.298 OA
HETATM   33  C33 UNL     1      -9.159  45.379 -27.660  1.00  0.00     0.079 C 
HETATM   34  C34 UNL     1      -9.457  45.580 -29.146  1.00  0.00     0.015 C 
BRANCH  24  35
HETATM   35  O6  UNL     1      -9.806  46.418 -31.769  1.00  0.00    -0.387 OA
HETATM   36  H24 UNL     1      -9.898  46.198 -32.718  1.00  0.00     0.210 HD
ENDBRANCH  24  35
ENDBRANCH  20  24
BRANCH  15  37
HETATM   37  O5  UNL     1      -3.996  45.103 -31.992  1.00  0.00    -0.360 OA
HETATM   38  H19 UNL     1      -4.190  45.155 -31.043  1.00  0.00     0.217 HD
ENDBRANCH  15  37
BRANCH   5  39
HETATM   39  C6  UNL     1     -11.087  40.958 -35.546  1.00  0.00    -0.039 A 
HETATM   40  C7  UNL     1     -10.475  41.316 -36.757  1.00  0.00     0.045 A 
HETATM   41  C8  UNL     1     -11.237  41.466 -37.912  1.00  0.00     0.066 A 
HETATM   42  C9  UNL     1     -12.615  41.286 -37.892  1.00  0.00     0.045 A 
HETATM   43  C10 UNL     1     -13.253  40.952 -36.690  1.00  0.00    -0.032 A 
HETATM   44  C12 UNL     1     -12.481  40.770 -35.532  1.00  0.00     0.018 A 
BRANCH  41  45
HETATM   45  O1  UNL     1     -10.583  41.796 -39.061  1.00  0.00    -0.361 OA
HETATM   46  H9  UNL     1     -11.225  41.880 -39.784  1.00  0.00     0.217 HD
ENDBRANCH  41  45
BRANCH  43  47
HETATM   47  C11 UNL     1     -14.743  40.738 -36.645  1.00  0.00     0.203 C 
BRANCH  47  48
HETATM   48  O2  UNL     1     -15.224  40.831 -35.313  1.00  0.00    -0.396 OA
HETATM   49  H13 UNL     1     -14.462  40.977 -34.723  1.00  0.00     0.209 HD
ENDBRANCH  47  48
ENDBRANCH  43  47
ENDBRANCH   5  39
TORSDOF 7
ENDMDL
MODEL 9
REMARK minimizedAffinity -9.20767307
REMARK CNNscore 0.302511305
REMARK CNNaffinity 6.21086693
REMARK  7 active torsions:
REMARK  status: ('A' for Active; 'I' for Inactive)
REMARK    1  A    between atoms: C5_5  and  C6_6 
REMARK    2  A    between atoms: C8_8  and  O1_9 
REMARK    3  A    between atoms: C10_11  and  C11_12 
REMARK    4  A    between atoms: C11_12  and  O2_13 
REMARK    5  A    between atoms: C20_24  and  O5_25 
REMARK    6  A    between atoms: C25_30  and  C26_31 
REMARK    7  A    between atoms: C26_31  and  O6_32 
ROOT
HETATM    1  C1  UNL     1       1.035  55.700  -9.032  1.00  0.00     0.036 C 
HETATM    2  C2  UNL     1       2.434  55.789  -9.554  1.00  0.00    -0.018 C 
HETATM    3  C3  UNL     1       3.228  54.780  -9.978  1.00  0.00     0.015 C 
HETATM    4  C4  UNL     1       4.616  55.046 -10.521  1.00  0.00     0.066 C 
HETATM    5  C5  UNL     1       5.791  55.052  -9.503  1.00  0.00     0.102 C 
HETATM    6  C13 UNL     1       6.283  53.687  -9.222  1.00  0.00    -0.096 C 
HETATM    7  C14 UNL     1       6.685  52.560  -9.103  1.00  0.00    -0.096 C 
HETATM    8  C15 UNL     1       7.083  51.133  -9.084  1.00  0.00     0.110 C 
HETATM    9  C16 UNL     1       7.347  50.693  -7.654  1.00  0.00     0.133 C 
HETATM   10  C17 UNL     1       7.610  49.217  -7.596  1.00  0.00     0.265 C 
HETATM   11  O3  UNL     1       8.539  48.736  -6.954  1.00  0.00    -0.265 OA
HETATM   12  O4  UNL     1       6.678  48.418  -8.244  1.00  0.00    -0.278 OA
HETATM   13  C18 UNL     1       5.829  48.963  -9.221  1.00  0.00     0.089 A 
HETATM   14  C19 UNL     1       4.820  48.144  -9.719  1.00  0.00     0.075 A 
HETATM   15  C20 UNL     1       3.971  48.635 -10.708  1.00  0.00     0.074 A 
HETATM   16  C21 UNL     1       4.133  49.925 -11.222  1.00  0.00    -0.022 A 
HETATM   17  C22 UNL     1       5.196  50.703 -10.739  1.00  0.00     0.021 A 
HETATM   18  C23 UNL     1       6.016  50.257  -9.696  1.00  0.00    -0.007 A 
HETATM   19  C24 UNL     1       3.135  50.594 -12.148  1.00  0.00     0.077 C 
HETATM   20  C25 UNL     1       2.202  51.527 -11.342  1.00  0.00     0.171 C 
HETATM   21  O8  UNL     1       2.892  52.793 -11.153  1.00  0.00    -0.309 OA
HETATM   22  C36 UNL     1       2.700  53.393  -9.947  1.00  0.00     0.289 C 
HETATM   23  O9  UNL     1       2.101  52.907  -9.001  1.00  0.00    -0.260 OA
ENDROOT
BRANCH  20  24
HETATM   24  C26 UNL     1       0.800  51.785 -12.008  1.00  0.00     0.089 C 
HETATM   25  C27 UNL     1      -0.330  51.334 -11.057  1.00  0.00     0.041 C 
HETATM   26  C28 UNL     1      -1.719  51.734 -11.563  1.00  0.00     0.004 C 
HETATM   27  C29 UNL     1      -1.848  51.681 -13.086  1.00  0.00     0.005 C 
HETATM   28  C30 UNL     1      -0.847  50.714 -13.727  1.00  0.00    -0.001 C 
HETATM   29  C31 UNL     1      -1.137  50.580 -15.230  1.00  0.00     0.083 C 
HETATM   30  C35 UNL     1       0.635  51.105 -13.408  1.00  0.00     0.027 C 
HETATM   31  C32 UNL     1       0.107  50.170 -15.974  1.00  0.00     0.127 C 
HETATM   32  O7  UNL     1       0.145  49.162 -16.678  1.00  0.00    -0.298 OA
HETATM   33  C33 UNL     1       1.294  51.096 -15.860  1.00  0.00     0.079 C 
HETATM   34  C34 UNL     1       1.223  51.925 -14.578  1.00  0.00     0.015 C 
BRANCH  24  35
HETATM   35  O6  UNL     1       0.634  53.204 -12.187  1.00  0.00    -0.387 OA
HETATM   36  H24 UNL     1       0.942  53.658 -11.376  1.00  0.00     0.210 HD
ENDBRANCH  24  35
ENDBRANCH  20  24
BRANCH  15  37
HETATM   37  O5  UNL     1       2.973  47.803 -11.122  1.00  0.00    -0.360 OA
HETATM   38  H19 UNL     1       2.868  47.901 -12.082  1.00  0.00     0.217 HD
ENDBRANCH  15  37
BRANCH   5  39
HETATM   39  C6  UNL     1       5.520  55.892  -8.265  1.00  0.00    -0.039 A 
HETATM   40  C7  UNL     1       4.420  56.759  -8.173  1.00  0.00     0.045 A 
HETATM   41  C8  UNL     1       4.241  57.549  -7.040  1.00  0.00     0.066 A 
HETATM   42  C9  UNL     1       5.149  57.514  -5.989  1.00  0.00     0.045 A 
HETATM   43  C10 UNL     1       6.269  56.675  -6.067  1.00  0.00    -0.032 A 
HETATM   44  C12 UNL     1       6.433  55.856  -7.196  1.00  0.00     0.018 A 
BRANCH  41  45
HETATM   45  O1  UNL     1       3.143  58.356  -7.002  1.00  0.00    -0.361 OA
HETATM   46  H9  UNL     1       3.141  58.856  -6.170  1.00  0.00     0.217 HD
ENDBRANCH  41  45
BRANCH  43  47
HETATM   47  C11 UNL     1       7.260  56.609  -4.936  1.00  0.00     0.203 C 
BRANCH  47  48
HETATM   48  O2  UNL     1       7.782  57.897  -4.649  1.00  0.00    -0.396 OA
HETATM   49  H13 UNL     1       7.400  58.529  -5.284  1.00  0.00     0.209 HD
ENDBRANCH  47  48
ENDBRANCH  43  47
ENDBRANCH   5  39
TORSDOF 7
ENDMDL
