MODEL 1
REMARK minimizedAffinity -8.40094852
REMARK  14 active torsions:
REMARK  status: ('A' for Active; 'I' for Inactive)
REMARK    1  A    between atoms: C2_2  and  C3_3 
REMARK    2  A    between atoms: C2_2  and  C27_31 
REMARK    3  A    between atoms: C4_4  and  C5_5 
REMARK    4  A    between atoms: C6_6  and  C7_7 
REMARK    5  A    between atoms: C6_6  and  C9_9 
REMARK    6  A    between atoms: C13_13  and  O1_14 
REMARK    7  A    between atoms: C15_16  and  C16_17 
REMARK    8  A    between atoms: C16_17  and  C17_18 
REMARK    9  A    between atoms: C17_18  and  C18_19 
REMARK   10  A    between atoms: C18_19  and  O2_20 
REMARK   11  A    between atoms: C20_22  and  C22_24 
REMARK   12  A    between atoms: C25_28  and  O4_30 
REMARK   13  A    between atoms: C27_31  and  C28_32 
REMARK   14  A    between atoms: C28_32  and  C29_33 
ROOT
HETATM    1  C9  UNL     1      -3.817  51.692 -24.391  1.00  0.00     0.044 C 
HETATM    2  C10 UNL     1      -3.772  52.263 -22.965  1.00  0.00     0.013 C 
HETATM    3  C11 UNL     1      -3.617  51.058 -22.062  1.00  0.00     0.017 C 
HETATM    4  C12 UNL     1      -4.441  49.904 -22.699  1.00  0.00     0.025 C 
HETATM    5  C13 UNL     1      -4.174  50.163 -24.245  1.00  0.00     0.141 C 
HETATM    6  C15 UNL     1      -3.944  48.537 -22.009  1.00  0.00     0.029 C 
HETATM    7  C19 UNL     1      -5.050  47.459 -21.961  1.00  0.00    -0.066 C 
HETATM    8  C20 UNL     1      -5.278  46.636 -20.904  1.00  0.00    -0.021 C 
HETATM    9  C21 UNL     1      -4.520  46.624 -19.599  1.00  0.00     0.052 C 
HETATM   10  C23 UNL     1      -5.933  47.559 -23.177  1.00  0.00     0.038 C 
HETATM   11  C24 UNL     1      -6.770  48.834 -23.069  1.00  0.00     0.042 C 
HETATM   12  C25 UNL     1      -6.009  50.046 -22.450  1.00  0.00     0.065 C 
HETATM   13  C26 UNL     1      -6.384  50.226 -20.965  1.00  0.00     0.047 C 
ENDROOT
BRANCH   5  14
HETATM   14  O1  UNL     1      -3.168  49.324 -24.802  1.00  0.00    -0.389 OA
HETATM   15  C14 UNL     1      -3.640  48.515 -25.875  1.00  0.00     0.202 C 
ENDBRANCH   5  14
BRANCH   6  16
HETATM   16  C16 UNL     1      -2.619  47.955 -22.567  1.00  0.00     0.012 C 
BRANCH  16  17
HETATM   17  C17 UNL     1      -1.679  47.333 -21.526  1.00  0.00     0.027 C 
BRANCH  17  18
HETATM   18  C18 UNL     1      -1.102  48.378 -20.571  1.00  0.00     0.164 C 
BRANCH  18  19
HETATM   19  O2  UNL     1      -1.282  47.990 -19.216  1.00  0.00    -0.401 OA
HETATM   20  H27 UNL     1      -0.692  47.235 -19.049  1.00  0.00     0.209 HD
ENDBRANCH  18  19
ENDBRANCH  17  18
ENDBRANCH  16  17
ENDBRANCH   6  16
BRANCH  12  21
HETATM   21  O4  UNL     1      -6.530  51.211 -23.111  1.00  0.00    -0.389 OA
HETATM   22  H39 UNL     1      -7.484  51.263 -22.930  1.00  0.00     0.210 HD
ENDBRANCH  12  21
BRANCH   1  23
HETATM   23  C6  UNL     1      -2.573  52.066 -25.219  1.00  0.00    -0.074 C 
HETATM   24  C5  UNL     1      -1.364  52.339 -24.675  1.00  0.00     0.003 C 
BRANCH  24  25
HETATM   25  C4  UNL     1      -1.012  52.401 -23.269  1.00  0.00     0.001 C 
HETATM   26  C3  UNL     1       0.210  52.776 -22.850  1.00  0.00     0.006 C 
BRANCH  26  27
HETATM   27  C2  UNL     1       0.664  52.883 -21.462  1.00  0.00    -0.067 C 
HETATM   28  C1  UNL     1       1.376  53.969 -21.110  1.00  0.00     0.019 C 
BRANCH  27  29
HETATM   29  C27 UNL     1       0.300  51.761 -20.499  1.00  0.00     0.041 C 
BRANCH  29  30
HETATM   30  C28 UNL     1      -0.428  52.155 -19.204  1.00  0.00     0.032 C 
BRANCH  30  31
HETATM   31  C29 UNL     1       0.544  52.389 -18.078  1.00  0.00    -0.024 C 
HETATM   32  C30 UNL     1       0.862  51.545 -17.077  1.00  0.00    -0.091 C 
HETATM   33  C31 UNL     1       1.827  51.962 -15.998  1.00  0.00     0.042 C 
HETATM   34  C32 UNL     1       0.326  50.147 -16.923  1.00  0.00     0.042 C 
ENDBRANCH  30  31
ENDBRANCH  29  30
ENDBRANCH  27  29
ENDBRANCH  26  27
ENDBRANCH  24  25
BRANCH  23  35
HETATM   35  C7  UNL     1      -2.776  52.083 -26.736  1.00  0.00     0.030 C 
HETATM   36  C8  UNL     1      -1.836  51.230 -27.584  1.00  0.00     0.010 C 
ENDBRANCH  23  35
ENDBRANCH   1  23
BRANCH   8  37
HETATM   37  C22 UNL     1      -6.388  45.626 -20.901  1.00  0.00     0.265 C 
HETATM   38  O3  UNL     1      -6.218  44.454 -21.224  1.00  0.00    -0.302 OA
ENDBRANCH   8  37
TORSDOF 14
ENDMDL
MODEL 2
REMARK minimizedAffinity -8.04418755
REMARK  14 active torsions:
REMARK  status: ('A' for Active; 'I' for Inactive)
REMARK    1  A    between atoms: C2_2  and  C3_3 
REMARK    2  A    between atoms: C2_2  and  C27_31 
REMARK    3  A    between atoms: C4_4  and  C5_5 
REMARK    4  A    between atoms: C6_6  and  C7_7 
REMARK    5  A    between atoms: C6_6  and  C9_9 
REMARK    6  A    between atoms: C13_13  and  O1_14 
REMARK    7  A    between atoms: C15_16  and  C16_17 
REMARK    8  A    between atoms: C16_17  and  C17_18 
REMARK    9  A    between atoms: C17_18  and  C18_19 
REMARK   10  A    between atoms: C18_19  and  O2_20 
REMARK   11  A    between atoms: C20_22  and  C22_24 
REMARK   12  A    between atoms: C25_28  and  O4_30 
REMARK   13  A    between atoms: C27_31  and  C28_32 
REMARK   14  A    between atoms: C28_32  and  C29_33 
ROOT
HETATM    1  C9  UNL     1      -2.085  49.967 -21.638  1.00  0.00     0.044 C 
HETATM    2  C10 UNL     1      -1.851  48.472 -21.900  1.00  0.00     0.013 C 
HETATM    3  C11 UNL     1      -2.757  48.127 -23.062  1.00  0.00     0.017 C 
HETATM    4  C12 UNL     1      -4.055  48.965 -22.889  1.00  0.00     0.025 C 
HETATM    5  C13 UNL     1      -3.459  50.326 -22.323  1.00  0.00     0.141 C 
HETATM    6  C15 UNL     1      -4.819  48.942 -24.306  1.00  0.00     0.029 C 
HETATM    7  C19 UNL     1      -6.351  49.074 -24.156  1.00  0.00    -0.066 C 
HETATM    8  C20 UNL     1      -7.260  48.372 -24.884  1.00  0.00    -0.021 C 
HETATM    9  C21 UNL     1      -6.954  47.345 -25.946  1.00  0.00     0.052 C 
HETATM   10  C23 UNL     1      -6.691  49.964 -22.989  1.00  0.00     0.038 C 
HETATM   11  C24 UNL     1      -6.338  49.228 -21.696  1.00  0.00     0.042 C 
HETATM   12  C25 UNL     1      -5.038  48.372 -21.783  1.00  0.00     0.065 C 
HETATM   13  C26 UNL     1      -5.376  46.883 -21.994  1.00  0.00     0.047 C 
ENDROOT
BRANCH   5  14
HETATM   14  O1  UNL     1      -3.315  51.343 -23.309  1.00  0.00    -0.389 OA
HETATM   15  C14 UNL     1      -4.067  52.518 -23.022  1.00  0.00     0.202 C 
ENDBRANCH   5  14
BRANCH   6  16
HETATM   16  C16 UNL     1      -4.274  49.929 -25.371  1.00  0.00     0.012 C 
BRANCH  16  17
HETATM   17  C17 UNL     1      -3.694  49.284 -26.636  1.00  0.00     0.027 C 
BRANCH  17  18
HETATM   18  C18 UNL     1      -3.032  50.309 -27.557  1.00  0.00     0.164 C 
BRANCH  18  19
HETATM   19  O2  UNL     1      -3.623  50.293 -28.849  1.00  0.00    -0.401 OA
HETATM   20  H27 UNL     1      -4.517  50.666 -28.765  1.00  0.00     0.209 HD
ENDBRANCH  18  19
ENDBRANCH  17  18
ENDBRANCH  16  17
ENDBRANCH   6  16
BRANCH  12  21
HETATM   21  O4  UNL     1      -4.440  48.438 -20.477  1.00  0.00    -0.389 OA
HETATM   22  H39 UNL     1      -5.067  48.064 -19.836  1.00  0.00     0.210 HD
ENDBRANCH  12  21
BRANCH   1  23
HETATM   23  C6  UNL     1      -0.858  50.831 -21.987  1.00  0.00    -0.074 C 
HETATM   24  C5  UNL     1       0.065  51.224 -21.080  1.00  0.00     0.003 C 
BRANCH  24  25
HETATM   25  C4  UNL     1       0.067  50.986 -19.648  1.00  0.00     0.001 C 
HETATM   26  C3  UNL     1      -1.037  51.132 -18.894  1.00  0.00     0.006 C 
BRANCH  26  27
HETATM   27  C2  UNL     1      -1.146  50.908 -17.452  1.00  0.00    -0.067 C 
HETATM   28  C1  UNL     1      -2.376  50.770 -16.923  1.00  0.00     0.019 C 
BRANCH  27  29
HETATM   29  C27 UNL     1       0.138  50.840 -16.636  1.00  0.00     0.041 C 
BRANCH  29  30
HETATM   30  C28 UNL     1       0.700  52.165 -16.100  1.00  0.00     0.032 C 
BRANCH  30  31
HETATM   31  C29 UNL     1       2.145  52.344 -16.487  1.00  0.00    -0.024 C 
HETATM   32  C30 UNL     1       3.236  52.040 -15.759  1.00  0.00    -0.091 C 
HETATM   33  C31 UNL     1       4.618  52.332 -16.285  1.00  0.00     0.042 C 
HETATM   34  C32 UNL     1       3.215  51.396 -14.399  1.00  0.00     0.042 C 
ENDBRANCH  30  31
ENDBRANCH  29  30
ENDBRANCH  27  29
ENDBRANCH  26  27
ENDBRANCH  24  25
BRANCH  23  35
HETATM   35  C7  UNL     1      -0.721  51.207 -23.464  1.00  0.00     0.030 C 
HETATM   36  C8  UNL     1       0.266  52.316 -23.821  1.00  0.00     0.010 C 
ENDBRANCH  23  35
ENDBRANCH   1  23
BRANCH   8  37
HETATM   37  C22 UNL     1      -8.739  48.519 -24.675  1.00  0.00     0.265 C 
HETATM   38  O3  UNL     1      -9.428  49.291 -25.335  1.00  0.00    -0.302 OA
ENDBRANCH   8  37
TORSDOF 14
ENDMDL
MODEL 3
REMARK minimizedAffinity -8.0021677
REMARK  14 active torsions:
REMARK  status: ('A' for Active; 'I' for Inactive)
REMARK    1  A    between atoms: C2_2  and  C3_3 
REMARK    2  A    between atoms: C2_2  and  C27_31 
REMARK    3  A    between atoms: C4_4  and  C5_5 
REMARK    4  A    between atoms: C6_6  and  C7_7 
REMARK    5  A    between atoms: C6_6  and  C9_9 
REMARK    6  A    between atoms: C13_13  and  O1_14 
REMARK    7  A    between atoms: C15_16  and  C16_17 
REMARK    8  A    between atoms: C16_17  and  C17_18 
REMARK    9  A    between atoms: C17_18  and  C18_19 
REMARK   10  A    between atoms: C18_19  and  O2_20 
REMARK   11  A    between atoms: C20_22  and  C22_24 
REMARK   12  A    between atoms: C25_28  and  O4_30 
REMARK   13  A    between atoms: C27_31  and  C28_32 
REMARK   14  A    between atoms: C28_32  and  C29_33 
ROOT
HETATM    1  C9  UNL     1      -4.940  49.592 -23.036  1.00  0.00     0.044 C 
HETATM    2  C10 UNL     1      -4.071  48.330 -23.138  1.00  0.00     0.013 C 
HETATM    3  C11 UNL     1      -2.697  48.826 -23.536  1.00  0.00     0.017 C 
HETATM    4  C12 UNL     1      -2.912  50.026 -24.501  1.00  0.00     0.025 C 
HETATM    5  C13 UNL     1      -4.184  50.716 -23.842  1.00  0.00     0.141 C 
HETATM    6  C15 UNL     1      -1.512  50.818 -24.581  1.00  0.00     0.029 C 
HETATM    7  C19 UNL     1      -1.313  51.536 -25.935  1.00  0.00    -0.066 C 
HETATM    8  C20 UNL     1      -0.136  51.587 -26.614  1.00  0.00    -0.021 C 
HETATM    9  C21 UNL     1       1.169  50.957 -26.192  1.00  0.00     0.052 C 
HETATM   10  C23 UNL     1      -2.632  52.029 -26.467  1.00  0.00     0.038 C 
HETATM   11  C24 UNL     1      -3.464  50.822 -26.902  1.00  0.00     0.042 C 
HETATM   12  C25 UNL     1      -3.315  49.577 -25.976  1.00  0.00     0.065 C 
HETATM   13  C26 UNL     1      -2.346  48.549 -26.594  1.00  0.00     0.047 C 
ENDROOT
BRANCH   5  14
HETATM   14  O1  UNL     1      -3.870  51.840 -23.027  1.00  0.00    -0.389 OA
HETATM   15  C14 UNL     1      -4.732  52.953 -23.244  1.00  0.00     0.202 C 
ENDBRANCH   5  14
BRANCH   6  16
HETATM   16  C16 UNL     1      -1.219  51.772 -23.394  1.00  0.00     0.012 C 
BRANCH  16  17
HETATM   17  C17 UNL     1       0.226  52.281 -23.295  1.00  0.00     0.027 C 
BRANCH  17  18
HETATM   18  C18 UNL     1       0.454  53.133 -22.047  1.00  0.00     0.164 C 
BRANCH  18  19
HETATM   19  O2  UNL     1       1.368  54.189 -22.308  1.00  0.00    -0.401 OA
HETATM   20  H27 UNL     1       0.919  54.825 -22.891  1.00  0.00     0.209 HD
ENDBRANCH  18  19
ENDBRANCH  17  18
ENDBRANCH  16  17
ENDBRANCH   6  16
BRANCH  12  21
HETATM   21  O4  UNL     1      -4.599  48.931 -25.982  1.00  0.00    -0.389 OA
HETATM   22  H39 UNL     1      -4.805  48.670 -26.895  1.00  0.00     0.210 HD
ENDBRANCH  12  21
BRANCH   1  23
HETATM   23  C6  UNL     1      -5.365  49.905 -21.589  1.00  0.00    -0.074 C 
HETATM   24  C5  UNL     1      -4.498  50.258 -20.612  1.00  0.00     0.003 C 
BRANCH  24  25
HETATM   25  C4  UNL     1      -3.052  50.350 -20.693  1.00  0.00     0.001 C 
HETATM   26  C3  UNL     1      -2.292  50.669 -19.631  1.00  0.00     0.006 C 
BRANCH  26  27
HETATM   27  C2  UNL     1      -0.832  50.777 -19.602  1.00  0.00    -0.067 C 
HETATM   28  C1  UNL     1      -0.116  49.886 -20.312  1.00  0.00     0.019 C 
BRANCH  27  29
HETATM   29  C27 UNL     1      -0.210  51.892 -18.772  1.00  0.00     0.041 C 
BRANCH  29  30
HETATM   30  C28 UNL     1       0.385  51.506 -17.409  1.00  0.00     0.032 C 
BRANCH  30  31
HETATM   31  C29 UNL     1       1.720  52.168 -17.186  1.00  0.00    -0.024 C 
HETATM   32  C30 UNL     1       2.516  52.070 -16.103  1.00  0.00    -0.091 C 
HETATM   33  C31 UNL     1       3.806  52.845 -16.026  1.00  0.00     0.042 C 
HETATM   34  C32 UNL     1       2.235  51.212 -14.899  1.00  0.00     0.042 C 
ENDBRANCH  30  31
ENDBRANCH  29  30
ENDBRANCH  27  29
ENDBRANCH  26  27
ENDBRANCH  24  25
BRANCH  23  35
HETATM   35  C7  UNL     1      -6.869  49.822 -21.315  1.00  0.00     0.030 C 
HETATM   36  C8  UNL     1      -7.315  49.697 -19.860  1.00  0.00     0.010 C 
ENDBRANCH  23  35
ENDBRANCH   1  23
BRANCH   8  37
HETATM   37  C22 UNL     1      -0.007  52.275 -27.941  1.00  0.00     0.265 C 
HETATM   38  O3  UNL     1      -0.121  53.490 -28.072  1.00  0.00    -0.302 OA
ENDBRANCH   8  37
TORSDOF 14
ENDMDL
MODEL 4
REMARK minimizedAffinity -7.9875679
REMARK  14 active torsions:
REMARK  status: ('A' for Active; 'I' for Inactive)
REMARK    1  A    between atoms: C2_2  and  C3_3 
REMARK    2  A    between atoms: C2_2  and  C27_31 
REMARK    3  A    between atoms: C4_4  and  C5_5 
REMARK    4  A    between atoms: C6_6  and  C7_7 
REMARK    5  A    between atoms: C6_6  and  C9_9 
REMARK    6  A    between atoms: C13_13  and  O1_14 
REMARK    7  A    between atoms: C15_16  and  C16_17 
REMARK    8  A    between atoms: C16_17  and  C17_18 
REMARK    9  A    between atoms: C17_18  and  C18_19 
REMARK   10  A    between atoms: C18_19  and  O2_20 
REMARK   11  A    between atoms: C20_22  and  C22_24 
REMARK   12  A    between atoms: C25_28  and  O4_30 
REMARK   13  A    between atoms: C27_31  and  C28_32 
REMARK   14  A    between atoms: C28_32  and  C29_33 
ROOT
HETATM    1  C9  UNL     1      -2.989  51.914 -23.732  1.00  0.00     0.044 C 
HETATM    2  C10 UNL     1      -3.305  52.192 -22.255  1.00  0.00     0.013 C 
HETATM    3  C11 UNL     1      -3.551  50.831 -21.640  1.00  0.00     0.017 C 
HETATM    4  C12 UNL     1      -4.269  49.970 -22.717  1.00  0.00     0.025 C 
HETATM    5  C13 UNL     1      -3.533  50.466 -24.037  1.00  0.00     0.141 C 
HETATM    6  C15 UNL     1      -4.145  48.434 -22.249  1.00  0.00     0.029 C 
HETATM    7  C19 UNL     1      -5.324  47.566 -22.741  1.00  0.00    -0.066 C 
HETATM    8  C20 UNL     1      -5.938  46.608 -21.996  1.00  0.00    -0.021 C 
HETATM    9  C21 UNL     1      -5.603  46.227 -20.576  1.00  0.00     0.052 C 
HETATM   10  C23 UNL     1      -5.795  48.036 -24.091  1.00  0.00     0.038 C 
HETATM   11  C24 UNL     1      -6.486  49.390 -23.922  1.00  0.00     0.042 C 
HETATM   12  C25 UNL     1      -5.817  50.321 -22.866  1.00  0.00     0.065 C 
HETATM   13  C26 UNL     1      -6.590  50.280 -21.532  1.00  0.00     0.047 C 
ENDROOT
BRANCH   5  14
HETATM   14  O1  UNL     1      -2.504  49.590 -24.483  1.00  0.00    -0.389 OA
HETATM   15  C14 UNL     1      -2.652  49.192 -25.843  1.00  0.00     0.202 C 
ENDBRANCH   5  14
BRANCH   6  16
HETATM   16  C16 UNL     1      -2.784  47.755 -22.553  1.00  0.00     0.012 C 
BRANCH  16  17
HETATM   17  C17 UNL     1      -1.970  47.324 -21.326  1.00  0.00     0.027 C 
BRANCH  17  18
HETATM   18  C18 UNL     1      -2.577  47.838 -20.020  1.00  0.00     0.164 C 
BRANCH  18  19
HETATM   19  O2  UNL     1      -2.144  47.060 -18.913  1.00  0.00    -0.401 OA
HETATM   20  H27 UNL     1      -1.201  47.255 -18.772  1.00  0.00     0.209 HD
ENDBRANCH  18  19
ENDBRANCH  17  18
ENDBRANCH  16  17
ENDBRANCH   6  16
BRANCH  12  21
HETATM   21  O4  UNL     1      -5.994  51.660 -23.359  1.00  0.00    -0.389 OA
HETATM   22  H39 UNL     1      -6.947  51.835 -23.431  1.00  0.00     0.210 HD
ENDBRANCH  12  21
BRANCH   1  23
HETATM   23  C6  UNL     1      -1.524  52.224 -24.095  1.00  0.00    -0.074 C 
HETATM   24  C5  UNL     1      -0.479  51.967 -23.276  1.00  0.00     0.003 C 
BRANCH  24  25
HETATM   25  C4  UNL     1      -0.512  51.435 -21.927  1.00  0.00     0.001 C 
HETATM   26  C3  UNL     1      -0.057  52.129 -20.868  1.00  0.00     0.006 C 
BRANCH  26  27
HETATM   27  C2  UNL     1      -0.055  51.692 -19.471  1.00  0.00    -0.067 C 
HETATM   28  C1  UNL     1      -0.360  50.407 -19.208  1.00  0.00     0.019 C 
BRANCH  27  29
HETATM   29  C27 UNL     1       0.294  52.714 -18.398  1.00  0.00     0.041 C 
BRANCH  29  30
HETATM   30  C28 UNL     1       1.745  52.733 -17.892  1.00  0.00     0.032 C 
BRANCH  30  31
HETATM   31  C29 UNL     1       1.831  52.286 -16.456  1.00  0.00    -0.024 C 
HETATM   32  C30 UNL     1       2.941  52.112 -15.713  1.00  0.00    -0.091 C 
HETATM   33  C31 UNL     1       2.846  51.609 -14.296  1.00  0.00     0.042 C 
HETATM   34  C32 UNL     1       4.344  52.391 -16.179  1.00  0.00     0.042 C 
ENDBRANCH  30  31
ENDBRANCH  29  30
ENDBRANCH  27  29
ENDBRANCH  26  27
ENDBRANCH  24  25
BRANCH  23  35
HETATM   35  C7  UNL     1      -1.307  52.829 -25.484  1.00  0.00     0.030 C 
HETATM   36  C8  UNL     1       0.063  53.431 -25.785  1.00  0.00     0.010 C 
ENDBRANCH  23  35
ENDBRANCH   1  23
BRANCH   8  37
HETATM   37  C22 UNL     1      -7.101  45.814 -22.516  1.00  0.00     0.265 C 
HETATM   38  O3  UNL     1      -8.266  46.176 -22.379  1.00  0.00    -0.302 OA
ENDBRANCH   8  37
TORSDOF 14
ENDMDL
MODEL 5
REMARK minimizedAffinity -7.85654402
REMARK  14 active torsions:
REMARK  status: ('A' for Active; 'I' for Inactive)
REMARK    1  A    between atoms: C2_2  and  C3_3 
REMARK    2  A    between atoms: C2_2  and  C27_31 
REMARK    3  A    between atoms: C4_4  and  C5_5 
REMARK    4  A    between atoms: C6_6  and  C7_7 
REMARK    5  A    between atoms: C6_6  and  C9_9 
REMARK    6  A    between atoms: C13_13  and  O1_14 
REMARK    7  A    between atoms: C15_16  and  C16_17 
REMARK    8  A    between atoms: C16_17  and  C17_18 
REMARK    9  A    between atoms: C17_18  and  C18_19 
REMARK   10  A    between atoms: C18_19  and  O2_20 
REMARK   11  A    between atoms: C20_22  and  C22_24 
REMARK   12  A    between atoms: C25_28  and  O4_30 
REMARK   13  A    between atoms: C27_31  and  C28_32 
REMARK   14  A    between atoms: C28_32  and  C29_33 
ROOT
HETATM    1  C9  UNL     1      -3.212  49.881 -24.085  1.00  0.00     0.044 C 
HETATM    2  C10 UNL     1      -2.074  49.257 -23.263  1.00  0.00     0.013 C 
HETATM    3  C11 UNL     1      -2.757  48.315 -22.293  1.00  0.00     0.017 C 
HETATM    4  C12 UNL     1      -4.097  48.984 -21.879  1.00  0.00     0.025 C 
HETATM    5  C13 UNL     1      -4.533  49.656 -23.253  1.00  0.00     0.141 C 
HETATM    6  C15 UNL     1      -5.008  47.835 -21.215  1.00  0.00     0.029 C 
HETATM    7  C19 UNL     1      -5.990  48.391 -20.159  1.00  0.00    -0.066 C 
HETATM    8  C20 UNL     1      -6.273  47.783 -18.977  1.00  0.00    -0.021 C 
HETATM    9  C21 UNL     1      -5.690  46.486 -18.474  1.00  0.00     0.052 C 
HETATM   10  C23 UNL     1      -6.460  49.767 -20.552  1.00  0.00     0.038 C 
HETATM   11  C24 UNL     1      -5.291  50.742 -20.401  1.00  0.00     0.042 C 
HETATM   12  C25 UNL     1      -3.909  50.151 -20.810  1.00  0.00     0.065 C 
HETATM   13  C26 UNL     1      -3.108  49.721 -19.564  1.00  0.00     0.047 C 
ENDROOT
BRANCH   5  14
HETATM   14  O1  UNL     1      -5.501  48.905 -23.978  1.00  0.00    -0.389 OA
HETATM   15  C14 UNL     1      -6.764  49.556 -24.074  1.00  0.00     0.202 C 
ENDBRANCH   5  14
BRANCH   6  16
HETATM   16  C16 UNL     1      -5.736  46.901 -22.218  1.00  0.00     0.012 C 
BRANCH  16  17
HETATM   17  C17 UNL     1      -6.661  45.849 -21.591  1.00  0.00     0.027 C 
BRANCH  17  18
HETATM   18  C18 UNL     1      -6.099  44.434 -21.722  1.00  0.00     0.164 C 
BRANCH  18  19
HETATM   19  O2  UNL     1      -4.812  44.336 -21.128  1.00  0.00    -0.401 OA
HETATM   20  H27 UNL     1      -4.931  44.403 -20.165  1.00  0.00     0.209 HD
ENDBRANCH  18  19
ENDBRANCH  17  18
ENDBRANCH  16  17
ENDBRANCH   6  16
BRANCH  12  21
HETATM   21  O4  UNL     1      -3.167  51.246 -21.371  1.00  0.00    -0.389 OA
HETATM   22  H39 UNL     1      -3.070  51.931 -20.688  1.00  0.00     0.210 HD
ENDBRANCH  12  21
BRANCH   1  23
HETATM   23  C6  UNL     1      -3.201  49.425 -25.556  1.00  0.00    -0.074 C 
HETATM   24  C5  UNL     1      -2.382  49.947 -26.498  1.00  0.00     0.003 C 
BRANCH  24  25
HETATM   25  C4  UNL     1      -1.434  51.036 -26.350  1.00  0.00     0.001 C 
HETATM   26  C3  UNL     1      -0.109  50.827 -26.254  1.00  0.00     0.006 C 
BRANCH  26  27
HETATM   27  C2  UNL     1       0.929  51.850 -26.116  1.00  0.00    -0.067 C 
HETATM   28  C1  UNL     1       2.206  51.492 -26.347  1.00  0.00     0.019 C 
BRANCH  27  29
HETATM   29  C27 UNL     1       0.503  53.257 -25.721  1.00  0.00     0.041 C 
BRANCH  29  30
HETATM   30  C28 UNL     1       0.739  53.680 -24.263  1.00  0.00     0.032 C 
BRANCH  30  31
HETATM   31  C29 UNL     1       0.385  52.572 -23.306  1.00  0.00    -0.024 C 
HETATM   32  C30 UNL     1       0.607  52.529 -21.978  1.00  0.00    -0.091 C 
HETATM   33  C31 UNL     1       0.228  51.311 -21.175  1.00  0.00     0.042 C 
HETATM   34  C32 UNL     1       1.224  53.638 -21.170  1.00  0.00     0.042 C 
ENDBRANCH  30  31
ENDBRANCH  29  30
ENDBRANCH  27  29
ENDBRANCH  26  27
ENDBRANCH  24  25
BRANCH  23  35
HETATM   35  C7  UNL     1      -4.175  48.295 -25.899  1.00  0.00     0.030 C 
HETATM   36  C8  UNL     1      -4.660  48.195 -27.343  1.00  0.00     0.010 C 
ENDBRANCH  23  35
ENDBRANCH   1  23
BRANCH   8  37
HETATM   37  C22 UNL     1      -7.214  48.385 -17.974  1.00  0.00     0.265 C 
HETATM   38  O3  UNL     1      -8.427  48.439 -18.151  1.00  0.00    -0.302 OA
ENDBRANCH   8  37
TORSDOF 14
ENDMDL
MODEL 6
REMARK minimizedAffinity -7.75909758
REMARK  14 active torsions:
REMARK  status: ('A' for Active; 'I' for Inactive)
REMARK    1  A    between atoms: C2_2  and  C3_3 
REMARK    2  A    between atoms: C2_2  and  C27_31 
REMARK    3  A    between atoms: C4_4  and  C5_5 
REMARK    4  A    between atoms: C6_6  and  C7_7 
REMARK    5  A    between atoms: C6_6  and  C9_9 
REMARK    6  A    between atoms: C13_13  and  O1_14 
REMARK    7  A    between atoms: C15_16  and  C16_17 
REMARK    8  A    between atoms: C16_17  and  C17_18 
REMARK    9  A    between atoms: C17_18  and  C18_19 
REMARK   10  A    between atoms: C18_19  and  O2_20 
REMARK   11  A    between atoms: C20_22  and  C22_24 
REMARK   12  A    between atoms: C25_28  and  O4_30 
REMARK   13  A    between atoms: C27_31  and  C28_32 
REMARK   14  A    between atoms: C28_32  and  C29_33 
ROOT
HETATM    1  C9  UNL     1      -3.145  51.464 -22.064  1.00  0.00     0.044 C 
HETATM    2  C10 UNL     1      -4.062  51.607 -20.840  1.00  0.00     0.013 C 
HETATM    3  C11 UNL     1      -4.610  50.218 -20.591  1.00  0.00     0.017 C 
HETATM    4  C12 UNL     1      -4.822  49.558 -21.982  1.00  0.00     0.025 C 
HETATM    5  C13 UNL     1      -3.563  50.120 -22.775  1.00  0.00     0.141 C 
HETATM    6  C15 UNL     1      -4.980  47.976 -21.730  1.00  0.00     0.029 C 
HETATM    7  C19 UNL     1      -5.862  47.290 -22.797  1.00  0.00    -0.066 C 
HETATM    8  C20 UNL     1      -6.780  46.323 -22.531  1.00  0.00    -0.021 C 
HETATM    9  C21 UNL     1      -7.115  45.755 -21.174  1.00  0.00     0.052 C 
HETATM   10  C23 UNL     1      -5.676  47.951 -24.137  1.00  0.00     0.038 C 
HETATM   11  C24 UNL     1      -6.312  49.340 -24.087  1.00  0.00     0.042 C 
HETATM   12  C25 UNL     1      -6.132  50.077 -22.726  1.00  0.00     0.065 C 
HETATM   13  C26 UNL     1      -7.411  49.968 -21.871  1.00  0.00     0.047 C 
ENDROOT
BRANCH   5  14
HETATM   14  O1  UNL     1      -2.480  49.199 -22.859  1.00  0.00    -0.389 OA
HETATM   15  C14 UNL     1      -1.825  48.984 -21.612  1.00  0.00     0.202 C 
ENDBRANCH   5  14
BRANCH   6  16
HETATM   16  C16 UNL     1      -3.653  47.201 -21.518  1.00  0.00     0.012 C 
BRANCH  16  17
HETATM   17  C17 UNL     1      -3.694  46.099 -20.450  1.00  0.00     0.027 C 
BRANCH  17  18
HETATM   18  C18 UNL     1      -3.652  46.666 -19.032  1.00  0.00     0.164 C 
BRANCH  18  19
HETATM   19  O2  UNL     1      -2.331  47.040 -18.668  1.00  0.00    -0.401 OA
HETATM   20  H27 UNL     1      -2.096  47.825 -19.192  1.00  0.00     0.209 HD
ENDBRANCH  18  19
ENDBRANCH  17  18
ENDBRANCH  16  17
ENDBRANCH   6  16
BRANCH  12  21
HETATM   21  O4  UNL     1      -6.018  51.473 -23.050  1.00  0.00    -0.389 OA
HETATM   22  H39 UNL     1      -6.837  51.750 -23.497  1.00  0.00     0.210 HD
ENDBRANCH  12  21
BRANCH   1  23
HETATM   23  C6  UNL     1      -1.657  51.663 -21.718  1.00  0.00    -0.074 C 
HETATM   24  C5  UNL     1      -0.714  52.004 -22.626  1.00  0.00     0.003 C 
BRANCH  24  25
HETATM   25  C4  UNL     1      -0.878  52.183 -24.057  1.00  0.00     0.001 C 
HETATM   26  C3  UNL     1       0.014  51.711 -24.946  1.00  0.00     0.006 C 
BRANCH  26  27
HETATM   27  C2  UNL     1      -0.061  51.827 -26.404  1.00  0.00    -0.067 C 
HETATM   28  C1  UNL     1       0.753  52.708 -27.013  1.00  0.00     0.019 C 
BRANCH  27  29
HETATM   29  C27 UNL     1      -1.054  50.940 -27.145  1.00  0.00     0.041 C 
BRANCH  29  30
HETATM   30  C28 UNL     1      -2.520  51.400 -27.175  1.00  0.00     0.032 C 
BRANCH  30  31
HETATM   31  C29 UNL     1      -3.411  50.350 -27.785  1.00  0.00    -0.024 C 
HETATM   32  C30 UNL     1      -3.608  49.087 -27.358  1.00  0.00    -0.091 C 
HETATM   33  C31 UNL     1      -4.505  48.149 -28.123  1.00  0.00     0.042 C 
HETATM   34  C32 UNL     1      -2.992  48.488 -26.123  1.00  0.00     0.042 C 
ENDBRANCH  30  31
ENDBRANCH  29  30
ENDBRANCH  27  29
ENDBRANCH  26  27
ENDBRANCH  24  25
BRANCH  23  35
HETATM   35  C7  UNL     1      -1.297  51.476 -20.242  1.00  0.00     0.030 C 
HETATM   36  C8  UNL     1       0.173  51.611 -19.851  1.00  0.00     0.010 C 
ENDBRANCH  23  35
ENDBRANCH   1  23
BRANCH   8  37
HETATM   37  C22 UNL     1      -7.631  45.711 -23.605  1.00  0.00     0.265 C 
HETATM   38  O3  UNL     1      -7.782  44.499 -23.722  1.00  0.00    -0.302 OA
ENDBRANCH   8  37
TORSDOF 14
ENDMDL
MODEL 7
REMARK minimizedAffinity -7.72766256
REMARK  14 active torsions:
REMARK  status: ('A' for Active; 'I' for Inactive)
REMARK    1  A    between atoms: C2_2  and  C3_3 
REMARK    2  A    between atoms: C2_2  and  C27_31 
REMARK    3  A    between atoms: C4_4  and  C5_5 
REMARK    4  A    between atoms: C6_6  and  C7_7 
REMARK    5  A    between atoms: C6_6  and  C9_9 
REMARK    6  A    between atoms: C13_13  and  O1_14 
REMARK    7  A    between atoms: C15_16  and  C16_17 
REMARK    8  A    between atoms: C16_17  and  C17_18 
REMARK    9  A    between atoms: C17_18  and  C18_19 
REMARK   10  A    between atoms: C18_19  and  O2_20 
REMARK   11  A    between atoms: C20_22  and  C22_24 
REMARK   12  A    between atoms: C25_28  and  O4_30 
REMARK   13  A    between atoms: C27_31  and  C28_32 
REMARK   14  A    between atoms: C28_32  and  C29_33 
ROOT
HETATM    1  C9  UNL     1      -2.821  51.463 -25.335  1.00  0.00     0.044 C 
HETATM    2  C10 UNL     1      -3.447  52.654 -24.593  1.00  0.00     0.013 C 
HETATM    3  C11 UNL     1      -2.645  52.791 -23.317  1.00  0.00     0.017 C 
HETATM    4  C12 UNL     1      -2.275  51.354 -22.857  1.00  0.00     0.025 C 
HETATM    5  C13 UNL     1      -2.004  50.651 -24.257  1.00  0.00     0.141 C 
HETATM    6  C15 UNL     1      -1.087  51.498 -21.779  1.00  0.00     0.029 C 
HETATM    7  C19 UNL     1      -1.084  50.354 -20.742  1.00  0.00    -0.066 C 
HETATM    8  C20 UNL     1      -0.841  50.519 -19.414  1.00  0.00    -0.021 C 
HETATM    9  C21 UNL     1      -0.546  51.822 -18.713  1.00  0.00     0.052 C 
HETATM   10  C23 UNL     1      -1.542  49.067 -21.376  1.00  0.00     0.038 C 
HETATM   11  C24 UNL     1      -3.037  49.178 -21.678  1.00  0.00     0.042 C 
HETATM   12  C25 UNL     1      -3.488  50.589 -22.160  1.00  0.00     0.065 C 
HETATM   13  C26 UNL     1      -4.134  51.382 -21.005  1.00  0.00     0.047 C 
ENDROOT
BRANCH   5  14
HETATM   14  O1  UNL     1      -0.624  50.555 -24.593  1.00  0.00    -0.389 OA
HETATM   15  C14 UNL     1       0.019  51.821 -24.707  1.00  0.00     0.202 C 
ENDBRANCH   5  14
BRANCH   6  16
HETATM   16  C16 UNL     1       0.328  51.716 -22.376  1.00  0.00     0.012 C 
BRANCH  16  17
HETATM   17  C17 UNL     1       1.307  52.498 -21.490  1.00  0.00     0.027 C 
BRANCH  17  18
HETATM   18  C18 UNL     1       0.950  53.983 -21.406  1.00  0.00     0.164 C 
BRANCH  18  19
HETATM   19  O2  UNL     1       2.039  54.796 -21.821  1.00  0.00    -0.401 OA
HETATM   20  H27 UNL     1       2.138  54.680 -22.782  1.00  0.00     0.209 HD
ENDBRANCH  18  19
ENDBRANCH  17  18
ENDBRANCH  16  17
ENDBRANCH   6  16
BRANCH  12  21
HETATM   21  O4  UNL     1      -4.554  50.359 -23.097  1.00  0.00    -0.389 OA
HETATM   22  H39 UNL     1      -5.273  49.897 -22.633  1.00  0.00     0.210 HD
ENDBRANCH  12  21
BRANCH   1  23
HETATM   23  C6  UNL     1      -2.092  51.883 -26.625  1.00  0.00    -0.074 C 
HETATM   24  C5  UNL     1      -2.396  51.398 -27.850  1.00  0.00     0.003 C 
BRANCH  24  25
HETATM   25  C4  UNL     1      -3.376  50.383 -28.190  1.00  0.00     0.001 C 
HETATM   26  C3  UNL     1      -3.693  49.381 -27.350  1.00  0.00     0.006 C 
BRANCH  26  27
HETATM   27  C2  UNL     1      -4.672  48.318 -27.589  1.00  0.00    -0.067 C 
HETATM   28  C1  UNL     1      -5.428  47.909 -26.554  1.00  0.00     0.019 C 
BRANCH  27  29
HETATM   29  C27 UNL     1      -4.777  47.741 -28.994  1.00  0.00     0.041 C 
BRANCH  29  30
HETATM   30  C28 UNL     1      -5.410  48.632 -30.074  1.00  0.00     0.032 C 
BRANCH  30  31
HETATM   31  C29 UNL     1      -6.015  47.808 -31.180  1.00  0.00    -0.024 C 
HETATM   32  C30 UNL     1      -7.258  47.903 -31.691  1.00  0.00    -0.091 C 
HETATM   33  C31 UNL     1      -7.719  46.959 -32.771  1.00  0.00     0.042 C 
HETATM   34  C32 UNL     1      -8.289  48.917 -31.272  1.00  0.00     0.042 C 
ENDBRANCH  30  31
ENDBRANCH  29  30
ENDBRANCH  27  29
ENDBRANCH  26  27
ENDBRANCH  24  25
BRANCH  23  35
HETATM   35  C7  UNL     1      -0.992  52.932 -26.444  1.00  0.00     0.030 C 
HETATM   36  C8  UNL     1      -0.529  53.691 -27.685  1.00  0.00     0.010 C 
ENDBRANCH  23  35
ENDBRANCH   1  23
BRANCH   8  37
HETATM   37  C22 UNL     1      -0.880  49.373 -18.445  1.00  0.00     0.265 C 
HETATM   38  O3  UNL     1      -0.194  49.341 -17.428  1.00  0.00    -0.302 OA
ENDBRANCH   8  37
TORSDOF 14
ENDMDL
MODEL 8
REMARK minimizedAffinity -7.71116352
REMARK  14 active torsions:
REMARK  status: ('A' for Active; 'I' for Inactive)
REMARK    1  A    between atoms: C2_2  and  C3_3 
REMARK    2  A    between atoms: C2_2  and  C27_31 
REMARK    3  A    between atoms: C4_4  and  C5_5 
REMARK    4  A    between atoms: C6_6  and  C7_7 
REMARK    5  A    between atoms: C6_6  and  C9_9 
REMARK    6  A    between atoms: C13_13  and  O1_14 
REMARK    7  A    between atoms: C15_16  and  C16_17 
REMARK    8  A    between atoms: C16_17  and  C17_18 
REMARK    9  A    between atoms: C17_18  and  C18_19 
REMARK   10  A    between atoms: C18_19  and  O2_20 
REMARK   11  A    between atoms: C20_22  and  C22_24 
REMARK   12  A    between atoms: C25_28  and  O4_30 
REMARK   13  A    between atoms: C27_31  and  C28_32 
REMARK   14  A    between atoms: C28_32  and  C29_33 
ROOT
HETATM    1  C9  UNL     1      -2.419  50.924 -20.456  1.00  0.00     0.044 C 
HETATM    2  C10 UNL     1      -3.333  50.929 -19.221  1.00  0.00     0.013 C 
HETATM    3  C11 UNL     1      -4.077  49.611 -19.274  1.00  0.00     0.017 C 
HETATM    4  C12 UNL     1      -4.350  49.305 -20.773  1.00  0.00     0.025 C 
HETATM    5  C13 UNL     1      -3.008  49.839 -21.437  1.00  0.00     0.141 C 
HETATM    6  C15 UNL     1      -4.736  47.744 -20.869  1.00  0.00     0.029 C 
HETATM    7  C19 UNL     1      -5.683  47.438 -22.051  1.00  0.00    -0.066 C 
HETATM    8  C20 UNL     1      -6.734  46.578 -21.992  1.00  0.00    -0.021 C 
HETATM    9  C21 UNL     1      -7.175  45.784 -20.788  1.00  0.00     0.052 C 
HETATM   10  C23 UNL     1      -5.376  48.340 -23.217  1.00  0.00     0.038 C 
HETATM   11  C24 UNL     1      -5.811  49.762 -22.861  1.00  0.00     0.042 C 
HETATM   12  C25 UNL     1      -5.557  50.154 -21.374  1.00  0.00     0.065 C 
HETATM   13  C26 UNL     1      -6.857  50.045 -20.550  1.00  0.00     0.047 C 
ENDROOT
BRANCH   5  14
HETATM   14  O1  UNL     1      -2.065  48.814 -21.730  1.00  0.00    -0.389 OA
HETATM   15  C14 UNL     1      -1.327  48.384 -20.590  1.00  0.00     0.202 C 
ENDBRANCH   5  14
BRANCH   6  16
HETATM   16  C16 UNL     1      -3.537  46.761 -20.843  1.00  0.00     0.012 C 
BRANCH  16  17
HETATM   17  C17 UNL     1      -3.789  45.428 -20.125  1.00  0.00     0.027 C 
BRANCH  17  18
HETATM   18  C18 UNL     1      -3.414  45.490 -18.644  1.00  0.00     0.164 C 
BRANCH  18  19
HETATM   19  O2  UNL     1      -2.632  46.643 -18.361  1.00  0.00    -0.401 OA
HETATM   20  H27 UNL     1      -3.216  47.417 -18.440  1.00  0.00     0.209 HD
ENDBRANCH  18  19
ENDBRANCH  17  18
ENDBRANCH  16  17
ENDBRANCH   6  16
BRANCH  12  21
HETATM   21  O4  UNL     1      -5.241  51.556 -21.388  1.00  0.00    -0.389 OA
HETATM   22  H39 UNL     1      -6.002  52.036 -21.756  1.00  0.00     0.210 HD
ENDBRANCH  12  21
BRANCH   1  23
HETATM   23  C6  UNL     1      -0.926  50.829 -20.089  1.00  0.00    -0.074 C 
HETATM   24  C5  UNL     1       0.061  51.420 -20.802  1.00  0.00     0.003 C 
BRANCH  24  25
HETATM   25  C4  UNL     1      -0.060  52.176 -22.034  1.00  0.00     0.001 C 
HETATM   26  C3  UNL     1      -0.584  51.647 -23.154  1.00  0.00     0.006 C 
BRANCH  26  27
HETATM   27  C2  UNL     1      -0.761  52.322 -24.441  1.00  0.00    -0.067 C 
HETATM   28  C1  UNL     1      -0.207  53.538 -24.600  1.00  0.00     0.019 C 
BRANCH  27  29
HETATM   29  C27 UNL     1      -1.559  51.609 -25.523  1.00  0.00     0.041 C 
BRANCH  29  30
HETATM   30  C28 UNL     1      -0.867  50.451 -26.258  1.00  0.00     0.032 C 
BRANCH  30  31
HETATM   31  C29 UNL     1       0.607  50.710 -26.425  1.00  0.00    -0.024 C 
HETATM   32  C30 UNL     1       1.205  51.525 -27.316  1.00  0.00    -0.091 C 
HETATM   33  C31 UNL     1       2.707  51.629 -27.376  1.00  0.00     0.042 C 
HETATM   34  C32 UNL     1       0.483  52.394 -28.310  1.00  0.00     0.042 C 
ENDBRANCH  30  31
ENDBRANCH  29  30
ENDBRANCH  27  29
ENDBRANCH  26  27
ENDBRANCH  24  25
BRANCH  23  35
HETATM   35  C7  UNL     1      -0.612  50.030 -18.822  1.00  0.00     0.030 C 
HETATM   36  C8  UNL     1       0.199  50.726 -17.732  1.00  0.00     0.010 C 
ENDBRANCH  23  35
ENDBRANCH   1  23
BRANCH   8  37
HETATM   37  C22 UNL     1      -7.640  46.341 -23.165  1.00  0.00     0.265 C 
HETATM   38  O3  UNL     1      -8.662  46.993 -23.355  1.00  0.00    -0.302 OA
ENDBRANCH   8  37
TORSDOF 14
ENDMDL
MODEL 9
REMARK minimizedAffinity -7.64029837
REMARK  14 active torsions:
REMARK  status: ('A' for Active; 'I' for Inactive)
REMARK    1  A    between atoms: C2_2  and  C3_3 
REMARK    2  A    between atoms: C2_2  and  C27_31 
REMARK    3  A    between atoms: C4_4  and  C5_5 
REMARK    4  A    between atoms: C6_6  and  C7_7 
REMARK    5  A    between atoms: C6_6  and  C9_9 
REMARK    6  A    between atoms: C13_13  and  O1_14 
REMARK    7  A    between atoms: C15_16  and  C16_17 
REMARK    8  A    between atoms: C16_17  and  C17_18 
REMARK    9  A    between atoms: C17_18  and  C18_19 
REMARK   10  A    between atoms: C18_19  and  O2_20 
REMARK   11  A    between atoms: C20_22  and  C22_24 
REMARK   12  A    between atoms: C25_28  and  O4_30 
REMARK   13  A    between atoms: C27_31  and  C28_32 
REMARK   14  A    between atoms: C28_32  and  C29_33 
ROOT
HETATM    1  C9  UNL     1      -7.373  47.599 -27.741  1.00  0.00     0.044 C 
HETATM    2  C10 UNL     1      -7.388  46.429 -26.746  1.00  0.00     0.013 C 
HETATM    3  C11 UNL     1      -8.497  45.517 -27.224  1.00  0.00     0.017 C 
HETATM    4  C12 UNL     1      -9.626  46.429 -27.779  1.00  0.00     0.025 C 
HETATM    5  C13 UNL     1      -8.771  47.578 -28.470  1.00  0.00     0.141 C 
HETATM    6  C15 UNL     1     -10.590  45.492 -28.667  1.00  0.00     0.029 C 
HETATM    7  C19 UNL     1     -12.050  45.998 -28.693  1.00  0.00    -0.066 C 
HETATM    8  C20 UNL     1     -13.144  45.194 -28.620  1.00  0.00    -0.021 C 
HETATM    9  C21 UNL     1     -13.144  43.691 -28.492  1.00  0.00     0.052 C 
HETATM   10  C23 UNL     1     -12.086  47.503 -28.648  1.00  0.00     0.038 C 
HETATM   11  C24 UNL     1     -11.647  47.960 -27.256  1.00  0.00     0.042 C 
HETATM   12  C25 UNL     1     -10.505  47.103 -26.633  1.00  0.00     0.065 C 
HETATM   13  C26 UNL     1     -11.072  46.091 -25.616  1.00  0.00     0.047 C 
ENDROOT
BRANCH   5  14
HETATM   14  O1  UNL     1      -8.639  47.427 -29.878  1.00  0.00    -0.389 OA
HETATM   15  C14 UNL     1      -9.166  48.526 -30.616  1.00  0.00     0.202 C 
ENDBRANCH   5  14
BRANCH   6  16
HETATM   16  C16 UNL     1     -10.080  45.182 -30.098  1.00  0.00     0.012 C 
BRANCH  16  17
HETATM   17  C17 UNL     1     -11.156  44.757 -31.106  1.00  0.00     0.027 C 
BRANCH  17  18
HETATM   18  C18 UNL     1     -11.123  45.604 -32.379  1.00  0.00     0.164 C 
BRANCH  18  19
HETATM   19  O2  UNL     1     -11.818  46.830 -32.197  1.00  0.00    -0.401 OA
HETATM   20  H27 UNL     1     -11.288  47.378 -31.592  1.00  0.00     0.209 HD
ENDBRANCH  18  19
ENDBRANCH  17  18
ENDBRANCH  16  17
ENDBRANCH   6  16
BRANCH  12  21
HETATM   21  O4  UNL     1      -9.715  48.015 -25.851  1.00  0.00    -0.389 OA
HETATM   22  H39 UNL     1     -10.285  48.398 -25.163  1.00  0.00     0.210 HD
ENDBRANCH  12  21
BRANCH   1  23
HETATM   23  C6  UNL     1      -6.105  47.619 -28.616  1.00  0.00    -0.074 C 
HETATM   24  C5  UNL     1      -4.899  48.047 -28.180  1.00  0.00     0.003 C 
BRANCH  24  25
HETATM   25  C4  UNL     1      -4.568  48.611 -26.884  1.00  0.00     0.001 C 
HETATM   26  C3  UNL     1      -3.322  48.569 -26.379  1.00  0.00     0.006 C 
BRANCH  26  27
HETATM   27  C2  UNL     1      -2.880  49.116 -25.095  1.00  0.00    -0.067 C 
HETATM   28  C1  UNL     1      -3.336  48.536 -23.969  1.00  0.00     0.019 C 
BRANCH  27  29
HETATM   29  C27 UNL     1      -1.929  50.305 -25.108  1.00  0.00     0.041 C 
BRANCH  29  30
HETATM   30  C28 UNL     1      -1.451  50.806 -26.480  1.00  0.00     0.032 C 
BRANCH  30  31
HETATM   31  C29 UNL     1       0.044  50.692 -26.615  1.00  0.00    -0.024 C 
HETATM   32  C30 UNL     1       0.980  51.537 -26.140  1.00  0.00    -0.091 C 
HETATM   33  C31 UNL     1       2.443  51.294 -26.411  1.00  0.00     0.042 C 
HETATM   34  C32 UNL     1       0.698  52.764 -25.317  1.00  0.00     0.042 C 
ENDBRANCH  30  31
ENDBRANCH  29  30
ENDBRANCH  27  29
ENDBRANCH  26  27
ENDBRANCH  24  25
BRANCH  23  35
HETATM   35  C7  UNL     1      -6.284  47.084 -30.039  1.00  0.00     0.030 C 
HETATM   36  C8  UNL     1      -5.038  46.982 -30.916  1.00  0.00     0.010 C 
ENDBRANCH  23  35
ENDBRANCH   1  23
BRANCH   8  37
HETATM   37  C22 UNL     1     -14.541  45.744 -28.620  1.00  0.00     0.265 C 
HETATM   38  O3  UNL     1     -15.307  45.607 -27.670  1.00  0.00    -0.302 OA
ENDBRANCH   8  37
TORSDOF 14
ENDMDL
