MODEL 1
REMARK minimizedAffinity -9.634758
REMARK  5 active torsions:
REMARK  status: ('A' for Active; 'I' for Inactive)
REMARK    1  A    between atoms: C3_3  and  C4_4 
REMARK    2  A    between atoms: C4_4  and  O2_6 
REMARK    3  A    between atoms: O2_6  and  C5_7 
REMARK    4  A    between atoms: C5_7  and  C6_8 
REMARK    5  A    between atoms: C12_14  and  C13_15 
ROOT
HETATM    1  C1  UNL     1      -5.535   6.609  15.242  1.00  0.00     0.069 C 
HETATM    2  C2  UNL     1      -4.166   7.237  15.191  1.00  0.00     0.018 C 
HETATM    3  C3  UNL     1      -3.093   6.696  14.573  1.00  0.00     0.052 C 
HETATM    4  C12 UNL     1      -1.732   7.380  14.552  1.00  0.00     0.104 C 
HETATM    5  C22 UNL     1      -1.692   8.586  15.493  1.00  0.00     0.024 C 
HETATM    6  C23 UNL     1      -2.807   9.061  16.087  1.00  0.00     0.020 C 
HETATM    7  C24 UNL     1      -2.794  10.232  17.037  1.00  0.00     0.058 C 
HETATM    8  C25 UNL     1      -1.424  10.444  17.669  1.00  0.00     0.014 C 
HETATM    9  C26 UNL     1      -0.335  10.473  16.611  1.00  0.00     0.084 C 
HETATM   10  C27 UNL     1      -0.374   9.232  15.748  1.00  0.00     0.158 C 
HETATM   11  O5  UNL     1       0.647   8.799  15.217  1.00  0.00    -0.293 OA
HETATM   12  N1  UNL     1      -4.026   8.442  15.866  1.00  0.00    -0.362 N 
HETATM   13  H22 UNL     1      -4.825   8.762  16.409  1.00  0.00     0.165 HD
ENDROOT
BRANCH   4  14
HETATM   14  C13 UNL     1      -1.360   7.758  13.125  1.00  0.00     0.029 A 
HETATM   15  C14 UNL     1      -1.881   8.775  12.421  1.00  0.00     0.154 A 
HETATM   16  O3  UNL     1      -1.541   9.155  11.146  1.00  0.00    -0.321 OA
HETATM   17  C15 UNL     1      -0.554   8.446  10.513  1.00  0.00     0.089 A 
HETATM   18  C16 UNL     1      -0.195   8.858   9.229  1.00  0.00     0.040 A 
HETATM   19  C20 UNL     1       0.083   7.354  11.098  1.00  0.00     0.050 A 
HETATM   20  C17 UNL     1       0.803   8.170   8.535  1.00  0.00     0.026 A 
HETATM   21  C18 UNL     1       1.433   7.073   9.126  1.00  0.00     0.035 A 
HETATM   22 CL1  UNL     1       2.661   6.232   8.264  1.00  0.00    -0.084 Cl
HETATM   23  C19 UNL     1       1.078   6.658  10.407  1.00  0.00     0.042 A 
HETATM   24  C21 UNL     1      -0.312   6.945  12.457  1.00  0.00     0.194 A 
HETATM   25  O4  UNL     1       0.198   5.968  12.991  1.00  0.00    -0.287 OA
ENDBRANCH   4  14
BRANCH   3  26
HETATM   26  C4  UNL     1      -3.178   5.390  13.896  1.00  0.00     0.292 C 
HETATM   27  O1  UNL     1      -2.603   4.382  14.274  1.00  0.00    -0.259 OA
BRANCH  26  28
HETATM   28  O2  UNL     1      -3.973   5.522  12.812  1.00  0.00    -0.313 OA
BRANCH  28  29
HETATM   29  C5  UNL     1      -3.884   4.429  11.897  1.00  0.00     0.217 C 
BRANCH  29  30
HETATM   30  C6  UNL     1      -5.109   3.572  12.082  1.00  0.00    -0.034 A 
HETATM   31  C7  UNL     1      -5.186   2.316  11.461  1.00  0.00     0.009 A 
HETATM   32  C8  UNL     1      -6.310   1.508  11.631  1.00  0.00     0.001 A 
HETATM   33  C9  UNL     1      -7.368   1.945  12.425  1.00  0.00     0.000 A 
HETATM   34  C10 UNL     1      -7.302   3.188  13.051  1.00  0.00     0.001 A 
HETATM   35  C11 UNL     1      -6.176   3.997  12.884  1.00  0.00     0.009 A 
ENDBRANCH  29  30
ENDBRANCH  28  29
ENDBRANCH  26  28
ENDBRANCH   3  26
TORSDOF 5
ENDMDL
MODEL 2
REMARK minimizedAffinity -9.23904133
REMARK  5 active torsions:
REMARK  status: ('A' for Active; 'I' for Inactive)
REMARK    1  A    between atoms: C3_3  and  C4_4 
REMARK    2  A    between atoms: C4_4  and  O2_6 
REMARK    3  A    between atoms: O2_6  and  C5_7 
REMARK    4  A    between atoms: C5_7  and  C6_8 
REMARK    5  A    between atoms: C12_14  and  C13_15 
ROOT
HETATM    1  C1  UNL     1      -4.928   8.121  13.178  1.00  0.00     0.069 C 
HETATM    2  C2  UNL     1      -3.501   8.380  13.588  1.00  0.00     0.018 C 
HETATM    3  C3  UNL     1      -2.608   7.422  13.919  1.00  0.00     0.052 C 
HETATM    4  C12 UNL     1      -1.175   7.745  14.323  1.00  0.00     0.104 C 
HETATM    5  C22 UNL     1      -0.973   9.247  14.531  1.00  0.00     0.024 C 
HETATM    6  C23 UNL     1      -1.920  10.146  14.189  1.00  0.00     0.020 C 
HETATM    7  C24 UNL     1      -1.758  11.630  14.405  1.00  0.00     0.058 C 
HETATM    8  C25 UNL     1      -0.744  11.945  15.498  1.00  0.00     0.014 C 
HETATM    9  C26 UNL     1       0.554  11.191  15.269  1.00  0.00     0.084 C 
HETATM   10  C27 UNL     1       0.312   9.705  15.134  1.00  0.00     0.158 C 
HETATM   11  O5  UNL     1       1.175   8.891  15.456  1.00  0.00    -0.293 OA
HETATM   12  N1  UNL     1      -3.121   9.715  13.652  1.00  0.00    -0.362 N 
HETATM   13  H22 UNL     1      -3.850  10.409  13.503  1.00  0.00     0.165 HD
ENDROOT
BRANCH   4  14
HETATM   14  C13 UNL     1      -0.202   7.176  13.300  1.00  0.00     0.029 A 
HETATM   15  C14 UNL     1       0.617   6.131  13.492  1.00  0.00     0.154 A 
HETATM   16  O3  UNL     1       1.480   5.580  12.577  1.00  0.00    -0.321 OA
HETATM   17  C15 UNL     1       1.511   6.128  11.322  1.00  0.00     0.089 A 
HETATM   18  C16 UNL     1       2.370   5.543  10.390  1.00  0.00     0.040 A 
HETATM   19  C20 UNL     1       0.732   7.225  10.960  1.00  0.00     0.050 A 
HETATM   20  C17 UNL     1       2.445   6.063   9.096  1.00  0.00     0.026 A 
HETATM   21  C18 UNL     1       1.665   7.166   8.742  1.00  0.00     0.035 A 
HETATM   22 CL1  UNL     1       1.764   7.800   7.146  1.00  0.00    -0.084 Cl
HETATM   23  C19 UNL     1       0.807   7.754   9.668  1.00  0.00     0.042 A 
HETATM   24  C21 UNL     1      -0.169   7.819  11.962  1.00  0.00     0.194 A 
HETATM   25  O4  UNL     1      -0.843   8.806  11.693  1.00  0.00    -0.287 OA
ENDBRANCH   4  14
BRANCH   3  26
HETATM   26  C4  UNL     1      -2.983   5.997  13.925  1.00  0.00     0.292 C 
HETATM   27  O1  UNL     1      -2.882   5.265  14.896  1.00  0.00    -0.259 OA
BRANCH  26  28
HETATM   28  O2  UNL     1      -3.428   5.667  12.693  1.00  0.00    -0.313 OA
BRANCH  28  29
HETATM   29  C5  UNL     1      -3.110   4.330  12.306  1.00  0.00     0.217 C 
BRANCH  29  30
HETATM   30  C6  UNL     1      -4.400   3.559  12.203  1.00  0.00    -0.034 A 
HETATM   31  C7  UNL     1      -4.441   2.355  11.485  1.00  0.00     0.009 A 
HETATM   32  C8  UNL     1      -5.627   1.626  11.390  1.00  0.00     0.001 A 
HETATM   33  C9  UNL     1      -6.782   2.091  12.013  1.00  0.00     0.000 A 
HETATM   34  C10 UNL     1      -6.754   3.284  12.733  1.00  0.00     0.001 A 
HETATM   35  C11 UNL     1      -5.567   4.014  12.832  1.00  0.00     0.009 A 
ENDBRANCH  29  30
ENDBRANCH  28  29
ENDBRANCH  26  28
ENDBRANCH   3  26
TORSDOF 5
ENDMDL
MODEL 3
REMARK minimizedAffinity -9.20962811
REMARK  5 active torsions:
REMARK  status: ('A' for Active; 'I' for Inactive)
REMARK    1  A    between atoms: C3_3  and  C4_4 
REMARK    2  A    between atoms: C4_4  and  O2_6 
REMARK    3  A    between atoms: O2_6  and  C5_7 
REMARK    4  A    between atoms: C5_7  and  C6_8 
REMARK    5  A    between atoms: C12_14  and  C13_15 
ROOT
HETATM    1  C1  UNL     1      -0.036   3.289  12.327  1.00  0.00     0.069 C 
HETATM    2  C2  UNL     1       0.050   4.642  11.669  1.00  0.00     0.018 C 
HETATM    3  C3  UNL     1      -0.920   5.582  11.712  1.00  0.00     0.052 C 
HETATM    4  C12 UNL     1      -0.775   6.936  11.028  1.00  0.00     0.104 C 
HETATM    5  C22 UNL     1       0.459   6.982  10.125  1.00  0.00     0.024 C 
HETATM    6  C23 UNL     1       1.379   5.995  10.127  1.00  0.00     0.020 C 
HETATM    7  C24 UNL     1       2.592   6.002   9.230  1.00  0.00     0.058 C 
HETATM    8  C25 UNL     1       2.390   6.877   7.998  1.00  0.00     0.014 C 
HETATM    9  C26 UNL     1       1.879   8.253   8.386  1.00  0.00     0.084 C 
HETATM   10  C27 UNL     1       0.623   8.158   9.224  1.00  0.00     0.158 C 
HETATM   11  O5  UNL     1      -0.215   9.057   9.210  1.00  0.00    -0.293 OA
HETATM   12  N1  UNL     1       1.210   4.893  10.948  1.00  0.00    -0.362 N 
HETATM   13  H22 UNL     1       1.866   4.122  10.848  1.00  0.00     0.165 HD
ENDROOT
BRANCH   4  14
HETATM   14  C13 UNL     1      -0.761   8.047  12.068  1.00  0.00     0.029 A 
HETATM   15  C14 UNL     1      -1.646   9.053  12.155  1.00  0.00     0.154 A 
HETATM   16  O3  UNL     1      -1.673  10.049  13.100  1.00  0.00    -0.321 OA
HETATM   17  C15 UNL     1      -0.716  10.021  14.080  1.00  0.00     0.089 A 
HETATM   18  C16 UNL     1      -0.769  11.021  15.052  1.00  0.00     0.040 A 
HETATM   19  C20 UNL     1       0.284   9.053  14.129  1.00  0.00     0.050 A 
HETATM   20  C17 UNL     1       0.184  11.045  16.073  1.00  0.00     0.026 A 
HETATM   21  C18 UNL     1       1.186  10.073  16.113  1.00  0.00     0.035 A 
HETATM   22 CL1  UNL     1       2.356  10.111  17.374  1.00  0.00    -0.084 Cl
HETATM   23  C19 UNL     1       1.244   9.074  15.144  1.00  0.00     0.042 A 
HETATM   24  C21 UNL     1       0.313   8.007  13.093  1.00  0.00     0.194 A 
HETATM   25  O4  UNL     1       1.198   7.160  13.081  1.00  0.00    -0.287 OA
ENDBRANCH   4  14
BRANCH   3  26
HETATM   26  C4  UNL     1      -2.192   5.337  12.413  1.00  0.00     0.292 C 
HETATM   27  O1  UNL     1      -2.730   6.138  13.161  1.00  0.00    -0.259 OA
BRANCH  26  28
HETATM   28  O2  UNL     1      -2.624   4.098  12.093  1.00  0.00    -0.313 OA
BRANCH  28  29
HETATM   29  C5  UNL     1      -3.601   4.082  11.051  1.00  0.00     0.217 C 
BRANCH  29  30
HETATM   30  C6  UNL     1      -4.842   3.419  11.591  1.00  0.00    -0.034 A 
HETATM   31  C7  UNL     1      -5.635   4.084  12.539  1.00  0.00     0.009 A 
HETATM   32  C8  UNL     1      -6.792   3.486  13.040  1.00  0.00     0.001 A 
HETATM   33  C9  UNL     1      -7.169   2.220  12.598  1.00  0.00     0.000 A 
HETATM   34  C10 UNL     1      -6.392   1.551  11.653  1.00  0.00     0.001 A 
HETATM   35  C11 UNL     1      -5.235   2.149  11.149  1.00  0.00     0.009 A 
ENDBRANCH  29  30
ENDBRANCH  28  29
ENDBRANCH  26  28
ENDBRANCH   3  26
TORSDOF 5
ENDMDL
MODEL 4
REMARK minimizedAffinity -8.84183979
REMARK  5 active torsions:
REMARK  status: ('A' for Active; 'I' for Inactive)
REMARK    1  A    between atoms: C3_3  and  C4_4 
REMARK    2  A    between atoms: C4_4  and  O2_6 
REMARK    3  A    between atoms: O2_6  and  C5_7 
REMARK    4  A    between atoms: C5_7  and  C6_8 
REMARK    5  A    between atoms: C12_14  and  C13_15 
ROOT
HETATM    1  C1  UNL     1      -2.491   7.060  15.176  1.00  0.00     0.069 C 
HETATM    2  C2  UNL     1      -1.132   7.503  14.699  1.00  0.00     0.018 C 
HETATM    3  C3  UNL     1      -0.329   6.783  13.885  1.00  0.00     0.052 C 
HETATM    4  C12 UNL     1       1.037   7.285  13.433  1.00  0.00     0.104 C 
HETATM    5  C22 UNL     1       1.454   8.546  14.192  1.00  0.00     0.024 C 
HETATM    6  C23 UNL     1       0.598   9.204  15.002  1.00  0.00     0.020 C 
HETATM    7  C24 UNL     1       0.988  10.435  15.781  1.00  0.00     0.058 C 
HETATM    8  C25 UNL     1       2.494  10.520  16.005  1.00  0.00     0.014 C 
HETATM    9  C26 UNL     1       3.249  10.327  14.702  1.00  0.00     0.084 C 
HETATM   10  C27 UNL     1       2.851   9.037  14.020  1.00  0.00     0.158 C 
HETATM   11  O5  UNL     1       3.638   8.438  13.291  1.00  0.00    -0.293 OA
HETATM   12  N1  UNL     1      -0.692   8.730  15.178  1.00  0.00    -0.362 N 
HETATM   13  H22 UNL     1      -1.274   9.190  15.873  1.00  0.00     0.165 HD
ENDROOT
BRANCH   4  14
HETATM   14  C13 UNL     1       1.042   7.500  11.926  1.00  0.00     0.029 A 
HETATM   15  C14 UNL     1       0.499   8.543  11.280  1.00  0.00     0.154 A 
HETATM   16  O3  UNL     1       0.517   8.776   9.926  1.00  0.00    -0.321 OA
HETATM   17  C15 UNL     1       1.168   7.868   9.134  1.00  0.00     0.089 A 
HETATM   18  C16 UNL     1       1.205   8.127   7.764  1.00  0.00     0.040 A 
HETATM   19  C20 UNL     1       1.775   6.723   9.644  1.00  0.00     0.050 A 
HETATM   20  C17 UNL     1       1.853   7.234   6.907  1.00  0.00     0.026 A 
HETATM   21  C18 UNL     1       2.455   6.085   7.425  1.00  0.00     0.035 A 
HETATM   22 CL1  UNL     1       3.250   4.990   6.362  1.00  0.00    -0.084 Cl
HETATM   23  C19 UNL     1       2.420   5.821   8.792  1.00  0.00     0.042 A 
HETATM   24  C21 UNL     1       1.725   6.476  11.095  1.00  0.00     0.194 A 
HETATM   25  O4  UNL     1       2.215   5.462  11.576  1.00  0.00    -0.287 OA
ENDBRANCH   4  14
BRANCH   3  26
HETATM   26  C4  UNL     1      -0.728   5.449  13.401  1.00  0.00     0.292 C 
HETATM   27  O1  UNL     1      -0.146   4.414  13.683  1.00  0.00    -0.259 OA
BRANCH  26  28
HETATM   28  O2  UNL     1      -1.810   5.590  12.605  1.00  0.00    -0.313 OA
BRANCH  28  29
HETATM   29  C5  UNL     1      -2.138   4.412  11.868  1.00  0.00     0.217 C 
BRANCH  29  30
HETATM   30  C6  UNL     1      -3.621   4.183  12.000  1.00  0.00    -0.034 A 
HETATM   31  C7  UNL     1      -4.255   3.221  11.200  1.00  0.00     0.009 A 
HETATM   32  C8  UNL     1      -5.627   2.991  11.318  1.00  0.00     0.001 A 
HETATM   33  C9  UNL     1      -6.377   3.719  12.238  1.00  0.00     0.000 A 
HETATM   34  C10 UNL     1      -5.759   4.675  13.042  1.00  0.00     0.001 A 
HETATM   35  C11 UNL     1      -4.386   4.904  12.927  1.00  0.00     0.009 A 
ENDBRANCH  29  30
ENDBRANCH  28  29
ENDBRANCH  26  28
ENDBRANCH   3  26
TORSDOF 5
ENDMDL
MODEL 5
REMARK minimizedAffinity -8.74268341
REMARK  5 active torsions:
REMARK  status: ('A' for Active; 'I' for Inactive)
REMARK    1  A    between atoms: C3_3  and  C4_4 
REMARK    2  A    between atoms: C4_4  and  O2_6 
REMARK    3  A    between atoms: O2_6  and  C5_7 
REMARK    4  A    between atoms: C5_7  and  C6_8 
REMARK    5  A    between atoms: C12_14  and  C13_15 
ROOT
HETATM    1  C1  UNL     1      -3.214   3.561  13.422  1.00  0.00     0.069 C 
HETATM    2  C2  UNL     1      -2.670   4.951  13.214  1.00  0.00     0.018 C 
HETATM    3  C3  UNL     1      -3.329   6.090  13.520  1.00  0.00     0.052 C 
HETATM    4  C12 UNL     1      -2.725   7.470  13.289  1.00  0.00     0.104 C 
HETATM    5  C22 UNL     1      -1.434   7.391  12.472  1.00  0.00     0.024 C 
HETATM    6  C23 UNL     1      -0.841   6.211  12.192  1.00  0.00     0.020 C 
HETATM    7  C24 UNL     1       0.418   6.101  11.369  1.00  0.00     0.058 C 
HETATM    8  C25 UNL     1       0.619   7.309  10.461  1.00  0.00     0.014 C 
HETATM    9  C26 UNL     1       0.481   8.605  11.241  1.00  0.00     0.084 C 
HETATM   10  C27 UNL     1      -0.837   8.665  11.980  1.00  0.00     0.158 C 
HETATM   11  O5  UNL     1      -1.377   9.742  12.223  1.00  0.00    -0.293 OA
HETATM   12  N1  UNL     1      -1.412   5.028  12.631  1.00  0.00    -0.362 N 
HETATM   13  H22 UNL     1      -0.996   4.156  12.314  1.00  0.00     0.165 HD
ENDROOT
BRANCH   4  14
HETATM   14  C13 UNL     1      -2.515   8.177  14.620  1.00  0.00     0.029 A 
HETATM   15  C14 UNL     1      -1.557   7.896  15.516  1.00  0.00     0.154 A 
HETATM   16  O3  UNL     1      -1.327   8.538  16.708  1.00  0.00    -0.321 OA
HETATM   17  C15 UNL     1      -2.139   9.594  17.028  1.00  0.00     0.089 A 
HETATM   18  C16 UNL     1      -1.879  10.258  18.227  1.00  0.00     0.040 A 
HETATM   19  C20 UNL     1      -3.189  10.010  16.213  1.00  0.00     0.050 A 
HETATM   20  C17 UNL     1      -2.677  11.340  18.606  1.00  0.00     0.026 A 
HETATM   21  C18 UNL     1      -3.731  11.748  17.786  1.00  0.00     0.035 A 
HETATM   22 CL1  UNL     1      -4.710  13.082  18.261  1.00  0.00    -0.084 Cl
HETATM   23  C19 UNL     1      -3.995  11.088  16.589  1.00  0.00     0.042 A 
HETATM   24  C21 UNL     1      -3.437   9.294  14.951  1.00  0.00     0.194 A 
HETATM   25  O4  UNL     1      -4.373   9.607  14.225  1.00  0.00    -0.287 OA
ENDBRANCH   4  14
BRANCH   3  26
HETATM   26  C4  UNL     1      -4.690   6.059  14.083  1.00  0.00     0.292 C 
HETATM   27  O1  UNL     1      -4.939   5.980  15.275  1.00  0.00    -0.259 OA
BRANCH  26  28
HETATM   28  O2  UNL     1      -5.574   6.117  13.064  1.00  0.00    -0.313 OA
BRANCH  28  29
HETATM   29  C5  UNL     1      -6.792   5.415  13.318  1.00  0.00     0.217 C 
BRANCH  29  30
HETATM   30  C6  UNL     1      -6.674   4.046  12.699  1.00  0.00    -0.034 A 
HETATM   31  C7  UNL     1      -7.404   2.972  13.230  1.00  0.00     0.009 A 
HETATM   32  C8  UNL     1      -7.312   1.702  12.661  1.00  0.00     0.001 A 
HETATM   33  C9  UNL     1      -6.492   1.492  11.555  1.00  0.00     0.000 A 
HETATM   34  C10 UNL     1      -5.765   2.552  11.015  1.00  0.00     0.001 A 
HETATM   35  C11 UNL     1      -5.858   3.825  11.582  1.00  0.00     0.009 A 
ENDBRANCH  29  30
ENDBRANCH  28  29
ENDBRANCH  26  28
ENDBRANCH   3  26
TORSDOF 5
ENDMDL
MODEL 6
REMARK minimizedAffinity -8.58237171
REMARK  5 active torsions:
REMARK  status: ('A' for Active; 'I' for Inactive)
REMARK    1  A    between atoms: C3_3  and  C4_4 
REMARK    2  A    between atoms: C4_4  and  O2_6 
REMARK    3  A    between atoms: O2_6  and  C5_7 
REMARK    4  A    between atoms: C5_7  and  C6_8 
REMARK    5  A    between atoms: C12_14  and  C13_15 
ROOT
HETATM    1  C1  UNL     1      -3.614   3.417  13.057  1.00  0.00     0.069 C 
HETATM    2  C2  UNL     1      -3.025   4.797  12.923  1.00  0.00     0.018 C 
HETATM    3  C3  UNL     1      -3.654   5.941  13.274  1.00  0.00     0.052 C 
HETATM    4  C12 UNL     1      -3.005   7.310  13.118  1.00  0.00     0.104 C 
HETATM    5  C22 UNL     1      -1.704   7.230  12.316  1.00  0.00     0.024 C 
HETATM    6  C23 UNL     1      -1.143   6.047  11.988  1.00  0.00     0.020 C 
HETATM    7  C24 UNL     1       0.125   5.938  11.179  1.00  0.00     0.058 C 
HETATM    8  C25 UNL     1       0.376   7.180  10.332  1.00  0.00     0.014 C 
HETATM    9  C26 UNL     1       0.265   8.441  11.172  1.00  0.00     0.084 C 
HETATM   10  C27 UNL     1      -1.062   8.507  11.894  1.00  0.00     0.158 C 
HETATM   11  O5  UNL     1      -1.572   9.588  12.181  1.00  0.00    -0.293 OA
HETATM   12  N1  UNL     1      -1.756   4.863  12.362  1.00  0.00    -0.362 N 
HETATM   13  H22 UNL     1      -1.362   3.994  12.010  1.00  0.00     0.165 HD
ENDROOT
BRANCH   4  14
HETATM   14  C13 UNL     1      -2.794   7.947  14.484  1.00  0.00     0.029 A 
HETATM   15  C14 UNL     1      -1.945   7.515  15.429  1.00  0.00     0.154 A 
HETATM   16  O3  UNL     1      -1.713   8.088  16.655  1.00  0.00    -0.321 OA
HETATM   17  C15 UNL     1      -2.398   9.235  16.960  1.00  0.00     0.089 A 
HETATM   18  C16 UNL     1      -2.135   9.826  18.196  1.00  0.00     0.040 A 
HETATM   19  C20 UNL     1      -3.326   9.810  16.095  1.00  0.00     0.050 A 
HETATM   20  C17 UNL     1      -2.807  10.995  18.562  1.00  0.00     0.026 A 
HETATM   21  C18 UNL     1      -3.739  11.563  17.692  1.00  0.00     0.035 A 
HETATM   22 CL1  UNL     1      -4.563  13.003  18.150  1.00  0.00    -0.084 Cl
HETATM   23  C19 UNL     1      -4.006  10.977  16.457  1.00  0.00     0.042 A 
HETATM   24  C21 UNL     1      -3.580   9.168  14.795  1.00  0.00     0.194 A 
HETATM   25  O4  UNL     1      -4.415   9.623  14.023  1.00  0.00    -0.287 OA
ENDBRANCH   4  14
BRANCH   3  26
HETATM   26  C4  UNL     1      -5.024   5.925  13.816  1.00  0.00     0.292 C 
HETATM   27  O1  UNL     1      -5.292   5.951  15.006  1.00  0.00    -0.259 OA
BRANCH  26  28
HETATM   28  O2  UNL     1      -5.890   5.864  12.782  1.00  0.00    -0.313 OA
BRANCH  28  29
HETATM   29  C5  UNL     1      -6.960   4.939  12.982  1.00  0.00     0.217 C 
BRANCH  29  30
HETATM   30  C6  UNL     1      -8.255   5.706  12.905  1.00  0.00    -0.034 A 
HETATM   31  C7  UNL     1      -8.899   5.869  11.669  1.00  0.00     0.009 A 
HETATM   32  C8  UNL     1     -10.103   6.569  11.585  1.00  0.00     0.001 A 
HETATM   33  C9  UNL     1     -10.677   7.109  12.734  1.00  0.00     0.000 A 
HETATM   34  C10 UNL     1     -10.049   6.949  13.968  1.00  0.00     0.001 A 
HETATM   35  C11 UNL     1      -8.845   6.247  14.054  1.00  0.00     0.009 A 
ENDBRANCH  29  30
ENDBRANCH  28  29
ENDBRANCH  26  28
ENDBRANCH   3  26
TORSDOF 5
ENDMDL
MODEL 7
REMARK minimizedAffinity -8.58036041
REMARK  5 active torsions:
REMARK  status: ('A' for Active; 'I' for Inactive)
REMARK    1  A    between atoms: C3_3  and  C4_4 
REMARK    2  A    between atoms: C4_4  and  O2_6 
REMARK    3  A    between atoms: O2_6  and  C5_7 
REMARK    4  A    between atoms: C5_7  and  C6_8 
REMARK    5  A    between atoms: C12_14  and  C13_15 
ROOT
HETATM    1  C1  UNL     1       0.052   3.327  12.310  1.00  0.00     0.069 C 
HETATM    2  C2  UNL     1       0.074   4.716  11.724  1.00  0.00     0.018 C 
HETATM    3  C3  UNL     1      -0.845   5.673  11.976  1.00  0.00     0.052 C 
HETATM    4  C12 UNL     1      -0.769   7.062  11.355  1.00  0.00     0.104 C 
HETATM    5  C22 UNL     1       0.304   7.136  10.268  1.00  0.00     0.024 C 
HETATM    6  C23 UNL     1       1.181   6.129  10.066  1.00  0.00     0.020 C 
HETATM    7  C24 UNL     1       2.234   6.164   8.986  1.00  0.00     0.058 C 
HETATM    8  C25 UNL     1       1.866   7.116   7.854  1.00  0.00     0.014 C 
HETATM    9  C26 UNL     1       1.467   8.478   8.396  1.00  0.00     0.084 C 
HETATM   10  C27 UNL     1       0.360   8.360   9.419  1.00  0.00     0.158 C 
HETATM   11  O5  UNL     1      -0.442   9.276   9.592  1.00  0.00    -0.293 OA
HETATM   12  N1  UNL     1       1.111   4.984  10.840  1.00  0.00    -0.362 N 
HETATM   13  H22 UNL     1       1.718   4.206  10.591  1.00  0.00     0.165 HD
ENDROOT
BRANCH   4  14
HETATM   14  C13 UNL     1      -0.554   8.107  12.440  1.00  0.00     0.029 A 
HETATM   15  C14 UNL     1       0.608   8.370  13.058  1.00  0.00     0.154 A 
HETATM   16  O3  UNL     1       0.835   9.327  14.016  1.00  0.00    -0.321 OA
HETATM   17  C15 UNL     1      -0.219  10.123  14.382  1.00  0.00     0.089 A 
HETATM   18  C16 UNL     1       0.029  11.111  15.336  1.00  0.00     0.040 A 
HETATM   19  C20 UNL     1      -1.496   9.975  13.846  1.00  0.00     0.050 A 
HETATM   20  C17 UNL     1      -1.009  11.949  15.749  1.00  0.00     0.026 A 
HETATM   21  C18 UNL     1      -2.288  11.792  15.211  1.00  0.00     0.035 A 
HETATM   22 CL1  UNL     1      -3.561  12.829  15.727  1.00  0.00    -0.084 Cl
HETATM   23  C19 UNL     1      -2.540  10.806  14.260  1.00  0.00     0.042 A 
HETATM   24  C21 UNL     1      -1.727   8.927  12.838  1.00  0.00     0.194 A 
HETATM   25  O4  UNL     1      -2.844   8.742  12.370  1.00  0.00    -0.287 OA
ENDBRANCH   4  14
BRANCH   3  26
HETATM   26  C4  UNL     1      -1.996   5.414  12.859  1.00  0.00     0.292 C 
HETATM   27  O1  UNL     1      -1.917   5.286  14.070  1.00  0.00    -0.259 OA
BRANCH  26  28
HETATM   28  O2  UNL     1      -3.109   5.335  12.098  1.00  0.00    -0.313 OA
BRANCH  28  29
HETATM   29  C5  UNL     1      -3.351   4.031  11.568  1.00  0.00     0.217 C 
BRANCH  29  30
HETATM   30  C6  UNL     1      -4.731   3.606  12.000  1.00  0.00    -0.034 A 
HETATM   31  C7  UNL     1      -5.288   2.420  11.497  1.00  0.00     0.009 A 
HETATM   32  C8  UNL     1      -6.560   2.009  11.896  1.00  0.00     0.001 A 
HETATM   33  C9  UNL     1      -7.287   2.777  12.803  1.00  0.00     0.000 A 
HETATM   34  C10 UNL     1      -6.743   3.954  13.313  1.00  0.00     0.001 A 
HETATM   35  C11 UNL     1      -5.469   4.366  12.917  1.00  0.00     0.009 A 
ENDBRANCH  29  30
ENDBRANCH  28  29
ENDBRANCH  26  28
ENDBRANCH   3  26
TORSDOF 5
ENDMDL
MODEL 8
REMARK minimizedAffinity -8.48393059
REMARK  5 active torsions:
REMARK  status: ('A' for Active; 'I' for Inactive)
REMARK    1  A    between atoms: C3_3  and  C4_4 
REMARK    2  A    between atoms: C4_4  and  O2_6 
REMARK    3  A    between atoms: O2_6  and  C5_7 
REMARK    4  A    between atoms: C5_7  and  C6_8 
REMARK    5  A    between atoms: C12_14  and  C13_15 
ROOT
HETATM    1  C1  UNL     1      -0.004   3.240  12.156  1.00  0.00     0.069 C 
HETATM    2  C2  UNL     1       0.128   4.603  11.527  1.00  0.00     0.018 C 
HETATM    3  C3  UNL     1      -0.837   5.549  11.528  1.00  0.00     0.052 C 
HETATM    4  C12 UNL     1      -0.645   6.913  10.877  1.00  0.00     0.104 C 
HETATM    5  C22 UNL     1       0.641   6.966  10.049  1.00  0.00     0.024 C 
HETATM    6  C23 UNL     1       1.554   5.973  10.089  1.00  0.00     0.020 C 
HETATM    7  C24 UNL     1       2.818   5.987   9.266  1.00  0.00     0.058 C 
HETATM    8  C25 UNL     1       2.695   6.883   8.039  1.00  0.00     0.014 C 
HETATM    9  C26 UNL     1       2.169   8.256   8.419  1.00  0.00     0.084 C 
HETATM   10  C27 UNL     1       0.865   8.155   9.179  1.00  0.00     0.158 C 
HETATM   11  O5  UNL     1       0.033   9.059   9.131  1.00  0.00    -0.293 OA
HETATM   12  N1  UNL     1       1.330   4.858  10.881  1.00  0.00    -0.362 N 
HETATM   13  H22 UNL     1       1.987   4.086  10.806  1.00  0.00     0.165 HD
ENDROOT
BRANCH   4  14
HETATM   14  C13 UNL     1      -0.687   8.007  11.934  1.00  0.00     0.029 A 
HETATM   15  C14 UNL     1      -1.588   8.999  12.002  1.00  0.00     0.154 A 
HETATM   16  O3  UNL     1      -1.666   9.979  12.962  1.00  0.00    -0.321 OA
HETATM   17  C15 UNL     1      -0.747   9.948  13.977  1.00  0.00     0.089 A 
HETATM   18  C16 UNL     1      -0.852  10.930  14.963  1.00  0.00     0.040 A 
HETATM   19  C20 UNL     1       0.263   8.992  14.051  1.00  0.00     0.050 A 
HETATM   20  C17 UNL     1       0.060  10.950  16.021  1.00  0.00     0.026 A 
HETATM   21  C18 UNL     1       1.073   9.991  16.084  1.00  0.00     0.035 A 
HETATM   22 CL1  UNL     1       2.193  10.023  17.391  1.00  0.00    -0.084 Cl
HETATM   23  C19 UNL     1       1.183   9.009  15.103  1.00  0.00     0.042 A 
HETATM   24  C21 UNL     1       0.347   7.964  12.999  1.00  0.00     0.194 A 
HETATM   25  O4  UNL     1       1.243   7.128  13.009  1.00  0.00    -0.287 OA
ENDBRANCH   4  14
BRANCH   3  26
HETATM   26  C4  UNL     1      -2.151   5.301  12.148  1.00  0.00     0.292 C 
HETATM   27  O1  UNL     1      -3.075   4.728  11.594  1.00  0.00    -0.259 OA
BRANCH  26  28
HETATM   28  O2  UNL     1      -2.139   5.822  13.394  1.00  0.00    -0.313 OA
BRANCH  28  29
HETATM   29  C5  UNL     1      -3.164   5.304  14.243  1.00  0.00     0.217 C 
BRANCH  29  30
HETATM   30  C6  UNL     1      -4.206   6.378  14.418  1.00  0.00    -0.034 A 
HETATM   31  C7  UNL     1      -4.195   7.507  13.585  1.00  0.00     0.009 A 
HETATM   32  C8  UNL     1      -5.160   8.504  13.729  1.00  0.00     0.001 A 
HETATM   33  C9  UNL     1      -6.147   8.382  14.705  1.00  0.00     0.000 A 
HETATM   34  C10 UNL     1      -6.172   7.263  15.535  1.00  0.00     0.001 A 
HETATM   35  C11 UNL     1      -5.208   6.263  15.391  1.00  0.00     0.009 A 
ENDBRANCH  29  30
ENDBRANCH  28  29
ENDBRANCH  26  28
ENDBRANCH   3  26
TORSDOF 5
ENDMDL
MODEL 9
REMARK minimizedAffinity -8.36630344
REMARK  5 active torsions:
REMARK  status: ('A' for Active; 'I' for Inactive)
REMARK    1  A    between atoms: C3_3  and  C4_4 
REMARK    2  A    between atoms: C4_4  and  O2_6 
REMARK    3  A    between atoms: O2_6  and  C5_7 
REMARK    4  A    between atoms: C5_7  and  C6_8 
REMARK    5  A    between atoms: C12_14  and  C13_15 
ROOT
HETATM    1  C1  UNL     1       1.115   5.801  13.601  1.00  0.00     0.069 C 
HETATM    2  C2  UNL     1       0.099   6.837  14.007  1.00  0.00     0.018 C 
HETATM    3  C3  UNL     1      -1.125   6.974  13.453  1.00  0.00     0.052 C 
HETATM    4  C12 UNL     1      -2.113   8.041  13.907  1.00  0.00     0.104 C 
HETATM    5  C22 UNL     1      -1.462   9.043  14.862  1.00  0.00     0.024 C 
HETATM    6  C23 UNL     1      -0.224   8.844  15.365  1.00  0.00     0.020 C 
HETATM    7  C24 UNL     1       0.452   9.827  16.288  1.00  0.00     0.058 C 
HETATM    8  C25 UNL     1      -0.114  11.234  16.146  1.00  0.00     0.014 C 
HETATM    9  C26 UNL     1      -1.631  11.222  16.233  1.00  0.00     0.084 C 
HETATM   10  C27 UNL     1      -2.232  10.265  15.228  1.00  0.00     0.158 C 
HETATM   11  O5  UNL     1      -3.355  10.457  14.767  1.00  0.00    -0.293 OA
HETATM   12  N1  UNL     1       0.497   7.719  15.003  1.00  0.00    -0.362 N 
HETATM   13  H22 UNL     1       1.463   7.655  15.318  1.00  0.00     0.165 HD
ENDROOT
BRANCH   4  14
HETATM   14  C13 UNL     1      -3.343   7.387  14.521  1.00  0.00     0.029 A 
HETATM   15  C14 UNL     1      -3.360   6.634  15.632  1.00  0.00     0.154 A 
HETATM   16  O3  UNL     1      -4.458   6.059  16.223  1.00  0.00    -0.321 OA
HETATM   17  C15 UNL     1      -5.680   6.279  15.643  1.00  0.00     0.089 A 
HETATM   18  C16 UNL     1      -6.793   5.714  16.266  1.00  0.00     0.040 A 
HETATM   19  C20 UNL     1      -5.837   7.027  14.479  1.00  0.00     0.050 A 
HETATM   20  C17 UNL     1      -8.064   5.902  15.717  1.00  0.00     0.026 A 
HETATM   21  C18 UNL     1      -8.213   6.650  14.547  1.00  0.00     0.035 A 
HETATM   22 CL1  UNL     1      -9.782   6.877  13.878  1.00  0.00    -0.084 Cl
HETATM   23  C19 UNL     1      -7.105   7.215  13.921  1.00  0.00     0.042 A 
HETATM   24  C21 UNL     1      -4.645   7.616  13.845  1.00  0.00     0.194 A 
HETATM   25  O4  UNL     1      -4.738   8.250  12.801  1.00  0.00    -0.287 OA
ENDBRANCH   4  14
BRANCH   3  26
HETATM   26  C4  UNL     1      -1.568   6.100  12.352  1.00  0.00     0.292 C 
HETATM   27  O1  UNL     1      -1.267   6.265  11.181  1.00  0.00    -0.259 OA
BRANCH  26  28
HETATM   28  O2  UNL     1      -2.353   5.129  12.867  1.00  0.00    -0.313 OA
BRANCH  28  29
HETATM   29  C5  UNL     1      -2.422   3.956  12.056  1.00  0.00     0.217 C 
BRANCH  29  30
HETATM   30  C6  UNL     1      -3.843   3.457  12.085  1.00  0.00    -0.034 A 
HETATM   31  C7  UNL     1      -4.824   4.177  12.783  1.00  0.00     0.009 A 
HETATM   32  C8  UNL     1      -6.146   3.731  12.810  1.00  0.00     0.001 A 
HETATM   33  C9  UNL     1      -6.501   2.564  12.137  1.00  0.00     0.000 A 
HETATM   34  C10 UNL     1      -5.537   1.842  11.436  1.00  0.00     0.001 A 
HETATM   35  C11 UNL     1      -4.214   2.288  11.406  1.00  0.00     0.009 A 
ENDBRANCH  29  30
ENDBRANCH  28  29
ENDBRANCH  26  28
ENDBRANCH   3  26
TORSDOF 5
ENDMDL
