MODEL 1
REMARK minimizedAffinity -7.60235262
REMARK CNNscore 0.563726068
REMARK CNNaffinity 6.50286865
REMARK  14 active torsions:
REMARK  status: ('A' for Active; 'I' for Inactive)
REMARK    1  A    between atoms: C4_4  and  C5_5 
REMARK    2  A    between atoms: C5_5  and  C6_6 
REMARK    3  A    between atoms: C6_6  and  C7_7 
REMARK    4  A    between atoms: C9_10  and  C10_11 
REMARK    5  A    between atoms: C12_13  and  C13_14 
REMARK    6  A    between atoms: C13_14  and  C14_15 
REMARK    7  A    between atoms: C14_15  and  C15_16 
REMARK    8  A    between atoms: C17_18  and  C18_19 
REMARK    9  A    between atoms: C18_19  and  C19_20 
REMARK   10  A    between atoms: C19_20  and  C20_21 
REMARK   11  A    between atoms: C20_21  and  O2_22 
REMARK   12  A    between atoms: C22_24  and  C24_26 
REMARK   13  A    between atoms: C27_30  and  O4_32 
REMARK   14  A    between atoms: C30_34  and  O5_35 
ROOT
HETATM    1  C15 UNL     1      -7.429  47.398 -29.756  1.00  0.00    -0.006 C 
HETATM    2  C16 UNL     1      -6.684  48.512 -30.549  1.00  0.00     0.019 C 
HETATM    3  C17 UNL     1      -7.674  46.081 -30.663  1.00  0.00     0.026 C 
HETATM    4  C21 UNL     1      -9.107  45.992 -31.209  1.00  0.00    -0.066 C 
HETATM    5  C22 UNL     1      -9.880  44.877 -31.263  1.00  0.00    -0.021 C 
HETATM    6  C23 UNL     1     -11.298  44.837 -31.769  1.00  0.00     0.052 C 
HETATM    7  C25 UNL     1      -9.630  47.339 -31.636  1.00  0.00     0.038 C 
HETATM    8  C26 UNL     1      -9.782  48.265 -30.430  1.00  0.00     0.042 C 
HETATM    9  C27 UNL     1      -8.820  47.963 -29.248  1.00  0.00     0.062 C 
HETATM   10  C28 UNL     1      -9.516  47.041 -28.225  1.00  0.00     0.046 C 
ENDROOT
BRANCH   1  11
HETATM   11  C14 UNL     1      -6.473  46.959 -28.580  1.00  0.00     0.016 C 
BRANCH  11  12
HETATM   12  C13 UNL     1      -5.216  47.809 -28.330  1.00  0.00     0.028 C 
BRANCH  12  13
HETATM   13  C12 UNL     1      -5.199  48.362 -26.924  1.00  0.00    -0.022 C 
HETATM   14  C10 UNL     1      -4.130  48.637 -26.147  1.00  0.00    -0.059 C 
HETATM   15  C11 UNL     1      -2.701  48.458 -26.598  1.00  0.00     0.046 C 
BRANCH  14  16
HETATM   16  C9  UNL     1      -4.246  49.229 -24.750  1.00  0.00     0.153 C 
HETATM   17  O1  UNL     1      -2.934  49.354 -24.162  1.00  0.00    -0.368 OA
HETATM   18  C7  UNL     1      -3.037  49.174 -22.729  1.00  0.00     0.084 C 
HETATM   19  C8  UNL     1      -2.292  47.883 -22.373  1.00  0.00     0.049 C 
HETATM   20  C30 UNL     1      -4.550  49.085 -22.432  1.00  0.00     0.155 C 
HETATM   21  C29 UNL     1      -5.097  48.504 -23.716  1.00  0.00     0.071 C 
BRANCH  18  22
HETATM   22  C6  UNL     1      -2.440  50.417 -22.032  1.00  0.00     0.044 C 
BRANCH  22  23
HETATM   23  C5  UNL     1      -1.002  50.273 -21.507  1.00  0.00     0.030 C 
BRANCH  23  24
HETATM   24  C4  UNL     1      -0.188  51.532 -21.653  1.00  0.00    -0.025 C 
HETATM   25  C2  UNL     1       0.168  52.410 -20.694  1.00  0.00    -0.091 C 
HETATM   26  C1  UNL     1       0.996  53.622 -21.038  1.00  0.00     0.042 C 
HETATM   27  C3  UNL     1      -0.187  52.306 -19.238  1.00  0.00     0.042 C 
ENDBRANCH  23  24
ENDBRANCH  22  23
ENDBRANCH  18  22
BRANCH  20  28
HETATM   28  O5  UNL     1      -4.872  48.298 -21.299  1.00  0.00    -0.392 OA
HETATM   29  H50 UNL     1      -5.840  48.196 -21.274  1.00  0.00     0.210 HD
ENDBRANCH  20  28
ENDBRANCH  14  16
ENDBRANCH  12  13
ENDBRANCH  11  12
ENDBRANCH   1  11
BRANCH   3  30
HETATM   30  C18 UNL     1      -6.599  45.906 -31.776  1.00  0.00     0.012 C 
BRANCH  30  31
HETATM   31  C19 UNL     1      -5.614  44.746 -31.581  1.00  0.00     0.027 C 
BRANCH  31  32
HETATM   32  C20 UNL     1      -5.614  43.750 -32.734  1.00  0.00     0.164 C 
BRANCH  32  33
HETATM   33  O2  UNL     1      -6.829  43.857 -33.469  1.00  0.00    -0.401 OA
HETATM   34  H34 UNL     1      -7.558  43.671 -32.851  1.00  0.00     0.209 HD
ENDBRANCH  32  33
ENDBRANCH  31  32
ENDBRANCH  30  31
ENDBRANCH   3  30
BRANCH   9  35
HETATM   35  O4  UNL     1      -8.646  49.199 -28.534  1.00  0.00    -0.389 OA
HETATM   36  H46 UNL     1      -8.459  49.911 -29.165  1.00  0.00     0.210 HD
ENDBRANCH   9  35
BRANCH   5  37
HETATM   37  C24 UNL     1      -9.419  43.526 -30.806  1.00  0.00     0.265 C 
HETATM   38  O3  UNL     1      -8.712  42.774 -31.465  1.00  0.00    -0.302 OA
ENDBRANCH   5  37
TORSDOF 14
ENDMDL
MODEL 2
REMARK minimizedAffinity -7.66295624
REMARK CNNscore 0.461067438
REMARK CNNaffinity 6.72248602
REMARK  14 active torsions:
REMARK  status: ('A' for Active; 'I' for Inactive)
REMARK    1  A    between atoms: C4_4  and  C5_5 
REMARK    2  A    between atoms: C5_5  and  C6_6 
REMARK    3  A    between atoms: C6_6  and  C7_7 
REMARK    4  A    between atoms: C9_10  and  C10_11 
REMARK    5  A    between atoms: C12_13  and  C13_14 
REMARK    6  A    between atoms: C13_14  and  C14_15 
REMARK    7  A    between atoms: C14_15  and  C15_16 
REMARK    8  A    between atoms: C17_18  and  C18_19 
REMARK    9  A    between atoms: C18_19  and  C19_20 
REMARK   10  A    between atoms: C19_20  and  C20_21 
REMARK   11  A    between atoms: C20_21  and  O2_22 
REMARK   12  A    between atoms: C22_24  and  C24_26 
REMARK   13  A    between atoms: C27_30  and  O4_32 
REMARK   14  A    between atoms: C30_34  and  O5_35 
ROOT
HETATM    1  C15 UNL     1      -8.196  46.951 -29.776  1.00  0.00    -0.006 C 
HETATM    2  C16 UNL     1      -7.533  45.654 -30.328  1.00  0.00     0.019 C 
HETATM    3  C17 UNL     1      -9.155  46.639 -28.511  1.00  0.00     0.026 C 
HETATM    4  C21 UNL     1     -10.644  46.605 -28.887  1.00  0.00    -0.066 C 
HETATM    5  C22 UNL     1     -11.666  47.151 -28.179  1.00  0.00    -0.021 C 
HETATM    6  C23 UNL     1     -13.112  47.132 -28.601  1.00  0.00     0.052 C 
HETATM    7  C25 UNL     1     -10.871  45.939 -30.219  1.00  0.00     0.038 C 
HETATM    8  C26 UNL     1     -10.254  46.763 -31.348  1.00  0.00     0.042 C 
HETATM    9  C27 UNL     1      -9.038  47.636 -30.930  1.00  0.00     0.062 C 
HETATM   10  C28 UNL     1      -9.511  49.062 -30.576  1.00  0.00     0.046 C 
ENDROOT
BRANCH   1  11
HETATM   11  C14 UNL     1      -7.028  47.864 -29.237  1.00  0.00     0.016 C 
BRANCH  11  12
HETATM   12  C13 UNL     1      -5.712  47.177 -28.837  1.00  0.00     0.028 C 
BRANCH  12  13
HETATM   13  C12 UNL     1      -4.632  48.190 -28.540  1.00  0.00    -0.022 C 
HETATM   14  C10 UNL     1      -4.250  48.679 -27.342  1.00  0.00    -0.059 C 
HETATM   15  C11 UNL     1      -4.854  48.240 -26.030  1.00  0.00     0.046 C 
BRANCH  14  16
HETATM   16  C9  UNL     1      -3.115  49.678 -27.172  1.00  0.00     0.153 C 
HETATM   17  O1  UNL     1      -2.895  49.935 -25.769  1.00  0.00    -0.368 OA
HETATM   18  C7  UNL     1      -2.441  51.299 -25.601  1.00  0.00     0.084 C 
HETATM   19  C8  UNL     1      -3.533  52.057 -24.838  1.00  0.00     0.049 C 
HETATM   20  C30 UNL     1      -2.233  51.844 -27.032  1.00  0.00     0.155 C 
HETATM   21  C29 UNL     1      -3.240  51.046 -27.830  1.00  0.00     0.071 C 
BRANCH  18  22
HETATM   22  C6  UNL     1      -1.092  51.281 -24.848  1.00  0.00     0.044 C 
BRANCH  22  23
HETATM   23  C5  UNL     1      -0.181  52.501 -25.063  1.00  0.00     0.030 C 
BRANCH  23  24
HETATM   24  C4  UNL     1       1.193  52.136 -25.561  1.00  0.00    -0.025 C 
HETATM   25  C2  UNL     1       1.596  51.955 -26.834  1.00  0.00    -0.091 C 
HETATM   26  C1  UNL     1       3.028  51.593 -27.136  1.00  0.00     0.042 C 
HETATM   27  C3  UNL     1       0.729  52.084 -28.054  1.00  0.00     0.042 C 
ENDBRANCH  23  24
ENDBRANCH  22  23
ENDBRANCH  18  22
BRANCH  20  28
HETATM   28  O5  UNL     1      -2.429  53.242 -27.152  1.00  0.00    -0.392 OA
HETATM   29  H50 UNL     1      -2.406  53.464 -28.101  1.00  0.00     0.210 HD
ENDBRANCH  20  28
ENDBRANCH  14  16
ENDBRANCH  12  13
ENDBRANCH  11  12
ENDBRANCH   1  11
BRANCH   3  30
HETATM   30  C18 UNL     1      -8.711  45.378 -27.713  1.00  0.00     0.012 C 
BRANCH  30  31
HETATM   31  C19 UNL     1      -9.305  45.230 -26.307  1.00  0.00     0.027 C 
BRANCH  31  32
HETATM   32  C20 UNL     1      -8.578  46.055 -25.250  1.00  0.00     0.164 C 
BRANCH  32  33
HETATM   33  O2  UNL     1      -7.913  45.191 -24.333  1.00  0.00    -0.401 OA
HETATM   34  H34 UNL     1      -8.592  44.626 -23.924  1.00  0.00     0.209 HD
ENDBRANCH  32  33
ENDBRANCH  31  32
ENDBRANCH  30  31
ENDBRANCH   3  30
BRANCH   9  35
HETATM   35  O4  UNL     1      -8.241  47.822 -32.112  1.00  0.00    -0.389 OA
HETATM   36  H46 UNL     1      -8.118  46.968 -32.554  1.00  0.00     0.210 HD
ENDBRANCH   9  35
BRANCH   5  37
HETATM   37  C24 UNL     1     -11.482  47.864 -26.874  1.00  0.00     0.265 C 
HETATM   38  O3  UNL     1     -12.279  47.829 -25.944  1.00  0.00    -0.302 OA
ENDBRANCH   5  37
TORSDOF 14
ENDMDL
MODEL 3
REMARK minimizedAffinity -8.2769289
REMARK CNNscore 0.378410339
REMARK CNNaffinity 6.46465254
REMARK  14 active torsions:
REMARK  status: ('A' for Active; 'I' for Inactive)
REMARK    1  A    between atoms: C4_4  and  C5_5 
REMARK    2  A    between atoms: C5_5  and  C6_6 
REMARK    3  A    between atoms: C6_6  and  C7_7 
REMARK    4  A    between atoms: C9_10  and  C10_11 
REMARK    5  A    between atoms: C12_13  and  C13_14 
REMARK    6  A    between atoms: C13_14  and  C14_15 
REMARK    7  A    between atoms: C14_15  and  C15_16 
REMARK    8  A    between atoms: C17_18  and  C18_19 
REMARK    9  A    between atoms: C18_19  and  C19_20 
REMARK   10  A    between atoms: C19_20  and  C20_21 
REMARK   11  A    between atoms: C20_21  and  O2_22 
REMARK   12  A    between atoms: C22_24  and  C24_26 
REMARK   13  A    between atoms: C27_30  and  O4_32 
REMARK   14  A    between atoms: C30_34  and  O5_35 
ROOT
HETATM    1  C15 UNL     1      -7.881  47.035 -29.261  1.00  0.00    -0.006 C 
HETATM    2  C16 UNL     1      -7.130  45.689 -29.494  1.00  0.00     0.019 C 
HETATM    3  C17 UNL     1      -9.016  46.894 -28.117  1.00  0.00     0.026 C 
HETATM    4  C21 UNL     1     -10.432  46.752 -28.698  1.00  0.00    -0.066 C 
HETATM    5  C22 UNL     1     -11.554  47.369 -28.245  1.00  0.00    -0.021 C 
HETATM    6  C23 UNL     1     -12.919  47.235 -28.866  1.00  0.00     0.052 C 
HETATM    7  C25 UNL     1     -10.449  45.877 -29.924  1.00  0.00     0.038 C 
HETATM    8  C26 UNL     1      -9.677  46.533 -31.067  1.00  0.00     0.042 C 
HETATM    9  C27 UNL     1      -8.546  47.502 -30.621  1.00  0.00     0.062 C 
HETATM   10  C28 UNL     1      -9.080  48.948 -30.574  1.00  0.00     0.046 C 
ENDROOT
BRANCH   1  11
HETATM   11  C14 UNL     1      -6.815  48.060 -28.710  1.00  0.00     0.016 C 
BRANCH  11  12
HETATM   12  C13 UNL     1      -5.562  47.487 -28.027  1.00  0.00     0.028 C 
BRANCH  12  13
HETATM   13  C12 UNL     1      -4.447  48.506 -27.984  1.00  0.00    -0.022 C 
HETATM   14  C10 UNL     1      -3.762  48.950 -26.910  1.00  0.00    -0.059 C 
HETATM   15  C11 UNL     1      -3.990  48.445 -25.506  1.00  0.00     0.046 C 
BRANCH  14  16
HETATM   16  C9  UNL     1      -2.629  49.961 -27.004  1.00  0.00     0.153 C 
HETATM   17  O1  UNL     1      -2.187  50.325 -25.679  1.00  0.00    -0.368 OA
HETATM   18  C7  UNL     1      -1.730  51.699 -25.691  1.00  0.00     0.084 C 
HETATM   19  C8  UNL     1      -2.693  52.511 -24.820  1.00  0.00     0.049 C 
HETATM   20  C30 UNL     1      -1.766  52.132 -27.174  1.00  0.00     0.155 C 
HETATM   21  C29 UNL     1      -2.878  51.275 -27.734  1.00  0.00     0.071 C 
BRANCH  18  22
HETATM   22  C6  UNL     1      -0.277  51.740 -25.170  1.00  0.00     0.044 C 
BRANCH  22  23
HETATM   23  C5  UNL     1       0.040  52.833 -24.136  1.00  0.00     0.030 C 
BRANCH  23  24
HETATM   24  C4  UNL     1       0.007  52.334 -22.714  1.00  0.00    -0.025 C 
HETATM   25  C2  UNL     1       0.583  52.879 -21.626  1.00  0.00    -0.091 C 
HETATM   26  C1  UNL     1       0.433  52.228 -20.275  1.00  0.00     0.042 C 
HETATM   27  C3  UNL     1       1.403  54.139 -21.608  1.00  0.00     0.042 C 
ENDBRANCH  23  24
ENDBRANCH  22  23
ENDBRANCH  18  22
BRANCH  20  28
HETATM   28  O5  UNL     1      -1.998  53.516 -27.366  1.00  0.00    -0.392 OA
HETATM   29  H50 UNL     1      -2.133  53.665 -28.319  1.00  0.00     0.210 HD
ENDBRANCH  20  28
ENDBRANCH  14  16
ENDBRANCH  12  13
ENDBRANCH  11  12
ENDBRANCH   1  11
BRANCH   3  30
HETATM   30  C18 UNL     1      -8.686  45.790 -27.070  1.00  0.00     0.012 C 
BRANCH  30  31
HETATM   31  C19 UNL     1      -7.938  46.257 -25.816  1.00  0.00     0.027 C 
BRANCH  31  32
HETATM   32  C20 UNL     1      -8.608  47.431 -25.110  1.00  0.00     0.164 C 
BRANCH  32  33
HETATM   33  O2  UNL     1      -7.970  48.649 -25.482  1.00  0.00    -0.401 OA
HETATM   34  H34 UNL     1      -7.035  48.576 -25.221  1.00  0.00     0.209 HD
ENDBRANCH  32  33
ENDBRANCH  31  32
ENDBRANCH  30  31
ENDBRANCH   3  30
BRANCH   9  35
HETATM   35  O4  UNL     1      -7.582  47.525 -31.688  1.00  0.00    -0.389 OA
HETATM   36  H46 UNL     1      -7.386  46.617 -31.963  1.00  0.00     0.210 HD
ENDBRANCH   9  35
BRANCH   5  37
HETATM   37  C24 UNL     1     -11.574  48.284 -27.058  1.00  0.00     0.265 C 
HETATM   38  O3  UNL     1     -12.013  47.983 -25.956  1.00  0.00    -0.302 OA
ENDBRANCH   5  37
TORSDOF 14
ENDMDL
MODEL 4
REMARK minimizedAffinity -8.48013783
REMARK CNNscore 0.368661791
REMARK CNNaffinity 6.98746729
REMARK  14 active torsions:
REMARK  status: ('A' for Active; 'I' for Inactive)
REMARK    1  A    between atoms: C4_4  and  C5_5 
REMARK    2  A    between atoms: C5_5  and  C6_6 
REMARK    3  A    between atoms: C6_6  and  C7_7 
REMARK    4  A    between atoms: C9_10  and  C10_11 
REMARK    5  A    between atoms: C12_13  and  C13_14 
REMARK    6  A    between atoms: C13_14  and  C14_15 
REMARK    7  A    between atoms: C14_15  and  C15_16 
REMARK    8  A    between atoms: C17_18  and  C18_19 
REMARK    9  A    between atoms: C18_19  and  C19_20 
REMARK   10  A    between atoms: C19_20  and  C20_21 
REMARK   11  A    between atoms: C20_21  and  O2_22 
REMARK   12  A    between atoms: C22_24  and  C24_26 
REMARK   13  A    between atoms: C27_30  and  O4_32 
REMARK   14  A    between atoms: C30_34  and  O5_35 
ROOT
HETATM    1  C15 UNL     1      -2.202  51.099 -24.290  1.00  0.00    -0.006 C 
HETATM    2  C16 UNL     1      -3.008  52.260 -23.633  1.00  0.00     0.019 C 
HETATM    3  C17 UNL     1      -0.668  51.525 -24.578  1.00  0.00     0.026 C 
HETATM    4  C21 UNL     1      -0.420  51.897 -26.048  1.00  0.00    -0.066 C 
HETATM    5  C22 UNL     1       0.651  51.535 -26.800  1.00  0.00    -0.021 C 
HETATM    6  C23 UNL     1       0.841  51.886 -28.252  1.00  0.00     0.052 C 
HETATM    7  C25 UNL     1      -1.568  52.680 -26.630  1.00  0.00     0.038 C 
HETATM    8  C26 UNL     1      -2.827  51.818 -26.706  1.00  0.00     0.042 C 
HETATM    9  C27 UNL     1      -2.906  50.683 -25.648  1.00  0.00     0.062 C 
HETATM   10  C28 UNL     1      -2.355  49.370 -26.242  1.00  0.00     0.046 C 
ENDROOT
BRANCH   1  11
HETATM   11  C14 UNL     1      -2.151  49.927 -23.236  1.00  0.00     0.016 C 
BRANCH  11  12
HETATM   12  C13 UNL     1      -3.359  49.757 -22.300  1.00  0.00     0.028 C 
BRANCH  12  13
HETATM   13  C12 UNL     1      -3.013  50.146 -20.882  1.00  0.00    -0.022 C 
HETATM   14  C10 UNL     1      -1.923  49.805 -20.163  1.00  0.00    -0.059 C 
HETATM   15  C11 UNL     1      -0.796  48.959 -20.706  1.00  0.00     0.046 C 
BRANCH  14  16
HETATM   16  C9  UNL     1      -1.673  50.295 -18.745  1.00  0.00     0.153 C 
HETATM   17  O1  UNL     1      -1.028  49.257 -17.976  1.00  0.00    -0.368 OA
HETATM   18  C7  UNL     1      -1.446  49.361 -16.594  1.00  0.00     0.084 C 
HETATM   19  C8  UNL     1      -2.265  48.108 -16.265  1.00  0.00     0.049 C 
HETATM   20  C30 UNL     1      -2.287  50.655 -16.513  1.00  0.00     0.155 C 
HETATM   21  C29 UNL     1      -2.860  50.754 -17.909  1.00  0.00     0.071 C 
BRANCH  18  22
HETATM   22  C6  UNL     1      -0.189  49.500 -15.707  1.00  0.00     0.044 C 
BRANCH  22  23
HETATM   23  C5  UNL     1       0.064  50.891 -15.104  1.00  0.00     0.030 C 
BRANCH  23  24
HETATM   24  C4  UNL     1       1.464  51.395 -15.338  1.00  0.00    -0.025 C 
HETATM   25  C2  UNL     1       1.940  52.069 -16.403  1.00  0.00    -0.091 C 
HETATM   26  C1  UNL     1       3.385  52.496 -16.454  1.00  0.00     0.042 C 
HETATM   27  C3  UNL     1       1.143  52.469 -17.613  1.00  0.00     0.042 C 
ENDBRANCH  23  24
ENDBRANCH  22  23
ENDBRANCH  18  22
BRANCH  20  28
HETATM   28  O5  UNL     1      -3.291  50.630 -15.514  1.00  0.00    -0.392 OA
HETATM   29  H50 UNL     1      -3.844  51.424 -15.629  1.00  0.00     0.210 HD
ENDBRANCH  20  28
ENDBRANCH  14  16
ENDBRANCH  12  13
ENDBRANCH  11  12
ENDBRANCH   1  11
BRANCH   3  30
HETATM   30  C18 UNL     1      -0.148  52.610 -23.591  1.00  0.00     0.012 C 
BRANCH  30  31
HETATM   31  C19 UNL     1       0.509  52.089 -22.306  1.00  0.00     0.027 C 
BRANCH  31  32
HETATM   32  C20 UNL     1       0.116  52.875 -21.061  1.00  0.00     0.164 C 
BRANCH  32  33
HETATM   33  O2  UNL     1       0.926  54.040 -20.946  1.00  0.00    -0.401 OA
HETATM   34  H34 UNL     1       1.852  53.744 -20.891  1.00  0.00     0.209 HD
ENDBRANCH  32  33
ENDBRANCH  31  32
ENDBRANCH  30  31
ENDBRANCH   3  30
BRANCH   9  35
HETATM   35  O4  UNL     1      -4.303  50.409 -25.444  1.00  0.00    -0.389 OA
HETATM   36  H46 UNL     1      -4.779  51.244 -25.322  1.00  0.00     0.210 HD
ENDBRANCH   9  35
BRANCH   5  37
HETATM   37  C24 UNL     1       1.793  50.717 -26.276  1.00  0.00     0.265 C 
HETATM   38  O3  UNL     1       2.972  51.040 -26.353  1.00  0.00    -0.302 OA
ENDBRANCH   5  37
TORSDOF 14
ENDMDL
MODEL 5
REMARK minimizedAffinity -8.43803215
REMARK CNNscore 0.330650181
REMARK CNNaffinity 6.28789186
REMARK  14 active torsions:
REMARK  status: ('A' for Active; 'I' for Inactive)
REMARK    1  A    between atoms: C4_4  and  C5_5 
REMARK    2  A    between atoms: C5_5  and  C6_6 
REMARK    3  A    between atoms: C6_6  and  C7_7 
REMARK    4  A    between atoms: C9_10  and  C10_11 
REMARK    5  A    between atoms: C12_13  and  C13_14 
REMARK    6  A    between atoms: C13_14  and  C14_15 
REMARK    7  A    between atoms: C14_15  and  C15_16 
REMARK    8  A    between atoms: C17_18  and  C18_19 
REMARK    9  A    between atoms: C18_19  and  C19_20 
REMARK   10  A    between atoms: C19_20  and  C20_21 
REMARK   11  A    between atoms: C20_21  and  O2_22 
REMARK   12  A    between atoms: C22_24  and  C24_26 
REMARK   13  A    between atoms: C27_30  and  O4_32 
REMARK   14  A    between atoms: C30_34  and  O5_35 
ROOT
HETATM    1  C15 UNL     1      -8.501  47.865 -30.027  1.00  0.00    -0.006 C 
HETATM    2  C16 UNL     1      -8.523  49.225 -30.787  1.00  0.00     0.019 C 
HETATM    3  C17 UNL     1      -7.683  46.735 -30.848  1.00  0.00     0.026 C 
HETATM    4  C21 UNL     1      -8.604  45.761 -31.599  1.00  0.00    -0.066 C 
HETATM    5  C22 UNL     1      -8.458  44.413 -31.677  1.00  0.00    -0.021 C 
HETATM    6  C23 UNL     1      -9.405  43.485 -32.390  1.00  0.00     0.052 C 
HETATM    7  C25 UNL     1      -9.786  46.466 -32.212  1.00  0.00     0.038 C 
HETATM    8  C26 UNL     1     -10.701  47.031 -31.126  1.00  0.00     0.042 C 
HETATM    9  C27 UNL     1      -9.990  47.379 -29.788  1.00  0.00     0.062 C 
HETATM   10  C28 UNL     1     -10.095  46.189 -28.812  1.00  0.00     0.046 C 
ENDROOT
BRANCH   1  11
HETATM   11  C14 UNL     1      -7.707  48.106 -28.686  1.00  0.00     0.016 C 
BRANCH  11  12
HETATM   12  C13 UNL     1      -6.475  47.225 -28.419  1.00  0.00     0.028 C 
BRANCH  12  13
HETATM   13  C12 UNL     1      -5.216  48.056 -28.328  1.00  0.00    -0.022 C 
HETATM   14  C10 UNL     1      -4.613  48.541 -27.222  1.00  0.00    -0.059 C 
HETATM   15  C11 UNL     1      -5.109  48.287 -25.819  1.00  0.00     0.046 C 
BRANCH  14  16
HETATM   16  C9  UNL     1      -3.319  49.341 -27.262  1.00  0.00     0.153 C 
HETATM   17  O1  UNL     1      -3.004  49.827 -25.940  1.00  0.00    -0.368 OA
HETATM   18  C7  UNL     1      -2.319  51.097 -26.051  1.00  0.00     0.084 C 
HETATM   19  C8  UNL     1      -3.235  52.168 -25.451  1.00  0.00     0.049 C 
HETATM   20  C30 UNL     1      -2.078  51.305 -27.564  1.00  0.00     0.155 C 
HETATM   21  C29 UNL     1      -3.237  50.554 -28.180  1.00  0.00     0.071 C 
BRANCH  18  22
HETATM   22  C6  UNL     1      -0.964  50.993 -25.317  1.00  0.00     0.044 C 
BRANCH  22  23
HETATM   23  C5  UNL     1      -1.026  50.989 -23.780  1.00  0.00     0.030 C 
BRANCH  23  24
HETATM   24  C4  UNL     1      -0.190  52.072 -23.149  1.00  0.00    -0.025 C 
HETATM   25  C2  UNL     1       0.295  52.125 -21.893  1.00  0.00    -0.091 C 
HETATM   26  C1  UNL     1       1.122  53.302 -21.444  1.00  0.00     0.042 C 
HETATM   27  C3  UNL     1       0.095  51.079 -20.834  1.00  0.00     0.042 C 
ENDBRANCH  23  24
ENDBRANCH  22  23
ENDBRANCH  18  22
BRANCH  20  28
HETATM   28  O5  UNL     1      -2.039  52.664 -27.961  1.00  0.00    -0.392 OA
HETATM   29  H50 UNL     1      -2.016  52.687 -28.935  1.00  0.00     0.210 HD
ENDBRANCH  20  28
ENDBRANCH  14  16
ENDBRANCH  12  13
ENDBRANCH  11  12
ENDBRANCH   1  11
BRANCH   3  30
HETATM   30  C18 UNL     1      -6.577  47.337 -31.763  1.00  0.00     0.012 C 
BRANCH  30  31
HETATM   31  C19 UNL     1      -6.991  47.634 -33.209  1.00  0.00     0.027 C 
BRANCH  31  32
HETATM   32  C20 UNL     1      -5.811  47.915 -34.133  1.00  0.00     0.164 C 
BRANCH  32  33
HETATM   33  O2  UNL     1      -6.248  47.929 -35.488  1.00  0.00    -0.401 OA
HETATM   34  H34 UNL     1      -6.635  47.056 -35.677  1.00  0.00     0.209 HD
ENDBRANCH  32  33
ENDBRANCH  31  32
ENDBRANCH  30  31
ENDBRANCH   3  30
BRANCH   9  35
HETATM   35  O4  UNL     1     -10.776  48.408 -29.162  1.00  0.00    -0.389 OA
HETATM   36  H46 UNL     1     -10.984  49.094 -29.814  1.00  0.00     0.210 HD
ENDBRANCH   9  35
BRANCH   5  37
HETATM   37  C24 UNL     1      -7.324  43.665 -31.043  1.00  0.00     0.265 C 
HETATM   38  O3  UNL     1      -7.010  43.749 -29.862  1.00  0.00    -0.302 OA
ENDBRANCH   5  37
TORSDOF 14
ENDMDL
MODEL 6
REMARK minimizedAffinity -7.35471249
REMARK CNNscore 0.301683903
REMARK CNNaffinity 6.16877937
REMARK  14 active torsions:
REMARK  status: ('A' for Active; 'I' for Inactive)
REMARK    1  A    between atoms: C4_4  and  C5_5 
REMARK    2  A    between atoms: C5_5  and  C6_6 
REMARK    3  A    between atoms: C6_6  and  C7_7 
REMARK    4  A    between atoms: C9_10  and  C10_11 
REMARK    5  A    between atoms: C12_13  and  C13_14 
REMARK    6  A    between atoms: C13_14  and  C14_15 
REMARK    7  A    between atoms: C14_15  and  C15_16 
REMARK    8  A    between atoms: C17_18  and  C18_19 
REMARK    9  A    between atoms: C18_19  and  C19_20 
REMARK   10  A    between atoms: C19_20  and  C20_21 
REMARK   11  A    between atoms: C20_21  and  O2_22 
REMARK   12  A    between atoms: C22_24  and  C24_26 
REMARK   13  A    between atoms: C27_30  and  O4_32 
REMARK   14  A    between atoms: C30_34  and  O5_35 
ROOT
HETATM    1  C15 UNL     1      -8.284  47.692 -30.685  1.00  0.00    -0.006 C 
HETATM    2  C16 UNL     1      -8.947  48.685 -31.686  1.00  0.00     0.019 C 
HETATM    3  C17 UNL     1      -7.645  46.414 -31.446  1.00  0.00     0.026 C 
HETATM    4  C21 UNL     1      -8.536  45.165 -31.361  1.00  0.00    -0.066 C 
HETATM    5  C22 UNL     1      -8.120  43.895 -31.122  1.00  0.00    -0.021 C 
HETATM    6  C23 UNL     1      -9.029  42.699 -31.006  1.00  0.00     0.052 C 
HETATM    7  C25 UNL     1      -9.996  45.506 -31.504  1.00  0.00     0.038 C 
HETATM    8  C26 UNL     1     -10.473  46.345 -30.320  1.00  0.00     0.042 C 
HETATM    9  C27 UNL     1      -9.371  47.204 -29.640  1.00  0.00     0.062 C 
HETATM   10  C28 UNL     1      -8.767  46.437 -28.446  1.00  0.00     0.046 C 
ENDROOT
BRANCH   1  11
HETATM   11  C14 UNL     1      -7.081  48.459 -30.013  1.00  0.00     0.016 C 
BRANCH  11  12
HETATM   12  C13 UNL     1      -5.886  47.624 -29.524  1.00  0.00     0.028 C 
BRANCH  12  13
HETATM   13  C12 UNL     1      -4.802  48.503 -28.945  1.00  0.00    -0.022 C 
HETATM   14  C10 UNL     1      -4.489  48.699 -27.647  1.00  0.00    -0.059 C 
HETATM   15  C11 UNL     1      -5.191  48.005 -26.504  1.00  0.00     0.046 C 
BRANCH  14  16
HETATM   16  C9  UNL     1      -3.343  49.590 -27.192  1.00  0.00     0.153 C 
HETATM   17  O1  UNL     1      -3.248  49.567 -25.752  1.00  0.00    -0.368 OA
HETATM   18  C7  UNL     1      -2.767  50.850 -25.286  1.00  0.00     0.084 C 
HETATM   19  C8  UNL     1      -3.900  51.505 -24.489  1.00  0.00     0.049 C 
HETATM   20  C30 UNL     1      -2.407  51.644 -26.563  1.00  0.00     0.155 C 
HETATM   21  C29 UNL     1      -3.361  51.062 -27.583  1.00  0.00     0.071 C 
BRANCH  18  22
HETATM   22  C6  UNL     1      -1.497  50.623 -24.438  1.00  0.00     0.044 C 
BRANCH  22  23
HETATM   23  C5  UNL     1      -0.260  51.444 -24.838  1.00  0.00     0.030 C 
BRANCH  23  24
HETATM   24  C4  UNL     1       0.033  51.395 -26.315  1.00  0.00    -0.025 C 
HETATM   25  C2  UNL     1       1.232  51.426 -26.928  1.00  0.00    -0.091 C 
HETATM   26  C1  UNL     1       1.323  51.363 -28.431  1.00  0.00     0.042 C 
HETATM   27  C3  UNL     1       2.565  51.519 -26.240  1.00  0.00     0.042 C 
ENDBRANCH  23  24
ENDBRANCH  22  23
ENDBRANCH  18  22
BRANCH  20  28
HETATM   28  O5  UNL     1      -2.545  53.047 -26.429  1.00  0.00    -0.392 OA
HETATM   29  H50 UNL     1      -2.426  53.442 -27.311  1.00  0.00     0.210 HD
ENDBRANCH  20  28
ENDBRANCH  14  16
ENDBRANCH  12  13
ENDBRANCH  11  12
ENDBRANCH   1  11
BRANCH   3  30
HETATM   30  C18 UNL     1      -7.206  46.738 -32.904  1.00  0.00     0.012 C 
BRANCH  30  31
HETATM   31  C19 UNL     1      -5.708  46.595 -33.201  1.00  0.00     0.027 C 
BRANCH  31  32
HETATM   32  C20 UNL     1      -5.039  47.908 -33.590  1.00  0.00     0.164 C 
BRANCH  32  33
HETATM   33  O2  UNL     1      -4.361  48.460 -32.466  1.00  0.00    -0.401 OA
HETATM   34  H34 UNL     1      -5.026  48.604 -31.770  1.00  0.00     0.209 HD
ENDBRANCH  32  33
ENDBRANCH  31  32
ENDBRANCH  30  31
ENDBRANCH   3  30
BRANCH   9  35
HETATM   35  O4  UNL     1     -10.039  48.321 -29.029  1.00  0.00    -0.389 OA
HETATM   36  H46 UNL     1     -10.660  48.710 -29.664  1.00  0.00     0.210 HD
ENDBRANCH   9  35
BRANCH   5  37
HETATM   37  C24 UNL     1      -6.683  43.516 -30.926  1.00  0.00     0.265 C 
HETATM   38  O3  UNL     1      -5.971  43.022 -31.791  1.00  0.00    -0.302 OA
ENDBRANCH   5  37
TORSDOF 14
ENDMDL
MODEL 7
REMARK minimizedAffinity -7.95357227
REMARK CNNscore 0.292713493
REMARK CNNaffinity 6.34820175
REMARK  14 active torsions:
REMARK  status: ('A' for Active; 'I' for Inactive)
REMARK    1  A    between atoms: C4_4  and  C5_5 
REMARK    2  A    between atoms: C5_5  and  C6_6 
REMARK    3  A    between atoms: C6_6  and  C7_7 
REMARK    4  A    between atoms: C9_10  and  C10_11 
REMARK    5  A    between atoms: C12_13  and  C13_14 
REMARK    6  A    between atoms: C13_14  and  C14_15 
REMARK    7  A    between atoms: C14_15  and  C15_16 
REMARK    8  A    between atoms: C17_18  and  C18_19 
REMARK    9  A    between atoms: C18_19  and  C19_20 
REMARK   10  A    between atoms: C19_20  and  C20_21 
REMARK   11  A    between atoms: C20_21  and  O2_22 
REMARK   12  A    between atoms: C22_24  and  C24_26 
REMARK   13  A    between atoms: C27_30  and  O4_32 
REMARK   14  A    between atoms: C30_34  and  O5_35 
ROOT
HETATM    1  C15 UNL     1      -1.797  50.743 -22.222  1.00  0.00    -0.006 C 
HETATM    2  C16 UNL     1      -2.014  51.837 -21.135  1.00  0.00     0.019 C 
HETATM    3  C17 UNL     1      -0.850  51.272 -23.422  1.00  0.00     0.026 C 
HETATM    4  C21 UNL     1      -1.645  51.683 -24.671  1.00  0.00    -0.066 C 
HETATM    5  C22 UNL     1      -1.321  51.404 -25.960  1.00  0.00    -0.021 C 
HETATM    6  C23 UNL     1      -2.148  51.791 -27.157  1.00  0.00     0.052 C 
HETATM    7  C25 UNL     1      -2.921  52.400 -24.312  1.00  0.00     0.038 C 
HETATM    8  C26 UNL     1      -3.884  51.459 -23.590  1.00  0.00     0.042 C 
HETATM    9  C27 UNL     1      -3.204  50.303 -22.804  1.00  0.00     0.062 C 
HETATM   10  C28 UNL     1      -3.131  49.039 -23.686  1.00  0.00     0.046 C 
ENDROOT
BRANCH   1  11
HETATM   11  C14 UNL     1      -1.019  49.559 -21.527  1.00  0.00     0.016 C 
BRANCH  11  12
HETATM   12  C13 UNL     1      -0.140  49.900 -20.313  1.00  0.00     0.028 C 
BRANCH  12  13
HETATM   13  C12 UNL     1      -0.893  49.706 -19.018  1.00  0.00    -0.022 C 
HETATM   14  C10 UNL     1      -0.697  50.326 -17.835  1.00  0.00    -0.059 C 
HETATM   15  C11 UNL     1       0.344  51.397 -17.616  1.00  0.00     0.046 C 
BRANCH  14  16
HETATM   16  C9  UNL     1      -1.553  50.064 -16.605  1.00  0.00     0.153 C 
HETATM   17  O1  UNL     1      -0.855  50.505 -15.421  1.00  0.00    -0.368 OA
HETATM   18  C7  UNL     1      -1.224  49.656 -14.308  1.00  0.00     0.084 C 
HETATM   19  C8  UNL     1       0.027  48.877 -13.889  1.00  0.00     0.049 C 
HETATM   20  C30 UNL     1      -2.342  48.734 -14.845  1.00  0.00     0.155 C 
HETATM   21  C29 UNL     1      -2.001  48.637 -16.315  1.00  0.00     0.071 C 
BRANCH  18  22
HETATM   22  C6  UNL     1      -1.780  50.543 -13.173  1.00  0.00     0.044 C 
BRANCH  22  23
HETATM   23  C5  UNL     1      -3.068  51.320 -13.490  1.00  0.00     0.030 C 
BRANCH  23  24
HETATM   24  C4  UNL     1      -3.290  52.500 -12.579  1.00  0.00    -0.025 C 
HETATM   25  C2  UNL     1      -3.876  52.518 -11.366  1.00  0.00    -0.091 C 
HETATM   26  C1  UNL     1      -4.003  53.809 -10.599  1.00  0.00     0.042 C 
HETATM   27  C3  UNL     1      -4.445  51.324 -10.652  1.00  0.00     0.042 C 
ENDBRANCH  23  24
ENDBRANCH  22  23
ENDBRANCH  18  22
BRANCH  20  28
HETATM   28  O5  UNL     1      -2.398  47.466 -14.216  1.00  0.00    -0.392 OA
HETATM   29  H50 UNL     1      -3.038  46.920 -14.707  1.00  0.00     0.210 HD
ENDBRANCH  20  28
ENDBRANCH  14  16
ENDBRANCH  12  13
ENDBRANCH  11  12
ENDBRANCH   1  11
BRANCH   3  30
HETATM   30  C18 UNL     1       0.151  52.372 -22.961  1.00  0.00     0.012 C 
BRANCH  30  31
HETATM   31  C19 UNL     1       0.262  52.585 -21.447  1.00  0.00     0.027 C 
BRANCH  31  32
HETATM   32  C20 UNL     1       1.554  53.275 -21.024  1.00  0.00     0.164 C 
BRANCH  32  33
HETATM   33  O2  UNL     1       1.295  54.180 -19.956  1.00  0.00    -0.401 OA
HETATM   34  H34 UNL     1       0.646  54.830 -20.279  1.00  0.00     0.209 HD
ENDBRANCH  32  33
ENDBRANCH  31  32
ENDBRANCH  30  31
ENDBRANCH   3  30
BRANCH   9  35
HETATM   35  O4  UNL     1      -4.109  49.936 -21.750  1.00  0.00    -0.389 OA
HETATM   36  H46 UNL     1      -4.419  50.737 -21.299  1.00  0.00     0.210 HD
ENDBRANCH   9  35
BRANCH   5  37
HETATM   37  C24 UNL     1      -0.087  50.653 -26.360  1.00  0.00     0.265 C 
HETATM   38  O3  UNL     1       1.053  51.091 -26.269  1.00  0.00    -0.302 OA
ENDBRANCH   5  37
TORSDOF 14
ENDMDL
MODEL 8
REMARK minimizedAffinity -8.20708466
REMARK CNNscore 0.260557115
REMARK CNNaffinity 6.20179796
REMARK  14 active torsions:
REMARK  status: ('A' for Active; 'I' for Inactive)
REMARK    1  A    between atoms: C4_4  and  C5_5 
REMARK    2  A    between atoms: C5_5  and  C6_6 
REMARK    3  A    between atoms: C6_6  and  C7_7 
REMARK    4  A    between atoms: C9_10  and  C10_11 
REMARK    5  A    between atoms: C12_13  and  C13_14 
REMARK    6  A    between atoms: C13_14  and  C14_15 
REMARK    7  A    between atoms: C14_15  and  C15_16 
REMARK    8  A    between atoms: C17_18  and  C18_19 
REMARK    9  A    between atoms: C18_19  and  C19_20 
REMARK   10  A    between atoms: C19_20  and  C20_21 
REMARK   11  A    between atoms: C20_21  and  O2_22 
REMARK   12  A    between atoms: C22_24  and  C24_26 
REMARK   13  A    between atoms: C27_30  and  O4_32 
REMARK   14  A    between atoms: C30_34  and  O5_35 
ROOT
HETATM    1  C15 UNL     1      -7.226  47.819 -30.228  1.00  0.00    -0.006 C 
HETATM    2  C16 UNL     1      -6.995  47.979 -31.761  1.00  0.00     0.019 C 
HETATM    3  C17 UNL     1      -7.299  46.263 -29.794  1.00  0.00     0.026 C 
HETATM    4  C21 UNL     1      -8.740  45.772 -29.583  1.00  0.00    -0.066 C 
HETATM    5  C22 UNL     1      -9.180  44.978 -28.572  1.00  0.00    -0.021 C 
HETATM    6  C23 UNL     1     -10.610  44.549 -28.375  1.00  0.00     0.052 C 
HETATM    7  C25 UNL     1      -9.683  46.338 -30.612  1.00  0.00     0.038 C 
HETATM    8  C26 UNL     1      -9.813  47.851 -30.451  1.00  0.00     0.042 C 
HETATM    9  C27 UNL     1      -8.573  48.551 -29.827  1.00  0.00     0.062 C 
HETATM   10  C28 UNL     1      -8.760  48.692 -28.302  1.00  0.00     0.046 C 
ENDROOT
BRANCH   1  11
HETATM   11  C14 UNL     1      -5.957  48.424 -29.512  1.00  0.00     0.016 C 
BRANCH  11  12
HETATM   12  C13 UNL     1      -5.437  47.706 -28.256  1.00  0.00     0.028 C 
BRANCH  12  13
HETATM   13  C12 UNL     1      -4.194  48.373 -27.717  1.00  0.00    -0.022 C 
HETATM   14  C10 UNL     1      -3.910  48.706 -26.440  1.00  0.00    -0.059 C 
HETATM   15  C11 UNL     1      -4.828  48.416 -25.278  1.00  0.00     0.046 C 
BRANCH  14  16
HETATM   16  C9  UNL     1      -2.597  49.348 -26.019  1.00  0.00     0.153 C 
HETATM   17  O1  UNL     1      -2.755  49.989 -24.736  1.00  0.00    -0.368 OA
HETATM   18  C7  UNL     1      -1.890  51.148 -24.672  1.00  0.00     0.084 C 
HETATM   19  C8  UNL     1      -2.787  52.388 -24.604  1.00  0.00     0.049 C 
HETATM   20  C30 UNL     1      -1.043  51.101 -25.964  1.00  0.00     0.155 C 
HETATM   21  C29 UNL     1      -1.968  50.394 -26.930  1.00  0.00     0.071 C 
BRANCH  18  22
HETATM   22  C6  UNL     1      -0.970  51.010 -23.440  1.00  0.00     0.044 C 
BRANCH  22  23
HETATM   23  C5  UNL     1      -0.567  52.322 -22.746  1.00  0.00     0.030 C 
BRANCH  23  24
HETATM   24  C4  UNL     1      -0.429  52.186 -21.252  1.00  0.00    -0.025 C 
HETATM   25  C2  UNL     1       0.362  52.893 -20.421  1.00  0.00    -0.091 C 
HETATM   26  C1  UNL     1       0.359  52.610 -18.940  1.00  0.00     0.042 C 
HETATM   27  C3  UNL     1       1.296  53.996 -20.830  1.00  0.00     0.042 C 
ENDBRANCH  23  24
ENDBRANCH  22  23
ENDBRANCH  18  22
BRANCH  20  28
HETATM   28  O5  UNL     1      -0.636  52.374 -26.434  1.00  0.00    -0.392 OA
HETATM   29  H50 UNL     1      -0.228  52.249 -27.310  1.00  0.00     0.210 HD
ENDBRANCH  20  28
ENDBRANCH  14  16
ENDBRANCH  12  13
ENDBRANCH  11  12
ENDBRANCH   1  11
BRANCH   3  30
HETATM   30  C18 UNL     1      -6.484  45.333 -30.739  1.00  0.00     0.012 C 
BRANCH  30  31
HETATM   31  C19 UNL     1      -6.060  45.945 -32.081  1.00  0.00     0.027 C 
BRANCH  31  32
HETATM   32  C20 UNL     1      -4.615  45.640 -32.458  1.00  0.00     0.164 C 
BRANCH  32  33
HETATM   33  O2  UNL     1      -3.739  46.542 -31.791  1.00  0.00    -0.401 OA
HETATM   34  H34 UNL     1      -3.986  47.442 -32.066  1.00  0.00     0.209 HD
ENDBRANCH  32  33
ENDBRANCH  31  32
ENDBRANCH  30  31
ENDBRANCH   3  30
BRANCH   9  35
HETATM   35  O4  UNL     1      -8.586  49.909 -30.302  1.00  0.00    -0.389 OA
HETATM   36  H46 UNL     1      -8.736  49.912 -31.259  1.00  0.00     0.210 HD
ENDBRANCH   9  35
BRANCH   5  37
HETATM   37  C24 UNL     1      -8.287  44.431 -27.499  1.00  0.00     0.265 C 
HETATM   38  O3  UNL     1      -7.376  43.636 -27.693  1.00  0.00    -0.302 OA
ENDBRANCH   5  37
TORSDOF 14
ENDMDL
MODEL 9
REMARK minimizedAffinity -7.28053379
REMARK CNNscore 0.242148012
REMARK CNNaffinity 5.88016844
REMARK  14 active torsions:
REMARK  status: ('A' for Active; 'I' for Inactive)
REMARK    1  A    between atoms: C4_4  and  C5_5 
REMARK    2  A    between atoms: C5_5  and  C6_6 
REMARK    3  A    between atoms: C6_6  and  C7_7 
REMARK    4  A    between atoms: C9_10  and  C10_11 
REMARK    5  A    between atoms: C12_13  and  C13_14 
REMARK    6  A    between atoms: C13_14  and  C14_15 
REMARK    7  A    between atoms: C14_15  and  C15_16 
REMARK    8  A    between atoms: C17_18  and  C18_19 
REMARK    9  A    between atoms: C18_19  and  C19_20 
REMARK   10  A    between atoms: C19_20  and  C20_21 
REMARK   11  A    between atoms: C20_21  and  O2_22 
REMARK   12  A    between atoms: C22_24  and  C24_26 
REMARK   13  A    between atoms: C27_30  and  O4_32 
REMARK   14  A    between atoms: C30_34  and  O5_35 
ROOT
HETATM    1  C15 UNL     1      -2.259  51.013 -24.296  1.00  0.00    -0.006 C 
HETATM    2  C16 UNL     1      -3.204  52.062 -23.637  1.00  0.00     0.019 C 
HETATM    3  C17 UNL     1      -0.783  51.622 -24.560  1.00  0.00     0.026 C 
HETATM    4  C21 UNL     1      -0.565  52.038 -26.023  1.00  0.00    -0.066 C 
HETATM    5  C22 UNL     1       0.551  51.815 -26.765  1.00  0.00    -0.021 C 
HETATM    6  C23 UNL     1       0.713  52.203 -28.211  1.00  0.00     0.052 C 
HETATM    7  C25 UNL     1      -1.791  52.685 -26.612  1.00  0.00     0.038 C 
HETATM    8  C26 UNL     1      -2.937  51.680 -26.712  1.00  0.00     0.042 C 
HETATM    9  C27 UNL     1      -2.893  50.531 -25.666  1.00  0.00     0.062 C 
HETATM   10  C28 UNL     1      -2.182  49.300 -26.267  1.00  0.00     0.046 C 
ENDROOT
BRANCH   1  11
HETATM   11  C14 UNL     1      -2.080  49.843 -23.253  1.00  0.00     0.016 C 
BRANCH  11  12
HETATM   12  C13 UNL     1      -3.175  49.663 -22.189  1.00  0.00     0.028 C 
BRANCH  12  13
HETATM   13  C12 UNL     1      -4.072  48.493 -22.518  1.00  0.00    -0.022 C 
HETATM   14  C10 UNL     1      -5.119  48.018 -21.811  1.00  0.00    -0.059 C 
HETATM   15  C11 UNL     1      -5.609  48.637 -20.524  1.00  0.00     0.046 C 
BRANCH  14  16
HETATM   16  C9  UNL     1      -5.971  46.844 -22.271  1.00  0.00     0.153 C 
HETATM   17  O1  UNL     1      -7.170  47.331 -22.910  1.00  0.00    -0.368 OA
HETATM   18  C7  UNL     1      -8.249  46.396 -22.671  1.00  0.00     0.084 C 
HETATM   19  C8  UNL     1      -9.285  47.103 -21.791  1.00  0.00     0.049 C 
HETATM   20  C30 UNL     1      -7.598  45.187 -21.962  1.00  0.00     0.155 C 
HETATM   21  C29 UNL     1      -6.436  45.827 -21.236  1.00  0.00     0.071 C 
BRANCH  18  22
HETATM   22  C6  UNL     1      -8.828  45.952 -24.033  1.00  0.00     0.044 C 
BRANCH  22  23
HETATM   23  C5  UNL     1      -8.835  47.015 -25.144  1.00  0.00     0.030 C 
BRANCH  23  24
HETATM   24  C4  UNL     1     -10.218  47.349 -25.638  1.00  0.00    -0.025 C 
HETATM   25  C2  UNL     1     -10.596  47.702 -26.882  1.00  0.00    -0.091 C 
HETATM   26  C1  UNL     1     -12.043  47.997 -27.186  1.00  0.00     0.042 C 
HETATM   27  C3  UNL     1      -9.684  47.837 -28.068  1.00  0.00     0.042 C 
ENDBRANCH  23  24
ENDBRANCH  22  23
ENDBRANCH  18  22
BRANCH  20  28
HETATM   28  O5  UNL     1      -8.469  44.493 -21.087  1.00  0.00    -0.392 OA
HETATM   29  H50 UNL     1      -7.937  43.841 -20.596  1.00  0.00     0.210 HD
ENDBRANCH  20  28
ENDBRANCH  14  16
ENDBRANCH  12  13
ENDBRANCH  11  12
ENDBRANCH   1  11
BRANCH   3  30
HETATM   30  C18 UNL     1      -0.407  52.750 -23.556  1.00  0.00     0.012 C 
BRANCH  30  31
HETATM   31  C19 UNL     1       0.774  52.452 -22.624  1.00  0.00     0.027 C 
BRANCH  31  32
HETATM   32  C20 UNL     1       0.771  53.291 -21.351  1.00  0.00     0.164 C 
BRANCH  32  33
HETATM   33  O2  UNL     1       1.715  54.351 -21.466  1.00  0.00    -0.401 OA
HETATM   34  H34 UNL     1       2.588  53.945 -21.611  1.00  0.00     0.209 HD
ENDBRANCH  32  33
ENDBRANCH  31  32
ENDBRANCH  30  31
ENDBRANCH   3  30
BRANCH   9  35
HETATM   35  O4  UNL     1      -4.249  50.090 -25.483  1.00  0.00    -0.389 OA
HETATM   36  H46 UNL     1      -4.823  50.861 -25.358  1.00  0.00     0.210 HD
ENDBRANCH   9  35
BRANCH   5  37
HETATM   37  C24 UNL     1       1.776  51.133 -26.236  1.00  0.00     0.265 C 
HETATM   38  O3  UNL     1       2.875  51.162 -26.774  1.00  0.00    -0.302 OA
ENDBRANCH   5  37
TORSDOF 14
ENDMDL
