MODEL 1
REMARK minimizedAffinity -9.13560772
REMARK CNNscore 0.527644813
REMARK CNNaffinity 6.99839401
REMARK  18 active torsions:
REMARK  status: ('A' for Active; 'I' for Inactive)
REMARK    1  A    between atoms: C2_2  and  C4_4 
REMARK    2  A    between atoms: C4_4  and  N1_5 
REMARK    3  A    between atoms: C4_4  and  C30_38 
REMARK       I    between atoms: N1_5  and  C5_6 
REMARK    4  A    between atoms: C5_6  and  C6_8 
REMARK    5  A    between atoms: C6_8  and  C7_9 
REMARK    6  A    between atoms: C7_9  and  C8_10 
REMARK    7  A    between atoms: C8_10  and  O3_12 
REMARK    8  A    between atoms: O3_12  and  C9_13 
REMARK    9  A    between atoms: C9_13  and  C10_14 
REMARK   10  A    between atoms: C10_14  and  C11_16 
REMARK   11  A    between atoms: C11_16  and  O5_17 
REMARK   12  A    between atoms: C26_33  and  O7_34 
REMARK       I    between atoms: C30_38  and  N2_40 
REMARK   13  A    between atoms: N2_40  and  C31_41 
REMARK   14  A    between atoms: C31_41  and  C32_42 
REMARK   15  A    between atoms: C32_42  and  C33_43 
REMARK   16  A    between atoms: C32_42  and  C35_47 
REMARK   17  A    between atoms: C33_43  and  C34_44 
REMARK   18  A    between atoms: C34_44  and  O10_46 
ROOT
HETATM    1  C8  UNL     1       1.201  10.242  17.662  1.00  0.00     0.259 C 
HETATM    2  O2  UNL     1       2.219   9.573  17.762  1.00  0.00    -0.265 OA
ENDROOT
BRANCH   1   3
HETATM    3  C7  UNL     1       0.946  11.523  18.417  1.00  0.00     0.120 C 
BRANCH   3   4
HETATM    4  C6  UNL     1       0.598  11.289  19.882  1.00  0.00     0.112 C 
BRANCH   4   5
HETATM    5  C5  UNL     1       1.743  10.601  20.594  1.00  0.00     0.218 C 
HETATM    6  N1  UNL     1       2.936  11.280  20.542  1.00  0.00    -0.347 N 
HETATM    7  H9  UNL     1       3.010  12.137  20.008  1.00  0.00     0.163 HD
HETATM    8  O1  UNL     1       1.599   9.531  21.175  1.00  0.00    -0.274 OA
BRANCH   6   9
HETATM    9  C4  UNL     1       4.173  10.738  21.131  1.00  0.00     0.179 C 
BRANCH   9  10
HETATM   10  C2  UNL     1       4.203  10.894  22.672  1.00  0.00     0.009 C 
HETATM   11  C1  UNL     1       5.617  11.211  23.180  1.00  0.00     0.012 C 
HETATM   12  C3  UNL     1       3.714   9.636  23.401  1.00  0.00     0.012 C 
ENDBRANCH   9  10
BRANCH   9  13
HETATM   13  C30 UNL     1       5.385  11.429  20.442  1.00  0.00     0.240 C 
HETATM   14  O8  UNL     1       6.016  10.939  19.511  1.00  0.00    -0.271 OA
HETATM   15  N2  UNL     1       5.630  12.713  20.895  1.00  0.00    -0.359 N 
HETATM   16  H43 UNL     1       4.920  13.120  21.496  1.00  0.00     0.162 HD
BRANCH  15  17
HETATM   17  C31 UNL     1       6.503  13.633  20.185  1.00  0.00     0.132 C 
BRANCH  17  18
HETATM   18  C32 UNL     1       7.676  14.096  21.077  1.00  0.00     0.046 C 
BRANCH  18  19
HETATM   19  C33 UNL     1       8.421  12.887  21.658  1.00  0.00     0.120 C 
BRANCH  19  20
HETATM   20  C34 UNL     1       9.779  12.718  21.035  1.00  0.00     0.140 C 
HETATM   21  O9  UNL     1      10.562  13.599  20.726  1.00  0.00    -0.650 OA
BRANCH  20  22
HETATM   22  O10 UNL     1      10.061  11.427  20.772  1.00  0.00    -0.776 OA
HETATM   23  H49 UNL     1      10.952  11.462  20.364  1.00  0.00     0.167 HD
ENDBRANCH  20  22
ENDBRANCH  19  20
ENDBRANCH  18  19
BRANCH  18  24
HETATM   24  C35 UNL     1       7.163  15.052  22.153  1.00  0.00    -0.052 A 
HETATM   25  C36 UNL     1       5.856  14.972  22.657  1.00  0.00     0.007 A 
HETATM   26  C37 UNL     1       5.401  15.892  23.604  1.00  0.00     0.001 A 
HETATM   27  C38 UNL     1       6.243  16.907  24.053  1.00  0.00     0.000 A 
HETATM   28  C39 UNL     1       7.540  17.002  23.558  1.00  0.00     0.001 A 
HETATM   29  C40 UNL     1       7.999  16.081  22.615  1.00  0.00     0.007 A 
ENDBRANCH  18  24
ENDBRANCH  17  18
ENDBRANCH  15  17
ENDBRANCH   9  13
ENDBRANCH   6   9
ENDBRANCH   4   5
ENDBRANCH   3   4
ENDBRANCH   1   3
BRANCH   1  30
HETATM   30  O3  UNL     1       0.165   9.951  16.824  1.00  0.00    -0.314 OA
BRANCH  30  31
HETATM   31  C9  UNL     1       0.290   8.696  16.145  1.00  0.00     0.260 C 
BRANCH  31  32
HETATM   32  C10 UNL     1      -1.029   8.222  15.548  1.00  0.00     0.185 C 
HETATM   33  O4  UNL     1      -2.038   8.051  16.247  1.00  0.00    -0.292 OA
BRANCH  32  34
HETATM   34  C11 UNL     1      -1.107   7.938  14.034  1.00  0.00     0.128 C 
HETATM   35  C12 UNL     1      -2.067   8.811  13.194  1.00  0.00     0.047 C 
HETATM   36  C13 UNL     1      -1.406   8.983  11.810  1.00  0.00     0.009 C 
HETATM   37  C14 UNL     1      -0.211   8.039  11.835  1.00  0.00     0.002 C 
HETATM   38  C15 UNL     1       0.921   8.254  10.822  1.00  0.00    -0.002 C 
HETATM   39  C28 UNL     1       0.265   8.091  13.305  1.00  0.00     0.001 C 
HETATM   40  C16 UNL     1       0.374   8.278   9.379  1.00  0.00     0.010 C 
HETATM   41  C25 UNL     1       1.986   7.113  11.017  1.00  0.00     0.031 C 
HETATM   42  C17 UNL     1       1.475   8.302   8.319  1.00  0.00     0.035 C 
HETATM   43  C18 UNL     1       2.437   7.170   8.585  1.00  0.00    -0.068 C 
HETATM   44  C19 UNL     1       2.536   6.151   7.713  1.00  0.00     0.053 C 
HETATM   45  C23 UNL     1       3.141   7.217   9.950  1.00  0.00    -0.014 C 
HETATM   46  C20 UNL     1       3.259   4.909   8.072  1.00  0.00     0.149 C 
HETATM   47  O6  UNL     1       3.419   4.033   7.225  1.00  0.00    -0.293 OA
HETATM   48  C21 UNL     1       3.675   4.737   9.511  1.00  0.00     0.084 C 
HETATM   49  C22 UNL     1       4.180   6.063  10.051  1.00  0.00     0.022 C 
HETATM   50  C24 UNL     1       3.962   8.528  10.058  1.00  0.00     0.020 C 
HETATM   51  C26 UNL     1       2.440   6.963  12.498  1.00  0.00     0.124 C 
HETATM   52  C27 UNL     1       1.267   6.932  13.501  1.00  0.00     0.045 C 
HETATM   53  C29 UNL     1       0.910   9.447  13.694  1.00  0.00     0.019 C 
BRANCH  34  54
HETATM   54  O5  UNL     1      -1.577   6.583  13.916  1.00  0.00    -0.381 OA
HETATM   55  H16 UNL     1      -1.149   6.072  14.634  1.00  0.00     0.211 HD
ENDBRANCH  34  54
BRANCH  51  56
HETATM   56  O7  UNL     1       3.350   7.988  12.866  1.00  0.00    -0.395 OA
HETATM   57  H37 UNL     1       3.691   7.776  13.753  1.00  0.00     0.210 HD
ENDBRANCH  51  56
ENDBRANCH  32  34
ENDBRANCH  31  32
ENDBRANCH  30  31
ENDBRANCH   1  30
TORSDOF 18
ENDMDL
MODEL 2
REMARK minimizedAffinity -9.21919441
REMARK CNNscore 0.464458883
REMARK CNNaffinity 7.18345881
REMARK  18 active torsions:
REMARK  status: ('A' for Active; 'I' for Inactive)
REMARK    1  A    between atoms: C2_2  and  C4_4 
REMARK    2  A    between atoms: C4_4  and  N1_5 
REMARK    3  A    between atoms: C4_4  and  C30_38 
REMARK       I    between atoms: N1_5  and  C5_6 
REMARK    4  A    between atoms: C5_6  and  C6_8 
REMARK    5  A    between atoms: C6_8  and  C7_9 
REMARK    6  A    between atoms: C7_9  and  C8_10 
REMARK    7  A    between atoms: C8_10  and  O3_12 
REMARK    8  A    between atoms: O3_12  and  C9_13 
REMARK    9  A    between atoms: C9_13  and  C10_14 
REMARK   10  A    between atoms: C10_14  and  C11_16 
REMARK   11  A    between atoms: C11_16  and  O5_17 
REMARK   12  A    between atoms: C26_33  and  O7_34 
REMARK       I    between atoms: C30_38  and  N2_40 
REMARK   13  A    between atoms: N2_40  and  C31_41 
REMARK   14  A    between atoms: C31_41  and  C32_42 
REMARK   15  A    between atoms: C32_42  and  C33_43 
REMARK   16  A    between atoms: C32_42  and  C35_47 
REMARK   17  A    between atoms: C33_43  and  C34_44 
REMARK   18  A    between atoms: C34_44  and  O10_46 
ROOT
HETATM    1  C8  UNL     1       5.997   8.870  11.117  1.00  0.00     0.259 C 
HETATM    2  O2  UNL     1       5.512   9.773  10.450  1.00  0.00    -0.265 OA
ENDROOT
BRANCH   1   3
HETATM    3  C7  UNL     1       5.596   7.420  11.006  1.00  0.00     0.120 C 
BRANCH   3   4
HETATM    4  C6  UNL     1       4.404   7.064  11.886  1.00  0.00     0.112 C 
BRANCH   4   5
HETATM    5  C5  UNL     1       3.107   7.390  11.177  1.00  0.00     0.218 C 
HETATM    6  N1  UNL     1       2.814   6.565  10.118  1.00  0.00    -0.347 N 
HETATM    7  H9  UNL     1       3.471   5.850   9.834  1.00  0.00     0.163 HD
HETATM    8  O1  UNL     1       2.382   8.312  11.537  1.00  0.00    -0.274 OA
BRANCH   6   9
HETATM    9  C4  UNL     1       1.621   6.766   9.276  1.00  0.00     0.179 C 
BRANCH   9  10
HETATM   10  C2  UNL     1       1.882   7.764   8.121  1.00  0.00     0.009 C 
HETATM   11  C1  UNL     1       1.846   7.067   6.753  1.00  0.00     0.012 C 
HETATM   12  C3  UNL     1       3.235   8.473   8.251  1.00  0.00     0.012 C 
ENDBRANCH   9  10
BRANCH   9  13
HETATM   13  C30 UNL     1       0.447   7.216  10.194  1.00  0.00     0.240 C 
HETATM   14  O8  UNL     1      -0.171   8.266  10.053  1.00  0.00    -0.271 OA
HETATM   15  N2  UNL     1       0.074   6.269  11.131  1.00  0.00    -0.359 N 
HETATM   16  H43 UNL     1       0.482   5.346  11.024  1.00  0.00     0.162 HD
BRANCH  15  17
HETATM   17  C31 UNL     1      -1.174   6.359  11.870  1.00  0.00     0.132 C 
BRANCH  17  18
HETATM   18  C32 UNL     1      -1.799   4.964  12.089  1.00  0.00     0.046 C 
BRANCH  18  19
HETATM   19  C33 UNL     1      -1.664   4.107  10.823  1.00  0.00     0.120 C 
BRANCH  19  20
HETATM   20  C34 UNL     1      -1.124   2.738  11.133  1.00  0.00     0.140 C 
HETATM   21  O9  UNL     1      -1.748   1.693  11.172  1.00  0.00    -0.650 OA
BRANCH  20  22
HETATM   22  O10 UNL     1       0.186   2.766  11.443  1.00  0.00    -0.776 OA
HETATM   23  H49 UNL     1       0.401   1.828  11.632  1.00  0.00     0.167 HD
ENDBRANCH  20  22
ENDBRANCH  19  20
ENDBRANCH  18  19
BRANCH  18  24
HETATM   24  C35 UNL     1      -3.247   5.112  12.555  1.00  0.00    -0.052 A 
HETATM   25  C36 UNL     1      -3.686   6.234  13.275  1.00  0.00     0.007 A 
HETATM   26  C37 UNL     1      -5.003   6.317  13.730  1.00  0.00     0.001 A 
HETATM   27  C38 UNL     1      -5.896   5.278  13.478  1.00  0.00     0.000 A 
HETATM   28  C39 UNL     1      -5.474   4.157  12.769  1.00  0.00     0.001 A 
HETATM   29  C40 UNL     1      -4.159   4.073  12.309  1.00  0.00     0.007 A 
ENDBRANCH  18  24
ENDBRANCH  17  18
ENDBRANCH  15  17
ENDBRANCH   9  13
ENDBRANCH   6   9
ENDBRANCH   4   5
ENDBRANCH   3   4
ENDBRANCH   1   3
BRANCH   1  30
HETATM   30  O3  UNL     1       6.998   9.034  12.029  1.00  0.00    -0.314 OA
BRANCH  30  31
HETATM   31  C9  UNL     1       6.990   8.074  13.092  1.00  0.00     0.260 C 
BRANCH  31  32
HETATM   32  C10 UNL     1       6.528   8.673  14.415  1.00  0.00     0.185 C 
HETATM   33  O4  UNL     1       5.389   9.138  14.558  1.00  0.00    -0.292 OA
BRANCH  32  34
HETATM   34  C11 UNL     1       7.509   8.707  15.605  1.00  0.00     0.128 C 
HETATM   35  C12 UNL     1       8.926   8.133  15.377  1.00  0.00     0.047 C 
HETATM   36  C13 UNL     1       9.887   8.981  16.237  1.00  0.00     0.009 C 
HETATM   37  C14 UNL     1       8.973   9.862  17.080  1.00  0.00     0.002 C 
HETATM   38  C15 UNL     1       9.554  11.125  17.726  1.00  0.00    -0.002 C 
HETATM   39  C28 UNL     1       7.776  10.148  16.143  1.00  0.00     0.001 C 
HETATM   40  C16 UNL     1      10.795  10.787  18.579  1.00  0.00     0.010 C 
HETATM   41  C25 UNL     1       8.429  11.806  18.588  1.00  0.00     0.031 C 
HETATM   42  C17 UNL     1      11.305  11.975  19.396  1.00  0.00     0.035 C 
HETATM   43  C18 UNL     1      10.160  12.552  20.191  1.00  0.00    -0.068 C 
HETATM   44  C19 UNL     1      10.166  12.476  21.534  1.00  0.00     0.053 C 
HETATM   45  C23 UNL     1       8.978  13.068  19.356  1.00  0.00    -0.014 C 
HETATM   46  C20 UNL     1       8.950  12.783  22.320  1.00  0.00     0.149 C 
HETATM   47  O6  UNL     1       9.008  12.802  23.547  1.00  0.00    -0.293 OA
HETATM   48  C21 UNL     1       7.657  12.955  21.563  1.00  0.00     0.084 C 
HETATM   49  C22 UNL     1       7.921  13.733  20.285  1.00  0.00     0.022 C 
HETATM   50  C24 UNL     1       9.471  14.196  18.412  1.00  0.00     0.020 C 
HETATM   51  C26 UNL     1       7.108  12.016  17.792  1.00  0.00     0.124 C 
HETATM   52  C27 UNL     1       6.655  10.764  17.010  1.00  0.00     0.045 C 
HETATM   53  C29 UNL     1       8.134  11.086  14.959  1.00  0.00     0.019 C 
BRANCH  34  54
HETATM   54  O5  UNL     1       6.902   7.905  16.632  1.00  0.00    -0.381 OA
HETATM   55  H16 UNL     1       5.939   8.084  16.601  1.00  0.00     0.211 HD
ENDBRANCH  34  54
BRANCH  51  56
HETATM   56  O7  UNL     1       7.210  13.118  16.904  1.00  0.00    -0.395 OA
HETATM   57  H37 UNL     1       6.325  13.276  16.527  1.00  0.00     0.210 HD
ENDBRANCH  51  56
ENDBRANCH  32  34
ENDBRANCH  31  32
ENDBRANCH  30  31
ENDBRANCH   1  30
TORSDOF 18
ENDMDL
MODEL 3
REMARK minimizedAffinity -8.75929737
REMARK CNNscore 0.428940505
REMARK CNNaffinity 7.07436419
REMARK  18 active torsions:
REMARK  status: ('A' for Active; 'I' for Inactive)
REMARK    1  A    between atoms: C2_2  and  C4_4 
REMARK    2  A    between atoms: C4_4  and  N1_5 
REMARK    3  A    between atoms: C4_4  and  C30_38 
REMARK       I    between atoms: N1_5  and  C5_6 
REMARK    4  A    between atoms: C5_6  and  C6_8 
REMARK    5  A    between atoms: C6_8  and  C7_9 
REMARK    6  A    between atoms: C7_9  and  C8_10 
REMARK    7  A    between atoms: C8_10  and  O3_12 
REMARK    8  A    between atoms: O3_12  and  C9_13 
REMARK    9  A    between atoms: C9_13  and  C10_14 
REMARK   10  A    between atoms: C10_14  and  C11_16 
REMARK   11  A    between atoms: C11_16  and  O5_17 
REMARK   12  A    between atoms: C26_33  and  O7_34 
REMARK       I    between atoms: C30_38  and  N2_40 
REMARK   13  A    between atoms: N2_40  and  C31_41 
REMARK   14  A    between atoms: C31_41  and  C32_42 
REMARK   15  A    between atoms: C32_42  and  C33_43 
REMARK   16  A    between atoms: C32_42  and  C35_47 
REMARK   17  A    between atoms: C33_43  and  C34_44 
REMARK   18  A    between atoms: C34_44  and  O10_46 
ROOT
HETATM    1  C8  UNL     1      -4.648   6.438  15.122  1.00  0.00     0.259 C 
HETATM    2  O2  UNL     1      -4.748   5.687  14.162  1.00  0.00    -0.265 OA
ENDROOT
BRANCH   1   3
HETATM    3  C7  UNL     1      -5.695   7.446  15.527  1.00  0.00     0.120 C 
BRANCH   3   4
HETATM    4  C6  UNL     1      -7.003   6.799  15.966  1.00  0.00     0.112 C 
BRANCH   4   5
HETATM    5  C5  UNL     1      -8.177   7.678  15.593  1.00  0.00     0.218 C 
HETATM    6  N1  UNL     1      -9.408   7.112  15.823  1.00  0.00    -0.347 N 
HETATM    7  H9  UNL     1      -9.474   6.159  16.159  1.00  0.00     0.163 HD
HETATM    8  O1  UNL     1      -8.027   8.805  15.134  1.00  0.00    -0.274 OA
BRANCH   6   9
HETATM    9  C4  UNL     1     -10.664   7.797  15.470  1.00  0.00     0.179 C 
BRANCH   9  10
HETATM   10  C2  UNL     1     -10.798   8.020  13.943  1.00  0.00     0.009 C 
HETATM   11  C1  UNL     1     -12.260   8.255  13.533  1.00  0.00     0.012 C 
HETATM   12  C3  UNL     1     -10.267   6.837  13.126  1.00  0.00     0.012 C 
ENDBRANCH   9  10
BRANCH   9  13
HETATM   13  C30 UNL     1     -10.734   9.129  16.272  1.00  0.00     0.240 C 
HETATM   14  O8  UNL     1     -10.837  10.237  15.755  1.00  0.00    -0.271 OA
HETATM   15  N2  UNL     1     -10.785   8.955  17.643  1.00  0.00    -0.359 N 
HETATM   16  H43 UNL     1     -10.929   8.005  17.971  1.00  0.00     0.162 HD
BRANCH  15  17
HETATM   17  C31 UNL     1     -11.156  10.030  18.548  1.00  0.00     0.132 C 
BRANCH  17  18
HETATM   18  C32 UNL     1     -11.606   9.480  19.919  1.00  0.00     0.046 C 
BRANCH  18  19
HETATM   19  C33 UNL     1     -13.103   9.141  19.899  1.00  0.00     0.120 C 
BRANCH  19  20
HETATM   20  C34 UNL     1     -13.387   7.836  20.590  1.00  0.00     0.140 C 
HETATM   21  O9  UNL     1     -13.094   7.528  21.731  1.00  0.00    -0.650 OA
BRANCH  20  22
HETATM   22  O10 UNL     1     -13.983   6.947  19.771  1.00  0.00    -0.776 OA
HETATM   23  H49 UNL     1     -14.097   6.153  20.335  1.00  0.00     0.167 HD
ENDBRANCH  20  22
ENDBRANCH  19  20
ENDBRANCH  18  19
BRANCH  18  24
HETATM   24  C35 UNL     1     -11.235  10.472  21.022  1.00  0.00    -0.052 A 
HETATM   25  C36 UNL     1     -10.872  10.049  22.310  1.00  0.00     0.007 A 
HETATM   26  C37 UNL     1     -10.587  10.982  23.310  1.00  0.00     0.001 A 
HETATM   27  C38 UNL     1     -10.669  12.345  23.038  1.00  0.00     0.000 A 
HETATM   28  C39 UNL     1     -11.033  12.779  21.767  1.00  0.00     0.001 A 
HETATM   29  C40 UNL     1     -11.314  11.849  20.764  1.00  0.00     0.007 A 
ENDBRANCH  18  24
ENDBRANCH  17  18
ENDBRANCH  15  17
ENDBRANCH   9  13
ENDBRANCH   6   9
ENDBRANCH   4   5
ENDBRANCH   3   4
ENDBRANCH   1   3
BRANCH   1  30
HETATM   30  O3  UNL     1      -3.597   6.445  15.991  1.00  0.00    -0.314 OA
BRANCH  30  31
HETATM   31  C9  UNL     1      -2.322   6.227  15.375  1.00  0.00     0.260 C 
BRANCH  31  32
HETATM   32  C10 UNL     1      -1.792   7.472  14.675  1.00  0.00     0.185 C 
HETATM   33  O4  UNL     1      -1.488   8.495  15.302  1.00  0.00    -0.292 OA
BRANCH  32  34
HETATM   34  C11 UNL     1      -1.639   7.460  13.140  1.00  0.00     0.128 C 
HETATM   35  C12 UNL     1      -2.285   8.621  12.350  1.00  0.00     0.047 C 
HETATM   36  C13 UNL     1      -1.367   8.893  11.140  1.00  0.00     0.009 C 
HETATM   37  C14 UNL     1      -0.355   7.754  11.161  1.00  0.00     0.002 C 
HETATM   38  C15 UNL     1       0.960   7.921  10.390  1.00  0.00    -0.002 C 
HETATM   39  C28 UNL     1      -0.151   7.475  12.668  1.00  0.00     0.001 C 
HETATM   40  C16 UNL     1       0.692   8.281   8.913  1.00  0.00     0.010 C 
HETATM   41  C25 UNL     1       1.784   6.587  10.518  1.00  0.00     0.031 C 
HETATM   42  C17 UNL     1       1.957   8.276   8.054  1.00  0.00     0.035 C 
HETATM   43  C18 UNL     1       2.669   6.959   8.237  1.00  0.00    -0.068 C 
HETATM   44  C19 UNL     1       2.766   6.096   7.211  1.00  0.00     0.053 C 
HETATM   45  C23 UNL     1       3.114   6.650   9.676  1.00  0.00    -0.014 C 
HETATM   46  C20 UNL     1       3.212   4.700   7.427  1.00  0.00     0.149 C 
HETATM   47  O6  UNL     1       3.387   3.961   6.461  1.00  0.00    -0.293 OA
HETATM   48  C21 UNL     1       3.330   4.220   8.851  1.00  0.00     0.084 C 
HETATM   49  C22 UNL     1       3.928   5.324   9.707  1.00  0.00     0.022 C 
HETATM   50  C24 UNL     1       4.094   7.752  10.156  1.00  0.00     0.020 C 
HETATM   51  C26 UNL     1       1.934   6.114  11.993  1.00  0.00     0.124 C 
HETATM   52  C27 UNL     1       0.609   6.135  12.785  1.00  0.00     0.045 C 
HETATM   53  C29 UNL     1       0.615   8.607  13.403  1.00  0.00     0.019 C 
BRANCH  34  54
HETATM   54  O5  UNL     1      -2.282   6.253  12.694  1.00  0.00    -0.381 OA
HETATM   55  H16 UNL     1      -2.075   5.560  13.356  1.00  0.00     0.211 HD
ENDBRANCH  34  54
BRANCH  51  56
HETATM   56  O7  UNL     1       2.910   6.880  12.683  1.00  0.00    -0.395 OA
HETATM   57  H37 UNL     1       3.048   6.466  13.554  1.00  0.00     0.210 HD
ENDBRANCH  51  56
ENDBRANCH  32  34
ENDBRANCH  31  32
ENDBRANCH  30  31
ENDBRANCH   1  30
TORSDOF 18
ENDMDL
MODEL 4
REMARK minimizedAffinity -9.16587162
REMARK CNNscore 0.32814151
REMARK CNNaffinity 6.78137827
REMARK  18 active torsions:
REMARK  status: ('A' for Active; 'I' for Inactive)
REMARK    1  A    between atoms: C2_2  and  C4_4 
REMARK    2  A    between atoms: C4_4  and  N1_5 
REMARK    3  A    between atoms: C4_4  and  C30_38 
REMARK       I    between atoms: N1_5  and  C5_6 
REMARK    4  A    between atoms: C5_6  and  C6_8 
REMARK    5  A    between atoms: C6_8  and  C7_9 
REMARK    6  A    between atoms: C7_9  and  C8_10 
REMARK    7  A    between atoms: C8_10  and  O3_12 
REMARK    8  A    between atoms: O3_12  and  C9_13 
REMARK    9  A    between atoms: C9_13  and  C10_14 
REMARK   10  A    between atoms: C10_14  and  C11_16 
REMARK   11  A    between atoms: C11_16  and  O5_17 
REMARK   12  A    between atoms: C26_33  and  O7_34 
REMARK       I    between atoms: C30_38  and  N2_40 
REMARK   13  A    between atoms: N2_40  and  C31_41 
REMARK   14  A    between atoms: C31_41  and  C32_42 
REMARK   15  A    between atoms: C32_42  and  C33_43 
REMARK   16  A    between atoms: C32_42  and  C35_47 
REMARK   17  A    between atoms: C33_43  and  C34_44 
REMARK   18  A    between atoms: C34_44  and  O10_46 
ROOT
HETATM    1  C8  UNL     1      -4.671   3.794  12.370  1.00  0.00     0.259 C 
HETATM    2  O2  UNL     1      -4.045   2.745  12.327  1.00  0.00    -0.265 OA
ENDROOT
BRANCH   1   3
HETATM    3  C7  UNL     1      -6.175   3.892  12.293  1.00  0.00     0.120 C 
BRANCH   3   4
HETATM    4  C6  UNL     1      -6.821   4.189  13.641  1.00  0.00     0.112 C 
BRANCH   4   5
HETATM    5  C5  UNL     1      -7.353   5.605  13.670  1.00  0.00     0.218 C 
HETATM    6  N1  UNL     1      -8.513   5.763  14.390  1.00  0.00    -0.347 N 
HETATM    7  H9  UNL     1      -8.971   4.957  14.797  1.00  0.00     0.163 HD
HETATM    8  O1  UNL     1      -6.779   6.529  13.104  1.00  0.00    -0.274 OA
BRANCH   6   9
HETATM    9  C4  UNL     1      -9.207   7.059  14.484  1.00  0.00     0.179 C 
BRANCH   9  10
HETATM   10  C2  UNL     1      -9.364   7.533  15.950  1.00  0.00     0.009 C 
HETATM   11  C1  UNL     1      -9.636   9.042  16.030  1.00  0.00     0.012 C 
HETATM   12  C3  UNL     1      -8.125   7.233  16.802  1.00  0.00     0.012 C 
ENDBRANCH   9  10
BRANCH   9  13
HETATM   13  C30 UNL     1     -10.575   6.934  13.751  1.00  0.00     0.240 C 
HETATM   14  O8  UNL     1     -10.704   6.950  12.532  1.00  0.00    -0.271 OA
HETATM   15  N2  UNL     1     -11.642   6.686  14.596  1.00  0.00    -0.359 N 
HETATM   16  H43 UNL     1     -11.410   6.458  15.558  1.00  0.00     0.162 HD
BRANCH  15  17
HETATM   17  C31 UNL     1     -12.933   6.238  14.103  1.00  0.00     0.132 C 
BRANCH  17  18
HETATM   18  C32 UNL     1     -13.662   7.361  13.333  1.00  0.00     0.046 C 
BRANCH  18  19
HETATM   19  C33 UNL     1     -13.398   8.723  13.989  1.00  0.00     0.120 C 
BRANCH  19  20
HETATM   20  C34 UNL     1     -12.820   9.708  13.011  1.00  0.00     0.140 C 
HETATM   21  O9  UNL     1     -12.990   9.734  11.805  1.00  0.00    -0.650 OA
BRANCH  20  22
HETATM   22  O10 UNL     1     -11.994  10.591  13.606  1.00  0.00    -0.776 OA
HETATM   23  H49 UNL     1     -11.685  11.155  12.866  1.00  0.00     0.167 HD
ENDBRANCH  20  22
ENDBRANCH  19  20
ENDBRANCH  18  19
BRANCH  18  24
HETATM   24  C35 UNL     1     -15.150   7.032  13.223  1.00  0.00    -0.052 A 
HETATM   25  C36 UNL     1     -15.734   5.979  13.944  1.00  0.00     0.007 A 
HETATM   26  C37 UNL     1     -17.087   5.672  13.783  1.00  0.00     0.001 A 
HETATM   27  C38 UNL     1     -17.871   6.408  12.898  1.00  0.00     0.000 A 
HETATM   28  C39 UNL     1     -17.304   7.452  12.173  1.00  0.00     0.001 A 
HETATM   29  C40 UNL     1     -15.953   7.764  12.334  1.00  0.00     0.007 A 
ENDBRANCH  18  24
ENDBRANCH  17  18
ENDBRANCH  15  17
ENDBRANCH   9  13
ENDBRANCH   6   9
ENDBRANCH   4   5
ENDBRANCH   3   4
ENDBRANCH   1   3
BRANCH   1  30
HETATM   30  O3  UNL     1      -4.106   5.024  12.537  1.00  0.00    -0.314 OA
BRANCH  30  31
HETATM   31  C9  UNL     1      -3.509   5.229  13.822  1.00  0.00     0.260 C 
BRANCH  31  32
HETATM   32  C10 UNL     1      -2.267   6.108  13.754  1.00  0.00     0.185 C 
HETATM   33  O4  UNL     1      -2.309   7.319  14.011  1.00  0.00    -0.292 OA
BRANCH  32  34
HETATM   34  C11 UNL     1      -0.921   5.474  13.346  1.00  0.00     0.128 C 
HETATM   35  C12 UNL     1      -0.970   4.158  12.536  1.00  0.00     0.047 C 
HETATM   36  C13 UNL     1       0.235   4.190  11.573  1.00  0.00     0.009 C 
HETATM   37  C14 UNL     1       1.042   5.407  12.007  1.00  0.00     0.002 C 
HETATM   38  C15 UNL     1       2.056   6.009  11.027  1.00  0.00    -0.002 C 
HETATM   39  C28 UNL     1      -0.036   6.414  12.469  1.00  0.00     0.001 C 
HETATM   40  C16 UNL     1       3.053   4.937  10.536  1.00  0.00     0.010 C 
HETATM   41  C25 UNL     1       2.795   7.199  11.742  1.00  0.00     0.031 C 
HETATM   42  C17 UNL     1       4.198   5.517   9.705  1.00  0.00     0.035 C 
HETATM   43  C18 UNL     1       4.845   6.640  10.476  1.00  0.00    -0.068 C 
HETATM   44  C19 UNL     1       6.110   6.514  10.917  1.00  0.00     0.053 C 
HETATM   45  C23 UNL     1       3.917   7.815  10.824  1.00  0.00    -0.014 C 
HETATM   46  C20 UNL     1       6.675   7.471  11.896  1.00  0.00     0.149 C 
HETATM   47  O6  UNL     1       7.861   7.394  12.207  1.00  0.00    -0.293 OA
HETATM   48  C21 UNL     1       5.723   8.441  12.550  1.00  0.00     0.084 C 
HETATM   49  C22 UNL     1       4.730   8.946  11.517  1.00  0.00     0.022 C 
HETATM   50  C24 UNL     1       3.368   8.438   9.515  1.00  0.00     0.020 C 
HETATM   51  C26 UNL     1       1.808   8.217  12.385  1.00  0.00     0.124 C 
HETATM   52  C27 UNL     1       0.693   7.551  13.220  1.00  0.00     0.045 C 
HETATM   53  C29 UNL     1      -0.884   6.984  11.301  1.00  0.00     0.019 C 
BRANCH  34  54
HETATM   54  O5  UNL     1      -0.244   5.172  14.578  1.00  0.00    -0.381 OA
HETATM   55  H16 UNL     1      -0.434   5.910  15.195  1.00  0.00     0.211 HD
ENDBRANCH  34  54
BRANCH  51  56
HETATM   56  O7  UNL     1       1.224   9.060  11.404  1.00  0.00    -0.395 OA
HETATM   57  H37 UNL     1       0.716   9.748  11.870  1.00  0.00     0.210 HD
ENDBRANCH  51  56
ENDBRANCH  32  34
ENDBRANCH  31  32
ENDBRANCH  30  31
ENDBRANCH   1  30
TORSDOF 18
ENDMDL
MODEL 5
REMARK minimizedAffinity -8.63563442
REMARK CNNscore 0.316097975
REMARK CNNaffinity 6.95441961
REMARK  18 active torsions:
REMARK  status: ('A' for Active; 'I' for Inactive)
REMARK    1  A    between atoms: C2_2  and  C4_4 
REMARK    2  A    between atoms: C4_4  and  N1_5 
REMARK    3  A    between atoms: C4_4  and  C30_38 
REMARK       I    between atoms: N1_5  and  C5_6 
REMARK    4  A    between atoms: C5_6  and  C6_8 
REMARK    5  A    between atoms: C6_8  and  C7_9 
REMARK    6  A    between atoms: C7_9  and  C8_10 
REMARK    7  A    between atoms: C8_10  and  O3_12 
REMARK    8  A    between atoms: O3_12  and  C9_13 
REMARK    9  A    between atoms: C9_13  and  C10_14 
REMARK   10  A    between atoms: C10_14  and  C11_16 
REMARK   11  A    between atoms: C11_16  and  O5_17 
REMARK   12  A    between atoms: C26_33  and  O7_34 
REMARK       I    between atoms: C30_38  and  N2_40 
REMARK   13  A    between atoms: N2_40  and  C31_41 
REMARK   14  A    between atoms: C31_41  and  C32_42 
REMARK   15  A    between atoms: C32_42  and  C33_43 
REMARK   16  A    between atoms: C32_42  and  C35_47 
REMARK   17  A    between atoms: C33_43  and  C34_44 
REMARK   18  A    between atoms: C34_44  and  O10_46 
ROOT
HETATM    1  C8  UNL     1       6.522   7.032  11.318  1.00  0.00     0.259 C 
HETATM    2  O2  UNL     1       7.226   7.169  10.327  1.00  0.00    -0.265 OA
ENDROOT
BRANCH   1   3
HETATM    3  C7  UNL     1       5.074   6.610  11.281  1.00  0.00     0.120 C 
BRANCH   3   4
HETATM    4  C6  UNL     1       4.812   5.472  10.301  1.00  0.00     0.112 C 
BRANCH   4   5
HETATM    5  C5  UNL     1       3.462   5.646   9.641  1.00  0.00     0.218 C 
HETATM    6  N1  UNL     1       2.601   6.479  10.314  1.00  0.00    -0.347 N 
HETATM    7  H9  UNL     1       2.870   6.873  11.206  1.00  0.00     0.163 HD
HETATM    8  O1  UNL     1       3.177   5.091   8.584  1.00  0.00    -0.274 OA
BRANCH   6   9
HETATM    9  C4  UNL     1       1.224   6.724   9.849  1.00  0.00     0.179 C 
BRANCH   9  10
HETATM   10  C2  UNL     1       1.025   8.177   9.353  1.00  0.00     0.009 C 
HETATM   11  C1  UNL     1      -0.440   8.451   8.981  1.00  0.00     0.012 C 
HETATM   12  C3  UNL     1       1.888   8.504   8.128  1.00  0.00     0.012 C 
ENDBRANCH   9  10
BRANCH   9  13
HETATM   13  C30 UNL     1       0.248   6.353  11.004  1.00  0.00     0.240 C 
HETATM   14  O8  UNL     1      -0.608   5.478  10.924  1.00  0.00    -0.271 OA
HETATM   15  N2  UNL     1       0.500   7.023  12.188  1.00  0.00    -0.359 N 
HETATM   16  H43 UNL     1       1.367   7.550  12.229  1.00  0.00     0.162 HD
BRANCH  15  17
HETATM   17  C31 UNL     1      -0.084   6.610  13.452  1.00  0.00     0.132 C 
BRANCH  17  18
HETATM   18  C32 UNL     1      -0.713   7.806  14.199  1.00  0.00     0.046 C 
BRANCH  18  19
HETATM   19  C33 UNL     1      -0.201   7.870  15.644  1.00  0.00     0.120 C 
BRANCH  19  20
HETATM   20  C34 UNL     1       1.298   7.977  15.698  1.00  0.00     0.140 C 
HETATM   21  O9  UNL     1       2.006   8.728  15.051  1.00  0.00    -0.650 OA
BRANCH  20  22
HETATM   22  O10 UNL     1       1.843   7.074  16.536  1.00  0.00    -0.776 OA
HETATM   23  H49 UNL     1       2.806   7.244  16.467  1.00  0.00     0.167 HD
ENDBRANCH  20  22
ENDBRANCH  19  20
ENDBRANCH  18  19
BRANCH  18  24
HETATM   24  C35 UNL     1      -2.237   7.728  14.111  1.00  0.00    -0.052 A 
HETATM   25  C36 UNL     1      -2.994   6.945  14.996  1.00  0.00     0.007 A 
HETATM   26  C37 UNL     1      -4.381   6.856  14.858  1.00  0.00     0.001 A 
HETATM   27  C38 UNL     1      -5.027   7.541  13.832  1.00  0.00     0.000 A 
HETATM   28  C39 UNL     1      -4.289   8.318  12.944  1.00  0.00     0.001 A 
HETATM   29  C40 UNL     1      -2.903   8.413  13.082  1.00  0.00     0.007 A 
ENDBRANCH  18  24
ENDBRANCH  17  18
ENDBRANCH  15  17
ENDBRANCH   9  13
ENDBRANCH   6   9
ENDBRANCH   4   5
ENDBRANCH   3   4
ENDBRANCH   1   3
BRANCH   1  30
HETATM   30  O3  UNL     1       6.953   7.200  12.601  1.00  0.00    -0.314 OA
BRANCH  30  31
HETATM   31  C9  UNL     1       6.058   7.951  13.429  1.00  0.00     0.260 C 
BRANCH  31  32
HETATM   32  C10 UNL     1       6.590   8.137  14.844  1.00  0.00     0.185 C 
HETATM   33  O4  UNL     1       5.849   8.074  15.834  1.00  0.00    -0.292 OA
BRANCH  32  34
HETATM   34  C11 UNL     1       8.093   8.422  15.048  1.00  0.00     0.128 C 
HETATM   35  C12 UNL     1       9.004   8.369  13.800  1.00  0.00     0.047 C 
HETATM   36  C13 UNL     1      10.101   9.434  14.012  1.00  0.00     0.009 C 
HETATM   37  C14 UNL     1       9.908   9.903  15.449  1.00  0.00     0.002 C 
HETATM   38  C15 UNL     1      10.517  11.245  15.875  1.00  0.00    -0.002 C 
HETATM   39  C28 UNL     1       8.377   9.832  15.654  1.00  0.00     0.001 C 
HETATM   40  C16 UNL     1      12.029  11.288  15.568  1.00  0.00     0.010 C 
HETATM   41  C25 UNL     1      10.233  11.456  17.408  1.00  0.00     0.031 C 
HETATM   42  C17 UNL     1      12.723  12.524  16.140  1.00  0.00     0.035 C 
HETATM   43  C18 UNL     1      12.399  12.634  17.609  1.00  0.00    -0.068 C 
HETATM   44  C19 UNL     1      13.370  12.479  18.527  1.00  0.00     0.053 C 
HETATM   45  C23 UNL     1      10.905  12.777  17.940  1.00  0.00    -0.014 C 
HETATM   46  C20 UNL     1      13.042  12.313  19.962  1.00  0.00     0.149 C 
HETATM   47  O6  UNL     1      13.948  12.273  20.791  1.00  0.00    -0.293 OA
HETATM   48  C21 UNL     1      11.596  12.091  20.324  1.00  0.00     0.084 C 
HETATM   49  C22 UNL     1      10.719  12.991  19.470  1.00  0.00     0.022 C 
HETATM   50  C24 UNL     1      10.353  14.062  17.270  1.00  0.00     0.020 C 
HETATM   51  C26 UNL     1       8.732  11.262  17.772  1.00  0.00     0.124 C 
HETATM   52  C27 UNL     1       8.112   9.984  17.168  1.00  0.00     0.045 C 
HETATM   53  C29 UNL     1       7.600  10.909  14.850  1.00  0.00     0.019 C 
BRANCH  34  54
HETATM   54  O5  UNL     1       8.564   7.400  15.943  1.00  0.00    -0.381 OA
HETATM   55  H16 UNL     1       7.854   7.250  16.601  1.00  0.00     0.211 HD
ENDBRANCH  34  54
BRANCH  51  56
HETATM   56  O7  UNL     1       7.958  12.389  17.389  1.00  0.00    -0.395 OA
HETATM   57  H37 UNL     1       7.061  12.266  17.747  1.00  0.00     0.210 HD
ENDBRANCH  51  56
ENDBRANCH  32  34
ENDBRANCH  31  32
ENDBRANCH  30  31
ENDBRANCH   1  30
TORSDOF 18
ENDMDL
MODEL 6
REMARK minimizedAffinity -8.27169895
REMARK CNNscore 0.274230748
REMARK CNNaffinity 7.25381613
REMARK  18 active torsions:
REMARK  status: ('A' for Active; 'I' for Inactive)
REMARK    1  A    between atoms: C2_2  and  C4_4 
REMARK    2  A    between atoms: C4_4  and  N1_5 
REMARK    3  A    between atoms: C4_4  and  C30_38 
REMARK       I    between atoms: N1_5  and  C5_6 
REMARK    4  A    between atoms: C5_6  and  C6_8 
REMARK    5  A    between atoms: C6_8  and  C7_9 
REMARK    6  A    between atoms: C7_9  and  C8_10 
REMARK    7  A    between atoms: C8_10  and  O3_12 
REMARK    8  A    between atoms: O3_12  and  C9_13 
REMARK    9  A    between atoms: C9_13  and  C10_14 
REMARK   10  A    between atoms: C10_14  and  C11_16 
REMARK   11  A    between atoms: C11_16  and  O5_17 
REMARK   12  A    between atoms: C26_33  and  O7_34 
REMARK       I    between atoms: C30_38  and  N2_40 
REMARK   13  A    between atoms: N2_40  and  C31_41 
REMARK   14  A    between atoms: C31_41  and  C32_42 
REMARK   15  A    between atoms: C32_42  and  C33_43 
REMARK   16  A    between atoms: C32_42  and  C35_47 
REMARK   17  A    between atoms: C33_43  and  C34_44 
REMARK   18  A    between atoms: C34_44  and  O10_46 
ROOT
HETATM    1  C8  UNL     1       0.552  10.613  15.582  1.00  0.00     0.259 C 
HETATM    2  O2  UNL     1       0.458  11.768  15.193  1.00  0.00    -0.265 OA
ENDROOT
BRANCH   1   3
HETATM    3  C7  UNL     1       1.807  10.010  16.163  1.00  0.00     0.120 C 
BRANCH   3   4
HETATM    4  C6  UNL     1       1.923  10.218  17.668  1.00  0.00     0.112 C 
BRANCH   4   5
HETATM    5  C5  UNL     1       2.955  11.281  17.976  1.00  0.00     0.218 C 
HETATM    6  N1  UNL     1       4.133  11.149  17.280  1.00  0.00    -0.347 N 
HETATM    7  H9  UNL     1       4.276  10.355  16.669  1.00  0.00     0.163 HD
HETATM    8  O1  UNL     1       2.740  12.186  18.774  1.00  0.00    -0.274 OA
BRANCH   6   9
HETATM    9  C4  UNL     1       5.273  12.060  17.490  1.00  0.00     0.179 C 
BRANCH   9  10
HETATM   10  C2  UNL     1       6.082  12.292  16.190  1.00  0.00     0.009 C 
HETATM   11  C1  UNL     1       6.486  13.766  16.032  1.00  0.00     0.012 C 
HETATM   12  C3  UNL     1       5.306  11.881  14.933  1.00  0.00     0.012 C 
ENDBRANCH   9  10
BRANCH   9  13
HETATM   13  C30 UNL     1       6.151  11.484  18.640  1.00  0.00     0.240 C 
HETATM   14  O8  UNL     1       6.818  10.459  18.546  1.00  0.00    -0.271 OA
HETATM   15  N2  UNL     1       6.210  12.295  19.759  1.00  0.00    -0.359 N 
HETATM   16  H43 UNL     1       5.819  13.227  19.660  1.00  0.00     0.162 HD
BRANCH  15  17
HETATM   17  C31 UNL     1       7.198  12.101  20.806  1.00  0.00     0.132 C 
BRANCH  17  18
HETATM   18  C32 UNL     1       6.648  12.526  22.185  1.00  0.00     0.046 C 
BRANCH  18  19
HETATM   19  C33 UNL     1       7.689  12.267  23.283  1.00  0.00     0.120 C 
BRANCH  19  20
HETATM   20  C34 UNL     1       8.746  13.337  23.312  1.00  0.00     0.140 C 
HETATM   21  O9  UNL     1       8.678  14.424  23.856  1.00  0.00    -0.650 OA
BRANCH  20  22
HETATM   22  O10 UNL     1       9.830  12.999  22.588  1.00  0.00    -0.776 OA
HETATM   23  H49 UNL     1      10.423  13.774  22.680  1.00  0.00     0.167 HD
ENDBRANCH  20  22
ENDBRANCH  19  20
ENDBRANCH  18  19
BRANCH  18  24
HETATM   24  C35 UNL     1       5.316  11.826  22.450  1.00  0.00    -0.052 A 
HETATM   25  C36 UNL     1       5.250  10.526  22.973  1.00  0.00     0.007 A 
HETATM   26  C37 UNL     1       4.018   9.895  23.157  1.00  0.00     0.001 A 
HETATM   27  C38 UNL     1       2.839  10.551  22.815  1.00  0.00     0.000 A 
HETATM   28  C39 UNL     1       2.889  11.840  22.292  1.00  0.00     0.001 A 
HETATM   29  C40 UNL     1       4.118  12.475  22.111  1.00  0.00     0.007 A 
ENDBRANCH  18  24
ENDBRANCH  17  18
ENDBRANCH  15  17
ENDBRANCH   9  13
ENDBRANCH   6   9
ENDBRANCH   4   5
ENDBRANCH   3   4
ENDBRANCH   1   3
BRANCH   1  30
HETATM   30  O3  UNL     1      -0.473   9.713  15.586  1.00  0.00    -0.314 OA
BRANCH  30  31
HETATM   31  C9  UNL     1      -1.031   9.450  14.293  1.00  0.00     0.260 C 
BRANCH  31  32
HETATM   32  C10 UNL     1      -0.926   7.982  13.900  1.00  0.00     0.185 C 
HETATM   33  O4  UNL     1       0.065   7.298  14.192  1.00  0.00    -0.292 OA
BRANCH  32  34
HETATM   34  C11 UNL     1      -2.080   7.333  13.109  1.00  0.00     0.128 C 
HETATM   35  C12 UNL     1      -1.766   6.040  12.321  1.00  0.00     0.047 C 
HETATM   36  C13 UNL     1      -3.042   5.174  12.373  1.00  0.00     0.009 C 
HETATM   37  C14 UNL     1      -4.096   6.079  12.996  1.00  0.00     0.002 C 
HETATM   38  C15 UNL     1      -5.352   5.441  13.603  1.00  0.00    -0.002 C 
HETATM   39  C28 UNL     1      -3.294   6.934  14.005  1.00  0.00     0.001 C 
HETATM   40  C16 UNL     1      -6.062   4.534  12.576  1.00  0.00     0.010 C 
HETATM   41  C25 UNL     1      -6.299   6.591  14.110  1.00  0.00     0.031 C 
HETATM   42  C17 UNL     1      -7.417   4.021  13.063  1.00  0.00     0.035 C 
HETATM   43  C18 UNL     1      -8.252   5.192  13.517  1.00  0.00    -0.068 C 
HETATM   44  C19 UNL     1      -9.366   5.528  12.843  1.00  0.00     0.053 C 
HETATM   45  C23 UNL     1      -7.654   6.014  14.670  1.00  0.00    -0.014 C 
HETATM   46  C20 UNL     1     -10.050   6.817  13.095  1.00  0.00     0.149 C 
HETATM   47  O6  UNL     1     -11.119   7.057  12.538  1.00  0.00    -0.293 OA
HETATM   48  C21 UNL     1      -9.333   7.829  13.953  1.00  0.00     0.084 C 
HETATM   49  C22 UNL     1      -8.658   7.117  15.113  1.00  0.00     0.022 C 
HETATM   50  C24 UNL     1      -7.468   5.099  15.908  1.00  0.00     0.020 C 
HETATM   51  C26 UNL     1      -5.564   7.613  15.026  1.00  0.00     0.124 C 
HETATM   52  C27 UNL     1      -4.213   8.092  14.454  1.00  0.00     0.045 C 
HETATM   53  C29 UNL     1      -2.791   6.126  15.230  1.00  0.00     0.019 C 
BRANCH  34  54
HETATM   54  O5  UNL     1      -2.487   8.315  12.140  1.00  0.00    -0.381 OA
HETATM   55  H16 UNL     1      -2.436   9.188  12.582  1.00  0.00     0.211 HD
ENDBRANCH  34  54
BRANCH  51  56
HETATM   56  O7  UNL     1      -5.366   7.088  16.330  1.00  0.00    -0.395 OA
HETATM   57  H37 UNL     1      -5.017   7.807  16.887  1.00  0.00     0.210 HD
ENDBRANCH  51  56
ENDBRANCH  32  34
ENDBRANCH  31  32
ENDBRANCH  30  31
ENDBRANCH   1  30
TORSDOF 18
ENDMDL
MODEL 7
REMARK minimizedAffinity -9.54122639
REMARK CNNscore 0.267273128
REMARK CNNaffinity 6.66146851
REMARK  18 active torsions:
REMARK  status: ('A' for Active; 'I' for Inactive)
REMARK    1  A    between atoms: C2_2  and  C4_4 
REMARK    2  A    between atoms: C4_4  and  N1_5 
REMARK    3  A    between atoms: C4_4  and  C30_38 
REMARK       I    between atoms: N1_5  and  C5_6 
REMARK    4  A    between atoms: C5_6  and  C6_8 
REMARK    5  A    between atoms: C6_8  and  C7_9 
REMARK    6  A    between atoms: C7_9  and  C8_10 
REMARK    7  A    between atoms: C8_10  and  O3_12 
REMARK    8  A    between atoms: O3_12  and  C9_13 
REMARK    9  A    between atoms: C9_13  and  C10_14 
REMARK   10  A    between atoms: C10_14  and  C11_16 
REMARK   11  A    between atoms: C11_16  and  O5_17 
REMARK   12  A    between atoms: C26_33  and  O7_34 
REMARK       I    between atoms: C30_38  and  N2_40 
REMARK   13  A    between atoms: N2_40  and  C31_41 
REMARK   14  A    between atoms: C31_41  and  C32_42 
REMARK   15  A    between atoms: C32_42  and  C33_43 
REMARK   16  A    between atoms: C32_42  and  C35_47 
REMARK   17  A    between atoms: C33_43  and  C34_44 
REMARK   18  A    between atoms: C34_44  and  O10_46 
ROOT
HETATM    1  C8  UNL     1       6.325   7.423  11.227  1.00  0.00     0.259 C 
HETATM    2  O2  UNL     1       7.112   7.166  10.327  1.00  0.00    -0.265 OA
ENDROOT
BRANCH   1   3
HETATM    3  C7  UNL     1       4.853   7.094  11.190  1.00  0.00     0.120 C 
BRANCH   3   4
HETATM    4  C6  UNL     1       4.533   5.904  10.294  1.00  0.00     0.112 C 
BRANCH   4   5
HETATM    5  C5  UNL     1       3.126   6.017   9.749  1.00  0.00     0.218 C 
HETATM    6  N1  UNL     1       2.146   6.079  10.711  1.00  0.00    -0.347 N 
HETATM    7  H9  UNL     1       2.388   5.990  11.689  1.00  0.00     0.163 HD
HETATM    8  O1  UNL     1       2.895   6.062   8.545  1.00  0.00    -0.274 OA
BRANCH   6   9
HETATM    9  C4  UNL     1       0.714   6.137  10.368  1.00  0.00     0.179 C 
BRANCH   9  10
HETATM   10  C2  UNL     1       0.100   7.529  10.655  1.00  0.00     0.009 C 
HETATM   11  C1  UNL     1       0.035   8.391   9.385  1.00  0.00     0.012 C 
HETATM   12  C3  UNL     1       0.887   8.313  11.713  1.00  0.00     0.012 C 
ENDBRANCH   9  10
BRANCH   9  13
HETATM   13  C30 UNL     1      -0.017   4.997  11.136  1.00  0.00     0.240 C 
HETATM   14  O8  UNL     1       0.510   3.936  11.453  1.00  0.00    -0.271 OA
HETATM   15  N2  UNL     1      -1.298   5.326  11.540  1.00  0.00    -0.359 N 
HETATM   16  H43 UNL     1      -1.565   6.301  11.439  1.00  0.00     0.162 HD
BRANCH  15  17
HETATM   17  C31 UNL     1      -2.030   4.539  12.518  1.00  0.00     0.132 C 
BRANCH  17  18
HETATM   18  C32 UNL     1      -3.126   5.378  13.210  1.00  0.00     0.046 C 
BRANCH  18  19
HETATM   19  C33 UNL     1      -2.777   5.607  14.687  1.00  0.00     0.120 C 
BRANCH  19  20
HETATM   20  C34 UNL     1      -1.549   6.461  14.842  1.00  0.00     0.140 C 
HETATM   21  O9  UNL     1      -1.361   7.571  14.379  1.00  0.00    -0.650 OA
BRANCH  20  22
HETATM   22  O10 UNL     1      -0.579   5.834  15.536  1.00  0.00    -0.776 OA
HETATM   23  H49 UNL     1       0.154   6.486  15.551  1.00  0.00     0.167 HD
ENDBRANCH  20  22
ENDBRANCH  19  20
ENDBRANCH  18  19
BRANCH  18  24
HETATM   24  C35 UNL     1      -4.488   4.712  13.016  1.00  0.00    -0.052 A 
HETATM   25  C36 UNL     1      -4.659   3.597  12.182  1.00  0.00     0.007 A 
HETATM   26  C37 UNL     1      -5.925   3.042  11.987  1.00  0.00     0.001 A 
HETATM   27  C38 UNL     1      -7.036   3.598  12.616  1.00  0.00     0.000 A 
HETATM   28  C39 UNL     1      -6.883   4.707  13.443  1.00  0.00     0.001 A 
HETATM   29  C40 UNL     1      -5.618   5.261  13.643  1.00  0.00     0.007 A 
ENDBRANCH  18  24
ENDBRANCH  17  18
ENDBRANCH  15  17
ENDBRANCH   9  13
ENDBRANCH   6   9
ENDBRANCH   4   5
ENDBRANCH   3   4
ENDBRANCH   1   3
BRANCH   1  30
HETATM   30  O3  UNL     1       6.670   8.005  12.411  1.00  0.00    -0.314 OA
BRANCH  30  31
HETATM   31  C9  UNL     1       6.342   7.226  13.568  1.00  0.00     0.260 C 
BRANCH  31  32
HETATM   32  C10 UNL     1       6.798   7.885  14.863  1.00  0.00     0.185 C 
HETATM   33  O4  UNL     1       6.001   8.170  15.767  1.00  0.00    -0.292 OA
BRANCH  32  34
HETATM   34  C11 UNL     1       8.294   8.215  15.050  1.00  0.00     0.128 C 
HETATM   35  C12 UNL     1       9.201   8.143  13.800  1.00  0.00     0.047 C 
HETATM   36  C13 UNL     1      10.271   9.242  13.971  1.00  0.00     0.009 C 
HETATM   37  C14 UNL     1      10.072   9.755  15.392  1.00  0.00     0.002 C 
HETATM   38  C15 UNL     1      10.647  11.126  15.769  1.00  0.00    -0.002 C 
HETATM   39  C28 UNL     1       8.544   9.652  15.606  1.00  0.00     0.001 C 
HETATM   40  C16 UNL     1      12.157  11.197  15.454  1.00  0.00     0.010 C 
HETATM   41  C25 UNL     1      10.364  11.382  17.295  1.00  0.00     0.031 C 
HETATM   42  C17 UNL     1      12.821  12.469  15.980  1.00  0.00     0.035 C 
HETATM   43  C18 UNL     1      12.500  12.620  17.446  1.00  0.00    -0.068 C 
HETATM   44  C19 UNL     1      13.478  12.523  18.364  1.00  0.00     0.053 C 
HETATM   45  C23 UNL     1      11.004  12.737  17.779  1.00  0.00    -0.014 C 
HETATM   46  C20 UNL     1      13.160  12.397  19.805  1.00  0.00     0.149 C 
HETATM   47  O6  UNL     1      14.070  12.409  20.631  1.00  0.00    -0.293 OA
HETATM   48  C21 UNL     1      11.721  12.151  20.182  1.00  0.00     0.084 C 
HETATM   49  C22 UNL     1      10.818  12.998  19.302  1.00  0.00     0.022 C 
HETATM   50  C24 UNL     1      10.417  13.984  17.068  1.00  0.00     0.020 C 
HETATM   51  C26 UNL     1       8.870  11.162  17.672  1.00  0.00     0.124 C 
HETATM   52  C27 UNL     1       8.281   9.848  17.116  1.00  0.00     0.045 C 
HETATM   53  C29 UNL     1       7.736  10.680  14.770  1.00  0.00     0.019 C 
BRANCH  34  54
HETATM   54  O5  UNL     1       8.794   7.237  15.977  1.00  0.00    -0.381 OA
HETATM   55  H16 UNL     1       8.091   7.091  16.644  1.00  0.00     0.211 HD
ENDBRANCH  34  54
BRANCH  51  56
HETATM   56  O7  UNL     1       8.066  12.255  17.255  1.00  0.00    -0.395 OA
HETATM   57  H37 UNL     1       7.173  12.122  17.621  1.00  0.00     0.210 HD
ENDBRANCH  51  56
ENDBRANCH  32  34
ENDBRANCH  31  32
ENDBRANCH  30  31
ENDBRANCH   1  30
TORSDOF 18
ENDMDL
MODEL 8
REMARK minimizedAffinity -9.54811573
REMARK CNNscore 0.246014401
REMARK CNNaffinity 7.56319427
REMARK  18 active torsions:
REMARK  status: ('A' for Active; 'I' for Inactive)
REMARK    1  A    between atoms: C2_2  and  C4_4 
REMARK    2  A    between atoms: C4_4  and  N1_5 
REMARK    3  A    between atoms: C4_4  and  C30_38 
REMARK       I    between atoms: N1_5  and  C5_6 
REMARK    4  A    between atoms: C5_6  and  C6_8 
REMARK    5  A    between atoms: C6_8  and  C7_9 
REMARK    6  A    between atoms: C7_9  and  C8_10 
REMARK    7  A    between atoms: C8_10  and  O3_12 
REMARK    8  A    between atoms: O3_12  and  C9_13 
REMARK    9  A    between atoms: C9_13  and  C10_14 
REMARK   10  A    between atoms: C10_14  and  C11_16 
REMARK   11  A    between atoms: C11_16  and  O5_17 
REMARK   12  A    between atoms: C26_33  and  O7_34 
REMARK       I    between atoms: C30_38  and  N2_40 
REMARK   13  A    between atoms: N2_40  and  C31_41 
REMARK   14  A    between atoms: C31_41  and  C32_42 
REMARK   15  A    between atoms: C32_42  and  C33_43 
REMARK   16  A    between atoms: C32_42  and  C35_47 
REMARK   17  A    between atoms: C33_43  and  C34_44 
REMARK   18  A    between atoms: C34_44  and  O10_46 
ROOT
HETATM    1  C8  UNL     1      -5.084   3.240  10.775  1.00  0.00     0.259 C 
HETATM    2  O2  UNL     1      -5.191   3.244   9.557  1.00  0.00    -0.265 OA
ENDROOT
BRANCH   1   3
HETATM    3  C7  UNL     1      -3.785   3.443  11.516  1.00  0.00     0.120 C 
BRANCH   3   4
HETATM    4  C6  UNL     1      -2.560   3.266  10.626  1.00  0.00     0.112 C 
BRANCH   4   5
HETATM    5  C5  UNL     1      -1.298   3.590  11.395  1.00  0.00     0.218 C 
HETATM    6  N1  UNL     1      -1.396   4.689  12.214  1.00  0.00    -0.347 N 
HETATM    7  H9  UNL     1      -2.244   5.242  12.222  1.00  0.00     0.163 HD
HETATM    8  O1  UNL     1      -0.282   2.911  11.295  1.00  0.00    -0.274 OA
BRANCH   6   9
HETATM    9  C4  UNL     1      -0.252   5.187  12.997  1.00  0.00     0.179 C 
BRANCH   9  10
HETATM   10  C2  UNL     1      -0.696   5.845  14.327  1.00  0.00     0.009 C 
HETATM   11  C1  UNL     1      -2.143   5.473  14.685  1.00  0.00     0.012 C 
HETATM   12  C3  UNL     1      -0.600   7.375  14.289  1.00  0.00     0.012 C 
ENDBRANCH   9  10
BRANCH   9  13
HETATM   13  C30 UNL     1       0.566   6.161  12.099  1.00  0.00     0.240 C 
HETATM   14  O8  UNL     1       0.085   6.811  11.177  1.00  0.00    -0.271 OA
HETATM   15  N2  UNL     1       1.879   6.325  12.502  1.00  0.00    -0.359 N 
HETATM   16  H43 UNL     1       2.125   5.932  13.405  1.00  0.00     0.162 HD
BRANCH  15  17
HETATM   17  C31 UNL     1       2.716   7.402  12.000  1.00  0.00     0.132 C 
BRANCH  17  18
HETATM   18  C32 UNL     1       3.782   6.874  11.016  1.00  0.00     0.046 C 
BRANCH  18  19
HETATM   19  C33 UNL     1       5.116   7.605  11.223  1.00  0.00     0.120 C 
BRANCH  19  20
HETATM   20  C34 UNL     1       6.284   6.660  11.162  1.00  0.00     0.140 C 
HETATM   21  O9  UNL     1       7.208   6.682  10.370  1.00  0.00    -0.650 OA
BRANCH  20  22
HETATM   22  O10 UNL     1       6.193   5.680  12.082  1.00  0.00    -0.776 OA
HETATM   23  H49 UNL     1       6.996   5.139  11.926  1.00  0.00     0.167 HD
ENDBRANCH  20  22
ENDBRANCH  19  20
ENDBRANCH  18  19
BRANCH  18  24
HETATM   24  C35 UNL     1       3.262   6.978   9.582  1.00  0.00    -0.052 A 
HETATM   25  C36 UNL     1       2.866   8.203   9.023  1.00  0.00     0.007 A 
HETATM   26  C37 UNL     1       2.349   8.258   7.727  1.00  0.00     0.001 A 
HETATM   27  C38 UNL     1       2.213   7.092   6.978  1.00  0.00     0.000 A 
HETATM   28  C39 UNL     1       2.598   5.870   7.521  1.00  0.00     0.001 A 
HETATM   29  C40 UNL     1       3.120   5.812   8.814  1.00  0.00     0.007 A 
ENDBRANCH  18  24
ENDBRANCH  17  18
ENDBRANCH  15  17
ENDBRANCH   9  13
ENDBRANCH   6   9
ENDBRANCH   4   5
ENDBRANCH   3   4
ENDBRANCH   1   3
BRANCH   1  30
HETATM   30  O3  UNL     1      -6.126   3.093  11.643  1.00  0.00    -0.314 OA
BRANCH  30  31
HETATM   31  C9  UNL     1      -5.968   3.798  12.879  1.00  0.00     0.260 C 
BRANCH  31  32
HETATM   32  C10 UNL     1      -7.281   3.955  13.634  1.00  0.00     0.185 C 
HETATM   33  O4  UNL     1      -8.203   3.136  13.516  1.00  0.00    -0.292 OA
BRANCH  32  34
HETATM   34  C11 UNL     1      -7.472   5.171  14.564  1.00  0.00     0.128 C 
HETATM   35  C12 UNL     1      -6.239   6.066  14.828  1.00  0.00     0.047 C 
HETATM   36  C13 UNL     1      -6.768   7.508  14.979  1.00  0.00     0.009 C 
HETATM   37  C14 UNL     1      -8.284   7.360  15.009  1.00  0.00     0.002 C 
HETATM   38  C15 UNL     1      -9.152   8.589  14.712  1.00  0.00    -0.002 C 
HETATM   39  C28 UNL     1      -8.555   6.173  14.055  1.00  0.00     0.001 C 
HETATM   40  C16 UNL     1      -8.779   9.766  15.638  1.00  0.00     0.010 C 
HETATM   41  C25 UNL     1     -10.663   8.182  14.876  1.00  0.00     0.031 C 
HETATM   42  C17 UNL     1      -9.734  10.953  15.516  1.00  0.00     0.035 C 
HETATM   43  C18 UNL     1     -11.149  10.466  15.696  1.00  0.00    -0.068 C 
HETATM   44  C19 UNL     1     -11.864  10.851  16.768  1.00  0.00     0.053 C 
HETATM   45  C23 UNL     1     -11.616   9.420  14.670  1.00  0.00    -0.014 C 
HETATM   46  C20 UNL     1     -13.142  10.185  17.111  1.00  0.00     0.149 C 
HETATM   47  O6  UNL     1     -13.824  10.620  18.036  1.00  0.00    -0.293 OA
HETATM   48  C21 UNL     1     -13.493   8.924  16.363  1.00  0.00     0.084 C 
HETATM   49  C22 UNL     1     -13.119   9.086  14.900  1.00  0.00     0.022 C 
HETATM   50  C24 UNL     1     -11.537  10.028  13.246  1.00  0.00     0.020 C 
HETATM   51  C26 UNL     1     -11.030   6.901  14.073  1.00  0.00     0.124 C 
HETATM   52  C27 UNL     1     -10.024   5.745  14.265  1.00  0.00     0.045 C 
HETATM   53  C29 UNL     1      -8.288   6.512  12.564  1.00  0.00     0.019 C 
BRANCH  34  54
HETATM   54  O5  UNL     1      -7.865   4.629  15.837  1.00  0.00    -0.381 OA
HETATM   55  H16 UNL     1      -8.462   3.875  15.652  1.00  0.00     0.211 HD
ENDBRANCH  34  54
BRANCH  51  56
HETATM   56  O7  UNL     1     -11.170   7.181  12.688  1.00  0.00    -0.395 OA
HETATM   57  H37 UNL     1     -11.516   6.378  12.258  1.00  0.00     0.210 HD
ENDBRANCH  51  56
ENDBRANCH  32  34
ENDBRANCH  31  32
ENDBRANCH  30  31
ENDBRANCH   1  30
TORSDOF 18
ENDMDL
MODEL 9
REMARK minimizedAffinity -8.49656963
REMARK CNNscore 0.245342433
REMARK CNNaffinity 6.17508841
REMARK  18 active torsions:
REMARK  status: ('A' for Active; 'I' for Inactive)
REMARK    1  A    between atoms: C2_2  and  C4_4 
REMARK    2  A    between atoms: C4_4  and  N1_5 
REMARK    3  A    between atoms: C4_4  and  C30_38 
REMARK       I    between atoms: N1_5  and  C5_6 
REMARK    4  A    between atoms: C5_6  and  C6_8 
REMARK    5  A    between atoms: C6_8  and  C7_9 
REMARK    6  A    between atoms: C7_9  and  C8_10 
REMARK    7  A    between atoms: C8_10  and  O3_12 
REMARK    8  A    between atoms: O3_12  and  C9_13 
REMARK    9  A    between atoms: C9_13  and  C10_14 
REMARK   10  A    between atoms: C10_14  and  C11_16 
REMARK   11  A    between atoms: C11_16  and  O5_17 
REMARK   12  A    between atoms: C26_33  and  O7_34 
REMARK       I    between atoms: C30_38  and  N2_40 
REMARK   13  A    between atoms: N2_40  and  C31_41 
REMARK   14  A    between atoms: C31_41  and  C32_42 
REMARK   15  A    between atoms: C32_42  and  C33_43 
REMARK   16  A    between atoms: C32_42  and  C35_47 
REMARK   17  A    between atoms: C33_43  and  C34_44 
REMARK   18  A    between atoms: C34_44  and  O10_46 
ROOT
HETATM    1  C8  UNL     1       0.088  11.163  18.590  1.00  0.00     0.259 C 
HETATM    2  O2  UNL     1      -0.758  11.919  19.048  1.00  0.00    -0.265 OA
ENDROOT
BRANCH   1   3
HETATM    3  C7  UNL     1      -0.010  10.492  17.243  1.00  0.00     0.120 C 
BRANCH   3   4
HETATM    4  C6  UNL     1      -1.177   9.516  17.149  1.00  0.00     0.112 C 
BRANCH   4   5
HETATM    5  C5  UNL     1      -1.075   8.692  15.884  1.00  0.00     0.218 C 
HETATM    6  N1  UNL     1      -0.964   7.339  16.093  1.00  0.00    -0.347 N 
HETATM    7  H9  UNL     1      -0.899   6.974  17.035  1.00  0.00     0.163 HD
HETATM    8  O1  UNL     1      -1.102   9.203  14.769  1.00  0.00    -0.274 OA
BRANCH   6   9
HETATM    9  C4  UNL     1      -0.800   6.385  14.982  1.00  0.00     0.179 C 
BRANCH   9  10
HETATM   10  C2  UNL     1       0.431   6.718  14.103  1.00  0.00     0.009 C 
HETATM   11  C1  UNL     1       1.584   7.290  14.940  1.00  0.00     0.012 C 
HETATM   12  C3  UNL     1       0.108   7.728  12.996  1.00  0.00     0.012 C 
ENDBRANCH   9  10
BRANCH   9  13
HETATM   13  C30 UNL     1      -2.124   6.360  14.162  1.00  0.00     0.240 C 
HETATM   14  O8  UNL     1      -2.801   7.354  13.922  1.00  0.00    -0.271 OA
HETATM   15  N2  UNL     1      -2.424   5.123  13.620  1.00  0.00    -0.359 N 
HETATM   16  H43 UNL     1      -1.693   4.420  13.674  1.00  0.00     0.162 HD
BRANCH  15  17
HETATM   17  C31 UNL     1      -3.430   4.953  12.586  1.00  0.00     0.132 C 
BRANCH  17  18
HETATM   18  C32 UNL     1      -4.336   3.737  12.878  1.00  0.00     0.046 C 
BRANCH  18  19
HETATM   19  C33 UNL     1      -4.138   2.649  11.814  1.00  0.00     0.120 C 
BRANCH  19  20
HETATM   20  C34 UNL     1      -4.091   3.229  10.427  1.00  0.00     0.140 C 
HETATM   21  O9  UNL     1      -5.035   3.580   9.744  1.00  0.00    -0.650 OA
BRANCH  20  22
HETATM   22  O10 UNL     1      -2.836   3.282   9.941  1.00  0.00    -0.776 OA
HETATM   23  H49 UNL     1      -2.950   3.661   9.044  1.00  0.00     0.167 HD
ENDBRANCH  20  22
ENDBRANCH  19  20
ENDBRANCH  18  19
BRANCH  18  24
HETATM   24  C35 UNL     1      -5.790   4.192  13.000  1.00  0.00    -0.052 A 
HETATM   25  C36 UNL     1      -6.864   3.306  12.821  1.00  0.00     0.007 A 
HETATM   26  C37 UNL     1      -8.182   3.764  12.889  1.00  0.00     0.001 A 
HETATM   27  C38 UNL     1      -8.443   5.110  13.129  1.00  0.00     0.000 A 
HETATM   28  C39 UNL     1      -7.388   6.001  13.304  1.00  0.00     0.001 A 
HETATM   29  C40 UNL     1      -6.070   5.547  13.241  1.00  0.00     0.007 A 
ENDBRANCH  18  24
ENDBRANCH  17  18
ENDBRANCH  15  17
ENDBRANCH   9  13
ENDBRANCH   6   9
ENDBRANCH   4   5
ENDBRANCH   3   4
ENDBRANCH   1   3
BRANCH   1  30
HETATM   30  O3  UNL     1       1.261  10.850  19.212  1.00  0.00    -0.314 OA
BRANCH  30  31
HETATM   31  C9  UNL     1       1.316  11.226  20.593  1.00  0.00     0.260 C 
BRANCH  31  32
HETATM   32  C10 UNL     1       2.203  10.300  21.414  1.00  0.00     0.185 C 
HETATM   33  O4  UNL     1       2.075   9.068  21.375  1.00  0.00    -0.292 OA
BRANCH  32  34
HETATM   34  C11 UNL     1       3.285  10.914  22.327  1.00  0.00     0.128 C 
HETATM   35  C12 UNL     1       4.055   9.955  23.264  1.00  0.00     0.047 C 
HETATM   36  C13 UNL     1       5.492  10.508  23.374  1.00  0.00     0.009 C 
HETATM   37  C14 UNL     1       5.436  11.862  22.678  1.00  0.00     0.002 C 
HETATM   38  C15 UNL     1       6.747  12.504  22.207  1.00  0.00    -0.002 C 
HETATM   39  C28 UNL     1       4.416  11.645  21.537  1.00  0.00     0.001 C 
HETATM   40  C16 UNL     1       7.756  12.617  23.371  1.00  0.00     0.010 C 
HETATM   41  C25 UNL     1       6.418  13.914  21.591  1.00  0.00     0.031 C 
HETATM   42  C17 UNL     1       9.006  13.417  23.006  1.00  0.00     0.035 C 
HETATM   43  C18 UNL     1       8.588  14.749  22.435  1.00  0.00    -0.068 C 
HETATM   44  C19 UNL     1       8.863  15.884  23.101  1.00  0.00     0.053 C 
HETATM   45  C23 UNL     1       7.729  14.674  21.162  1.00  0.00    -0.014 C 
HETATM   46  C20 UNL     1       8.237  17.168  22.709  1.00  0.00     0.149 C 
HETATM   47  O6  UNL     1       8.578  18.207  23.269  1.00  0.00    -0.293 OA
HETATM   48  C21 UNL     1       7.118  17.118  21.699  1.00  0.00     0.084 C 
HETATM   49  C22 UNL     1       7.461  16.107  20.618  1.00  0.00     0.022 C 
HETATM   50  C24 UNL     1       8.526  13.947  20.048  1.00  0.00     0.020 C 
HETATM   51  C26 UNL     1       5.288  13.851  20.523  1.00  0.00     0.124 C 
HETATM   52  C27 UNL     1       4.056  13.039  20.976  1.00  0.00     0.045 C 
HETATM   53  C29 UNL     1       4.944  10.719  20.409  1.00  0.00     0.019 C 
BRANCH  34  54
HETATM   54  O5  UNL     1       2.595  11.848  23.174  1.00  0.00    -0.381 OA
HETATM   55  H16 UNL     1       1.913  12.284  22.620  1.00  0.00     0.211 HD
ENDBRANCH  34  54
BRANCH  51  56
HETATM   56  O7  UNL     1       5.769  13.334  19.291  1.00  0.00    -0.395 OA
HETATM   57  H37 UNL     1       5.059  13.431  18.632  1.00  0.00     0.210 HD
ENDBRANCH  51  56
ENDBRANCH  32  34
ENDBRANCH  31  32
ENDBRANCH  30  31
ENDBRANCH   1  30
TORSDOF 18
ENDMDL
