MODEL 1
REMARK minimizedAffinity -9.84683418
REMARK  10 active torsions:
REMARK  status: ('A' for Active; 'I' for Inactive)
REMARK    1  A    between atoms: C2_2  and  C3_3 
REMARK    2  A    between atoms: C2_2  and  C9_11 
REMARK    3  A    between atoms: C3_3  and  C4_4 
REMARK    4  A    between atoms: C4_4  and  C5_5 
REMARK    5  A    between atoms: C5_5  and  O1_6 
REMARK    6  A    between atoms: C5_5  and  C6_7 
REMARK    7  A    between atoms: C6_7  and  O2_10 
REMARK    8  A    between atoms: C12_14  and  C13_15 
REMARK    9  A    between atoms: C13_15  and  O4_17 
REMARK   10  A    between atoms: C21_25  and  O5_26 
ROOT
HETATM    1  C9  UNL     1      -2.155  51.337 -21.454  1.00  0.00    -0.001 C 
HETATM    2  C10 UNL     1      -2.519  49.849 -21.214  1.00  0.00     0.007 C 
HETATM    3  C11 UNL     1      -1.710  49.391 -19.972  1.00  0.00     0.022 C 
HETATM    4  C12 UNL     1      -1.230  50.708 -19.322  1.00  0.00     0.057 C 
HETATM    5  C14 UNL     1      -0.013  50.647 -18.354  1.00  0.00     0.010 C 
HETATM    6  C15 UNL     1      -0.201  49.715 -17.143  1.00  0.00     0.010 C 
HETATM    7  C16 UNL     1      -0.577  50.390 -15.824  1.00  0.00     0.036 C 
HETATM    8  C17 UNL     1       0.583  51.000 -15.048  1.00  0.00    -0.067 C 
HETATM    9  C18 UNL     1       1.594  51.686 -15.639  1.00  0.00    -0.076 C 
HETATM   10  C19 UNL     1       2.783  52.213 -14.855  1.00  0.00     0.037 C 
HETATM   11  C20 UNL     1       2.936  51.647 -13.452  1.00  0.00     0.037 C 
HETATM   12  C21 UNL     1       1.595  51.624 -12.738  1.00  0.00     0.130 C 
HETATM   13  C22 UNL     1       0.545  50.762 -13.511  1.00  0.00     0.002 C 
HETATM   14  C23 UNL     1      -0.853  51.079 -12.928  1.00  0.00     0.022 C 
HETATM   15  C24 UNL     1       0.861  49.270 -13.240  1.00  0.00     0.022 C 
HETATM   16  C25 UNL     1       1.702  52.082 -17.106  1.00  0.00     0.039 C 
HETATM   17  C26 UNL     1       0.433  52.088 -17.976  1.00  0.00    -0.005 C 
HETATM   18  C27 UNL     1       0.674  52.980 -19.224  1.00  0.00     0.006 C 
HETATM   19  C28 UNL     1      -0.457  52.959 -20.267  1.00  0.00     0.011 C 
HETATM   20  C29 UNL     1      -0.848  51.520 -20.632  1.00  0.00    -0.022 C 
HETATM   21  C30 UNL     1       0.368  50.904 -21.395  1.00  0.00     0.017 C 
ENDROOT
BRANCH   1  22
HETATM   22  C2  UNL     1      -2.333  51.922 -22.883  1.00  0.00    -0.014 C 
HETATM   23  C1  UNL     1      -3.823  52.219 -23.139  1.00  0.00     0.010 C 
BRANCH  22  24
HETATM   24  C3  UNL     1      -1.718  51.241 -24.124  1.00  0.00     0.007 C 
BRANCH  24  25
HETATM   25  C4  UNL     1      -0.431  51.836 -24.686  1.00  0.00     0.035 C 
BRANCH  25  26
HETATM   26  C5  UNL     1       0.157  51.099 -25.900  1.00  0.00     0.151 C 
BRANCH  26  27
HETATM   27  O1  UNL     1      -0.968  50.592 -26.648  1.00  0.00    -0.393 OA
HETATM   28  H10 UNL     1      -0.982  51.065 -27.504  1.00  0.00     0.210 HD
ENDBRANCH  26  27
BRANCH  26  29
HETATM   29  C6  UNL     1       1.093  51.886 -26.869  1.00  0.00     0.076 C 
HETATM   30  C7  UNL     1       0.610  51.844 -28.320  1.00  0.00     0.048 C 
HETATM   31  C8  UNL     1       2.561  51.469 -26.774  1.00  0.00     0.048 C 
BRANCH  29  32
HETATM   32  O2  UNL     1       1.053  53.274 -26.469  1.00  0.00    -0.388 OA
HETATM   33  H17 UNL     1       0.126  53.487 -26.248  1.00  0.00     0.210 HD
ENDBRANCH  29  32
ENDBRANCH  26  29
ENDBRANCH  25  26
ENDBRANCH  24  25
ENDBRANCH  22  24
ENDBRANCH   1  22
BRANCH   4  34
HETATM   34  C13 UNL     1      -2.432  51.302 -18.530  1.00  0.00     0.149 C 
HETATM   35  O3  UNL     1      -2.528  51.469 -17.327  1.00  0.00    -0.649 OA
BRANCH  34  36
HETATM   36  O4  UNL     1      -3.491  51.620 -19.303  1.00  0.00    -0.776 OA
HETATM   37  H23 UNL     1      -4.152  51.954 -18.659  1.00  0.00     0.167 HD
ENDBRANCH  34  36
ENDBRANCH   4  34
BRANCH  12  38
HETATM   38  O5  UNL     1       1.136  52.968 -12.556  1.00  0.00    -0.394 OA
HETATM   39  H34 UNL     1       1.818  53.447 -12.056  1.00  0.00     0.210 HD
ENDBRANCH  12  38
TORSDOF 10
ENDMDL
MODEL 2
REMARK minimizedAffinity -9.7244854
REMARK  10 active torsions:
REMARK  status: ('A' for Active; 'I' for Inactive)
REMARK    1  A    between atoms: C2_2  and  C3_3 
REMARK    2  A    between atoms: C2_2  and  C9_11 
REMARK    3  A    between atoms: C3_3  and  C4_4 
REMARK    4  A    between atoms: C4_4  and  C5_5 
REMARK    5  A    between atoms: C5_5  and  O1_6 
REMARK    6  A    between atoms: C5_5  and  C6_7 
REMARK    7  A    between atoms: C6_7  and  O2_10 
REMARK    8  A    between atoms: C12_14  and  C13_15 
REMARK    9  A    between atoms: C13_15  and  O4_17 
REMARK   10  A    between atoms: C21_25  and  O5_26 
ROOT
HETATM    1  C9  UNL     1      -1.093  51.888 -24.617  1.00  0.00    -0.001 C 
HETATM    2  C10 UNL     1      -0.152  51.198 -25.638  1.00  0.00     0.007 C 
HETATM    3  C11 UNL     1      -0.930  49.980 -26.202  1.00  0.00     0.022 C 
HETATM    4  C12 UNL     1      -2.396  50.239 -25.791  1.00  0.00     0.057 C 
HETATM    5  C14 UNL     1      -3.373  49.029 -25.756  1.00  0.00     0.010 C 
HETATM    6  C15 UNL     1      -3.519  48.280 -27.093  1.00  0.00     0.010 C 
HETATM    7  C16 UNL     1      -4.759  48.615 -27.922  1.00  0.00     0.036 C 
HETATM    8  C17 UNL     1      -6.038  47.903 -27.500  1.00  0.00    -0.067 C 
HETATM    9  C18 UNL     1      -6.393  47.719 -26.203  1.00  0.00    -0.076 C 
HETATM   10  C19 UNL     1      -7.631  46.934 -25.805  1.00  0.00     0.037 C 
HETATM   11  C20 UNL     1      -8.253  46.099 -26.913  1.00  0.00     0.037 C 
HETATM   12  C21 UNL     1      -8.329  46.898 -28.203  1.00  0.00     0.130 C 
HETATM   13  C22 UNL     1      -6.915  47.374 -28.672  1.00  0.00     0.002 C 
HETATM   14  C23 UNL     1      -7.112  48.457 -29.759  1.00  0.00     0.022 C 
HETATM   15  C24 UNL     1      -6.193  46.163 -29.313  1.00  0.00     0.022 C 
HETATM   16  C25 UNL     1      -5.690  48.272 -24.970  1.00  0.00     0.039 C 
HETATM   17  C26 UNL     1      -4.728  49.463 -25.127  1.00  0.00    -0.005 C 
HETATM   18  C27 UNL     1      -4.546  50.157 -23.749  1.00  0.00     0.006 C 
HETATM   19  C28 UNL     1      -3.488  51.274 -23.719  1.00  0.00     0.011 C 
HETATM   20  C29 UNL     1      -2.160  50.796 -24.323  1.00  0.00    -0.022 C 
HETATM   21  C30 UNL     1      -1.586  49.718 -23.350  1.00  0.00     0.017 C 
ENDROOT
BRANCH   1  22
HETATM   22  C2  UNL     1      -0.459  52.760 -23.497  1.00  0.00    -0.014 C 
HETATM   23  C1  UNL     1       0.573  53.724 -24.113  1.00  0.00     0.010 C 
BRANCH  22  24
HETATM   24  C3  UNL     1       0.117  52.136 -22.208  1.00  0.00     0.007 C 
BRANCH  24  25
HETATM   25  C4  UNL     1       0.975  53.030 -21.319  1.00  0.00     0.035 C 
BRANCH  25  26
HETATM   26  C5  UNL     1       0.740  52.872 -19.808  1.00  0.00     0.151 C 
BRANCH  26  27
HETATM   27  O1  UNL     1       0.171  54.118 -19.355  1.00  0.00    -0.393 OA
HETATM   28  H10 UNL     1      -0.744  53.929 -19.065  1.00  0.00     0.210 HD
ENDBRANCH  26  27
BRANCH  26  29
HETATM   29  C6  UNL     1      -0.159  51.698 -19.311  1.00  0.00     0.076 C 
HETATM   30  C7  UNL     1       0.041  51.388 -17.826  1.00  0.00     0.048 C 
HETATM   31  C8  UNL     1      -0.027  50.428 -20.152  1.00  0.00     0.048 C 
BRANCH  29  32
HETATM   32  O2  UNL     1      -1.534  52.121 -19.454  1.00  0.00    -0.388 OA
HETATM   33  H17 UNL     1      -1.580  53.056 -19.173  1.00  0.00     0.210 HD
ENDBRANCH  29  32
ENDBRANCH  26  29
ENDBRANCH  25  26
ENDBRANCH  24  25
ENDBRANCH  22  24
ENDBRANCH   1  22
BRANCH   4  34
HETATM   34  C13 UNL     1      -2.980  51.286 -26.785  1.00  0.00     0.149 C 
HETATM   35  O3  UNL     1      -3.035  51.217 -28.000  1.00  0.00    -0.649 OA
BRANCH  34  36
HETATM   36  O4  UNL     1      -3.432  52.410 -26.191  1.00  0.00    -0.776 OA
HETATM   37  H23 UNL     1      -3.740  52.960 -26.944  1.00  0.00     0.167 HD
ENDBRANCH  34  36
ENDBRANCH   4  34
BRANCH  12  38
HETATM   38  O5  UNL     1      -9.218  48.005 -28.018  1.00  0.00    -0.394 OA
HETATM   39  H34 UNL     1     -10.080  47.648 -27.748  1.00  0.00     0.210 HD
ENDBRANCH  12  38
TORSDOF 10
ENDMDL
MODEL 3
REMARK minimizedAffinity -9.38621998
REMARK  10 active torsions:
REMARK  status: ('A' for Active; 'I' for Inactive)
REMARK    1  A    between atoms: C2_2  and  C3_3 
REMARK    2  A    between atoms: C2_2  and  C9_11 
REMARK    3  A    between atoms: C3_3  and  C4_4 
REMARK    4  A    between atoms: C4_4  and  C5_5 
REMARK    5  A    between atoms: C5_5  and  O1_6 
REMARK    6  A    between atoms: C5_5  and  C6_7 
REMARK    7  A    between atoms: C6_7  and  O2_10 
REMARK    8  A    between atoms: C12_14  and  C13_15 
REMARK    9  A    between atoms: C13_15  and  O4_17 
REMARK   10  A    between atoms: C21_25  and  O5_26 
ROOT
HETATM    1  C9  UNL     1      -3.408  50.089 -23.553  1.00  0.00    -0.001 C 
HETATM    2  C10 UNL     1      -3.274  48.549 -23.422  1.00  0.00     0.007 C 
HETATM    3  C11 UNL     1      -2.308  48.290 -22.235  1.00  0.00     0.022 C 
HETATM    4  C12 UNL     1      -2.240  49.644 -21.495  1.00  0.00     0.057 C 
HETATM    5  C14 UNL     1      -1.025  49.908 -20.559  1.00  0.00     0.010 C 
HETATM    6  C15 UNL     1      -0.856  48.885 -19.421  1.00  0.00     0.010 C 
HETATM    7  C16 UNL     1      -1.368  49.316 -18.046  1.00  0.00     0.036 C 
HETATM    8  C17 UNL     1      -0.426  50.209 -17.249  1.00  0.00    -0.067 C 
HETATM    9  C18 UNL     1       0.290  51.218 -17.805  1.00  0.00    -0.076 C 
HETATM   10  C19 UNL     1       1.285  52.042 -17.006  1.00  0.00     0.037 C 
HETATM   11  C20 UNL     1       1.670  51.461 -15.655  1.00  0.00     0.037 C 
HETATM   12  C21 UNL     1       0.437  50.965 -14.918  1.00  0.00     0.130 C 
HETATM   13  C22 UNL     1      -0.321  49.868 -15.734  1.00  0.00     0.002 C 
HETATM   14  C23 UNL     1      -1.721  49.685 -15.101  1.00  0.00     0.022 C 
HETATM   15  C24 UNL     1       0.461  48.539 -15.586  1.00  0.00     0.022 C 
HETATM   16  C25 UNL     1       0.203  51.726 -19.239  1.00  0.00     0.039 C 
HETATM   17  C26 UNL     1      -1.040  51.387 -20.080  1.00  0.00    -0.005 C 
HETATM   18  C27 UNL     1      -1.147  52.391 -21.260  1.00  0.00     0.006 C 
HETATM   19  C28 UNL     1      -2.258  52.082 -22.278  1.00  0.00     0.011 C 
HETATM   20  C29 UNL     1      -2.190  50.621 -22.745  1.00  0.00    -0.022 C 
HETATM   21  C30 UNL     1      -0.877  50.477 -23.578  1.00  0.00     0.017 C 
ENDROOT
BRANCH   1  22
HETATM   22  C2  UNL     1      -3.824  50.682 -24.928  1.00  0.00    -0.014 C 
HETATM   23  C1  UNL     1      -3.406  49.718 -26.055  1.00  0.00     0.010 C 
BRANCH  22  24
HETATM   24  C3  UNL     1      -3.476  52.132 -25.328  1.00  0.00     0.007 C 
BRANCH  24  25
HETATM   25  C4  UNL     1      -2.002  52.471 -25.524  1.00  0.00     0.035 C 
BRANCH  25  26
HETATM   26  C5  UNL     1      -1.478  52.314 -26.961  1.00  0.00     0.151 C 
BRANCH  26  27
HETATM   27  O1  UNL     1      -2.067  53.387 -27.725  1.00  0.00    -0.393 OA
HETATM   28  H10 UNL     1      -1.339  53.979 -28.000  1.00  0.00     0.210 HD
ENDBRANCH  26  27
BRANCH  26  29
HETATM   29  C6  UNL     1       0.063  52.315 -27.198  1.00  0.00     0.076 C 
HETATM   30  C7  UNL     1       0.435  52.509 -28.669  1.00  0.00     0.048 C 
HETATM   31  C8  UNL     1       0.773  51.091 -26.616  1.00  0.00     0.048 C 
BRANCH  29  32
HETATM   32  O2  UNL     1       0.605  53.454 -26.491  1.00  0.00    -0.388 OA
HETATM   33  H17 UNL     1      -0.011  54.200 -26.628  1.00  0.00     0.210 HD
ENDBRANCH  29  32
ENDBRANCH  26  29
ENDBRANCH  25  26
ENDBRANCH  24  25
ENDBRANCH  22  24
ENDBRANCH   1  22
BRANCH   4  34
HETATM   34  C13 UNL     1      -3.532  49.772 -20.636  1.00  0.00     0.149 C 
HETATM   35  O3  UNL     1      -4.176  48.878 -20.113  1.00  0.00    -0.649 OA
BRANCH  34  36
HETATM   36  O4  UNL     1      -3.985  51.036 -20.514  1.00  0.00    -0.776 OA
HETATM   37  H23 UNL     1      -4.797  50.938 -19.972  1.00  0.00     0.167 HD
ENDBRANCH  34  36
ENDBRANCH   4  34
BRANCH  12  38
HETATM   38  O5  UNL     1      -0.414  52.078 -14.623  1.00  0.00    -0.394 OA
HETATM   39  H34 UNL     1       0.103  52.714 -14.102  1.00  0.00     0.210 HD
ENDBRANCH  12  38
TORSDOF 10
ENDMDL
MODEL 4
REMARK minimizedAffinity -9.38103771
REMARK  10 active torsions:
REMARK  status: ('A' for Active; 'I' for Inactive)
REMARK    1  A    between atoms: C2_2  and  C3_3 
REMARK    2  A    between atoms: C2_2  and  C9_11 
REMARK    3  A    between atoms: C3_3  and  C4_4 
REMARK    4  A    between atoms: C4_4  and  C5_5 
REMARK    5  A    between atoms: C5_5  and  O1_6 
REMARK    6  A    between atoms: C5_5  and  C6_7 
REMARK    7  A    between atoms: C6_7  and  O2_10 
REMARK    8  A    between atoms: C12_14  and  C13_15 
REMARK    9  A    between atoms: C13_15  and  O4_17 
REMARK   10  A    between atoms: C21_25  and  O5_26 
ROOT
HETATM    1  C9  UNL     1      -0.300  51.008 -21.111  1.00  0.00    -0.001 C 
HETATM    2  C10 UNL     1      -0.668  51.337 -19.641  1.00  0.00     0.007 C 
HETATM    3  C11 UNL     1      -2.023  50.636 -19.358  1.00  0.00     0.022 C 
HETATM    4  C12 UNL     1      -2.182  49.629 -20.518  1.00  0.00     0.057 C 
HETATM    5  C14 UNL     1      -3.610  49.098 -20.838  1.00  0.00     0.010 C 
HETATM    6  C15 UNL     1      -4.309  48.386 -19.666  1.00  0.00     0.010 C 
HETATM    7  C16 UNL     1      -4.280  46.858 -19.691  1.00  0.00     0.036 C 
HETATM    8  C17 UNL     1      -5.325  46.200 -20.583  1.00  0.00    -0.067 C 
HETATM    9  C18 UNL     1      -5.655  46.670 -21.813  1.00  0.00    -0.076 C 
HETATM   10  C19 UNL     1      -6.759  46.046 -22.650  1.00  0.00     0.037 C 
HETATM   11  C20 UNL     1      -7.679  45.093 -21.903  1.00  0.00     0.037 C 
HETATM   12  C21 UNL     1      -6.871  44.158 -21.019  1.00  0.00     0.130 C 
HETATM   13  C22 UNL     1      -6.016  44.946 -19.974  1.00  0.00     0.002 C 
HETATM   14  C23 UNL     1      -4.977  43.968 -19.374  1.00  0.00     0.022 C 
HETATM   15  C24 UNL     1      -6.960  45.412 -18.839  1.00  0.00     0.022 C 
HETATM   16  C25 UNL     1      -4.990  47.813 -22.570  1.00  0.00     0.039 C 
HETATM   17  C26 UNL     1      -3.581  48.268 -22.152  1.00  0.00    -0.005 C 
HETATM   18  C27 UNL     1      -2.926  49.042 -23.328  1.00  0.00     0.006 C 
HETATM   19  C28 UNL     1      -1.570  49.693 -23.003  1.00  0.00     0.011 C 
HETATM   20  C29 UNL     1      -1.649  50.524 -21.715  1.00  0.00    -0.022 C 
HETATM   21  C30 UNL     1      -2.577  51.742 -22.023  1.00  0.00     0.017 C 
ENDROOT
BRANCH   1  22
HETATM   22  C2  UNL     1       0.659  51.970 -21.868  1.00  0.00    -0.014 C 
HETATM   23  C1  UNL     1       0.575  53.377 -21.249  1.00  0.00     0.010 C 
BRANCH  22  24
HETATM   24  C3  UNL     1       0.653  52.077 -23.408  1.00  0.00     0.007 C 
BRANCH  24  25
HETATM   25  C4  UNL     1       0.622  53.477 -24.014  1.00  0.00     0.035 C 
BRANCH  25  26
HETATM   26  C5  UNL     1      -0.030  53.576 -25.402  1.00  0.00     0.151 C 
BRANCH  26  27
HETATM   27  O1  UNL     1       0.170  54.935 -25.846  1.00  0.00    -0.393 OA
HETATM   28  H10 UNL     1       0.766  54.900 -26.620  1.00  0.00     0.210 HD
ENDBRANCH  26  27
BRANCH  26  29
HETATM   29  C6  UNL     1       0.450  52.605 -26.524  1.00  0.00     0.076 C 
HETATM   30  C7  UNL     1       0.131  53.119 -27.928  1.00  0.00     0.048 C 
HETATM   31  C8  UNL     1      -0.050  51.170 -26.346  1.00  0.00     0.048 C 
BRANCH  29  32
HETATM   32  O2  UNL     1       1.891  52.530 -26.438  1.00  0.00    -0.388 OA
HETATM   33  H17 UNL     1       2.219  53.434 -26.265  1.00  0.00     0.210 HD
ENDBRANCH  29  32
ENDBRANCH  26  29
ENDBRANCH  25  26
ENDBRANCH  24  25
ENDBRANCH  22  24
ENDBRANCH   1  22
BRANCH   4  34
HETATM   34  C13 UNL     1      -1.285  48.398 -20.192  1.00  0.00     0.149 C 
HETATM   35  O3  UNL     1      -0.763  47.623 -20.975  1.00  0.00    -0.649 OA
BRANCH  34  36
HETATM   36  O4  UNL     1      -1.125  48.173 -18.872  1.00  0.00    -0.776 OA
HETATM   37  H23 UNL     1      -0.563  47.368 -18.843  1.00  0.00     0.167 HD
ENDBRANCH  34  36
ENDBRANCH   4  34
BRANCH  12  38
HETATM   38  O5  UNL     1      -6.051  43.323 -21.843  1.00  0.00    -0.394 OA
HETATM   39  H34 UNL     1      -6.636  42.847 -22.455  1.00  0.00     0.210 HD
ENDBRANCH  12  38
TORSDOF 10
ENDMDL
MODEL 5
REMARK minimizedAffinity -9.36509132
REMARK  10 active torsions:
REMARK  status: ('A' for Active; 'I' for Inactive)
REMARK    1  A    between atoms: C2_2  and  C3_3 
REMARK    2  A    between atoms: C2_2  and  C9_11 
REMARK    3  A    between atoms: C3_3  and  C4_4 
REMARK    4  A    between atoms: C4_4  and  C5_5 
REMARK    5  A    between atoms: C5_5  and  O1_6 
REMARK    6  A    between atoms: C5_5  and  C6_7 
REMARK    7  A    between atoms: C6_7  and  O2_10 
REMARK    8  A    between atoms: C12_14  and  C13_15 
REMARK    9  A    between atoms: C13_15  and  O4_17 
REMARK   10  A    between atoms: C21_25  and  O5_26 
ROOT
HETATM    1  C9  UNL     1      -1.334  51.281 -22.081  1.00  0.00    -0.001 C 
HETATM    2  C10 UNL     1      -1.601  49.753 -22.078  1.00  0.00     0.007 C 
HETATM    3  C11 UNL     1      -1.158  49.230 -20.687  1.00  0.00     0.022 C 
HETATM    4  C12 UNL     1      -1.030  50.504 -19.822  1.00  0.00     0.057 C 
HETATM    5  C14 UNL     1      -0.159  50.432 -18.535  1.00  0.00     0.010 C 
HETATM    6  C15 UNL     1      -0.604  49.368 -17.515  1.00  0.00     0.010 C 
HETATM    7  C16 UNL     1      -1.425  49.873 -16.328  1.00  0.00     0.036 C 
HETATM    8  C17 UNL     1      -0.618  50.483 -15.189  1.00  0.00    -0.067 C 
HETATM    9  C18 UNL     1       0.448  51.299 -15.387  1.00  0.00    -0.076 C 
HETATM   10  C19 UNL     1       1.288  51.828 -14.237  1.00  0.00     0.037 C 
HETATM   11  C20 UNL     1       1.072  51.133 -12.902  1.00  0.00     0.037 C 
HETATM   12  C21 UNL     1      -0.412  50.937 -12.639  1.00  0.00     0.130 C 
HETATM   13  C22 UNL     1      -1.090  50.084 -13.760  1.00  0.00     0.002 C 
HETATM   14  C23 UNL     1      -2.623  50.236 -13.613  1.00  0.00     0.022 C 
HETATM   15  C24 UNL     1      -0.720  48.600 -13.520  1.00  0.00     0.022 C 
HETATM   16  C25 UNL     1       0.949  51.852 -16.714  1.00  0.00     0.039 C 
HETATM   17  C26 UNL     1       0.004  51.855 -17.929  1.00  0.00    -0.005 C 
HETATM   18  C27 UNL     1       0.516  52.887 -18.971  1.00  0.00     0.006 C 
HETATM   19  C28 UNL     1      -0.243  52.891 -20.309  1.00  0.00     0.011 C 
HETATM   20  C29 UNL     1      -0.358  51.473 -20.885  1.00  0.00    -0.022 C 
HETATM   21  C30 UNL     1       1.086  51.031 -21.283  1.00  0.00     0.017 C 
ENDROOT
BRANCH   1  22
HETATM   22  C2  UNL     1      -1.135  51.996 -23.446  1.00  0.00    -0.014 C 
HETATM   23  C1  UNL     1       0.090  52.926 -23.369  1.00  0.00     0.010 C 
BRANCH  22  24
HETATM   24  C3  UNL     1      -2.295  52.722 -24.161  1.00  0.00     0.007 C 
BRANCH  24  25
HETATM   25  C4  UNL     1      -3.322  51.859 -24.887  1.00  0.00     0.035 C 
BRANCH  25  26
HETATM   26  C5  UNL     1      -3.174  51.811 -26.416  1.00  0.00     0.151 C 
BRANCH  26  27
HETATM   27  O1  UNL     1      -2.560  53.058 -26.802  1.00  0.00    -0.393 OA
HETATM   28  H10 UNL     1      -1.673  52.845 -27.157  1.00  0.00     0.210 HD
ENDBRANCH  26  27
BRANCH  26  29
HETATM   29  C6  UNL     1      -2.370  50.635 -27.052  1.00  0.00     0.076 C 
HETATM   30  C7  UNL     1      -2.774  49.271 -26.492  1.00  0.00     0.048 C 
HETATM   31  C8  UNL     1      -0.853  50.823 -26.979  1.00  0.00     0.048 C 
BRANCH  29  32
HETATM   32  O2  UNL     1      -2.693  50.607 -28.460  1.00  0.00    -0.388 OA
HETATM   33  H17 UNL     1      -3.652  50.772 -28.541  1.00  0.00     0.210 HD
ENDBRANCH  29  32
ENDBRANCH  26  29
ENDBRANCH  25  26
ENDBRANCH  24  25
ENDBRANCH  22  24
ENDBRANCH   1  22
BRANCH   4  34
HETATM   34  C13 UNL     1      -2.468  50.923 -19.395  1.00  0.00     0.149 C 
HETATM   35  O3  UNL     1      -3.507  50.306 -19.554  1.00  0.00    -0.649 OA
BRANCH  34  36
HETATM   36  O4  UNL     1      -2.534  52.141 -18.820  1.00  0.00    -0.776 OA
HETATM   37  H23 UNL     1      -3.491  52.256 -18.635  1.00  0.00     0.167 HD
ENDBRANCH  34  36
ENDBRANCH   4  34
BRANCH  12  38
HETATM   38  O5  UNL     1      -1.038  52.217 -12.504  1.00  0.00    -0.394 OA
HETATM   39  H34 UNL     1      -0.590  52.690 -11.784  1.00  0.00     0.210 HD
ENDBRANCH  12  38
TORSDOF 10
ENDMDL
MODEL 6
REMARK minimizedAffinity -9.31168652
REMARK  10 active torsions:
REMARK  status: ('A' for Active; 'I' for Inactive)
REMARK    1  A    between atoms: C2_2  and  C3_3 
REMARK    2  A    between atoms: C2_2  and  C9_11 
REMARK    3  A    between atoms: C3_3  and  C4_4 
REMARK    4  A    between atoms: C4_4  and  C5_5 
REMARK    5  A    between atoms: C5_5  and  O1_6 
REMARK    6  A    between atoms: C5_5  and  C6_7 
REMARK    7  A    between atoms: C6_7  and  O2_10 
REMARK    8  A    between atoms: C12_14  and  C13_15 
REMARK    9  A    between atoms: C13_15  and  O4_17 
REMARK   10  A    between atoms: C21_25  and  O5_26 
ROOT
HETATM    1  C9  UNL     1      -2.134  50.674 -22.484  1.00  0.00    -0.001 C 
HETATM    2  C10 UNL     1      -3.176  51.422 -21.612  1.00  0.00     0.007 C 
HETATM    3  C11 UNL     1      -4.572  51.055 -22.180  1.00  0.00     0.022 C 
HETATM    4  C12 UNL     1      -4.308  49.828 -23.081  1.00  0.00     0.057 C 
HETATM    5  C14 UNL     1      -5.359  49.483 -24.175  1.00  0.00     0.010 C 
HETATM    6  C15 UNL     1      -6.780  49.219 -23.644  1.00  0.00     0.010 C 
HETATM    7  C16 UNL     1      -7.185  47.752 -23.502  1.00  0.00     0.036 C 
HETATM    8  C17 UNL     1      -7.649  47.076 -24.785  1.00  0.00    -0.067 C 
HETATM    9  C18 UNL     1      -7.046  47.268 -25.986  1.00  0.00    -0.076 C 
HETATM   10  C19 UNL     1      -7.577  46.648 -27.268  1.00  0.00     0.037 C 
HETATM   11  C20 UNL     1      -8.986  46.085 -27.180  1.00  0.00     0.037 C 
HETATM   12  C21 UNL     1      -9.160  45.281 -25.902  1.00  0.00     0.130 C 
HETATM   13  C22 UNL     1      -8.892  46.152 -24.631  1.00  0.00     0.002 C 
HETATM   14  C23 UNL     1      -8.736  45.198 -23.424  1.00  0.00     0.022 C 
HETATM   15  C24 UNL     1     -10.135  47.043 -24.393  1.00  0.00     0.022 C 
HETATM   16  C25 UNL     1      -5.769  48.053 -26.260  1.00  0.00     0.039 C 
HETATM   17  C26 UNL     1      -4.811  48.354 -25.094  1.00  0.00    -0.005 C 
HETATM   18  C27 UNL     1      -3.404  48.683 -25.663  1.00  0.00     0.006 C 
HETATM   19  C28 UNL     1      -2.376  49.156 -24.620  1.00  0.00     0.011 C 
HETATM   20  C29 UNL     1      -2.946  50.288 -23.754  1.00  0.00    -0.022 C 
HETATM   21  C30 UNL     1      -3.119  51.527 -24.689  1.00  0.00     0.017 C 
ENDROOT
BRANCH   1  22
HETATM   22  C2  UNL     1      -0.687  51.236 -22.556  1.00  0.00    -0.014 C 
HETATM   23  C1  UNL     1      -0.028  51.148 -21.167  1.00  0.00     0.010 C 
BRANCH  22  24
HETATM   24  C3  UNL     1      -0.378  52.608 -23.193  1.00  0.00     0.007 C 
BRANCH  24  25
HETATM   25  C4  UNL     1       0.737  52.665 -24.232  1.00  0.00     0.035 C 
BRANCH  25  26
HETATM   26  C5  UNL     1       0.269  52.738 -25.694  1.00  0.00     0.151 C 
BRANCH  26  27
HETATM   27  O1  UNL     1       0.536  54.086 -26.136  1.00  0.00    -0.393 OA
HETATM   28  H10 UNL     1       1.225  54.032 -26.827  1.00  0.00     0.210 HD
ENDBRANCH  26  27
BRANCH  26  29
HETATM   29  C6  UNL     1       0.880  51.740 -26.725  1.00  0.00     0.076 C 
HETATM   30  C7  UNL     1       2.378  51.516 -26.514  1.00  0.00     0.048 C 
HETATM   31  C8  UNL     1       0.587  52.109 -28.180  1.00  0.00     0.048 C 
BRANCH  29  32
HETATM   32  O2  UNL     1       0.245  50.460 -26.510  1.00  0.00    -0.388 OA
HETATM   33  H17 UNL     1       0.169  50.332 -25.544  1.00  0.00     0.210 HD
ENDBRANCH  29  32
ENDBRANCH  26  29
ENDBRANCH  25  26
ENDBRANCH  24  25
ENDBRANCH  22  24
ENDBRANCH   1  22
BRANCH   4  34
HETATM   34  C13 UNL     1      -4.173  48.587 -22.150  1.00  0.00     0.149 C 
HETATM   35  O3  UNL     1      -4.809  48.334 -21.141  1.00  0.00    -0.649 OA
BRANCH  34  36
HETATM   36  O4  UNL     1      -3.194  47.734 -22.515  1.00  0.00    -0.776 OA
HETATM   37  H23 UNL     1      -3.231  47.035 -21.827  1.00  0.00     0.167 HD
ENDBRANCH  34  36
ENDBRANCH   4  34
BRANCH  12  38
HETATM   38  O5  UNL     1      -8.298  44.139 -25.945  1.00  0.00    -0.394 OA
HETATM   39  H34 UNL     1      -8.523  43.630 -26.740  1.00  0.00     0.210 HD
ENDBRANCH  12  38
TORSDOF 10
ENDMDL
MODEL 7
REMARK minimizedAffinity -9.10216999
REMARK  10 active torsions:
REMARK  status: ('A' for Active; 'I' for Inactive)
REMARK    1  A    between atoms: C2_2  and  C3_3 
REMARK    2  A    between atoms: C2_2  and  C9_11 
REMARK    3  A    between atoms: C3_3  and  C4_4 
REMARK    4  A    between atoms: C4_4  and  C5_5 
REMARK    5  A    between atoms: C5_5  and  O1_6 
REMARK    6  A    between atoms: C5_5  and  C6_7 
REMARK    7  A    between atoms: C6_7  and  O2_10 
REMARK    8  A    between atoms: C12_14  and  C13_15 
REMARK    9  A    between atoms: C13_15  and  O4_17 
REMARK   10  A    between atoms: C21_25  and  O5_26 
ROOT
HETATM    1  C9  UNL     1      -1.804  51.514 -23.684  1.00  0.00    -0.001 C 
HETATM    2  C10 UNL     1      -2.652  52.242 -22.609  1.00  0.00     0.007 C 
HETATM    3  C11 UNL     1      -4.090  51.668 -22.719  1.00  0.00     0.022 C 
HETATM    4  C12 UNL     1      -3.925  50.382 -23.559  1.00  0.00     0.057 C 
HETATM    5  C14 UNL     1      -5.182  49.807 -24.274  1.00  0.00     0.010 C 
HETATM    6  C15 UNL     1      -6.352  49.457 -23.335  1.00  0.00     0.010 C 
HETATM    7  C16 UNL     1      -6.503  47.981 -22.968  1.00  0.00     0.036 C 
HETATM    8  C17 UNL     1      -7.210  47.119 -24.007  1.00  0.00    -0.067 C 
HETATM    9  C18 UNL     1      -6.995  47.237 -25.342  1.00  0.00    -0.076 C 
HETATM   10  C19 UNL     1      -7.772  46.424 -26.363  1.00  0.00     0.037 C 
HETATM   11  C20 UNL     1      -9.015  45.729 -25.828  1.00  0.00     0.037 C 
HETATM   12  C21 UNL     1      -8.719  45.061 -24.496  1.00  0.00     0.130 C 
HETATM   13  C22 UNL     1      -8.227  46.093 -23.429  1.00  0.00     0.002 C 
HETATM   14  C23 UNL     1      -7.617  45.302 -22.247  1.00  0.00     0.022 C 
HETATM   15  C24 UNL     1      -9.464  46.869 -22.912  1.00  0.00     0.022 C 
HETATM   16  C25 UNL     1      -5.960  48.116 -26.032  1.00  0.00     0.039 C 
HETATM   17  C26 UNL     1      -4.765  48.646 -25.220  1.00  0.00    -0.005 C 
HETATM   18  C27 UNL     1      -3.627  49.055 -26.195  1.00  0.00     0.006 C 
HETATM   19  C28 UNL     1      -2.423  49.748 -25.534  1.00  0.00     0.011 C 
HETATM   20  C29 UNL     1      -2.877  50.904 -24.631  1.00  0.00    -0.022 C 
HETATM   21  C30 UNL     1      -3.465  52.004 -25.570  1.00  0.00     0.017 C 
ENDROOT
BRANCH   1  22
HETATM   22  C2  UNL     1      -0.521  52.214 -24.215  1.00  0.00    -0.014 C 
HETATM   23  C1  UNL     1       0.194  51.291 -25.219  1.00  0.00     0.010 C 
BRANCH  22  24
HETATM   24  C3  UNL     1       0.514  52.847 -23.260  1.00  0.00     0.007 C 
BRANCH  24  25
HETATM   25  C4  UNL     1       0.789  52.126 -21.945  1.00  0.00     0.035 C 
BRANCH  25  26
HETATM   26  C5  UNL     1       1.289  53.019 -20.799  1.00  0.00     0.151 C 
BRANCH  26  27
HETATM   27  O1  UNL     1       1.304  54.367 -21.314  1.00  0.00    -0.393 OA
HETATM   28  H10 UNL     1       0.630  54.873 -20.819  1.00  0.00     0.210 HD
ENDBRANCH  26  27
BRANCH  26  29
HETATM   29  C6  UNL     1       0.510  53.006 -19.448  1.00  0.00     0.076 C 
HETATM   30  C7  UNL     1       1.412  52.710 -18.248  1.00  0.00     0.048 C 
HETATM   31  C8  UNL     1      -0.707  52.080 -19.453  1.00  0.00     0.048 C 
BRANCH  29  32
HETATM   32  O2  UNL     1      -0.013  54.338 -19.242  1.00  0.00    -0.388 OA
HETATM   33  H17 UNL     1       0.684  54.968 -19.511  1.00  0.00     0.210 HD
ENDBRANCH  29  32
ENDBRANCH  26  29
ENDBRANCH  25  26
ENDBRANCH  24  25
ENDBRANCH  22  24
ENDBRANCH   1  22
BRANCH   4  34
HETATM   34  C13 UNL     1      -3.374  49.275 -22.613  1.00  0.00     0.149 C 
HETATM   35  O3  UNL     1      -2.727  48.287 -22.913  1.00  0.00    -0.649 OA
BRANCH  34  36
HETATM   36  O4  UNL     1      -3.710  49.445 -21.318  1.00  0.00    -0.776 OA
HETATM   37  H23 UNL     1      -3.309  48.668 -20.872  1.00  0.00     0.167 HD
ENDBRANCH  34  36
ENDBRANCH   4  34
BRANCH  12  38
HETATM   38  O5  UNL     1      -7.759  44.019 -24.696  1.00  0.00    -0.394 OA
HETATM   39  H34 UNL     1      -8.126  43.402 -25.351  1.00  0.00     0.210 HD
ENDBRANCH  12  38
TORSDOF 10
ENDMDL
MODEL 8
REMARK minimizedAffinity -9.08460999
REMARK  10 active torsions:
REMARK  status: ('A' for Active; 'I' for Inactive)
REMARK    1  A    between atoms: C2_2  and  C3_3 
REMARK    2  A    between atoms: C2_2  and  C9_11 
REMARK    3  A    between atoms: C3_3  and  C4_4 
REMARK    4  A    between atoms: C4_4  and  C5_5 
REMARK    5  A    between atoms: C5_5  and  O1_6 
REMARK    6  A    between atoms: C5_5  and  C6_7 
REMARK    7  A    between atoms: C6_7  and  O2_10 
REMARK    8  A    between atoms: C12_14  and  C13_15 
REMARK    9  A    between atoms: C13_15  and  O4_17 
REMARK   10  A    between atoms: C21_25  and  O5_26 
ROOT
HETATM    1  C9  UNL     1      -9.074  46.745 -30.107  1.00  0.00    -0.001 C 
HETATM    2  C10 UNL     1      -9.949  45.850 -29.192  1.00  0.00     0.007 C 
HETATM    3  C11 UNL     1      -9.238  45.798 -27.814  1.00  0.00     0.022 C 
HETATM    4  C12 UNL     1      -8.218  46.957 -27.867  1.00  0.00     0.057 C 
HETATM    5  C14 UNL     1      -7.014  46.919 -26.882  1.00  0.00     0.010 C 
HETATM    6  C15 UNL     1      -7.402  46.870 -25.393  1.00  0.00     0.010 C 
HETATM    7  C16 UNL     1      -7.335  48.196 -24.635  1.00  0.00     0.036 C 
HETATM    8  C17 UNL     1      -5.947  48.605 -24.156  1.00  0.00    -0.067 C 
HETATM    9  C18 UNL     1      -4.827  48.452 -24.908  1.00  0.00    -0.076 C 
HETATM   10  C19 UNL     1      -3.444  48.790 -24.378  1.00  0.00     0.037 C 
HETATM   11  C20 UNL     1      -3.357  48.989 -22.873  1.00  0.00     0.037 C 
HETATM   12  C21 UNL     1      -4.511  49.846 -22.382  1.00  0.00     0.130 C 
HETATM   13  C22 UNL     1      -5.895  49.199 -22.719  1.00  0.00     0.002 C 
HETATM   14  C23 UNL     1      -6.986  50.277 -22.517  1.00  0.00     0.022 C 
HETATM   15  C24 UNL     1      -6.145  48.054 -21.708  1.00  0.00     0.022 C 
HETATM   16  C25 UNL     1      -4.747  47.989 -26.356  1.00  0.00     0.039 C 
HETATM   17  C26 UNL     1      -6.009  48.053 -27.234  1.00  0.00    -0.005 C 
HETATM   18  C27 UNL     1      -5.592  48.031 -28.730  1.00  0.00     0.006 C 
HETATM   19  C28 UNL     1      -6.758  47.936 -29.729  1.00  0.00     0.011 C 
HETATM   20  C29 UNL     1      -7.710  46.788 -29.361  1.00  0.00    -0.022 C 
HETATM   21  C30 UNL     1      -6.920  45.460 -29.588  1.00  0.00     0.017 C 
ENDROOT
BRANCH   1  22
HETATM   22  C2  UNL     1      -9.179  46.558 -31.647  1.00  0.00    -0.014 C 
HETATM   23  C1  UNL     1      -8.677  45.154 -32.033  1.00  0.00     0.010 C 
BRANCH  22  24
HETATM   24  C3  UNL     1      -8.615  47.602 -32.634  1.00  0.00     0.007 C 
BRANCH  24  25
HETATM   25  C4  UNL     1      -7.171  48.050 -32.432  1.00  0.00     0.035 C 
BRANCH  25  26
HETATM   26  C5  UNL     1      -6.136  47.352 -33.329  1.00  0.00     0.151 C 
BRANCH  26  27
HETATM   27  O1  UNL     1      -6.279  47.937 -34.640  1.00  0.00    -0.393 OA
HETATM   28  H10 UNL     1      -5.454  48.426 -34.830  1.00  0.00     0.210 HD
ENDBRANCH  26  27
BRANCH  26  29
HETATM   29  C6  UNL     1      -4.633  47.406 -32.915  1.00  0.00     0.076 C 
HETATM   30  C7  UNL     1      -3.695  47.552 -34.115  1.00  0.00     0.048 C 
HETATM   31  C8  UNL     1      -4.201  46.237 -32.028  1.00  0.00     0.048 C 
BRANCH  29  32
HETATM   32  O2  UNL     1      -4.452  48.595 -32.113  1.00  0.00    -0.388 OA
HETATM   33  H17 UNL     1      -4.971  49.309 -32.530  1.00  0.00     0.210 HD
ENDBRANCH  29  32
ENDBRANCH  26  29
ENDBRANCH  25  26
ENDBRANCH  24  25
ENDBRANCH  22  24
ENDBRANCH   1  22
BRANCH   4  34
HETATM   34  C13 UNL     1      -9.000  48.278 -27.604  1.00  0.00     0.149 C 
HETATM   35  O3  UNL     1      -9.869  48.482 -26.775  1.00  0.00    -0.649 OA
BRANCH  34  36
HETATM   36  O4  UNL     1      -8.675  49.282 -28.445  1.00  0.00    -0.776 OA
HETATM   37  H23 UNL     1      -9.260  50.017 -28.161  1.00  0.00     0.167 HD
ENDBRANCH  34  36
ENDBRANCH   4  34
BRANCH  12  38
HETATM   38  O5  UNL     1      -4.396  51.157 -22.944  1.00  0.00    -0.394 OA
HETATM   39  H34 UNL     1      -3.530  51.513 -22.686  1.00  0.00     0.210 HD
ENDBRANCH  12  38
TORSDOF 10
ENDMDL
MODEL 9
REMARK minimizedAffinity -9.04602528
REMARK  10 active torsions:
REMARK  status: ('A' for Active; 'I' for Inactive)
REMARK    1  A    between atoms: C2_2  and  C3_3 
REMARK    2  A    between atoms: C2_2  and  C9_11 
REMARK    3  A    between atoms: C3_3  and  C4_4 
REMARK    4  A    between atoms: C4_4  and  C5_5 
REMARK    5  A    between atoms: C5_5  and  O1_6 
REMARK    6  A    between atoms: C5_5  and  C6_7 
REMARK    7  A    between atoms: C6_7  and  O2_10 
REMARK    8  A    between atoms: C12_14  and  C13_15 
REMARK    9  A    between atoms: C13_15  and  O4_17 
REMARK   10  A    between atoms: C21_25  and  O5_26 
ROOT
HETATM    1  C9  UNL     1      -2.494  49.323 -18.433  1.00  0.00    -0.001 C 
HETATM    2  C10 UNL     1      -3.998  49.492 -18.770  1.00  0.00     0.007 C 
HETATM    3  C11 UNL     1      -4.066  50.311 -20.086  1.00  0.00     0.022 C 
HETATM    4  C12 UNL     1      -2.631  50.242 -20.655  1.00  0.00     0.057 C 
HETATM    5  C14 UNL     1      -2.199  51.322 -21.688  1.00  0.00     0.010 C 
HETATM    6  C15 UNL     1      -3.068  51.383 -22.957  1.00  0.00     0.010 C 
HETATM    7  C16 UNL     1      -2.502  50.689 -24.196  1.00  0.00     0.036 C 
HETATM    8  C17 UNL     1      -1.475  51.494 -24.983  1.00  0.00    -0.067 C 
HETATM    9  C18 UNL     1      -0.505  52.239 -24.394  1.00  0.00    -0.076 C 
HETATM   10  C19 UNL     1       0.456  53.099 -25.197  1.00  0.00     0.037 C 
HETATM   11  C20 UNL     1       0.060  53.333 -26.646  1.00  0.00     0.037 C 
HETATM   12  C21 UNL     1      -0.403  52.035 -27.287  1.00  0.00     0.130 C 
HETATM   13  C22 UNL     1      -1.626  51.422 -26.530  1.00  0.00     0.002 C 
HETATM   14  C23 UNL     1      -1.800  49.962 -27.010  1.00  0.00     0.022 C 
HETATM   15  C24 UNL     1      -2.888  52.224 -26.935  1.00  0.00     0.022 C 
HETATM   16  C25 UNL     1      -0.178  52.314 -22.908  1.00  0.00     0.039 C 
HETATM   17  C26 UNL     1      -0.675  51.197 -21.974  1.00  0.00    -0.005 C 
HETATM   18  C27 UNL     1       0.174  51.204 -20.674  1.00  0.00     0.006 C 
HETATM   19  C28 UNL     1      -0.308  50.238 -19.577  1.00  0.00     0.011 C 
HETATM   20  C29 UNL     1      -1.809  50.413 -19.307  1.00  0.00    -0.022 C 
HETATM   21  C30 UNL     1      -1.989  51.824 -18.661  1.00  0.00     0.017 C 
ENDROOT
BRANCH   1  22
HETATM   22  C2  UNL     1      -2.091  49.062 -16.955  1.00  0.00    -0.014 C 
HETATM   23  C1  UNL     1      -2.744  50.119 -16.046  1.00  0.00     0.010 C 
BRANCH  22  24
HETATM   24  C3  UNL     1      -0.619  48.855 -16.537  1.00  0.00     0.007 C 
BRANCH  24  25
HETATM   25  C4  UNL     1       0.287  50.081 -16.526  1.00  0.00     0.035 C 
BRANCH  25  26
HETATM   26  C5  UNL     1       0.728  50.558 -15.133  1.00  0.00     0.151 C 
BRANCH  26  27
HETATM   27  O1  UNL     1       1.468  49.466 -14.548  1.00  0.00    -0.393 OA
HETATM   28  H10 UNL     1       2.395  49.763 -14.452  1.00  0.00     0.210 HD
ENDBRANCH  26  27
BRANCH  26  29
HETATM   29  C6  UNL     1       1.583  51.858 -15.024  1.00  0.00     0.076 C 
HETATM   30  C7  UNL     1       1.872  52.491 -16.387  1.00  0.00     0.048 C 
HETATM   31  C8  UNL     1       2.875  51.677 -14.226  1.00  0.00     0.048 C 
BRANCH  29  32
HETATM   32  O2  UNL     1       0.800  52.825 -14.287  1.00  0.00    -0.388 OA
HETATM   33  H17 UNL     1      -0.121  52.753 -14.602  1.00  0.00     0.210 HD
ENDBRANCH  29  32
ENDBRANCH  26  29
ENDBRANCH  25  26
ENDBRANCH  24  25
ENDBRANCH  22  24
ENDBRANCH   1  22
BRANCH   4  34
HETATM   34  C13 UNL     1      -2.465  48.849 -21.331  1.00  0.00     0.149 C 
HETATM   35  O3  UNL     1      -1.440  48.208 -21.484  1.00  0.00    -0.649 OA
BRANCH  34  36
HETATM   36  O4  UNL     1      -3.611  48.345 -21.832  1.00  0.00    -0.776 OA
HETATM   37  H23 UNL     1      -3.332  47.493 -22.232  1.00  0.00     0.167 HD
ENDBRANCH  34  36
ENDBRANCH   4  34
BRANCH  12  38
HETATM   38  O5  UNL     1       0.694  51.118 -27.337  1.00  0.00    -0.394 OA
HETATM   39  H34 UNL     1       1.412  51.544 -27.833  1.00  0.00     0.210 HD
ENDBRANCH  12  38
TORSDOF 10
ENDMDL
