MODEL 1
REMARK minimizedAffinity -8.38639069
REMARK  12 active torsions:
REMARK  status: ('A' for Active; 'I' for Inactive)
REMARK    1  A    between atoms: C2_2  and  C3_3 
REMARK    2  A    between atoms: C2_2  and  C22_26 
REMARK    3  A    between atoms: C3_3  and  C4_4 
REMARK    4  A    between atoms: C4_4  and  C5_5 
REMARK    5  A    between atoms: C4_4  and  N1_18 
REMARK    6  A    between atoms: C5_5  and  C6_6 
REMARK    7  A    between atoms: C9_9  and  C10_10 
REMARK       I    between atoms: N1_18  and  C18_19 
REMARK    8  A    between atoms: C18_19  and  C19_21 
REMARK    9  A    between atoms: C19_21  and  C20_22 
REMARK   10  A    between atoms: C20_22  and  C21_23 
REMARK   11  A    between atoms: C21_23  and  O3_25 
REMARK   12  A    between atoms: C22_26  and  O5_28 
ROOT
HETATM    1  C4  UNL     1       0.705   6.073  11.437  1.00  0.00     0.089 C 
ENDROOT
BRANCH   1   2
HETATM    2  C3  UNL     1      -0.403   7.144  11.535  1.00  0.00     0.040 C 
BRANCH   2   3
HETATM    3  C2  UNL     1      -0.265   8.167  12.670  1.00  0.00     0.081 C 
HETATM    4  C1  UNL     1       1.111   8.823  12.743  1.00  0.00     0.021 C 
BRANCH   3   5
HETATM    5  C22 UNL     1      -1.336   9.224  12.516  1.00  0.00     0.143 C 
HETATM    6  O4  UNL     1      -2.325   9.142  11.805  1.00  0.00    -0.650 OA
BRANCH   5   7
HETATM    7  O5  UNL     1      -1.104  10.340  13.232  1.00  0.00    -0.776 OA
HETATM    8  H25 UNL     1      -1.862  10.921  13.008  1.00  0.00     0.167 HD
ENDBRANCH   5   7
ENDBRANCH   3   5
ENDBRANCH   2   3
ENDBRANCH   1   2
BRANCH   1   9
HETATM    9  C5  UNL     1       0.235   4.638  11.784  1.00  0.00     0.063 C 
BRANCH   9  10
HETATM   10  C6  UNL     1      -1.252   4.485  12.010  1.00  0.00    -0.056 A 
HETATM   11  C7  UNL     1      -2.082   3.978  11.004  1.00  0.00     0.008 A 
HETATM   12  C8  UNL     1      -3.459   3.845  11.218  1.00  0.00     0.013 A 
HETATM   13  C9  UNL     1      -4.045   4.225  12.434  1.00  0.00    -0.026 A 
HETATM   14  C16 UNL     1      -3.207   4.751  13.429  1.00  0.00     0.013 A 
HETATM   15  C17 UNL     1      -1.831   4.887  13.220  1.00  0.00     0.008 A 
BRANCH  13  16
HETATM   16  C10 UNL     1      -5.493   4.082  12.658  1.00  0.00    -0.026 A 
HETATM   17  C11 UNL     1      -6.250   5.135  13.198  1.00  0.00     0.012 A 
HETATM   18  C12 UNL     1      -7.625   5.000  13.410  1.00  0.00     0.001 A 
HETATM   19  C13 UNL     1      -8.266   3.808  13.085  1.00  0.00     0.000 A 
HETATM   20  C14 UNL     1      -7.535   2.751  12.549  1.00  0.00     0.001 A 
HETATM   21  C15 UNL     1      -6.161   2.888  12.337  1.00  0.00     0.012 A 
ENDBRANCH  13  16
ENDBRANCH   9  10
ENDBRANCH   1   9
BRANCH   1  22
HETATM   22  N1  UNL     1       1.317   6.117  10.100  1.00  0.00    -0.356 N 
HETATM   23  C18 UNL     1       2.668   5.976   9.867  1.00  0.00     0.218 C 
HETATM   24  O1  UNL     1       3.502   5.849  10.755  1.00  0.00    -0.274 OA
HETATM   25  H19 UNL     1       0.693   6.135   9.301  1.00  0.00     0.162 HD
BRANCH  23  26
HETATM   26  C19 UNL     1       3.014   5.998   8.396  1.00  0.00     0.113 C 
BRANCH  26  27
HETATM   27  C20 UNL     1       2.021   6.827   7.595  1.00  0.00     0.119 C 
BRANCH  27  28
HETATM   28  C21 UNL     1       2.198   8.290   7.878  1.00  0.00     0.139 C 
HETATM   29  O2  UNL     1       3.154   8.986   7.581  1.00  0.00    -0.650 OA
BRANCH  28  30
HETATM   30  O3  UNL     1       1.144   8.813   8.533  1.00  0.00    -0.776 OA
HETATM   31  H24 UNL     1       1.376   9.756   8.658  1.00  0.00     0.167 HD
ENDBRANCH  28  30
ENDBRANCH  27  28
ENDBRANCH  26  27
ENDBRANCH  23  26
ENDBRANCH   1  22
TORSDOF 12
ENDMDL
MODEL 2
REMARK minimizedAffinity -8.27579594
REMARK  12 active torsions:
REMARK  status: ('A' for Active; 'I' for Inactive)
REMARK    1  A    between atoms: C2_2  and  C3_3 
REMARK    2  A    between atoms: C2_2  and  C22_26 
REMARK    3  A    between atoms: C3_3  and  C4_4 
REMARK    4  A    between atoms: C4_4  and  C5_5 
REMARK    5  A    between atoms: C4_4  and  N1_18 
REMARK    6  A    between atoms: C5_5  and  C6_6 
REMARK    7  A    between atoms: C9_9  and  C10_10 
REMARK       I    between atoms: N1_18  and  C18_19 
REMARK    8  A    between atoms: C18_19  and  C19_21 
REMARK    9  A    between atoms: C19_21  and  C20_22 
REMARK   10  A    between atoms: C20_22  and  C21_23 
REMARK   11  A    between atoms: C21_23  and  O3_25 
REMARK   12  A    between atoms: C22_26  and  O5_28 
ROOT
HETATM    1  C4  UNL     1      -0.797   5.565  11.670  1.00  0.00     0.089 C 
ENDROOT
BRANCH   1   2
HETATM    2  C3  UNL     1      -0.490   4.052  11.654  1.00  0.00     0.040 C 
BRANCH   2   3
HETATM    3  C2  UNL     1      -1.685   3.115  11.423  1.00  0.00     0.081 C 
HETATM    4  C1  UNL     1      -2.666   3.620  10.369  1.00  0.00     0.021 C 
BRANCH   3   5
HETATM    5  C22 UNL     1      -1.172   1.745  11.042  1.00  0.00     0.143 C 
HETATM    6  O4  UNL     1      -0.008   1.453  10.819  1.00  0.00    -0.650 OA
BRANCH   5   7
HETATM    7  O5  UNL     1      -2.140   0.816  10.929  1.00  0.00    -0.776 OA
HETATM    8  H25 UNL     1      -1.655   0.007  10.660  1.00  0.00     0.167 HD
ENDBRANCH   5   7
ENDBRANCH   3   5
ENDBRANCH   2   3
ENDBRANCH   1   2
BRANCH   1   9
HETATM    9  C5  UNL     1      -1.245   6.108  13.051  1.00  0.00     0.063 C 
BRANCH   9  10
HETATM   10  C6  UNL     1      -2.740   6.250  13.231  1.00  0.00    -0.056 A 
HETATM   11  C7  UNL     1      -3.369   7.488  13.055  1.00  0.00     0.008 A 
HETATM   12  C8  UNL     1      -4.752   7.614  13.229  1.00  0.00     0.013 A 
HETATM   13  C9  UNL     1      -5.540   6.513  13.595  1.00  0.00    -0.026 A 
HETATM   14  C16 UNL     1      -4.897   5.282  13.789  1.00  0.00     0.013 A 
HETATM   15  C17 UNL     1      -3.516   5.151  13.617  1.00  0.00     0.008 A 
BRANCH  13  16
HETATM   16  C10 UNL     1      -6.996   6.647  13.775  1.00  0.00    -0.026 A 
HETATM   17  C11 UNL     1      -7.894   5.930  12.969  1.00  0.00     0.012 A 
HETATM   18  C12 UNL     1      -9.276   6.056  13.140  1.00  0.00     0.001 A 
HETATM   19  C13 UNL     1      -9.782   6.903  14.122  1.00  0.00     0.000 A 
HETATM   20  C14 UNL     1      -8.909   7.624  14.933  1.00  0.00     0.001 A 
HETATM   21  C15 UNL     1      -7.528   7.496  14.760  1.00  0.00     0.012 A 
ENDBRANCH  13  16
ENDBRANCH   9  10
ENDBRANCH   1   9
BRANCH   1  22
HETATM   22  N1  UNL     1       0.368   6.310  11.166  1.00  0.00    -0.356 N 
HETATM   23  C18 UNL     1       1.483   5.713  10.618  1.00  0.00     0.218 C 
HETATM   24  O1  UNL     1       1.639   4.500  10.542  1.00  0.00    -0.274 OA
HETATM   25  H19 UNL     1       0.290   7.319  11.114  1.00  0.00     0.162 HD
BRANCH  23  26
HETATM   26  C19 UNL     1       2.500   6.716  10.124  1.00  0.00     0.113 C 
BRANCH  26  27
HETATM   27  C20 UNL     1       2.623   6.694   8.607  1.00  0.00     0.119 C 
BRANCH  27  28
HETATM   28  C21 UNL     1       2.238   8.020   8.022  1.00  0.00     0.139 C 
HETATM   29  O2  UNL     1       2.981   8.847   7.521  1.00  0.00    -0.650 OA
BRANCH  28  30
HETATM   30  O3  UNL     1       0.912   8.244   8.100  1.00  0.00    -0.776 OA
HETATM   31  H24 UNL     1       0.788   9.127   7.693  1.00  0.00     0.167 HD
ENDBRANCH  28  30
ENDBRANCH  27  28
ENDBRANCH  26  27
ENDBRANCH  23  26
ENDBRANCH   1  22
TORSDOF 12
ENDMDL
MODEL 3
REMARK minimizedAffinity -8.25567818
REMARK  12 active torsions:
REMARK  status: ('A' for Active; 'I' for Inactive)
REMARK    1  A    between atoms: C2_2  and  C3_3 
REMARK    2  A    between atoms: C2_2  and  C22_26 
REMARK    3  A    between atoms: C3_3  and  C4_4 
REMARK    4  A    between atoms: C4_4  and  C5_5 
REMARK    5  A    between atoms: C4_4  and  N1_18 
REMARK    6  A    between atoms: C5_5  and  C6_6 
REMARK    7  A    between atoms: C9_9  and  C10_10 
REMARK       I    between atoms: N1_18  and  C18_19 
REMARK    8  A    between atoms: C18_19  and  C19_21 
REMARK    9  A    between atoms: C19_21  and  C20_22 
REMARK   10  A    between atoms: C20_22  and  C21_23 
REMARK   11  A    between atoms: C21_23  and  O3_25 
REMARK   12  A    between atoms: C22_26  and  O5_28 
ROOT
HETATM    1  C4  UNL     1       0.536   7.013  10.897  1.00  0.00     0.089 C 
ENDROOT
BRANCH   1   2
HETATM    2  C3  UNL     1       1.748   7.362  10.006  1.00  0.00     0.040 C 
BRANCH   2   3
HETATM    3  C2  UNL     1       1.860   6.602   8.677  1.00  0.00     0.081 C 
HETATM    4  C1  UNL     1       1.840   7.506   7.448  1.00  0.00     0.021 C 
BRANCH   3   5
HETATM    5  C22 UNL     1       3.123   5.770   8.689  1.00  0.00     0.143 C 
HETATM    6  O4  UNL     1       3.346   4.797   7.988  1.00  0.00    -0.650 OA
BRANCH   5   7
HETATM    7  O5  UNL     1       4.031   6.176   9.596  1.00  0.00    -0.776 OA
HETATM    8  H25 UNL     1       4.765   5.534   9.495  1.00  0.00     0.167 HD
ENDBRANCH   5   7
ENDBRANCH   3   5
ENDBRANCH   2   3
ENDBRANCH   1   2
BRANCH   1   9
HETATM    9  C5  UNL     1       0.316   5.493  11.104  1.00  0.00     0.063 C 
BRANCH   9  10
HETATM   10  C6  UNL     1      -1.094   5.092  11.474  1.00  0.00    -0.056 A 
HETATM   11  C7  UNL     1      -1.751   4.064  10.788  1.00  0.00     0.008 A 
HETATM   12  C8  UNL     1      -3.058   3.702  11.133  1.00  0.00     0.013 A 
HETATM   13  C9  UNL     1      -3.748   4.362  12.160  1.00  0.00    -0.026 A 
HETATM   14  C16 UNL     1      -3.088   5.405  12.827  1.00  0.00     0.013 A 
HETATM   15  C17 UNL     1      -1.783   5.771  12.486  1.00  0.00     0.008 A 
BRANCH  13  16
HETATM   16  C10 UNL     1      -5.123   3.978  12.522  1.00  0.00    -0.026 A 
HETATM   17  C11 UNL     1      -5.882   4.757  13.409  1.00  0.00     0.012 A 
HETATM   18  C12 UNL     1      -7.188   4.394  13.753  1.00  0.00     0.001 A 
HETATM   19  C13 UNL     1      -7.755   3.243  13.213  1.00  0.00     0.000 A 
HETATM   20  C14 UNL     1      -7.020   2.455  12.331  1.00  0.00     0.001 A 
HETATM   21  C15 UNL     1      -5.715   2.821  11.988  1.00  0.00     0.012 A 
ENDBRANCH  13  16
ENDBRANCH   9  10
ENDBRANCH   1   9
BRANCH   1  22
HETATM   22  N1  UNL     1       0.658   7.706  12.189  1.00  0.00    -0.356 N 
HETATM   23  C18 UNL     1       1.699   8.548  12.514  1.00  0.00     0.218 C 
HETATM   24  O1  UNL     1       2.654   8.766  11.779  1.00  0.00    -0.274 OA
HETATM   25  H19 UNL     1      -0.129   7.649  12.826  1.00  0.00     0.162 HD
BRANCH  23  26
HETATM   26  C19 UNL     1       1.540   9.175  13.881  1.00  0.00     0.113 C 
BRANCH  26  27
HETATM   27  C20 UNL     1       1.024   8.173  14.904  1.00  0.00     0.119 C 
BRANCH  27  28
HETATM   28  C21 UNL     1       2.083   7.854  15.918  1.00  0.00     0.139 C 
HETATM   29  O2  UNL     1       2.335   8.474  16.938  1.00  0.00    -0.650 OA
BRANCH  28  30
HETATM   30  O3  UNL     1       2.784   6.752  15.592  1.00  0.00    -0.776 OA
HETATM   31  H24 UNL     1       3.434   6.650  16.318  1.00  0.00     0.167 HD
ENDBRANCH  28  30
ENDBRANCH  27  28
ENDBRANCH  26  27
ENDBRANCH  23  26
ENDBRANCH   1  22
TORSDOF 12
ENDMDL
MODEL 4
REMARK minimizedAffinity -8.19515228
REMARK  12 active torsions:
REMARK  status: ('A' for Active; 'I' for Inactive)
REMARK    1  A    between atoms: C2_2  and  C3_3 
REMARK    2  A    between atoms: C2_2  and  C22_26 
REMARK    3  A    between atoms: C3_3  and  C4_4 
REMARK    4  A    between atoms: C4_4  and  C5_5 
REMARK    5  A    between atoms: C4_4  and  N1_18 
REMARK    6  A    between atoms: C5_5  and  C6_6 
REMARK    7  A    between atoms: C9_9  and  C10_10 
REMARK       I    between atoms: N1_18  and  C18_19 
REMARK    8  A    between atoms: C18_19  and  C19_21 
REMARK    9  A    between atoms: C19_21  and  C20_22 
REMARK   10  A    between atoms: C20_22  and  C21_23 
REMARK   11  A    between atoms: C21_23  and  O3_25 
REMARK   12  A    between atoms: C22_26  and  O5_28 
ROOT
HETATM    1  C4  UNL     1       1.180   6.430  11.043  1.00  0.00     0.089 C 
ENDROOT
BRANCH   1   2
HETATM    2  C3  UNL     1       1.122   6.743   9.532  1.00  0.00     0.040 C 
BRANCH   2   3
HETATM    3  C2  UNL     1       2.469   6.835   8.802  1.00  0.00     0.081 C 
HETATM    4  C1  UNL     1       3.097   5.477   8.499  1.00  0.00     0.021 C 
BRANCH   3   5
HETATM    5  C22 UNL     1       2.285   7.619   7.522  1.00  0.00     0.143 C 
HETATM    6  O4  UNL     1       1.686   7.238   6.529  1.00  0.00    -0.650 OA
BRANCH   5   7
HETATM    7  O5  UNL     1       2.881   8.825   7.534  1.00  0.00    -0.776 OA
HETATM    8  H25 UNL     1       2.691   9.188   6.644  1.00  0.00     0.167 HD
ENDBRANCH   5   7
ENDBRANCH   3   5
ENDBRANCH   2   3
ENDBRANCH   1   2
BRANCH   1   9
HETATM    9  C5  UNL     1       0.764   4.983  11.409  1.00  0.00     0.063 C 
BRANCH   9  10
HETATM   10  C6  UNL     1      -0.702   4.798  11.731  1.00  0.00    -0.056 A 
HETATM   11  C7  UNL     1      -1.419   5.791  12.408  1.00  0.00     0.008 A 
HETATM   12  C8  UNL     1      -2.774   5.611  12.707  1.00  0.00     0.013 A 
HETATM   13  C9  UNL     1      -3.446   4.433  12.351  1.00  0.00    -0.026 A 
HETATM   14  C16 UNL     1      -2.714   3.435  11.691  1.00  0.00     0.013 A 
HETATM   15  C17 UNL     1      -1.359   3.610  11.390  1.00  0.00     0.008 A 
BRANCH  13  16
HETATM   16  C10 UNL     1      -4.873   4.247  12.665  1.00  0.00    -0.026 A 
HETATM   17  C11 UNL     1      -5.588   3.150  12.157  1.00  0.00     0.012 A 
HETATM   18  C12 UNL     1      -6.943   2.971  12.455  1.00  0.00     0.001 A 
HETATM   19  C13 UNL     1      -7.603   3.889  13.267  1.00  0.00     0.000 A 
HETATM   20  C14 UNL     1      -6.913   4.984  13.782  1.00  0.00     0.001 A 
HETATM   21  C15 UNL     1      -5.559   5.159  13.483  1.00  0.00     0.012 A 
ENDBRANCH  13  16
ENDBRANCH   9  10
ENDBRANCH   1   9
BRANCH   1  22
HETATM   22  N1  UNL     1       2.524   6.736  11.559  1.00  0.00    -0.356 N 
HETATM   23  C18 UNL     1       2.895   7.968  12.054  1.00  0.00     0.218 C 
HETATM   24  O1  UNL     1       2.158   8.946  12.070  1.00  0.00    -0.274 OA
HETATM   25  H19 UNL     1       3.173   5.964  11.660  1.00  0.00     0.162 HD
BRANCH  23  26
HETATM   26  C19 UNL     1       4.314   7.986  12.575  1.00  0.00     0.113 C 
BRANCH  26  27
HETATM   27  C20 UNL     1       5.318   8.263  11.465  1.00  0.00     0.119 C 
BRANCH  27  28
HETATM   28  C21 UNL     1       6.081   7.020  11.114  1.00  0.00     0.139 C 
HETATM   29  O2  UNL     1       7.105   6.946  10.457  1.00  0.00    -0.650 OA
BRANCH  28  30
HETATM   30  O3  UNL     1       5.504   5.911  11.616  1.00  0.00    -0.776 OA
HETATM   31  H24 UNL     1       6.085   5.178  11.323  1.00  0.00     0.167 HD
ENDBRANCH  28  30
ENDBRANCH  27  28
ENDBRANCH  26  27
ENDBRANCH  23  26
ENDBRANCH   1  22
TORSDOF 12
ENDMDL
MODEL 5
REMARK minimizedAffinity -8.17063904
REMARK  12 active torsions:
REMARK  status: ('A' for Active; 'I' for Inactive)
REMARK    1  A    between atoms: C2_2  and  C3_3 
REMARK    2  A    between atoms: C2_2  and  C22_26 
REMARK    3  A    between atoms: C3_3  and  C4_4 
REMARK    4  A    between atoms: C4_4  and  C5_5 
REMARK    5  A    between atoms: C4_4  and  N1_18 
REMARK    6  A    between atoms: C5_5  and  C6_6 
REMARK    7  A    between atoms: C9_9  and  C10_10 
REMARK       I    between atoms: N1_18  and  C18_19 
REMARK    8  A    between atoms: C18_19  and  C19_21 
REMARK    9  A    between atoms: C19_21  and  C20_22 
REMARK   10  A    between atoms: C20_22  and  C21_23 
REMARK   11  A    between atoms: C21_23  and  O3_25 
REMARK   12  A    between atoms: C22_26  and  O5_28 
ROOT
HETATM    1  C4  UNL     1       0.652   6.586  10.903  1.00  0.00     0.089 C 
ENDROOT
BRANCH   1   2
HETATM    2  C3  UNL     1       0.885   7.003   9.434  1.00  0.00     0.040 C 
BRANCH   2   3
HETATM    3  C2  UNL     1       2.347   7.103   8.977  1.00  0.00     0.081 C 
HETATM    4  C1  UNL     1       3.058   5.754   8.892  1.00  0.00     0.021 C 
BRANCH   3   5
HETATM    5  C22 UNL     1       2.399   7.803   7.639  1.00  0.00     0.143 C 
HETATM    6  O4  UNL     1       1.866   7.421   6.610  1.00  0.00    -0.650 OA
BRANCH   5   7
HETATM    7  O5  UNL     1       3.139   8.928   7.643  1.00  0.00    -0.776 OA
HETATM    8  H25 UNL     1       3.091   9.242   6.715  1.00  0.00     0.167 HD
ENDBRANCH   5   7
ENDBRANCH   3   5
ENDBRANCH   2   3
ENDBRANCH   1   2
BRANCH   1   9
HETATM    9  C5  UNL     1       0.287   5.091  11.089  1.00  0.00     0.063 C 
BRANCH   9  10
HETATM   10  C6  UNL     1      -1.152   4.824  11.469  1.00  0.00    -0.056 A 
HETATM   11  C7  UNL     1      -1.924   3.901  10.755  1.00  0.00     0.008 A 
HETATM   12  C8  UNL     1      -3.256   3.662  11.109  1.00  0.00     0.013 A 
HETATM   13  C9  UNL     1      -3.858   4.345  12.175  1.00  0.00    -0.026 A 
HETATM   14  C16 UNL     1      -3.083   5.284  12.872  1.00  0.00     0.013 A 
HETATM   15  C17 UNL     1      -1.751   5.527  12.522  1.00  0.00     0.008 A 
BRANCH  13  16
HETATM   16  C10 UNL     1      -5.260   4.091  12.547  1.00  0.00    -0.026 A 
HETATM   17  C11 UNL     1      -5.890   2.882  12.209  1.00  0.00     0.012 A 
HETATM   18  C12 UNL     1      -7.221   2.639  12.563  1.00  0.00     0.001 A 
HETATM   19  C13 UNL     1      -7.943   3.603  13.261  1.00  0.00     0.000 A 
HETATM   20  C14 UNL     1      -7.338   4.809  13.606  1.00  0.00     0.001 A 
HETATM   21  C15 UNL     1      -6.007   5.049  13.252  1.00  0.00     0.012 A 
ENDBRANCH  13  16
ENDBRANCH   9  10
ENDBRANCH   1   9
BRANCH   1  22
HETATM   22  N1  UNL     1       1.829   6.943  11.710  1.00  0.00    -0.356 N 
HETATM   23  C18 UNL     1       1.801   7.846  12.751  1.00  0.00     0.218 C 
HETATM   24  O1  UNL     1       0.805   8.479  13.078  1.00  0.00    -0.274 OA
HETATM   25  H19 UNL     1       2.676   6.406  11.563  1.00  0.00     0.162 HD
BRANCH  23  26
HETATM   26  C19 UNL     1       3.136   7.976  13.448  1.00  0.00     0.113 C 
BRANCH  26  27
HETATM   27  C20 UNL     1       3.019   8.753  14.752  1.00  0.00     0.119 C 
BRANCH  27  28
HETATM   28  C21 UNL     1       2.724   7.830  15.897  1.00  0.00     0.139 C 
HETATM   29  O2  UNL     1       2.153   8.108  16.938  1.00  0.00    -0.650 OA
BRANCH  28  30
HETATM   30  O3  UNL     1       3.170   6.580  15.670  1.00  0.00    -0.776 OA
HETATM   31  H24 UNL     1       2.923   6.081  16.476  1.00  0.00     0.167 HD
ENDBRANCH  28  30
ENDBRANCH  27  28
ENDBRANCH  26  27
ENDBRANCH  23  26
ENDBRANCH   1  22
TORSDOF 12
ENDMDL
MODEL 6
REMARK minimizedAffinity -8.15516186
REMARK  12 active torsions:
REMARK  status: ('A' for Active; 'I' for Inactive)
REMARK    1  A    between atoms: C2_2  and  C3_3 
REMARK    2  A    between atoms: C2_2  and  C22_26 
REMARK    3  A    between atoms: C3_3  and  C4_4 
REMARK    4  A    between atoms: C4_4  and  C5_5 
REMARK    5  A    between atoms: C4_4  and  N1_18 
REMARK    6  A    between atoms: C5_5  and  C6_6 
REMARK    7  A    between atoms: C9_9  and  C10_10 
REMARK       I    between atoms: N1_18  and  C18_19 
REMARK    8  A    between atoms: C18_19  and  C19_21 
REMARK    9  A    between atoms: C19_21  and  C20_22 
REMARK   10  A    between atoms: C20_22  and  C21_23 
REMARK   11  A    between atoms: C21_23  and  O3_25 
REMARK   12  A    between atoms: C22_26  and  O5_28 
ROOT
HETATM    1  C4  UNL     1       0.706   6.449  12.565  1.00  0.00     0.089 C 
ENDROOT
BRANCH   1   2
HETATM    2  C3  UNL     1       1.380   6.633  13.942  1.00  0.00     0.040 C 
BRANCH   2   3
HETATM    3  C2  UNL     1       2.269   7.874  14.106  1.00  0.00     0.081 C 
HETATM    4  C1  UNL     1       1.509   9.193  13.994  1.00  0.00     0.021 C 
BRANCH   3   5
HETATM    5  C22 UNL     1       2.982   7.797  15.437  1.00  0.00     0.143 C 
HETATM    6  O4  UNL     1       4.066   8.295  15.698  1.00  0.00    -0.650 OA
BRANCH   5   7
HETATM    7  O5  UNL     1       2.323   7.079  16.366  1.00  0.00    -0.776 OA
HETATM    8  H25 UNL     1       2.916   7.107  17.146  1.00  0.00     0.167 HD
ENDBRANCH   5   7
ENDBRANCH   3   5
ENDBRANCH   2   3
ENDBRANCH   1   2
BRANCH   1   9
HETATM    9  C5  UNL     1      -0.638   7.203  12.409  1.00  0.00     0.063 C 
BRANCH   9  10
HETATM   10  C6  UNL     1      -1.873   6.332  12.455  1.00  0.00    -0.056 A 
HETATM   11  C7  UNL     1      -3.070   6.812  12.998  1.00  0.00     0.008 A 
HETATM   12  C8  UNL     1      -4.208   5.998  13.043  1.00  0.00     0.013 A 
HETATM   13  C9  UNL     1      -4.179   4.682  12.559  1.00  0.00    -0.026 A 
HETATM   14  C16 UNL     1      -2.969   4.203  12.035  1.00  0.00     0.013 A 
HETATM   15  C17 UNL     1      -1.829   5.012  11.989  1.00  0.00     0.008 A 
BRANCH  13  16
HETATM   16  C10 UNL     1      -5.378   3.828  12.605  1.00  0.00    -0.026 A 
HETATM   17  C11 UNL     1      -6.452   4.135  13.456  1.00  0.00     0.012 A 
HETATM   18  C12 UNL     1      -7.592   3.326  13.500  1.00  0.00     0.001 A 
HETATM   19  C13 UNL     1      -7.674   2.195  12.692  1.00  0.00     0.000 A 
HETATM   20  C14 UNL     1      -6.619   1.872  11.842  1.00  0.00     0.001 A 
HETATM   21  C15 UNL     1      -5.482   2.683  11.799  1.00  0.00     0.012 A 
ENDBRANCH  13  16
ENDBRANCH   9  10
ENDBRANCH   1   9
BRANCH   1  22
HETATM   22  N1  UNL     1       1.648   6.829  11.500  1.00  0.00    -0.356 N 
HETATM   23  C18 UNL     1       2.160   5.945  10.576  1.00  0.00     0.218 C 
HETATM   24  O1  UNL     1       1.922   4.743  10.577  1.00  0.00    -0.274 OA
HETATM   25  H19 UNL     1       1.836   7.817  11.373  1.00  0.00     0.162 HD
BRANCH  23  26
HETATM   26  C19 UNL     1       3.055   6.615   9.557  1.00  0.00     0.113 C 
BRANCH  26  27
HETATM   27  C20 UNL     1       2.648   6.265   8.132  1.00  0.00     0.119 C 
BRANCH  27  28
HETATM   28  C21 UNL     1       2.286   7.501   7.364  1.00  0.00     0.139 C 
HETATM   29  O2  UNL     1       2.584   8.652   7.638  1.00  0.00    -0.650 OA
BRANCH  28  30
HETATM   30  O3  UNL     1       1.553   7.223   6.269  1.00  0.00    -0.776 OA
HETATM   31  H24 UNL     1       1.382   8.096   5.859  1.00  0.00     0.167 HD
ENDBRANCH  28  30
ENDBRANCH  27  28
ENDBRANCH  26  27
ENDBRANCH  23  26
ENDBRANCH   1  22
TORSDOF 12
ENDMDL
MODEL 7
REMARK minimizedAffinity -8.12221432
REMARK  12 active torsions:
REMARK  status: ('A' for Active; 'I' for Inactive)
REMARK    1  A    between atoms: C2_2  and  C3_3 
REMARK    2  A    between atoms: C2_2  and  C22_26 
REMARK    3  A    between atoms: C3_3  and  C4_4 
REMARK    4  A    between atoms: C4_4  and  C5_5 
REMARK    5  A    between atoms: C4_4  and  N1_18 
REMARK    6  A    between atoms: C5_5  and  C6_6 
REMARK    7  A    between atoms: C9_9  and  C10_10 
REMARK       I    between atoms: N1_18  and  C18_19 
REMARK    8  A    between atoms: C18_19  and  C19_21 
REMARK    9  A    between atoms: C19_21  and  C20_22 
REMARK   10  A    between atoms: C20_22  and  C21_23 
REMARK   11  A    between atoms: C21_23  and  O3_25 
REMARK   12  A    between atoms: C22_26  and  O5_28 
ROOT
HETATM    1  C4  UNL     1       0.388   7.083  10.876  1.00  0.00     0.089 C 
ENDROOT
BRANCH   1   2
HETATM    2  C3  UNL     1       1.629   7.453  10.035  1.00  0.00     0.040 C 
BRANCH   2   3
HETATM    3  C2  UNL     1       1.833   6.662   8.735  1.00  0.00     0.081 C 
HETATM    4  C1  UNL     1       1.843   7.532   7.481  1.00  0.00     0.021 C 
BRANCH   3   5
HETATM    5  C22 UNL     1       3.121   5.877   8.832  1.00  0.00     0.143 C 
HETATM    6  O4  UNL     1       4.005   6.050   9.656  1.00  0.00    -0.650 OA
BRANCH   5   7
HETATM    7  O5  UNL     1       3.256   4.935   7.880  1.00  0.00    -0.776 OA
HETATM    8  H25 UNL     1       4.134   4.540   8.065  1.00  0.00     0.167 HD
ENDBRANCH   5   7
ENDBRANCH   3   5
ENDBRANCH   2   3
ENDBRANCH   1   2
BRANCH   1   9
HETATM    9  C5  UNL     1       0.298   5.581  11.248  1.00  0.00     0.063 C 
BRANCH   9  10
HETATM   10  C6  UNL     1      -1.098   5.074  11.536  1.00  0.00    -0.056 A 
HETATM   11  C7  UNL     1      -1.685   4.094  10.728  1.00  0.00     0.008 A 
HETATM   12  C8  UNL     1      -2.979   3.632  10.996  1.00  0.00     0.013 A 
HETATM   13  C9  UNL     1      -3.724   4.144  12.068  1.00  0.00    -0.026 A 
HETATM   14  C16 UNL     1      -3.134   5.140  12.860  1.00  0.00     0.013 A 
HETATM   15  C17 UNL     1      -1.842   5.605  12.596  1.00  0.00     0.008 A 
BRANCH  13  16
HETATM   16  C10 UNL     1      -5.085   3.655  12.350  1.00  0.00    -0.026 A 
HETATM   17  C11 UNL     1      -5.564   2.471  11.766  1.00  0.00     0.012 A 
HETATM   18  C12 UNL     1      -6.855   2.006  12.033  1.00  0.00     0.001 A 
HETATM   19  C13 UNL     1      -7.688   2.719  12.891  1.00  0.00     0.000 A 
HETATM   20  C14 UNL     1      -7.233   3.895  13.482  1.00  0.00     0.001 A 
HETATM   21  C15 UNL     1      -5.942   4.357  13.213  1.00  0.00     0.012 A 
ENDBRANCH  13  16
ENDBRANCH   9  10
ENDBRANCH   1   9
BRANCH   1  22
HETATM   22  N1  UNL     1       0.340   7.926  12.081  1.00  0.00    -0.356 N 
HETATM   23  C18 UNL     1      -0.610   8.900  12.300  1.00  0.00     0.218 C 
HETATM   24  O1  UNL     1      -1.481   9.196  11.491  1.00  0.00    -0.274 OA
HETATM   25  H19 UNL     1       0.972   7.694  12.839  1.00  0.00     0.162 HD
BRANCH  23  26
HETATM   26  C19 UNL     1      -0.462   9.571  13.647  1.00  0.00     0.113 C 
BRANCH  26  27
HETATM   27  C20 UNL     1      -1.790   9.653  14.386  1.00  0.00     0.119 C 
BRANCH  27  28
HETATM   28  C21 UNL     1      -2.217  11.081  14.557  1.00  0.00     0.139 C 
HETATM   29  O2  UNL     1      -3.151  11.495  15.223  1.00  0.00    -0.650 OA
BRANCH  28  30
HETATM   30  O3  UNL     1      -1.432  11.932  13.869  1.00  0.00    -0.776 OA
HETATM   31  H24 UNL     1      -1.806  12.818  14.058  1.00  0.00     0.167 HD
ENDBRANCH  28  30
ENDBRANCH  27  28
ENDBRANCH  26  27
ENDBRANCH  23  26
ENDBRANCH   1  22
TORSDOF 12
ENDMDL
MODEL 8
REMARK minimizedAffinity -8.1141758
REMARK  12 active torsions:
REMARK  status: ('A' for Active; 'I' for Inactive)
REMARK    1  A    between atoms: C2_2  and  C3_3 
REMARK    2  A    between atoms: C2_2  and  C22_26 
REMARK    3  A    between atoms: C3_3  and  C4_4 
REMARK    4  A    between atoms: C4_4  and  C5_5 
REMARK    5  A    between atoms: C4_4  and  N1_18 
REMARK    6  A    between atoms: C5_5  and  C6_6 
REMARK    7  A    between atoms: C9_9  and  C10_10 
REMARK       I    between atoms: N1_18  and  C18_19 
REMARK    8  A    between atoms: C18_19  and  C19_21 
REMARK    9  A    between atoms: C19_21  and  C20_22 
REMARK   10  A    between atoms: C20_22  and  C21_23 
REMARK   11  A    between atoms: C21_23  and  O3_25 
REMARK   12  A    between atoms: C22_26  and  O5_28 
ROOT
HETATM    1  C4  UNL     1       0.233   7.431  11.490  1.00  0.00     0.089 C 
ENDROOT
BRANCH   1   2
HETATM    2  C3  UNL     1       1.394   7.906  10.590  1.00  0.00     0.040 C 
BRANCH   2   3
HETATM    3  C2  UNL     1       1.283   7.569   9.096  1.00  0.00     0.081 C 
HETATM    4  C1  UNL     1       0.184   8.343   8.372  1.00  0.00     0.021 C 
BRANCH   3   5
HETATM    5  C22 UNL     1       2.618   7.819   8.433  1.00  0.00     0.143 C 
HETATM    6  O4  UNL     1       2.867   8.714   7.641  1.00  0.00    -0.650 OA
BRANCH   5   7
HETATM    7  O5  UNL     1       3.566   6.923   8.766  1.00  0.00    -0.776 OA
HETATM    8  H25 UNL     1       4.347   7.206   8.245  1.00  0.00     0.167 HD
ENDBRANCH   5   7
ENDBRANCH   3   5
ENDBRANCH   2   3
ENDBRANCH   1   2
BRANCH   1   9
HETATM    9  C5  UNL     1       0.245   5.912  11.795  1.00  0.00     0.063 C 
BRANCH   9  10
HETATM   10  C6  UNL     1      -1.119   5.272  11.928  1.00  0.00    -0.056 A 
HETATM   11  C7  UNL     1      -1.940   5.555  13.024  1.00  0.00     0.008 A 
HETATM   12  C8  UNL     1      -3.199   4.955  13.144  1.00  0.00     0.013 A 
HETATM   13  C9  UNL     1      -3.665   4.049  12.181  1.00  0.00    -0.026 A 
HETATM   14  C16 UNL     1      -2.826   3.755  11.096  1.00  0.00     0.013 A 
HETATM   15  C17 UNL     1      -1.567   4.352  10.972  1.00  0.00     0.008 A 
BRANCH  13  16
HETATM   16  C10 UNL     1      -4.991   3.420  12.308  1.00  0.00    -0.026 A 
HETATM   17  C11 UNL     1      -5.304   2.244  11.607  1.00  0.00     0.012 A 
HETATM   18  C12 UNL     1      -6.562   1.645  11.727  1.00  0.00     0.001 A 
HETATM   19  C13 UNL     1      -7.528   2.216  12.551  1.00  0.00     0.000 A 
HETATM   20  C14 UNL     1      -7.239   3.382  13.255  1.00  0.00     0.001 A 
HETATM   21  C15 UNL     1      -5.981   3.977  13.134  1.00  0.00     0.012 A 
ENDBRANCH  13  16
ENDBRANCH   9  10
ENDBRANCH   1   9
BRANCH   1  22
HETATM   22  N1  UNL     1       0.220   8.216  12.734  1.00  0.00    -0.356 N 
HETATM   23  C18 UNL     1      -0.735   9.163  13.035  1.00  0.00     0.218 C 
HETATM   24  O1  UNL     1      -1.642   9.482  12.275  1.00  0.00    -0.274 OA
HETATM   25  H19 UNL     1       0.884   7.960  13.455  1.00  0.00     0.162 HD
BRANCH  23  26
HETATM   26  C19 UNL     1      -0.544   9.773  14.405  1.00  0.00     0.113 C 
BRANCH  26  27
HETATM   27  C20 UNL     1       0.363   8.919  15.281  1.00  0.00     0.119 C 
BRANCH  27  28
HETATM   28  C21 UNL     1      -0.435   7.896  16.034  1.00  0.00     0.139 C 
HETATM   29  O2  UNL     1      -1.612   7.964  16.345  1.00  0.00    -0.650 OA
BRANCH  28  30
HETATM   30  O3  UNL     1       0.303   6.819  16.365  1.00  0.00    -0.776 OA
HETATM   31  H24 UNL     1      -0.319   6.234  16.846  1.00  0.00     0.167 HD
ENDBRANCH  28  30
ENDBRANCH  27  28
ENDBRANCH  26  27
ENDBRANCH  23  26
ENDBRANCH   1  22
TORSDOF 12
ENDMDL
MODEL 9
REMARK minimizedAffinity -8.09327126
REMARK  12 active torsions:
REMARK  status: ('A' for Active; 'I' for Inactive)
REMARK    1  A    between atoms: C2_2  and  C3_3 
REMARK    2  A    between atoms: C2_2  and  C22_26 
REMARK    3  A    between atoms: C3_3  and  C4_4 
REMARK    4  A    between atoms: C4_4  and  C5_5 
REMARK    5  A    between atoms: C4_4  and  N1_18 
REMARK    6  A    between atoms: C5_5  and  C6_6 
REMARK    7  A    between atoms: C9_9  and  C10_10 
REMARK       I    between atoms: N1_18  and  C18_19 
REMARK    8  A    between atoms: C18_19  and  C19_21 
REMARK    9  A    between atoms: C19_21  and  C20_22 
REMARK   10  A    between atoms: C20_22  and  C21_23 
REMARK   11  A    between atoms: C21_23  and  O3_25 
REMARK   12  A    between atoms: C22_26  and  O5_28 
ROOT
HETATM    1  C4  UNL     1       0.971   6.314  12.719  1.00  0.00     0.089 C 
ENDROOT
BRANCH   1   2
HETATM    2  C3  UNL     1       1.369   6.681  14.165  1.00  0.00     0.040 C 
BRANCH   2   3
HETATM    3  C2  UNL     1       2.138   7.997  14.348  1.00  0.00     0.081 C 
HETATM    4  C1  UNL     1       1.260   9.167  14.784  1.00  0.00     0.021 C 
BRANCH   3   5
HETATM    5  C22 UNL     1       3.252   7.783  15.347  1.00  0.00     0.143 C 
HETATM    6  O4  UNL     1       4.046   8.629  15.727  1.00  0.00    -0.650 OA
BRANCH   5   7
HETATM    7  O5  UNL     1       3.340   6.518  15.799  1.00  0.00    -0.776 OA
HETATM    8  H25 UNL     1       4.109   6.541  16.407  1.00  0.00     0.167 HD
ENDBRANCH   5   7
ENDBRANCH   3   5
ENDBRANCH   2   3
ENDBRANCH   1   2
BRANCH   1   9
HETATM    9  C5  UNL     1      -0.334   6.990  12.228  1.00  0.00     0.063 C 
BRANCH   9  10
HETATM   10  C6  UNL     1      -1.568   6.116  12.274  1.00  0.00    -0.056 A 
HETATM   11  C7  UNL     1      -1.598   4.882  11.613  1.00  0.00     0.008 A 
HETATM   12  C8  UNL     1      -2.744   4.081  11.656  1.00  0.00     0.013 A 
HETATM   13  C9  UNL     1      -3.893   4.493  12.346  1.00  0.00    -0.026 A 
HETATM   14  C16 UNL     1      -3.861   5.741  12.987  1.00  0.00     0.013 A 
HETATM   15  C17 UNL     1      -2.718   6.545  12.947  1.00  0.00     0.008 A 
BRANCH  13  16
HETATM   16  C10 UNL     1      -5.098   3.648  12.390  1.00  0.00    -0.026 A 
HETATM   17  C11 UNL     1      -6.209   4.011  13.170  1.00  0.00     0.012 A 
HETATM   18  C12 UNL     1      -7.353   3.209  13.212  1.00  0.00     0.001 A 
HETATM   19  C13 UNL     1      -7.405   2.029  12.475  1.00  0.00     0.000 A 
HETATM   20  C14 UNL     1      -6.315   1.650  11.695  1.00  0.00     0.001 A 
HETATM   21  C15 UNL     1      -5.172   2.454  11.654  1.00  0.00     0.012 A 
ENDBRANCH  13  16
ENDBRANCH   9  10
ENDBRANCH   1   9
BRANCH   1  22
HETATM   22  N1  UNL     1       2.089   6.608  11.809  1.00  0.00    -0.356 N 
HETATM   23  C18 UNL     1       2.538   5.740  10.837  1.00  0.00     0.218 C 
HETATM   24  O1  UNL     1       2.084   4.616  10.666  1.00  0.00    -0.274 OA
HETATM   25  H19 UNL     1       2.470   7.548  11.826  1.00  0.00     0.162 HD
BRANCH  23  26
HETATM   26  C19 UNL     1       3.658   6.322  10.005  1.00  0.00     0.113 C 
BRANCH  26  27
HETATM   27  C20 UNL     1       4.718   6.988  10.872  1.00  0.00     0.119 C 
BRANCH  27  28
HETATM   28  C21 UNL     1       5.819   6.024  11.202  1.00  0.00     0.139 C 
HETATM   29  O2  UNL     1       6.401   5.280  10.431  1.00  0.00    -0.650 OA
BRANCH  28  30
HETATM   30  O3  UNL     1       6.138   6.045  12.510  1.00  0.00    -0.776 OA
HETATM   31  H24 UNL     1       6.856   5.384  12.598  1.00  0.00     0.167 HD
ENDBRANCH  28  30
ENDBRANCH  27  28
ENDBRANCH  26  27
ENDBRANCH  23  26
ENDBRANCH   1  22
TORSDOF 12
ENDMDL
