MODEL 1
REMARK minimizedAffinity -7.71200323
REMARK CNNscore 0.426316172
REMARK CNNaffinity 7.46226358
REMARK  6 active torsions:
REMARK  status: ('A' for Active; 'I' for Inactive)
REMARK    1  A    between atoms: C2_2  and  C30_31 
REMARK    2  A    between atoms: C3_3  and  C4_4 
REMARK    3  A    between atoms: C4_4  and  C5_5 
REMARK    4  A    between atoms: C5_5  and  C6_6 
REMARK    5  A    between atoms: C6_6  and  C8_8 
REMARK    6  A    between atoms: C30_31  and  O3_33 
ROOT
HETATM    1  C8  UNL     1      -5.819   5.532  14.656  1.00  0.00    -0.002 C 
HETATM    2  C9  UNL     1      -5.366   6.548  15.736  1.00  0.00     0.007 C 
HETATM    3  C10 UNL     1      -6.636   7.257  16.242  1.00  0.00     0.015 C 
HETATM    4  C11 UNL     1      -7.577   7.249  15.021  1.00  0.00    -0.013 C 
HETATM    5  C12 UNL     1      -7.090   8.398  14.089  1.00  0.00     0.021 C 
HETATM    6  C13 UNL     1      -9.063   7.523  15.231  1.00  0.00    -0.070 C 
HETATM    7  C14 UNL     1      -9.512   8.355  16.189  1.00  0.00    -0.022 C 
HETATM    8  C15 UNL     1     -10.941   8.794  16.334  1.00  0.00     0.034 C 
HETATM    9  C16 UNL     1     -11.937   8.028  15.435  1.00  0.00     0.013 C 
HETATM   10  C17 UNL     1     -13.419   8.562  15.461  1.00  0.00     0.018 C 
HETATM   11  C18 UNL     1     -14.321   7.533  16.179  1.00  0.00     0.023 C 
HETATM   12  C19 UNL     1     -13.576   9.903  16.210  1.00  0.00     0.023 C 
HETATM   13  C20 UNL     1     -14.016   8.735  14.056  1.00  0.00     0.135 C 
HETATM   14  O1  UNL     1     -14.829   9.628  13.802  1.00  0.00    -0.297 OA
HETATM   15  C21 UNL     1     -13.683   7.728  12.982  1.00  0.00     0.080 C 
HETATM   16  C22 UNL     1     -12.381   6.978  13.204  1.00  0.00     0.017 C 
HETATM   17  C23 UNL     1     -11.329   7.772  14.009  1.00  0.00    -0.031 C 
HETATM   18  C24 UNL     1     -10.977   9.087  13.271  1.00  0.00     0.016 C 
HETATM   19  C25 UNL     1     -10.034   6.889  14.224  1.00  0.00     0.024 C 
HETATM   20  C26 UNL     1      -9.345   6.405  12.921  1.00  0.00     0.010 C 
HETATM   21  C27 UNL     1      -8.004   5.643  13.093  1.00  0.00     0.011 C 
HETATM   22  C28 UNL     1      -7.363   5.795  14.484  1.00  0.00    -0.029 C 
HETATM   23  C29 UNL     1      -8.023   4.699  15.406  1.00  0.00     0.016 C 
ENDROOT
BRANCH   1  24
HETATM   24  C6  UNL     1      -4.897   5.378  13.411  1.00  0.00    -0.014 C 
HETATM   25  C7  UNL     1      -3.683   6.311  13.355  1.00  0.00     0.010 C 
BRANCH  24  26
HETATM   26  C5  UNL     1      -4.370   3.923  13.260  1.00  0.00     0.008 C 
BRANCH  26  27
HETATM   27  C4  UNL     1      -3.332   3.753  12.145  1.00  0.00     0.028 C 
BRANCH  27  28
HETATM   28  C3  UNL     1      -3.978   3.809  10.787  1.00  0.00    -0.013 C 
HETATM   29  C2  UNL     1      -5.039   3.103  10.347  1.00  0.00     0.008 C 
HETATM   30  C1  UNL     1      -5.604   3.289   8.970  1.00  0.00     0.055 C 
BRANCH  29  31
HETATM   31  C30 UNL     1      -5.673   2.060  11.186  1.00  0.00     0.171 C 
HETATM   32  O2  UNL     1      -6.713   2.147  11.810  1.00  0.00    -0.646 OA
BRANCH  31  33
HETATM   33  O3  UNL     1      -4.941   0.933  11.205  1.00  0.00    -0.773 OA
HETATM   34  H46 UNL     1      -5.464   0.330  11.772  1.00  0.00     0.167 HD
ENDBRANCH  31  33
ENDBRANCH  29  31
ENDBRANCH  27  28
ENDBRANCH  26  27
ENDBRANCH  24  26
ENDBRANCH   1  24
TORSDOF 6
ENDMDL
MODEL 2
REMARK minimizedAffinity -8.89270592
REMARK CNNscore 0.377529144
REMARK CNNaffinity 7.00238228
REMARK  6 active torsions:
REMARK  status: ('A' for Active; 'I' for Inactive)
REMARK    1  A    between atoms: C2_2  and  C30_31 
REMARK    2  A    between atoms: C3_3  and  C4_4 
REMARK    3  A    between atoms: C4_4  and  C5_5 
REMARK    4  A    between atoms: C5_5  and  C6_6 
REMARK    5  A    between atoms: C6_6  and  C8_8 
REMARK    6  A    between atoms: C30_31  and  O3_33 
ROOT
HETATM    1  C8  UNL     1      -5.829   8.039  15.243  1.00  0.00    -0.002 C 
HETATM    2  C9  UNL     1      -5.325   9.426  15.719  1.00  0.00     0.007 C 
HETATM    3  C10 UNL     1      -4.019   9.711  14.955  1.00  0.00     0.015 C 
HETATM    4  C11 UNL     1      -3.419   8.311  14.711  1.00  0.00    -0.013 C 
HETATM    5  C12 UNL     1      -2.752   7.885  16.053  1.00  0.00     0.021 C 
HETATM    6  C13 UNL     1      -2.320   8.150  13.664  1.00  0.00    -0.070 C 
HETATM    7  C14 UNL     1      -1.422   9.120  13.410  1.00  0.00    -0.022 C 
HETATM    8  C15 UNL     1      -0.224   8.957  12.519  1.00  0.00     0.034 C 
HETATM    9  C16 UNL     1      -0.211   7.645  11.702  1.00  0.00     0.013 C 
HETATM   10  C17 UNL     1       1.100   7.382  10.868  1.00  0.00     0.018 C 
HETATM   11  C18 UNL     1       0.785   7.523   9.362  1.00  0.00     0.023 C 
HETATM   12  C19 UNL     1       2.242   8.371  11.188  1.00  0.00     0.023 C 
HETATM   13  C20 UNL     1       1.648   5.958  11.052  1.00  0.00     0.135 C 
HETATM   14  O1  UNL     1       2.858   5.719  11.020  1.00  0.00    -0.297 OA
HETATM   15  C21 UNL     1       0.681   4.803  11.168  1.00  0.00     0.080 C 
HETATM   16  C22 UNL     1      -0.704   5.189  11.655  1.00  0.00     0.017 C 
HETATM   17  C23 UNL     1      -0.724   6.437  12.565  1.00  0.00    -0.031 C 
HETATM   18  C24 UNL     1       0.148   6.193  13.820  1.00  0.00     0.016 C 
HETATM   19  C25 UNL     1      -2.213   6.780  12.978  1.00  0.00     0.024 C 
HETATM   20  C26 UNL     1      -2.962   5.651  13.732  1.00  0.00     0.010 C 
HETATM   21  C27 UNL     1      -4.380   5.998  14.261  1.00  0.00     0.011 C 
HETATM   22  C28 UNL     1      -4.692   7.505  14.293  1.00  0.00    -0.029 C 
HETATM   23  C29 UNL     1      -5.212   7.887  12.854  1.00  0.00     0.016 C 
ENDROOT
BRANCH   1  24
HETATM   24  C6  UNL     1      -6.455   7.113  16.327  1.00  0.00    -0.014 C 
HETATM   25  C7  UNL     1      -7.870   7.480  16.787  1.00  0.00     0.010 C 
BRANCH  24  26
HETATM   26  C5  UNL     1      -6.488   5.628  15.869  1.00  0.00     0.008 C 
BRANCH  26  27
HETATM   27  C4  UNL     1      -7.875   5.147  15.427  1.00  0.00     0.028 C 
BRANCH  27  28
HETATM   28  C3  UNL     1      -8.240   5.702  14.077  1.00  0.00    -0.013 C 
HETATM   29  C2  UNL     1      -8.229   5.061  12.890  1.00  0.00     0.008 C 
HETATM   30  C1  UNL     1      -8.656   5.733  11.619  1.00  0.00     0.055 C 
BRANCH  29  31
HETATM   31  C30 UNL     1      -7.739   3.669  12.770  1.00  0.00     0.171 C 
HETATM   32  O2  UNL     1      -8.395   2.647  12.842  1.00  0.00    -0.646 OA
BRANCH  31  33
HETATM   33  O3  UNL     1      -6.411   3.631  12.567  1.00  0.00    -0.773 OA
HETATM   34  H46 UNL     1      -6.217   2.675  12.494  1.00  0.00     0.167 HD
ENDBRANCH  31  33
ENDBRANCH  29  31
ENDBRANCH  27  28
ENDBRANCH  26  27
ENDBRANCH  24  26
ENDBRANCH   1  24
TORSDOF 6
ENDMDL
MODEL 3
REMARK minimizedAffinity -7.36035347
REMARK CNNscore 0.317035615
REMARK CNNaffinity 6.32610083
REMARK  6 active torsions:
REMARK  status: ('A' for Active; 'I' for Inactive)
REMARK    1  A    between atoms: C2_2  and  C30_31 
REMARK    2  A    between atoms: C3_3  and  C4_4 
REMARK    3  A    between atoms: C4_4  and  C5_5 
REMARK    4  A    between atoms: C5_5  and  C6_6 
REMARK    5  A    between atoms: C6_6  and  C8_8 
REMARK    6  A    between atoms: C30_31  and  O3_33 
ROOT
HETATM    1  C8  UNL     1      -0.474   6.206  13.349  1.00  0.00    -0.002 C 
HETATM    2  C9  UNL     1       0.910   6.305  14.043  1.00  0.00     0.007 C 
HETATM    3  C10 UNL     1       0.770   7.348  15.167  1.00  0.00     0.015 C 
HETATM    4  C11 UNL     1      -0.304   8.321  14.639  1.00  0.00    -0.013 C 
HETATM    5  C12 UNL     1       0.417   9.252  13.620  1.00  0.00     0.021 C 
HETATM    6  C13 UNL     1      -0.986   9.272  15.619  1.00  0.00    -0.070 C 
HETATM    7  C14 UNL     1      -0.346   9.781  16.689  1.00  0.00    -0.022 C 
HETATM    8  C15 UNL     1      -0.906  10.846  17.587  1.00  0.00     0.034 C 
HETATM    9  C16 UNL     1      -2.398  11.166  17.342  1.00  0.00     0.013 C 
HETATM   10  C17 UNL     1      -2.974  12.377  18.170  1.00  0.00     0.018 C 
HETATM   11  C18 UNL     1      -3.961  11.845  19.234  1.00  0.00     0.023 C 
HETATM   12  C19 UNL     1      -1.889  13.181  18.919  1.00  0.00     0.023 C 
HETATM   13  C20 UNL     1      -3.777  13.362  17.307  1.00  0.00     0.135 C 
HETATM   14  O1  UNL     1      -3.795  14.572  17.550  1.00  0.00    -0.297 OA
HETATM   15  C21 UNL     1      -4.652  12.830  16.198  1.00  0.00     0.080 C 
HETATM   16  C22 UNL     1      -4.240  11.467  15.670  1.00  0.00     0.017 C 
HETATM   17  C23 UNL     1      -2.730  11.172  15.806  1.00  0.00    -0.031 C 
HETATM   18  C24 UNL     1      -1.910  12.229  15.028  1.00  0.00     0.016 C 
HETATM   19  C25 UNL     1      -2.414   9.716  15.273  1.00  0.00     0.024 C 
HETATM   20  C26 UNL     1      -2.800   9.461  13.792  1.00  0.00     0.010 C 
HETATM   21  C27 UNL     1      -2.391   8.085  13.201  1.00  0.00     0.011 C 
HETATM   22  C28 UNL     1      -1.346   7.323  14.036  1.00  0.00    -0.029 C 
HETATM   23  C29 UNL     1      -2.145   6.530  15.141  1.00  0.00     0.016 C 
ENDROOT
BRANCH   1  24
HETATM   24  C6  UNL     1      -0.468   6.044  11.800  1.00  0.00    -0.014 C 
HETATM   25  C7  UNL     1      -0.145   7.307  10.995  1.00  0.00     0.010 C 
BRANCH  24  26
HETATM   26  C5  UNL     1       0.520   4.936  11.339  1.00  0.00     0.008 C 
BRANCH  26  27
HETATM   27  C4  UNL     1       1.914   5.461  10.977  1.00  0.00     0.028 C 
BRANCH  27  28
HETATM   28  C3  UNL     1       1.917   6.109   9.619  1.00  0.00    -0.013 C 
HETATM   29  C2  UNL     1       2.818   6.980   9.122  1.00  0.00     0.008 C 
HETATM   30  C1  UNL     1       2.716   7.522   7.727  1.00  0.00     0.055 C 
BRANCH  29  31
HETATM   31  C30 UNL     1       3.932   7.494   9.951  1.00  0.00     0.171 C 
HETATM   32  O2  UNL     1       4.000   8.575  10.506  1.00  0.00    -0.646 OA
BRANCH  31  33
HETATM   33  O3  UNL     1       4.934   6.602  10.036  1.00  0.00    -0.773 OA
HETATM   34  H46 UNL     1       5.589   7.048  10.610  1.00  0.00     0.167 HD
ENDBRANCH  31  33
ENDBRANCH  29  31
ENDBRANCH  27  28
ENDBRANCH  26  27
ENDBRANCH  24  26
ENDBRANCH   1  24
TORSDOF 6
ENDMDL
MODEL 4
REMARK minimizedAffinity -7.78386784
REMARK CNNscore 0.295119852
REMARK CNNaffinity 6.51744986
REMARK  6 active torsions:
REMARK  status: ('A' for Active; 'I' for Inactive)
REMARK    1  A    between atoms: C2_2  and  C30_31 
REMARK    2  A    between atoms: C3_3  and  C4_4 
REMARK    3  A    between atoms: C4_4  and  C5_5 
REMARK    4  A    between atoms: C5_5  and  C6_6 
REMARK    5  A    between atoms: C6_6  and  C8_8 
REMARK    6  A    between atoms: C30_31  and  O3_33 
ROOT
HETATM    1  C8  UNL     1      -1.174  11.857  18.009  1.00  0.00    -0.002 C 
HETATM    2  C9  UNL     1      -2.236  12.912  17.604  1.00  0.00     0.007 C 
HETATM    3  C10 UNL     1      -3.407  12.143  16.965  1.00  0.00     0.015 C 
HETATM    4  C11 UNL     1      -2.736  10.910  16.326  1.00  0.00    -0.013 C 
HETATM    5  C12 UNL     1      -2.098  11.404  14.994  1.00  0.00     0.021 C 
HETATM    6  C13 UNL     1      -3.605   9.721  15.923  1.00  0.00    -0.070 C 
HETATM    7  C14 UNL     1      -4.870   9.871  15.489  1.00  0.00    -0.022 C 
HETATM    8  C15 UNL     1      -5.711   8.764  14.921  1.00  0.00     0.034 C 
HETATM    9  C16 UNL     1      -5.102   7.353  15.086  1.00  0.00     0.013 C 
HETATM   10  C17 UNL     1      -5.892   6.189  14.375  1.00  0.00     0.018 C 
HETATM   11  C18 UNL     1      -6.553   5.292  15.446  1.00  0.00     0.023 C 
HETATM   12  C19 UNL     1      -7.019   6.690  13.445  1.00  0.00     0.023 C 
HETATM   13  C20 UNL     1      -4.981   5.264  13.554  1.00  0.00     0.135 C 
HETATM   14  O1  UNL     1      -5.372   4.723  12.516  1.00  0.00    -0.297 OA
HETATM   15  C21 UNL     1      -3.608   4.921  14.081  1.00  0.00     0.080 C 
HETATM   16  C22 UNL     1      -3.037   5.935  15.057  1.00  0.00     0.017 C 
HETATM   17  C23 UNL     1      -3.551   7.375  14.838  1.00  0.00    -0.031 C 
HETATM   18  C24 UNL     1      -3.186   7.858  13.413  1.00  0.00     0.016 C 
HETATM   19  C25 UNL     1      -2.934   8.340  15.930  1.00  0.00     0.024 C 
HETATM   20  C26 UNL     1      -1.385   8.404  15.950  1.00  0.00     0.010 C 
HETATM   21  C27 UNL     1      -0.751   9.433  16.924  1.00  0.00     0.011 C 
HETATM   22  C28 UNL     1      -1.734  10.494  17.452  1.00  0.00    -0.029 C 
HETATM   23  C29 UNL     1      -2.451   9.857  18.705  1.00  0.00     0.016 C 
ENDROOT
BRANCH   1  24
HETATM   24  C6  UNL     1       0.317  12.249  17.793  1.00  0.00    -0.014 C 
HETATM   25  C7  UNL     1       0.702  13.675  18.200  1.00  0.00     0.010 C 
BRANCH  24  26
HETATM   26  C5  UNL     1       1.281  11.280  18.535  1.00  0.00     0.008 C 
BRANCH  26  27
HETATM   27  C4  UNL     1       1.445  11.592  20.028  1.00  0.00     0.028 C 
BRANCH  27  28
HETATM   28  C3  UNL     1       1.423  10.334  20.853  1.00  0.00    -0.013 C 
HETATM   29  C2  UNL     1       2.435   9.797  21.565  1.00  0.00     0.008 C 
HETATM   30  C1  UNL     1       2.260   8.548  22.378  1.00  0.00     0.055 C 
BRANCH  29  31
HETATM   31  C30 UNL     1       3.794  10.384  21.538  1.00  0.00     0.171 C 
HETATM   32  O2  UNL     1       4.519  10.520  20.571  1.00  0.00    -0.646 OA
BRANCH  31  33
HETATM   33  O3  UNL     1       4.186  10.773  22.763  1.00  0.00    -0.773 OA
HETATM   34  H46 UNL     1       5.077  11.147  22.610  1.00  0.00     0.167 HD
ENDBRANCH  31  33
ENDBRANCH  29  31
ENDBRANCH  27  28
ENDBRANCH  26  27
ENDBRANCH  24  26
ENDBRANCH   1  24
TORSDOF 6
ENDMDL
MODEL 5
REMARK minimizedAffinity -7.07295465
REMARK CNNscore 0.292115599
REMARK CNNaffinity 5.48222876
REMARK  6 active torsions:
REMARK  status: ('A' for Active; 'I' for Inactive)
REMARK    1  A    between atoms: C2_2  and  C30_31 
REMARK    2  A    between atoms: C3_3  and  C4_4 
REMARK    3  A    between atoms: C4_4  and  C5_5 
REMARK    4  A    between atoms: C5_5  and  C6_6 
REMARK    5  A    between atoms: C6_6  and  C8_8 
REMARK    6  A    between atoms: C30_31  and  O3_33 
ROOT
HETATM    1  C8  UNL     1     -17.278   2.800  14.394  1.00  0.00    -0.002 C 
HETATM    2  C9  UNL     1     -17.981   2.460  15.733  1.00  0.00     0.007 C 
HETATM    3  C10 UNL     1     -17.454   1.082  16.176  1.00  0.00     0.015 C 
HETATM    4  C11 UNL     1     -17.137   0.362  14.849  1.00  0.00    -0.013 C 
HETATM    5  C12 UNL     1     -18.502  -0.140  14.290  1.00  0.00     0.021 C 
HETATM    6  C13 UNL     1     -16.248  -0.878  14.874  1.00  0.00    -0.070 C 
HETATM    7  C14 UNL     1     -16.243  -1.737  15.911  1.00  0.00    -0.022 C 
HETATM    8  C15 UNL     1     -15.522  -3.054  15.921  1.00  0.00     0.034 C 
HETATM    9  C16 UNL     1     -14.568  -3.267  14.724  1.00  0.00     0.013 C 
HETATM   10  C17 UNL     1     -13.908  -4.695  14.632  1.00  0.00     0.018 C 
HETATM   11  C18 UNL     1     -12.399  -4.582  14.946  1.00  0.00     0.023 C 
HETATM   12  C19 UNL     1     -14.504  -5.713  15.628  1.00  0.00     0.023 C 
HETATM   13  C20 UNL     1     -14.000  -5.305  13.225  1.00  0.00     0.135 C 
HETATM   14  O1  UNL     1     -14.117  -6.522  13.051  1.00  0.00    -0.297 OA
HETATM   15  C21 UNL     1     -13.839  -4.411  12.019  1.00  0.00     0.080 C 
HETATM   16  C22 UNL     1     -14.162  -2.949  12.272  1.00  0.00     0.017 C 
HETATM   17  C23 UNL     1     -15.200  -2.721  13.394  1.00  0.00    -0.031 C 
HETATM   18  C24 UNL     1     -16.530  -3.426  13.037  1.00  0.00     0.016 C 
HETATM   19  C25 UNL     1     -15.430  -1.170  13.608  1.00  0.00     0.024 C 
HETATM   20  C26 UNL     1     -15.929  -0.400  12.358  1.00  0.00     0.010 C 
HETATM   21  C27 UNL     1     -16.284   1.097  12.566  1.00  0.00     0.011 C 
HETATM   22  C28 UNL     1     -16.447   1.509  14.040  1.00  0.00    -0.029 C 
HETATM   23  C29 UNL     1     -15.002   1.851  14.574  1.00  0.00     0.016 C 
ENDROOT
BRANCH   1  24
HETATM   24  C6  UNL     1     -18.144   3.507  13.310  1.00  0.00    -0.014 C 
HETATM   25  C7  UNL     1     -19.584   3.839  13.714  1.00  0.00     0.010 C 
BRANCH  24  26
HETATM   26  C5  UNL     1     -17.485   4.826  12.816  1.00  0.00     0.008 C 
BRANCH  26  27
HETATM   27  C4  UNL     1     -16.945   5.710  13.946  1.00  0.00     0.028 C 
BRANCH  27  28
HETATM   28  C3  UNL     1     -15.465   5.939  13.799  1.00  0.00    -0.013 C 
HETATM   29  C2  UNL     1     -14.846   6.899  13.081  1.00  0.00     0.008 C 
HETATM   30  C1  UNL     1     -13.353   7.033  13.054  1.00  0.00     0.055 C 
BRANCH  29  31
HETATM   31  C30 UNL     1     -15.611   7.841  12.232  1.00  0.00     0.171 C 
HETATM   32  O2  UNL     1     -15.884   7.716  11.054  1.00  0.00    -0.646 OA
BRANCH  31  33
HETATM   33  O3  UNL     1     -15.996   8.925  12.926  1.00  0.00    -0.773 OA
HETATM   34  H46 UNL     1     -16.493   9.453  12.268  1.00  0.00     0.167 HD
ENDBRANCH  31  33
ENDBRANCH  29  31
ENDBRANCH  27  28
ENDBRANCH  26  27
ENDBRANCH  24  26
ENDBRANCH   1  24
TORSDOF 6
ENDMDL
MODEL 6
REMARK minimizedAffinity -7.37012768
REMARK CNNscore 0.276765764
REMARK CNNaffinity 6.92293215
REMARK  6 active torsions:
REMARK  status: ('A' for Active; 'I' for Inactive)
REMARK    1  A    between atoms: C2_2  and  C30_31 
REMARK    2  A    between atoms: C3_3  and  C4_4 
REMARK    3  A    between atoms: C4_4  and  C5_5 
REMARK    4  A    between atoms: C5_5  and  C6_6 
REMARK    5  A    between atoms: C6_6  and  C8_8 
REMARK    6  A    between atoms: C30_31  and  O3_33 
ROOT
HETATM    1  C8  UNL     1      -5.650   5.077  14.556  1.00  0.00    -0.002 C 
HETATM    2  C9  UNL     1      -5.031   6.322  15.243  1.00  0.00     0.007 C 
HETATM    3  C10 UNL     1      -6.201   7.252  15.614  1.00  0.00     0.015 C 
HETATM    4  C11 UNL     1      -7.260   6.967  14.530  1.00  0.00    -0.013 C 
HETATM    5  C12 UNL     1      -6.806   7.749  13.262  1.00  0.00     0.021 C 
HETATM    6  C13 UNL     1      -8.700   7.415  14.767  1.00  0.00    -0.070 C 
HETATM    7  C14 UNL     1      -9.001   8.526  15.466  1.00  0.00    -0.022 C 
HETATM    8  C15 UNL     1     -10.380   9.107  15.588  1.00  0.00     0.034 C 
HETATM    9  C16 UNL     1     -11.504   8.198  15.041  1.00  0.00     0.013 C 
HETATM   10  C17 UNL     1     -12.943   8.840  15.025  1.00  0.00     0.018 C 
HETATM   11  C18 UNL     1     -13.825   8.146  16.088  1.00  0.00     0.023 C 
HETATM   12  C19 UNL     1     -12.947  10.350  15.349  1.00  0.00     0.023 C 
HETATM   13  C20 UNL     1     -13.669   8.645  13.685  1.00  0.00     0.135 C 
HETATM   14  O1  UNL     1     -14.452   9.491  13.242  1.00  0.00    -0.297 OA
HETATM   15  C21 UNL     1     -13.505   7.344  12.938  1.00  0.00     0.080 C 
HETATM   16  C22 UNL     1     -12.232   6.584  13.269  1.00  0.00     0.017 C 
HETATM   17  C23 UNL     1     -11.060   7.487  13.713  1.00  0.00    -0.031 C 
HETATM   18  C24 UNL     1     -10.711   8.494  12.590  1.00  0.00     0.016 C 
HETATM   19  C25 UNL     1      -9.802   6.599  14.077  1.00  0.00     0.024 C 
HETATM   20  C26 UNL     1      -9.278   5.699  12.927  1.00  0.00     0.010 C 
HETATM   21  C27 UNL     1      -7.972   4.910  13.211  1.00  0.00     0.011 C 
HETATM   22  C28 UNL     1      -7.185   5.408  14.437  1.00  0.00    -0.029 C 
HETATM   23  C29 UNL     1      -7.809   4.688  15.695  1.00  0.00     0.016 C 
ENDROOT
BRANCH   1  24
HETATM   24  C6  UNL     1      -4.869   4.488  13.343  1.00  0.00    -0.014 C 
HETATM   25  C7  UNL     1      -5.725   3.958  12.188  1.00  0.00     0.010 C 
BRANCH  24  26
HETATM   26  C5  UNL     1      -3.871   5.519  12.746  1.00  0.00     0.008 C 
BRANCH  26  27
HETATM   27  C4  UNL     1      -2.431   5.347  13.243  1.00  0.00     0.028 C 
BRANCH  27  28
HETATM   28  C3  UNL     1      -1.457   6.073  12.355  1.00  0.00    -0.013 C 
HETATM   29  C2  UNL     1      -0.569   5.537  11.493  1.00  0.00     0.008 C 
HETATM   30  C1  UNL     1       0.321   6.389  10.637  1.00  0.00     0.055 C 
BRANCH  29  31
HETATM   31  C30 UNL     1      -0.384   4.072  11.387  1.00  0.00     0.171 C 
HETATM   32  O2  UNL     1      -1.238   3.212  11.490  1.00  0.00    -0.646 OA
BRANCH  31  33
HETATM   33  O3  UNL     1       0.901   3.754  11.158  1.00  0.00    -0.773 OA
HETATM   34  H46 UNL     1       0.888   2.777  11.097  1.00  0.00     0.167 HD
ENDBRANCH  31  33
ENDBRANCH  29  31
ENDBRANCH  27  28
ENDBRANCH  26  27
ENDBRANCH  24  26
ENDBRANCH   1  24
TORSDOF 6
ENDMDL
MODEL 7
REMARK minimizedAffinity -6.54440737
REMARK CNNscore 0.256818742
REMARK CNNaffinity 4.97365761
REMARK  6 active torsions:
REMARK  status: ('A' for Active; 'I' for Inactive)
REMARK    1  A    between atoms: C2_2  and  C30_31 
REMARK    2  A    between atoms: C3_3  and  C4_4 
REMARK    3  A    between atoms: C4_4  and  C5_5 
REMARK    4  A    between atoms: C5_5  and  C6_6 
REMARK    5  A    between atoms: C6_6  and  C8_8 
REMARK    6  A    between atoms: C30_31  and  O3_33 
ROOT
HETATM    1  C8  UNL     1       9.570  10.795  15.124  1.00  0.00    -0.002 C 
HETATM    2  C9  UNL     1      10.419   9.522  14.870  1.00  0.00     0.007 C 
HETATM    3  C10 UNL     1       9.623   8.646  13.885  1.00  0.00     0.015 C 
HETATM    4  C11 UNL     1       8.151   8.980  14.196  1.00  0.00    -0.013 C 
HETATM    5  C12 UNL     1       7.785   8.180  15.481  1.00  0.00     0.021 C 
HETATM    6  C13 UNL     1       7.076   8.598  13.182  1.00  0.00    -0.070 C 
HETATM    7  C14 UNL     1       7.176   7.502  12.407  1.00  0.00    -0.022 C 
HETATM    8  C15 UNL     1       6.081   6.985  11.519  1.00  0.00     0.034 C 
HETATM    9  C16 UNL     1       4.879   7.944  11.365  1.00  0.00     0.013 C 
HETATM   10  C17 UNL     1       3.655   7.369  10.556  1.00  0.00     0.018 C 
HETATM   11  C18 UNL     1       3.549   8.102   9.200  1.00  0.00     0.023 C 
HETATM   12  C19 UNL     1       3.776   5.861  10.249  1.00  0.00     0.023 C 
HETATM   13  C20 UNL     1       2.311   7.599  11.265  1.00  0.00     0.135 C 
HETATM   14  O1  UNL     1       1.383   6.791  11.172  1.00  0.00    -0.297 OA
HETATM   15  C21 UNL     1       2.078   8.892  12.007  1.00  0.00     0.080 C 
HETATM   16  C22 UNL     1       3.346   9.592  12.465  1.00  0.00     0.017 C 
HETATM   17  C23 UNL     1       4.529   8.636  12.731  1.00  0.00    -0.031 C 
HETATM   18  C24 UNL     1       4.150   7.615  13.831  1.00  0.00     0.016 C 
HETATM   19  C25 UNL     1       5.808   9.465  13.156  1.00  0.00     0.024 C 
HETATM   20  C26 UNL     1       5.632  10.341  14.424  1.00  0.00     0.010 C 
HETATM   21  C27 UNL     1       6.902  11.069  14.940  1.00  0.00     0.011 C 
HETATM   22  C28 UNL     1       8.220  10.535  14.354  1.00  0.00    -0.029 C 
HETATM   23  C29 UNL     1       8.437  11.281  12.981  1.00  0.00     0.016 C 
ENDROOT
BRANCH   1  24
HETATM   24  C6  UNL     1       9.558  11.348  16.579  1.00  0.00    -0.014 C 
HETATM   25  C7  UNL     1       9.277  10.325  17.684  1.00  0.00     0.010 C 
BRANCH  24  26
HETATM   26  C5  UNL     1      10.894  12.059  16.936  1.00  0.00     0.008 C 
BRANCH  26  27
HETATM   27  C4  UNL     1      10.941  12.606  18.368  1.00  0.00     0.028 C 
BRANCH  27  28
HETATM   28  C3  UNL     1      11.836  13.813  18.460  1.00  0.00    -0.013 C 
HETATM   29  C2  UNL     1      13.139  13.849  18.805  1.00  0.00     0.008 C 
HETATM   30  C1  UNL     1      13.923  15.129  18.820  1.00  0.00     0.055 C 
BRANCH  29  31
HETATM   31  C30 UNL     1      13.855  12.630  19.245  1.00  0.00     0.171 C 
HETATM   32  O2  UNL     1      14.523  11.880  18.559  1.00  0.00    -0.646 OA
BRANCH  31  33
HETATM   33  O3  UNL     1      13.684  12.407  20.559  1.00  0.00    -0.773 OA
HETATM   34  H46 UNL     1      14.208  11.596  20.723  1.00  0.00     0.167 HD
ENDBRANCH  31  33
ENDBRANCH  29  31
ENDBRANCH  27  28
ENDBRANCH  26  27
ENDBRANCH  24  26
ENDBRANCH   1  24
TORSDOF 6
ENDMDL
MODEL 8
REMARK minimizedAffinity -7.84247494
REMARK CNNscore 0.253734112
REMARK CNNaffinity 6.73712778
REMARK  6 active torsions:
REMARK  status: ('A' for Active; 'I' for Inactive)
REMARK    1  A    between atoms: C2_2  and  C30_31 
REMARK    2  A    between atoms: C3_3  and  C4_4 
REMARK    3  A    between atoms: C4_4  and  C5_5 
REMARK    4  A    between atoms: C5_5  and  C6_6 
REMARK    5  A    between atoms: C6_6  and  C8_8 
REMARK    6  A    between atoms: C30_31  and  O3_33 
ROOT
HETATM    1  C8  UNL     1      -3.040   7.130  13.916  1.00  0.00    -0.002 C 
HETATM    2  C9  UNL     1      -3.250   5.660  13.469  1.00  0.00     0.007 C 
HETATM    3  C10 UNL     1      -4.764   5.470  13.262  1.00  0.00     0.015 C 
HETATM    4  C11 UNL     1      -5.401   6.448  14.269  1.00  0.00    -0.013 C 
HETATM    5  C12 UNL     1      -5.323   5.753  15.660  1.00  0.00     0.021 C 
HETATM    6  C13 UNL     1      -6.872   6.823  14.105  1.00  0.00    -0.070 C 
HETATM    7  C14 UNL     1      -7.783   5.962  13.615  1.00  0.00    -0.022 C 
HETATM    8  C15 UNL     1      -9.263   6.212  13.589  1.00  0.00     0.034 C 
HETATM    9  C16 UNL     1      -9.671   7.657  13.955  1.00  0.00     0.013 C 
HETATM   10  C17 UNL     1     -11.222   7.911  14.075  1.00  0.00     0.018 C 
HETATM   11  C18 UNL     1     -11.687   8.798  12.898  1.00  0.00     0.023 C 
HETATM   12  C19 UNL     1     -12.062   6.617  14.028  1.00  0.00     0.023 C 
HETATM   13  C20 UNL     1     -11.604   8.674  15.353  1.00  0.00     0.135 C 
HETATM   14  O1  UNL     1     -12.673   8.470  15.935  1.00  0.00    -0.297 OA
HETATM   15  C21 UNL     1     -10.701   9.775  15.855  1.00  0.00     0.080 C 
HETATM   16  C22 UNL     1      -9.256   9.660  15.402  1.00  0.00     0.017 C 
HETATM   17  C23 UNL     1      -8.796   8.209  15.137  1.00  0.00    -0.031 C 
HETATM   18  C24 UNL     1      -8.940   7.362  16.425  1.00  0.00     0.016 C 
HETATM   19  C25 UNL     1      -7.297   8.203  14.629  1.00  0.00     0.024 C 
HETATM   20  C26 UNL     1      -6.271   8.839  15.602  1.00  0.00     0.010 C 
HETATM   21  C27 UNL     1      -4.778   8.737  15.190  1.00  0.00     0.011 C 
HETATM   22  C28 UNL     1      -4.495   7.709  14.081  1.00  0.00    -0.029 C 
HETATM   23  C29 UNL     1      -4.749   8.446  12.709  1.00  0.00     0.016 C 
ENDROOT
BRANCH   1  24
HETATM   24  C6  UNL     1      -1.959   7.380  15.008  1.00  0.00    -0.014 C 
HETATM   25  C7  UNL     1      -0.909   6.277  15.179  1.00  0.00     0.010 C 
BRANCH  24  26
HETATM   26  C5  UNL     1      -1.195   8.712  14.769  1.00  0.00     0.008 C 
BRANCH  26  27
HETATM   27  C4  UNL     1      -0.830   9.458  16.059  1.00  0.00     0.028 C 
BRANCH  27  28
HETATM   28  C3  UNL     1      -2.014   9.562  16.982  1.00  0.00    -0.013 C 
HETATM   29  C2  UNL     1      -2.141  10.339  18.076  1.00  0.00     0.008 C 
HETATM   30  C1  UNL     1      -3.402  10.370  18.888  1.00  0.00     0.055 C 
BRANCH  29  31
HETATM   31  C30 UNL     1      -1.016  11.166  18.570  1.00  0.00     0.171 C 
HETATM   32  O2  UNL     1      -0.201  10.869  19.422  1.00  0.00    -0.646 OA
BRANCH  31  33
HETATM   33  O3  UNL     1      -0.978  12.361  17.955  1.00  0.00    -0.773 OA
HETATM   34  H46 UNL     1      -0.198  12.798  18.353  1.00  0.00     0.167 HD
ENDBRANCH  31  33
ENDBRANCH  29  31
ENDBRANCH  27  28
ENDBRANCH  26  27
ENDBRANCH  24  26
ENDBRANCH   1  24
TORSDOF 6
ENDMDL
MODEL 9
REMARK minimizedAffinity -6.93526888
REMARK CNNscore 0.224404007
REMARK CNNaffinity 6.51216316
REMARK  6 active torsions:
REMARK  status: ('A' for Active; 'I' for Inactive)
REMARK    1  A    between atoms: C2_2  and  C30_31 
REMARK    2  A    between atoms: C3_3  and  C4_4 
REMARK    3  A    between atoms: C4_4  and  C5_5 
REMARK    4  A    between atoms: C5_5  and  C6_6 
REMARK    5  A    between atoms: C6_6  and  C8_8 
REMARK    6  A    between atoms: C30_31  and  O3_33 
ROOT
HETATM    1  C8  UNL     1      -6.393   8.110  14.722  1.00  0.00    -0.002 C 
HETATM    2  C9  UNL     1      -5.867   9.235  15.649  1.00  0.00     0.007 C 
HETATM    3  C10 UNL     1      -4.416   9.524  15.220  1.00  0.00     0.015 C 
HETATM    4  C11 UNL     1      -3.911   8.168  14.686  1.00  0.00    -0.013 C 
HETATM    5  C12 UNL     1      -3.559   7.311  15.938  1.00  0.00     0.021 C 
HETATM    6  C13 UNL     1      -2.650   8.135  13.827  1.00  0.00    -0.070 C 
HETATM    7  C14 UNL     1      -1.633   9.000  14.010  1.00  0.00    -0.022 C 
HETATM    8  C15 UNL     1      -0.305   8.910  13.315  1.00  0.00     0.034 C 
HETATM    9  C16 UNL     1      -0.254   7.874  12.170  1.00  0.00     0.013 C 
HETATM   10  C17 UNL     1       1.164   7.657  11.519  1.00  0.00     0.018 C 
HETATM   11  C18 UNL     1       1.162   8.236  10.085  1.00  0.00     0.023 C 
HETATM   12  C19 UNL     1       2.307   8.354  12.288  1.00  0.00     0.023 C 
HETATM   13  C20 UNL     1       1.533   6.172  11.372  1.00  0.00     0.135 C 
HETATM   14  O1  UNL     1       2.699   5.781  11.469  1.00  0.00    -0.297 OA
HETATM   15  C21 UNL     1       0.461   5.178  10.996  1.00  0.00     0.080 C 
HETATM   16  C22 UNL     1      -0.952   5.614  11.343  1.00  0.00     0.017 C 
HETATM   17  C23 UNL     1      -1.034   6.566  12.557  1.00  0.00    -0.031 C 
HETATM   18  C24 UNL     1      -0.448   5.877  13.813  1.00  0.00     0.016 C 
HETATM   19  C25 UNL     1      -2.537   6.995  12.805  1.00  0.00     0.024 C 
HETATM   20  C26 UNL     1      -3.518   5.825  13.073  1.00  0.00     0.010 C 
HETATM   21  C27 UNL     1      -4.974   6.218  13.444  1.00  0.00     0.011 C 
HETATM   22  C28 UNL     1      -5.147   7.691  13.855  1.00  0.00    -0.029 C 
HETATM   23  C29 UNL     1      -5.340   8.510  12.521  1.00  0.00     0.016 C 
ENDROOT
BRANCH   1  24
HETATM   24  C6  UNL     1      -7.301   7.029  15.380  1.00  0.00    -0.014 C 
HETATM   25  C7  UNL     1      -6.804   6.457  16.712  1.00  0.00     0.010 C 
BRANCH  24  26
HETATM   26  C5  UNL     1      -8.746   7.553  15.611  1.00  0.00     0.008 C 
BRANCH  26  27
HETATM   27  C4  UNL     1      -9.641   7.470  14.369  1.00  0.00     0.028 C 
BRANCH  27  28
HETATM   28  C3  UNL     1     -11.088   7.309  14.750  1.00  0.00    -0.013 C 
HETATM   29  C2  UNL     1     -12.174   7.582  13.999  1.00  0.00     0.008 C 
HETATM   30  C1  UNL     1     -13.568   7.336  14.497  1.00  0.00     0.055 C 
BRANCH  29  31
HETATM   31  C30 UNL     1     -12.050   8.196  12.657  1.00  0.00     0.171 C 
HETATM   32  O2  UNL     1     -12.618   9.190  12.246  1.00  0.00    -0.646 OA
BRANCH  31  33
HETATM   33  O3  UNL     1     -11.200   7.505  11.878  1.00  0.00    -0.773 OA
HETATM   34  H46 UNL     1     -11.197   8.011  11.040  1.00  0.00     0.167 HD
ENDBRANCH  31  33
ENDBRANCH  29  31
ENDBRANCH  27  28
ENDBRANCH  26  27
ENDBRANCH  24  26
ENDBRANCH   1  24
TORSDOF 6
ENDMDL
