MODEL 1
REMARK minimizedAffinity -9.45606899
REMARK CNNscore 0.496967435
REMARK CNNaffinity 8.05568218
REMARK  9 active torsions:
REMARK  status: ('A' for Active; 'I' for Inactive)
REMARK    1  A    between atoms: C2_2  and  O1_3 
REMARK    2  A    between atoms: O1_3  and  C3_4 
REMARK    3  A    between atoms: C3_4  and  C4_6 
REMARK    4  A    between atoms: C5_7  and  C6_8 
REMARK    5  A    between atoms: C12_16  and  C13_17 
REMARK    6  A    between atoms: C24_30  and  C25_31 
REMARK    7  A    between atoms: C25_31  and  O6_32 
REMARK    8  A    between atoms: C32_40  and  O8_42 
REMARK    9  A    between atoms: C35_44  and  O9_45 
ROOT
HETATM    1  C4  UNL     1       0.805   6.130  11.183  1.00  0.00     0.165 C 
HETATM    2  C5  UNL     1       0.721   7.439  11.506  1.00  0.00     0.053 C 
HETATM    3  C7  UNL     1      -0.159   7.766  12.641  1.00  0.00    -0.002 C 
HETATM    4  C8  UNL     1       0.190   8.564  13.687  1.00  0.00    -0.066 C 
HETATM    5  C9  UNL     1      -0.642   8.757  14.944  1.00  0.00     0.042 C 
HETATM    6  C10 UNL     1       0.140   8.659  16.252  1.00  0.00     0.083 C 
HETATM    7  C11 UNL     1       1.588   8.255  16.086  1.00  0.00     0.136 C 
HETATM    8  O4  UNL     1       2.125   7.541  16.938  1.00  0.00    -0.297 OA
HETATM    9  C12 UNL     1       2.383   8.826  14.916  1.00  0.00     0.092 C 
HETATM   10  C21 UNL     1       1.473   9.366  13.802  1.00  0.00     0.052 C 
HETATM   11  C22 UNL     1      -1.405   6.948  12.650  1.00  0.00     0.044 C 
HETATM   12  C23 UNL     1      -1.200   5.582  12.321  1.00  0.00     0.101 C 
HETATM   13  O5  UNL     1       0.059   5.167  11.900  1.00  0.00    -0.302 OA
HETATM   14  C24 UNL     1      -2.234   4.633  12.348  1.00  0.00     0.034 C 
HETATM   15  C26 UNL     1      -3.487   5.123  12.674  1.00  0.00     0.090 C 
HETATM   16  O7  UNL     1      -4.639   4.349  12.757  1.00  0.00    -0.341 OA
HETATM   17  C27 UNL     1      -5.476   5.206  13.561  1.00  0.00     0.175 C 
HETATM   18  C28 UNL     1      -5.203   6.640  13.085  1.00  0.00     0.079 C 
HETATM   19  C29 UNL     1      -5.831   7.607  14.036  1.00  0.00    -0.019 C 
HETATM   20  C30 UNL     1      -6.956   7.276  14.702  1.00  0.00    -0.027 C 
HETATM   21  C31 UNL     1      -7.636   5.917  14.603  1.00  0.00     0.067 C 
HETATM   22  C32 UNL     1      -6.993   4.939  13.564  1.00  0.00     0.085 C 
HETATM   23  C33 UNL     1      -7.309   3.486  13.909  1.00  0.00     0.049 C 
HETATM   24  C34 UNL     1      -3.733   6.484  12.928  1.00  0.00     0.021 C 
HETATM   25  C35 UNL     1      -2.710   7.413  12.860  1.00  0.00     0.091 C 
ENDROOT
BRANCH   2  26
HETATM   26  C6  UNL     1       1.373   8.519  10.719  1.00  0.00     0.273 C 
HETATM   27  O3  UNL     1       0.855   8.988   9.711  1.00  0.00    -0.301 OA
ENDBRANCH   2  26
BRANCH   1  28
HETATM   28  C3  UNL     1       1.611   5.553  10.073  1.00  0.00     0.318 C 
HETATM   29  O2  UNL     1       2.325   4.573  10.213  1.00  0.00    -0.257 OA
BRANCH  28  30
HETATM   30  O1  UNL     1       1.363   6.180   8.900  1.00  0.00    -0.316 OA
BRANCH  30  31
HETATM   31  C2  UNL     1       2.489   6.332   8.014  1.00  0.00     0.175 C 
HETATM   32  C1  UNL     1       2.026   6.993   6.728  1.00  0.00     0.034 C 
ENDBRANCH  30  31
ENDBRANCH  28  30
ENDBRANCH   1  28
BRANCH  25  33
HETATM   33  O9  UNL     1      -3.010   8.734  13.028  1.00  0.00    -0.354 OA
HETATM   34  C36 UNL     1      -3.320   9.018  14.394  1.00  0.00     0.210 C 
ENDBRANCH  25  33
BRANCH   9  35
HETATM   35  C13 UNL     1       3.404   9.883  15.323  1.00  0.00    -0.046 A 
HETATM   36  C14 UNL     1       3.024  11.056  15.997  1.00  0.00     0.010 A 
HETATM   37  C15 UNL     1       3.949  12.048  16.337  1.00  0.00     0.031 A 
HETATM   38  C16 UNL     1       5.281  11.840  15.967  1.00  0.00     0.042 A 
HETATM   39  N1  UNL     1       6.391  12.632  16.164  1.00  0.00    -0.365 N 
HETATM   40  C19 UNL     1       5.704  10.703  15.278  1.00  0.00    -0.008 A 
HETATM   41  C17 UNL     1       7.501  12.033  15.621  1.00  0.00     0.089 A 
HETATM   42  H14 UNL     1       6.392  13.520  16.647  1.00  0.00     0.165 HD
HETATM   43  C18 UNL     1       7.105  10.839  15.064  1.00  0.00     0.030 A 
HETATM   44  C20 UNL     1       4.754   9.713  14.954  1.00  0.00     0.021 A 
ENDBRANCH   9  35
BRANCH  14  45
HETATM   45  C25 UNL     1      -2.004   3.179  12.053  1.00  0.00     0.208 C 
BRANCH  45  46
HETATM   46  O6  UNL     1      -1.410   3.024  10.769  1.00  0.00    -0.396 OA
HETATM   47  H22 UNL     1      -1.944   3.530  10.134  1.00  0.00     0.209 HD
ENDBRANCH  45  46
ENDBRANCH  14  45
BRANCH  22  48
HETATM   48  O8  UNL     1      -7.582   5.172  12.274  1.00  0.00    -0.387 OA
HETATM   49  H32 UNL     1      -7.668   6.131  12.131  1.00  0.00     0.210 HD
ENDBRANCH  22  48
TORSDOF 9
ENDMDL
MODEL 2
REMARK minimizedAffinity -9.22960567
REMARK CNNscore 0.451839447
REMARK CNNaffinity 8.15491867
REMARK  9 active torsions:
REMARK  status: ('A' for Active; 'I' for Inactive)
REMARK    1  A    between atoms: C2_2  and  O1_3 
REMARK    2  A    between atoms: O1_3  and  C3_4 
REMARK    3  A    between atoms: C3_4  and  C4_6 
REMARK    4  A    between atoms: C5_7  and  C6_8 
REMARK    5  A    between atoms: C12_16  and  C13_17 
REMARK    6  A    between atoms: C24_30  and  C25_31 
REMARK    7  A    between atoms: C25_31  and  O6_32 
REMARK    8  A    between atoms: C32_40  and  O8_42 
REMARK    9  A    between atoms: C35_44  and  O9_45 
ROOT
HETATM    1  C4  UNL     1       0.924   6.060  11.164  1.00  0.00     0.165 C 
HETATM    2  C5  UNL     1       0.844   7.361  11.522  1.00  0.00     0.053 C 
HETATM    3  C7  UNL     1      -0.043   7.662  12.658  1.00  0.00    -0.002 C 
HETATM    4  C8  UNL     1       0.302   8.429  13.728  1.00  0.00    -0.066 C 
HETATM    5  C9  UNL     1      -0.540   8.592  14.984  1.00  0.00     0.042 C 
HETATM    6  C10 UNL     1       0.231   8.455  16.295  1.00  0.00     0.083 C 
HETATM    7  C11 UNL     1       1.678   8.047  16.129  1.00  0.00     0.136 C 
HETATM    8  O4  UNL     1       2.205   7.307  16.965  1.00  0.00    -0.297 OA
HETATM    9  C12 UNL     1       2.486   8.645  14.982  1.00  0.00     0.092 C 
HETATM   10  C21 UNL     1       1.588   9.221  13.876  1.00  0.00     0.052 C 
HETATM   11  C22 UNL     1      -1.294   6.851  12.635  1.00  0.00     0.044 C 
HETATM   12  C23 UNL     1      -1.093   5.493  12.270  1.00  0.00     0.101 C 
HETATM   13  O5  UNL     1       0.167   5.082  11.849  1.00  0.00    -0.302 OA
HETATM   14  C24 UNL     1      -2.133   4.549  12.263  1.00  0.00     0.034 C 
HETATM   15  C26 UNL     1      -3.386   5.037  12.593  1.00  0.00     0.090 C 
HETATM   16  O7  UNL     1      -4.542   4.268  12.646  1.00  0.00    -0.341 OA
HETATM   17  C27 UNL     1      -5.381   5.106  13.466  1.00  0.00     0.175 C 
HETATM   18  C28 UNL     1      -5.097   6.551  13.032  1.00  0.00     0.079 C 
HETATM   19  C29 UNL     1      -5.728   7.496  14.004  1.00  0.00    -0.019 C 
HETATM   20  C30 UNL     1      -6.859   7.153  14.652  1.00  0.00    -0.027 C 
HETATM   21  C31 UNL     1      -7.545   5.801  14.510  1.00  0.00     0.067 C 
HETATM   22  C32 UNL     1      -6.899   4.848  13.451  1.00  0.00     0.085 C 
HETATM   23  C33 UNL     1      -7.226   3.388  13.754  1.00  0.00     0.049 C 
HETATM   24  C34 UNL     1      -3.626   6.392  12.883  1.00  0.00     0.021 C 
HETATM   25  C35 UNL     1      -2.598   7.317  12.848  1.00  0.00     0.091 C 
ENDROOT
BRANCH   2  26
HETATM   26  C6  UNL     1       1.507   8.458  10.770  1.00  0.00     0.273 C 
HETATM   27  O3  UNL     1       1.013   8.939   9.756  1.00  0.00    -0.301 OA
ENDBRANCH   2  26
BRANCH   1  28
HETATM   28  C3  UNL     1       1.735   5.510  10.045  1.00  0.00     0.318 C 
HETATM   29  O2  UNL     1       2.510   4.577  10.185  1.00  0.00    -0.257 OA
BRANCH  28  30
HETATM   30  O1  UNL     1       1.422   6.097   8.867  1.00  0.00    -0.316 OA
BRANCH  30  31
HETATM   31  C2  UNL     1       2.505   6.252   7.930  1.00  0.00     0.175 C 
HETATM   32  C1  UNL     1       1.973   6.872   6.651  1.00  0.00     0.034 C 
ENDBRANCH  30  31
ENDBRANCH  28  30
ENDBRANCH   1  28
BRANCH  25  33
HETATM   33  O9  UNL     1      -2.893   8.635  13.050  1.00  0.00    -0.354 OA
HETATM   34  C36 UNL     1      -3.205   8.884  14.421  1.00  0.00     0.210 C 
ENDBRANCH  25  33
BRANCH   9  35
HETATM   35  C13 UNL     1       3.509   9.685  15.425  1.00  0.00    -0.046 A 
HETATM   36  C14 UNL     1       4.874   9.559  15.114  1.00  0.00     0.010 A 
HETATM   37  C15 UNL     1       5.823  10.488  15.551  1.00  0.00     0.031 A 
HETATM   38  C16 UNL     1       5.367  11.555  16.332  1.00  0.00     0.042 A 
HETATM   39  N1  UNL     1       6.062  12.602  16.894  1.00  0.00    -0.365 N 
HETATM   40  C19 UNL     1       4.027  11.713  16.686  1.00  0.00    -0.008 A 
HETATM   41  C17 UNL     1       5.205  13.416  17.593  1.00  0.00     0.089 A 
HETATM   42  H14 UNL     1       7.057  12.757  16.799  1.00  0.00     0.165 HD
HETATM   43  C18 UNL     1       3.939  12.888  17.482  1.00  0.00     0.030 A 
HETATM   44  C20 UNL     1       3.088  10.768  16.225  1.00  0.00     0.021 A 
ENDBRANCH   9  35
BRANCH  14  45
HETATM   45  C25 UNL     1      -1.908   3.103  11.931  1.00  0.00     0.208 C 
BRANCH  45  46
HETATM   46  O6  UNL     1      -2.770   2.700  10.873  1.00  0.00    -0.396 OA
HETATM   47  H22 UNL     1      -3.673   2.969  11.109  1.00  0.00     0.209 HD
ENDBRANCH  45  46
ENDBRANCH  14  45
BRANCH  22  48
HETATM   48  O8  UNL     1      -7.477   5.120  12.162  1.00  0.00    -0.387 OA
HETATM   49  H32 UNL     1      -7.556   6.083  12.045  1.00  0.00     0.210 HD
ENDBRANCH  22  48
TORSDOF 9
ENDMDL
MODEL 3
REMARK minimizedAffinity -7.16438007
REMARK CNNscore 0.382649153
REMARK CNNaffinity 6.22156906
REMARK  9 active torsions:
REMARK  status: ('A' for Active; 'I' for Inactive)
REMARK    1  A    between atoms: C2_2  and  O1_3 
REMARK    2  A    between atoms: O1_3  and  C3_4 
REMARK    3  A    between atoms: C3_4  and  C4_6 
REMARK    4  A    between atoms: C5_7  and  C6_8 
REMARK    5  A    between atoms: C12_16  and  C13_17 
REMARK    6  A    between atoms: C24_30  and  C25_31 
REMARK    7  A    between atoms: C25_31  and  O6_32 
REMARK    8  A    between atoms: C32_40  and  O8_42 
REMARK    9  A    between atoms: C35_44  and  O9_45 
ROOT
HETATM    1  C4  UNL     1     -18.034   1.461  15.551  1.00  0.00     0.165 C 
HETATM    2  C5  UNL     1     -17.673   1.728  14.276  1.00  0.00     0.053 C 
HETATM    3  C7  UNL     1     -17.463   0.554  13.410  1.00  0.00    -0.002 C 
HETATM    4  C8  UNL     1     -17.997   0.404  12.167  1.00  0.00    -0.066 C 
HETATM    5  C9  UNL     1     -17.935  -0.874  11.347  1.00  0.00     0.042 C 
HETATM    6  C10 UNL     1     -19.257  -1.290  10.707  1.00  0.00     0.083 C 
HETATM    7  C11 UNL     1     -20.440  -0.435  11.103  1.00  0.00     0.136 C 
HETATM    8  O4  UNL     1     -21.553  -0.953  11.234  1.00  0.00    -0.297 OA
HETATM    9  C12 UNL     1     -20.248   1.073  11.234  1.00  0.00     0.092 C 
HETATM   10  C21 UNL     1     -18.770   1.460  11.399  1.00  0.00     0.052 C 
HETATM   11  C22 UNL     1     -16.788  -0.567  14.123  1.00  0.00     0.044 C 
HETATM   12  C23 UNL     1     -17.260  -0.775  15.447  1.00  0.00     0.101 C 
HETATM   13  O5  UNL     1     -18.167   0.126  15.994  1.00  0.00    -0.302 OA
HETATM   14  C24 UNL     1     -16.805  -1.829  16.255  1.00  0.00     0.034 C 
HETATM   15  C26 UNL     1     -15.827  -2.634  15.696  1.00  0.00     0.090 C 
HETATM   16  O7  UNL     1     -15.248  -3.727  16.330  1.00  0.00    -0.341 OA
HETATM   17  C27 UNL     1     -14.712  -4.438  15.195  1.00  0.00     0.175 C 
HETATM   18  C28 UNL     1     -14.170  -3.368  14.237  1.00  0.00     0.079 C 
HETATM   19  C29 UNL     1     -13.834  -4.000  12.925  1.00  0.00    -0.019 C 
HETATM   20  C30 UNL     1     -13.423  -5.283  12.871  1.00  0.00    -0.027 C 
HETATM   21  C31 UNL     1     -13.323  -6.197  14.085  1.00  0.00     0.067 C 
HETATM   22  C32 UNL     1     -13.629  -5.501  15.453  1.00  0.00     0.085 C 
HETATM   23  C33 UNL     1     -14.076  -6.520  16.498  1.00  0.00     0.049 C 
HETATM   24  C34 UNL     1     -15.287  -2.403  14.418  1.00  0.00     0.021 C 
HETATM   25  C35 UNL     1     -15.718  -1.338  13.649  1.00  0.00     0.091 C 
ENDROOT
BRANCH   2  26
HETATM   26  C6  UNL     1     -17.389   3.097  13.775  1.00  0.00     0.273 C 
HETATM   27  O3  UNL     1     -18.276   3.933  13.637  1.00  0.00    -0.301 OA
ENDBRANCH   2  26
BRANCH   1  28
HETATM   28  C3  UNL     1     -18.287   2.470  16.616  1.00  0.00     0.318 C 
HETATM   29  O2  UNL     1     -19.382   2.626  17.133  1.00  0.00    -0.257 OA
BRANCH  28  30
HETATM   30  O1  UNL     1     -17.147   3.090  16.995  1.00  0.00    -0.316 OA
BRANCH  30  31
HETATM   31  C2  UNL     1     -17.186   4.530  17.011  1.00  0.00     0.175 C 
HETATM   32  C1  UNL     1     -17.225   5.012  18.450  1.00  0.00     0.034 C 
ENDBRANCH  30  31
ENDBRANCH  28  30
ENDBRANCH   1  28
BRANCH  25  33
HETATM   33  O9  UNL     1     -15.105  -1.101  12.452  1.00  0.00    -0.354 OA
HETATM   34  C36 UNL     1     -15.452  -2.101  11.494  1.00  0.00     0.210 C 
ENDBRANCH  25  33
BRANCH   9  35
HETATM   35  C13 UNL     1     -20.879   1.875  10.100  1.00  0.00    -0.046 A 
HETATM   36  C14 UNL     1     -21.470   3.130  10.323  1.00  0.00     0.010 A 
HETATM   37  C15 UNL     1     -22.086   3.852   9.297  1.00  0.00     0.031 A 
HETATM   38  C16 UNL     1     -22.109   3.271   8.025  1.00  0.00     0.042 A 
HETATM   39  N1  UNL     1     -22.639   3.742   6.844  1.00  0.00    -0.365 N 
HETATM   40  C19 UNL     1     -21.556   2.019   7.758  1.00  0.00    -0.008 A 
HETATM   41  C17 UNL     1     -22.439   2.828   5.840  1.00  0.00     0.089 A 
HETATM   42  H14 UNL     1     -23.098   4.636   6.730  1.00  0.00     0.165 HD
HETATM   43  C18 UNL     1     -21.773   1.750   6.377  1.00  0.00     0.030 A 
HETATM   44  C20 UNL     1     -20.932   1.314   8.807  1.00  0.00     0.021 A 
ENDBRANCH   9  35
BRANCH  14  45
HETATM   45  C25 UNL     1     -17.346  -2.080  17.633  1.00  0.00     0.208 C 
BRANCH  45  46
HETATM   46  O6  UNL     1     -16.320  -1.904  18.605  1.00  0.00    -0.396 OA
HETATM   47  H22 UNL     1     -15.553  -2.430  18.322  1.00  0.00     0.209 HD
ENDBRANCH  45  46
ENDBRANCH  14  45
BRANCH  22  48
HETATM   48  O8  UNL     1     -12.417  -4.921  15.965  1.00  0.00    -0.387 OA
HETATM   49  H32 UNL     1     -11.937  -4.490  15.236  1.00  0.00     0.210 HD
ENDBRANCH  22  48
TORSDOF 9
ENDMDL
MODEL 4
REMARK minimizedAffinity -7.90851212
REMARK CNNscore 0.372955829
REMARK CNNaffinity 7.08107805
REMARK  9 active torsions:
REMARK  status: ('A' for Active; 'I' for Inactive)
REMARK    1  A    between atoms: C2_2  and  O1_3 
REMARK    2  A    between atoms: O1_3  and  C3_4 
REMARK    3  A    between atoms: C3_4  and  C4_6 
REMARK    4  A    between atoms: C5_7  and  C6_8 
REMARK    5  A    between atoms: C12_16  and  C13_17 
REMARK    6  A    between atoms: C24_30  and  C25_31 
REMARK    7  A    between atoms: C25_31  and  O6_32 
REMARK    8  A    between atoms: C32_40  and  O8_42 
REMARK    9  A    between atoms: C35_44  and  O9_45 
ROOT
HETATM    1  C4  UNL     1     -12.794   7.685  14.281  1.00  0.00     0.165 C 
HETATM    2  C5  UNL     1     -11.601   8.023  13.743  1.00  0.00     0.053 C 
HETATM    3  C7  UNL     1     -10.575   8.482  14.695  1.00  0.00    -0.002 C 
HETATM    4  C8  UNL     1      -9.294   8.023  14.732  1.00  0.00    -0.066 C 
HETATM    5  C9  UNL     1      -8.287   8.356  15.822  1.00  0.00     0.042 C 
HETATM    6  C10 UNL     1      -7.511   7.158  16.365  1.00  0.00     0.083 C 
HETATM    7  C11 UNL     1      -7.966   5.821  15.825  1.00  0.00     0.136 C 
HETATM    8  O4  UNL     1      -7.947   4.827  16.557  1.00  0.00    -0.297 OA
HETATM    9  C12 UNL     1      -8.345   5.712  14.351  1.00  0.00     0.092 C 
HETATM   10  C21 UNL     1      -8.658   7.080  13.728  1.00  0.00     0.052 C 
HETATM   11  C22 UNL     1     -11.140   9.342  15.773  1.00  0.00     0.044 C 
HETATM   12  C23 UNL     1     -12.383   8.883  16.284  1.00  0.00     0.101 C 
HETATM   13  O5  UNL     1     -13.011   7.802  15.673  1.00  0.00    -0.302 OA
HETATM   14  C24 UNL     1     -13.040   9.511  17.353  1.00  0.00     0.034 C 
HETATM   15  C26 UNL     1     -12.420  10.642  17.856  1.00  0.00     0.090 C 
HETATM   16  O7  UNL     1     -12.907  11.405  18.911  1.00  0.00    -0.341 OA
HETATM   17  C27 UNL     1     -11.707  12.101  19.309  1.00  0.00     0.175 C 
HETATM   18  C28 UNL     1     -10.965  12.451  18.012  1.00  0.00     0.079 C 
HETATM   19  C29 UNL     1      -9.592  12.941  18.342  1.00  0.00    -0.019 C 
HETATM   20  C30 UNL     1      -9.360  13.595  19.498  1.00  0.00    -0.027 C 
HETATM   21  C31 UNL     1     -10.418  13.836  20.566  1.00  0.00     0.067 C 
HETATM   22  C32 UNL     1     -11.858  13.363  20.179  1.00  0.00     0.085 C 
HETATM   23  C33 UNL     1     -12.700  13.093  21.423  1.00  0.00     0.049 C 
HETATM   24  C34 UNL     1     -11.229  11.163  17.318  1.00  0.00     0.021 C 
HETATM   25  C35 UNL     1     -10.614  10.554  16.239  1.00  0.00     0.091 C 
ENDROOT
BRANCH   2  26
HETATM   26  C6  UNL     1     -11.342   8.049  12.280  1.00  0.00     0.273 C 
HETATM   27  O3  UNL     1     -11.602   9.032  11.594  1.00  0.00    -0.301 OA
ENDBRANCH   2  26
BRANCH   1  28
HETATM   28  C3  UNL     1     -13.988   7.211  13.530  1.00  0.00     0.318 C 
HETATM   29  O2  UNL     1     -14.605   7.921  12.750  1.00  0.00    -0.257 OA
BRANCH  28  30
HETATM   30  O1  UNL     1     -14.221   5.896  13.743  1.00  0.00    -0.316 OA
BRANCH  30  31
HETATM   31  C2  UNL     1     -15.159   5.580  14.788  1.00  0.00     0.175 C 
HETATM   32  C1  UNL     1     -15.712   4.185  14.559  1.00  0.00     0.034 C 
ENDBRANCH  30  31
ENDBRANCH  28  30
ENDBRANCH   1  28
BRANCH  25  33
HETATM   33  O9  UNL     1      -9.509  11.143  15.695  1.00  0.00    -0.354 OA
HETATM   34  C36 UNL     1      -9.879  12.121  14.722  1.00  0.00     0.210 C 
ENDBRANCH  25  33
BRANCH   9  35
HETATM   35  C13 UNL     1      -7.317   4.968  13.504  1.00  0.00    -0.046 A 
HETATM   36  C14 UNL     1      -7.635   3.772  12.839  1.00  0.00     0.010 A 
HETATM   37  C15 UNL     1      -6.686   3.065  12.094  1.00  0.00     0.031 A 
HETATM   38  C16 UNL     1      -5.390   3.585  12.042  1.00  0.00     0.042 A 
HETATM   39  N1  UNL     1      -4.268   3.111  11.398  1.00  0.00    -0.365 N 
HETATM   40  C19 UNL     1      -5.020   4.757  12.703  1.00  0.00    -0.008 A 
HETATM   41  C17 UNL     1      -3.202   3.944  11.631  1.00  0.00     0.089 A 
HETATM   42  H14 UNL     1      -4.236   2.276  10.828  1.00  0.00     0.165 HD
HETATM   43  C18 UNL     1      -3.638   4.970  12.437  1.00  0.00     0.030 A 
HETATM   44  C20 UNL     1      -5.996   5.457  13.440  1.00  0.00     0.021 A 
ENDBRANCH   9  35
BRANCH  14  45
HETATM   45  C25 UNL     1     -14.326   8.991  17.928  1.00  0.00     0.208 C 
BRANCH  45  46
HETATM   46  O6  UNL     1     -14.128   7.699  18.492  1.00  0.00    -0.396 OA
HETATM   47  H22 UNL     1     -13.683   7.151  17.825  1.00  0.00     0.209 HD
ENDBRANCH  45  46
ENDBRANCH  14  45
BRANCH  22  48
HETATM   48  O8  UNL     1     -12.527  14.423  19.475  1.00  0.00    -0.387 OA
HETATM   49  H32 UNL     1     -11.905  14.831  18.847  1.00  0.00     0.210 HD
ENDBRANCH  22  48
TORSDOF 9
ENDMDL
MODEL 5
REMARK minimizedAffinity -6.60888481
REMARK CNNscore 0.357897758
REMARK CNNaffinity 6.56625748
REMARK  9 active torsions:
REMARK  status: ('A' for Active; 'I' for Inactive)
REMARK    1  A    between atoms: C2_2  and  O1_3 
REMARK    2  A    between atoms: O1_3  and  C3_4 
REMARK    3  A    between atoms: C3_4  and  C4_6 
REMARK    4  A    between atoms: C5_7  and  C6_8 
REMARK    5  A    between atoms: C12_16  and  C13_17 
REMARK    6  A    between atoms: C24_30  and  C25_31 
REMARK    7  A    between atoms: C25_31  and  O6_32 
REMARK    8  A    between atoms: C32_40  and  O8_42 
REMARK    9  A    between atoms: C35_44  and  O9_45 
ROOT
HETATM    1  C4  UNL     1       6.108  11.938  20.663  1.00  0.00     0.165 C 
HETATM    2  C5  UNL     1       7.148  12.270  21.459  1.00  0.00     0.053 C 
HETATM    3  C7  UNL     1       8.282  12.933  20.791  1.00  0.00    -0.002 C 
HETATM    4  C8  UNL     1       8.881  14.073  21.231  1.00  0.00    -0.066 C 
HETATM    5  C9  UNL     1       9.924  14.858  20.453  1.00  0.00     0.042 C 
HETATM    6  C10 UNL     1       9.693  16.367  20.412  1.00  0.00     0.083 C 
HETATM    7  C11 UNL     1       8.392  16.817  21.038  1.00  0.00     0.136 C 
HETATM    8  O4  UNL     1       7.778  17.773  20.554  1.00  0.00    -0.297 OA
HETATM    9  C12 UNL     1       7.919  16.141  22.321  1.00  0.00     0.092 C 
HETATM   10  C21 UNL     1       8.593  14.778  22.544  1.00  0.00     0.052 C 
HETATM   11  C22 UNL     1       8.569  12.355  19.447  1.00  0.00     0.044 C 
HETATM   12  C23 UNL     1       7.406  12.065  18.685  1.00  0.00     0.101 C 
HETATM   13  O5  UNL     1       6.155  12.204  19.276  1.00  0.00    -0.302 OA
HETATM   14  C24 UNL     1       7.466  11.587  17.366  1.00  0.00     0.034 C 
HETATM   15  C26 UNL     1       8.738  11.370  16.865  1.00  0.00     0.090 C 
HETATM   16  O7  UNL     1       9.012  10.902  15.585  1.00  0.00    -0.341 OA
HETATM   17  C27 UNL     1      10.386  11.317  15.440  1.00  0.00     0.175 C 
HETATM   18  C28 UNL     1      11.047  11.093  16.807  1.00  0.00     0.079 C 
HETATM   19  C29 UNL     1      12.396  11.736  16.818  1.00  0.00    -0.019 C 
HETATM   20  C30 UNL     1      13.116  11.832  15.682  1.00  0.00    -0.027 C 
HETATM   21  C31 UNL     1      12.621  11.368  14.318  1.00  0.00     0.067 C 
HETATM   22  C32 UNL     1      11.230  10.651  14.338  1.00  0.00     0.085 C 
HETATM   23  C33 UNL     1      10.549  10.738  12.975  1.00  0.00     0.049 C 
HETATM   24  C34 UNL     1       9.904  11.575  17.625  1.00  0.00     0.021 C 
HETATM   25  C35 UNL     1       9.827  12.010  18.935  1.00  0.00     0.091 C 
ENDROOT
BRANCH   2  26
HETATM   26  C6  UNL     1       7.226  11.908  22.898  1.00  0.00     0.273 C 
HETATM   27  O3  UNL     1       8.233  11.406  23.386  1.00  0.00    -0.301 OA
ENDBRANCH   2  26
BRANCH   1  28
HETATM   28  C3  UNL     1       4.862  11.250  21.096  1.00  0.00     0.318 C 
HETATM   29  O2  UNL     1       4.088  10.726  20.310  1.00  0.00    -0.257 OA
BRANCH  28  30
HETATM   30  O1  UNL     1       4.766  11.193  22.444  1.00  0.00    -0.316 OA
BRANCH  30  31
HETATM   31  C2  UNL     1       4.361   9.927  22.996  1.00  0.00     0.175 C 
HETATM   32  C1  UNL     1       3.066  10.110  23.768  1.00  0.00     0.034 C 
ENDBRANCH  30  31
ENDBRANCH  28  30
ENDBRANCH   1  28
BRANCH  25  33
HETATM   33  O9  UNL     1      10.978  12.112  19.663  1.00  0.00    -0.354 OA
HETATM   34  C36 UNL     1      11.771  13.212  19.213  1.00  0.00     0.210 C 
ENDBRANCH  25  33
BRANCH   9  35
HETATM   35  C13 UNL     1       8.063  17.010  23.566  1.00  0.00    -0.046 A 
HETATM   36  C14 UNL     1       7.059  17.066  24.548  1.00  0.00     0.010 A 
HETATM   37  C15 UNL     1       7.167  17.892  25.672  1.00  0.00     0.031 A 
HETATM   38  C16 UNL     1       8.316  18.682  25.781  1.00  0.00     0.042 A 
HETATM   39  N1  UNL     1       8.686  19.576  26.761  1.00  0.00    -0.365 N 
HETATM   40  C19 UNL     1       9.329  18.678  24.823  1.00  0.00    -0.008 A 
HETATM   41  C17 UNL     1       9.900  20.138  26.452  1.00  0.00     0.089 A 
HETATM   42  H14 UNL     1       8.149  19.782  27.593  1.00  0.00     0.165 HD
HETATM   43  C18 UNL     1      10.320  19.602  25.257  1.00  0.00     0.030 A 
HETATM   44  C20 UNL     1       9.201  17.831  23.704  1.00  0.00     0.021 A 
ENDBRANCH   9  35
BRANCH  14  45
HETATM   45  C25 UNL     1       6.236  11.334  16.543  1.00  0.00     0.208 C 
BRANCH  45  46
HETATM   46  O6  UNL     1       5.282  10.594  17.297  1.00  0.00    -0.396 OA
HETATM   47  H22 UNL     1       5.737   9.821  17.671  1.00  0.00     0.209 HD
ENDBRANCH  45  46
ENDBRANCH  14  45
BRANCH  22  48
HETATM   48  O8  UNL     1      11.429   9.249  14.588  1.00  0.00    -0.387 OA
HETATM   49  H32 UNL     1      12.102   9.141  15.283  1.00  0.00     0.210 HD
ENDBRANCH  22  48
TORSDOF 9
ENDMDL
MODEL 6
REMARK minimizedAffinity -7.77119446
REMARK CNNscore 0.331482708
REMARK CNNaffinity 7.0153203
REMARK  9 active torsions:
REMARK  status: ('A' for Active; 'I' for Inactive)
REMARK    1  A    between atoms: C2_2  and  O1_3 
REMARK    2  A    between atoms: O1_3  and  C3_4 
REMARK    3  A    between atoms: C3_4  and  C4_6 
REMARK    4  A    between atoms: C5_7  and  C6_8 
REMARK    5  A    between atoms: C12_16  and  C13_17 
REMARK    6  A    between atoms: C24_30  and  C25_31 
REMARK    7  A    between atoms: C25_31  and  O6_32 
REMARK    8  A    between atoms: C32_40  and  O8_42 
REMARK    9  A    between atoms: C35_44  and  O9_45 
ROOT
HETATM    1  C4  UNL     1       1.961   7.835  11.716  1.00  0.00     0.165 C 
HETATM    2  C5  UNL     1       1.347   7.012  12.596  1.00  0.00     0.053 C 
HETATM    3  C7  UNL     1       0.744   7.664  13.771  1.00  0.00    -0.002 C 
HETATM    4  C8  UNL     1      -0.523   7.440  14.216  1.00  0.00    -0.066 C 
HETATM    5  C9  UNL     1      -1.209   8.239  15.312  1.00  0.00     0.042 C 
HETATM    6  C10 UNL     1      -2.635   8.678  14.987  1.00  0.00     0.083 C 
HETATM    7  C11 UNL     1      -3.082   8.361  13.577  1.00  0.00     0.136 C 
HETATM    8  O4  UNL     1      -3.830   9.141  12.982  1.00  0.00    -0.297 OA
HETATM    9  C12 UNL     1      -2.676   7.027  12.958  1.00  0.00     0.092 C 
HETATM   10  C21 UNL     1      -1.479   6.390  13.681  1.00  0.00     0.052 C 
HETATM   11  C22 UNL     1       1.585   8.775  14.302  1.00  0.00     0.044 C 
HETATM   12  C23 UNL     1       2.162   9.592  13.293  1.00  0.00     0.101 C 
HETATM   13  O5  UNL     1       2.020   9.226  11.959  1.00  0.00    -0.302 OA
HETATM   14  C24 UNL     1       2.924  10.733  13.588  1.00  0.00     0.034 C 
HETATM   15  C26 UNL     1       3.119  10.991  14.935  1.00  0.00     0.090 C 
HETATM   16  O7  UNL     1       3.840  12.069  15.434  1.00  0.00    -0.341 OA
HETATM   17  C27 UNL     1       3.331  12.126  16.783  1.00  0.00     0.175 C 
HETATM   18  C28 UNL     1       3.162  10.670  17.239  1.00  0.00     0.079 C 
HETATM   19  C29 UNL     1       2.399  10.636  18.523  1.00  0.00    -0.019 C 
HETATM   20  C30 UNL     1       2.495  11.654  19.401  1.00  0.00    -0.027 C 
HETATM   21  C31 UNL     1       3.311  12.916  19.156  1.00  0.00     0.067 C 
HETATM   22  C32 UNL     1       4.143  12.909  17.831  1.00  0.00     0.085 C 
HETATM   23  C33 UNL     1       4.445  14.330  17.364  1.00  0.00     0.049 C 
HETATM   24  C34 UNL     1       2.624  10.155  15.952  1.00  0.00     0.021 C 
HETATM   25  C35 UNL     1       1.907   9.013  15.644  1.00  0.00     0.091 C 
ENDROOT
BRANCH   2  26
HETATM   26  C6  UNL     1       1.357   5.531  12.474  1.00  0.00     0.273 C 
HETATM   27  O3  UNL     1       0.673   4.945  11.642  1.00  0.00    -0.301 OA
ENDBRANCH   2  26
BRANCH   1  28
HETATM   28  C3  UNL     1       2.655   7.418  10.468  1.00  0.00     0.318 C 
HETATM   29  O2  UNL     1       3.863   7.252  10.405  1.00  0.00    -0.257 OA
BRANCH  28  30
HETATM   30  O1  UNL     1       1.776   7.150   9.475  1.00  0.00    -0.316 OA
BRANCH  30  31
HETATM   31  C2  UNL     1       2.322   6.525   8.298  1.00  0.00     0.175 C 
HETATM   32  C1  UNL     1       1.966   7.358   7.080  1.00  0.00     0.034 C 
ENDBRANCH  30  31
ENDBRANCH  28  30
ENDBRANCH   1  28
BRANCH  25  33
HETATM   33  O9  UNL     1       1.522   8.186  16.659  1.00  0.00    -0.354 OA
HETATM   34  C36 UNL     1       2.287   6.980  16.653  1.00  0.00     0.210 C 
ENDBRANCH  25  33
BRANCH   9  35
HETATM   35  C13 UNL     1      -3.820   6.024  12.849  1.00  0.00    -0.046 A 
HETATM   36  C14 UNL     1      -5.045   6.226  13.508  1.00  0.00     0.010 A 
HETATM   37  C15 UNL     1      -6.083   5.292  13.444  1.00  0.00     0.031 A 
HETATM   38  C16 UNL     1      -5.857   4.127  12.705  1.00  0.00     0.042 A 
HETATM   39  N1  UNL     1      -6.683   3.050  12.472  1.00  0.00    -0.365 N 
HETATM   40  C19 UNL     1      -4.651   3.871  12.051  1.00  0.00    -0.008 A 
HETATM   41  C17 UNL     1      -6.038   2.121  11.693  1.00  0.00     0.089 A 
HETATM   42  H14 UNL     1      -7.630   2.960  12.815  1.00  0.00     0.165 HD
HETATM   43  C18 UNL     1      -4.779   2.602  11.419  1.00  0.00     0.030 A 
HETATM   44  C20 UNL     1      -3.623   4.832  12.122  1.00  0.00     0.021 A 
ENDBRANCH   9  35
BRANCH  14  45
HETATM   45  C25 UNL     1       3.487  11.626  12.521  1.00  0.00     0.208 C 
BRANCH  45  46
HETATM   46  O6  UNL     1       3.137  12.982  12.778  1.00  0.00    -0.396 OA
HETATM   47  H22 UNL     1       2.178  13.016  12.930  1.00  0.00     0.209 HD
ENDBRANCH  45  46
ENDBRANCH  14  45
BRANCH  22  48
HETATM   48  O8  UNL     1       5.421  12.300  18.084  1.00  0.00    -0.387 OA
HETATM   49  H32 UNL     1       5.295  11.516  18.646  1.00  0.00     0.210 HD
ENDBRANCH  22  48
TORSDOF 9
ENDMDL
MODEL 7
REMARK minimizedAffinity -6.40120506
REMARK CNNscore 0.291880757
REMARK CNNaffinity 5.83313227
REMARK  9 active torsions:
REMARK  status: ('A' for Active; 'I' for Inactive)
REMARK    1  A    between atoms: C2_2  and  O1_3 
REMARK    2  A    between atoms: O1_3  and  C3_4 
REMARK    3  A    between atoms: C3_4  and  C4_6 
REMARK    4  A    between atoms: C5_7  and  C6_8 
REMARK    5  A    between atoms: C12_16  and  C13_17 
REMARK    6  A    between atoms: C24_30  and  C25_31 
REMARK    7  A    between atoms: C25_31  and  O6_32 
REMARK    8  A    between atoms: C32_40  and  O8_42 
REMARK    9  A    between atoms: C35_44  and  O9_45 
ROOT
HETATM    1  C4  UNL     1       6.301  12.668  20.863  1.00  0.00     0.165 C 
HETATM    2  C5  UNL     1       7.647  12.635  20.972  1.00  0.00     0.053 C 
HETATM    3  C7  UNL     1       8.392  12.565  19.703  1.00  0.00    -0.002 C 
HETATM    4  C8  UNL     1       9.443  13.367  19.377  1.00  0.00    -0.066 C 
HETATM    5  C9  UNL     1      10.095  13.422  18.005  1.00  0.00     0.042 C 
HETATM    6  C10 UNL     1      10.342  14.831  17.469  1.00  0.00     0.083 C 
HETATM    7  C11 UNL     1       9.776  15.937  18.333  1.00  0.00     0.136 C 
HETATM    8  O4  UNL     1       9.320  16.954  17.803  1.00  0.00    -0.297 OA
HETATM    9  C12 UNL     1       9.877  15.811  19.849  1.00  0.00     0.092 C 
HETATM   10  C21 UNL     1      10.121  14.362  20.299  1.00  0.00     0.052 C 
HETATM   11  C22 UNL     1       7.736  11.674  18.705  1.00  0.00     0.044 C 
HETATM   12  C23 UNL     1       6.322  11.806  18.656  1.00  0.00     0.101 C 
HETATM   13  O5  UNL     1       5.683  12.612  19.593  1.00  0.00    -0.302 OA
HETATM   14  C24 UNL     1       5.528  11.111  17.731  1.00  0.00     0.034 C 
HETATM   15  C26 UNL     1       6.207  10.245  16.891  1.00  0.00     0.090 C 
HETATM   16  O7  UNL     1       5.607   9.468  15.908  1.00  0.00    -0.341 OA
HETATM   17  C27 UNL     1       6.745   9.173  15.072  1.00  0.00     0.175 C 
HETATM   18  C28 UNL     1       7.926   8.939  16.024  1.00  0.00     0.079 C 
HETATM   19  C29 UNL     1       9.195   8.883  15.237  1.00  0.00    -0.019 C 
HETATM   20  C30 UNL     1       9.194   8.420  13.970  1.00  0.00    -0.027 C 
HETATM   21  C31 UNL     1       7.940   7.981  13.226  1.00  0.00     0.067 C 
HETATM   22  C32 UNL     1       6.632   7.997  14.084  1.00  0.00     0.085 C 
HETATM   23  C33 UNL     1       5.396   8.122  13.197  1.00  0.00     0.049 C 
HETATM   24  C34 UNL     1       7.596  10.037  16.969  1.00  0.00     0.021 C 
HETATM   25  C35 UNL     1       8.359  10.702  17.912  1.00  0.00     0.091 C 
ENDROOT
BRANCH   2  26
HETATM   26  C6  UNL     1       8.362  12.561  22.273  1.00  0.00     0.273 C 
HETATM   27  O3  UNL     1       9.065  11.602  22.571  1.00  0.00    -0.301 OA
ENDBRANCH   2  26
BRANCH   1  28
HETATM   28  C3  UNL     1       5.334  12.723  21.994  1.00  0.00     0.318 C 
HETATM   29  O2  UNL     1       4.645  13.704  22.228  1.00  0.00    -0.257 OA
BRANCH  28  30
HETATM   30  O1  UNL     1       5.250  11.536  22.635  1.00  0.00    -0.316 OA
BRANCH  30  31
HETATM   31  C2  UNL     1       4.208  10.648  22.188  1.00  0.00     0.175 C 
HETATM   32  C1  UNL     1       3.586   9.962  23.391  1.00  0.00     0.034 C 
ENDBRANCH  30  31
ENDBRANCH  28  30
ENDBRANCH   1  28
BRANCH  25  33
HETATM   33  O9  UNL     1       9.688  10.404  18.010  1.00  0.00    -0.354 OA
HETATM   34  C36 UNL     1      10.420  10.971  16.922  1.00  0.00     0.210 C 
ENDBRANCH  25  33
BRANCH   9  35
HETATM   35  C13 UNL     1      10.911  16.740  20.478  1.00  0.00    -0.046 A 
HETATM   36  C14 UNL     1      10.666  17.405  21.691  1.00  0.00     0.010 A 
HETATM   37  C15 UNL     1      11.593  18.288  22.252  1.00  0.00     0.031 A 
HETATM   38  C16 UNL     1      12.783  18.503  21.550  1.00  0.00     0.042 A 
HETATM   39  N1  UNL     1      13.860  19.307  21.854  1.00  0.00    -0.365 N 
HETATM   40  C19 UNL     1      13.064  17.884  20.332  1.00  0.00    -0.008 A 
HETATM   41  C17 UNL     1      14.811  19.216  20.868  1.00  0.00     0.089 A 
HETATM   42  H14 UNL     1      13.944  19.874  22.688  1.00  0.00     0.165 HD
HETATM   43  C18 UNL     1      14.343  18.344  19.912  1.00  0.00     0.030 A 
HETATM   44  C20 UNL     1      12.117  16.991  19.791  1.00  0.00     0.021 A 
ENDBRANCH   9  35
BRANCH  14  45
HETATM   45  C25 UNL     1       4.040  11.294  17.645  1.00  0.00     0.208 C 
BRANCH  45  46
HETATM   46  O6  UNL     1       3.406  10.713  18.780  1.00  0.00    -0.396 OA
HETATM   47  H22 UNL     1       3.740   9.806  18.872  1.00  0.00     0.209 HD
ENDBRANCH  45  46
ENDBRANCH  14  45
BRANCH  22  48
HETATM   48  O8  UNL     1       6.501   6.736  14.762  1.00  0.00    -0.387 OA
HETATM   49  H32 UNL     1       7.370   6.469  15.109  1.00  0.00     0.210 HD
ENDBRANCH  22  48
TORSDOF 9
ENDMDL
MODEL 8
REMARK minimizedAffinity -6.73351908
REMARK CNNscore 0.269056201
REMARK CNNaffinity 6.35931206
REMARK  9 active torsions:
REMARK  status: ('A' for Active; 'I' for Inactive)
REMARK    1  A    between atoms: C2_2  and  O1_3 
REMARK    2  A    between atoms: O1_3  and  C3_4 
REMARK    3  A    between atoms: C3_4  and  C4_6 
REMARK    4  A    between atoms: C5_7  and  C6_8 
REMARK    5  A    between atoms: C12_16  and  C13_17 
REMARK    6  A    between atoms: C24_30  and  C25_31 
REMARK    7  A    between atoms: C25_31  and  O6_32 
REMARK    8  A    between atoms: C32_40  and  O8_42 
REMARK    9  A    between atoms: C35_44  and  O9_45 
ROOT
HETATM    1  C4  UNL     1     -14.071   3.422  25.361  1.00  0.00     0.165 C 
HETATM    2  C5  UNL     1     -14.740   4.433  24.764  1.00  0.00     0.053 C 
HETATM    3  C7  UNL     1     -14.835   5.684  25.537  1.00  0.00    -0.002 C 
HETATM    4  C8  UNL     1     -14.549   6.921  25.046  1.00  0.00    -0.066 C 
HETATM    5  C9  UNL     1     -14.469   8.187  25.883  1.00  0.00     0.042 C 
HETATM    6  C10 UNL     1     -13.246   9.060  25.609  1.00  0.00     0.083 C 
HETATM    7  C11 UNL     1     -12.249   8.455  24.647  1.00  0.00     0.136 C 
HETATM    8  O4  UNL     1     -11.041   8.653  24.813  1.00  0.00    -0.297 OA
HETATM    9  C12 UNL     1     -12.766   7.695  23.430  1.00  0.00     0.092 C 
HETATM   10  C21 UNL     1     -14.227   7.250  23.600  1.00  0.00     0.052 C 
HETATM   11  C22 UNL     1     -15.059   5.441  26.990  1.00  0.00     0.044 C 
HETATM   12  C23 UNL     1     -14.289   4.372  27.521  1.00  0.00     0.101 C 
HETATM   13  O5  UNL     1     -13.533   3.587  26.658  1.00  0.00    -0.302 OA
HETATM   14  C24 UNL     1     -14.301   4.035  28.883  1.00  0.00     0.034 C 
HETATM   15  C26 UNL     1     -15.150   4.785  29.679  1.00  0.00     0.090 C 
HETATM   16  O7  UNL     1     -15.306   4.610  31.049  1.00  0.00    -0.341 OA
HETATM   17  C27 UNL     1     -15.876   5.884  31.414  1.00  0.00     0.175 C 
HETATM   18  C28 UNL     1     -16.845   6.259  30.284  1.00  0.00     0.079 C 
HETATM   19  C29 UNL     1     -17.282   7.678  30.455  1.00  0.00    -0.019 C 
HETATM   20  C30 UNL     1     -17.375   8.221  31.686  1.00  0.00    -0.027 C 
HETATM   21  C31 UNL     1     -16.999   7.490  32.968  1.00  0.00     0.067 C 
HETATM   22  C32 UNL     1     -16.595   5.992  32.772  1.00  0.00     0.085 C 
HETATM   23  C33 UNL     1     -15.711   5.508  33.918  1.00  0.00     0.049 C 
HETATM   24  C34 UNL     1     -15.981   5.797  29.166  1.00  0.00     0.021 C 
HETATM   25  C35 UNL     1     -15.986   6.092  27.815  1.00  0.00     0.091 C 
ENDROOT
BRANCH   2  26
HETATM   26  C6  UNL     1     -15.442   4.294  23.462  1.00  0.00     0.273 C 
HETATM   27  O3  UNL     1     -16.558   3.791  23.379  1.00  0.00    -0.301 OA
ENDBRANCH   2  26
BRANCH   1  28
HETATM   28  C3  UNL     1     -13.855   2.063  24.795  1.00  0.00     0.318 C 
HETATM   29  O2  UNL     1     -14.505   1.089  25.142  1.00  0.00    -0.257 OA
BRANCH  28  30
HETATM   30  O1  UNL     1     -12.944   2.079  23.795  1.00  0.00    -0.316 OA
BRANCH  30  31
HETATM   31  C2  UNL     1     -11.565   2.180  24.199  1.00  0.00     0.175 C 
HETATM   32  C1  UNL     1     -11.173   0.923  24.954  1.00  0.00     0.034 C 
ENDBRANCH  30  31
ENDBRANCH  28  30
ENDBRANCH   1  28
BRANCH  25  33
HETATM   33  O9  UNL     1     -16.871   7.022  27.349  1.00  0.00    -0.354 OA
HETATM   34  C36 UNL     1     -16.489   8.337  27.753  1.00  0.00     0.210 C 
ENDBRANCH  25  33
BRANCH   9  35
HETATM   35  C13 UNL     1     -12.594   8.447  22.114  1.00  0.00    -0.046 A 
HETATM   36  C14 UNL     1     -13.210   8.012  20.929  1.00  0.00     0.010 A 
HETATM   37  C15 UNL     1     -13.023   8.674  19.711  1.00  0.00     0.031 A 
HETATM   38  C16 UNL     1     -12.180   9.790  19.707  1.00  0.00     0.042 A 
HETATM   39  N1  UNL     1     -11.816  10.622  18.673  1.00  0.00    -0.365 N 
HETATM   40  C19 UNL     1     -11.529  10.248  20.853  1.00  0.00    -0.008 A 
HETATM   41  C17 UNL     1     -10.955  11.591  19.127  1.00  0.00     0.089 A 
HETATM   42  H14 UNL     1     -12.142  10.540  17.719  1.00  0.00     0.165 HD
HETATM   43  C18 UNL     1     -10.758  11.381  20.472  1.00  0.00     0.030 A 
HETATM   44  C20 UNL     1     -11.740   9.569  22.070  1.00  0.00     0.021 A 
ENDBRANCH   9  35
BRANCH  14  45
HETATM   45  C25 UNL     1     -13.444   2.940  29.451  1.00  0.00     0.208 C 
BRANCH  45  46
HETATM   46  O6  UNL     1     -13.763   1.696  28.837  1.00  0.00    -0.396 OA
HETATM   47  H22 UNL     1     -14.726   1.581  28.887  1.00  0.00     0.209 HD
ENDBRANCH  45  46
ENDBRANCH  14  45
BRANCH  22  48
HETATM   48  O8  UNL     1     -17.779   5.177  32.820  1.00  0.00    -0.387 OA
HETATM   49  H32 UNL     1     -18.488   5.615  32.317  1.00  0.00     0.210 HD
ENDBRANCH  22  48
TORSDOF 9
ENDMDL
MODEL 9
REMARK minimizedAffinity -6.53416872
REMARK CNNscore 0.253808856
REMARK CNNaffinity 5.76357126
REMARK  9 active torsions:
REMARK  status: ('A' for Active; 'I' for Inactive)
REMARK    1  A    between atoms: C2_2  and  O1_3 
REMARK    2  A    between atoms: O1_3  and  C3_4 
REMARK    3  A    between atoms: C3_4  and  C4_6 
REMARK    4  A    between atoms: C5_7  and  C6_8 
REMARK    5  A    between atoms: C12_16  and  C13_17 
REMARK    6  A    between atoms: C24_30  and  C25_31 
REMARK    7  A    between atoms: C25_31  and  O6_32 
REMARK    8  A    between atoms: C32_40  and  O8_42 
REMARK    9  A    between atoms: C35_44  and  O9_45 
ROOT
HETATM    1  C4  UNL     1     -13.891   2.562  26.641  1.00  0.00     0.165 C 
HETATM    2  C5  UNL     1     -13.782   3.203  25.456  1.00  0.00     0.053 C 
HETATM    3  C7  UNL     1     -14.985   3.922  25.002  1.00  0.00    -0.002 C 
HETATM    4  C8  UNL     1     -14.996   5.208  24.556  1.00  0.00    -0.066 C 
HETATM    5  C9  UNL     1     -16.253   6.011  24.260  1.00  0.00     0.042 C 
HETATM    6  C10 UNL     1     -16.259   7.426  24.833  1.00  0.00     0.083 C 
HETATM    7  C11 UNL     1     -15.071   7.750  25.713  1.00  0.00     0.136 C 
HETATM    8  O4  UNL     1     -15.219   8.485  26.694  1.00  0.00    -0.297 OA
HETATM    9  C12 UNL     1     -13.693   7.239  25.306  1.00  0.00     0.092 C 
HETATM   10  C21 UNL     1     -13.775   6.073  24.309  1.00  0.00     0.052 C 
HETATM   11  C22 UNL     1     -16.241   3.175  25.295  1.00  0.00     0.044 C 
HETATM   12  C23 UNL     1     -16.260   2.559  26.575  1.00  0.00     0.101 C 
HETATM   13  O5  UNL     1     -15.109   2.583  27.357  1.00  0.00    -0.302 OA
HETATM   14  C24 UNL     1     -17.380   1.874  27.069  1.00  0.00     0.034 C 
HETATM   15  C26 UNL     1     -18.461   1.793  26.208  1.00  0.00     0.090 C 
HETATM   16  O7  UNL     1     -19.662   1.161  26.506  1.00  0.00    -0.341 OA
HETATM   17  C27 UNL     1     -20.533   1.773  25.532  1.00  0.00     0.175 C 
HETATM   18  C28 UNL     1     -19.706   1.911  24.246  1.00  0.00     0.079 C 
HETATM   19  C29 UNL     1     -20.445   2.768  23.269  1.00  0.00    -0.019 C 
HETATM   20  C30 UNL     1     -21.794   2.783  23.259  1.00  0.00    -0.027 C 
HETATM   21  C31 UNL     1     -22.662   2.008  24.241  1.00  0.00     0.067 C 
HETATM   22  C32 UNL     1     -21.871   1.078  25.219  1.00  0.00     0.085 C 
HETATM   23  C33 UNL     1     -22.675   0.806  26.488  1.00  0.00     0.049 C 
HETATM   24  C34 UNL     1     -18.441   2.326  24.906  1.00  0.00     0.021 C 
HETATM   25  C35 UNL     1     -17.315   2.966  24.420  1.00  0.00     0.091 C 
ENDROOT
BRANCH   2  26
HETATM   26  C6  UNL     1     -12.579   3.119  24.587  1.00  0.00     0.273 C 
HETATM   27  O3  UNL     1     -12.601   2.538  23.507  1.00  0.00    -0.301 OA
ENDBRANCH   2  26
BRANCH   1  28
HETATM   28  C3  UNL     1     -12.827   1.758  27.300  1.00  0.00     0.318 C 
HETATM   29  O2  UNL     1     -11.863   1.313  26.695  1.00  0.00    -0.257 OA
BRANCH  28  30
HETATM   30  O1  UNL     1     -13.014   1.684  28.637  1.00  0.00    -0.316 OA
BRANCH  30  31
HETATM   31  C2  UNL     1     -12.045   2.372  29.450  1.00  0.00     0.175 C 
HETATM   32  C1  UNL     1     -12.416   3.842  29.532  1.00  0.00     0.034 C 
ENDBRANCH  30  31
ENDBRANCH  28  30
ENDBRANCH   1  28
BRANCH  25  33
HETATM   33  O9  UNL     1     -17.309   3.390  23.122  1.00  0.00    -0.354 OA
HETATM   34  C36 UNL     1     -18.156   4.528  22.953  1.00  0.00     0.210 C 
ENDBRANCH  25  33
BRANCH   9  35
HETATM   35  C13 UNL     1     -12.766   8.326  24.773  1.00  0.00    -0.046 A 
HETATM   36  C14 UNL     1     -11.586   8.014  24.076  1.00  0.00     0.010 A 
HETATM   37  C15 UNL     1     -10.711   9.004  23.619  1.00  0.00     0.031 A 
HETATM   38  C16 UNL     1     -11.045  10.334  23.894  1.00  0.00     0.042 A 
HETATM   39  N1  UNL     1     -10.383  11.499  23.575  1.00  0.00    -0.365 N 
HETATM   40  C19 UNL     1     -12.193  10.694  24.600  1.00  0.00    -0.008 A 
HETATM   41  C17 UNL     1     -11.074  12.582  24.057  1.00  0.00     0.089 A 
HETATM   42  H14 UNL     1      -9.518  11.551  23.051  1.00  0.00     0.165 HD
HETATM   43  C18 UNL     1     -12.197  12.113  24.698  1.00  0.00     0.030 A 
HETATM   44  C20 UNL     1     -13.063   9.678  25.043  1.00  0.00     0.021 A 
ENDBRANCH   9  35
BRANCH  14  45
HETATM   45  C25 UNL     1     -17.418   1.272  28.445  1.00  0.00     0.208 C 
BRANCH  45  46
HETATM   46  O6  UNL     1     -16.994   2.227  29.412  1.00  0.00    -0.396 OA
HETATM   47  H22 UNL     1     -16.149   2.598  29.109  1.00  0.00     0.209 HD
ENDBRANCH  45  46
ENDBRANCH  14  45
BRANCH  22  48
HETATM   48  O8  UNL     1     -21.677  -0.202  24.595  1.00  0.00    -0.387 OA
HETATM   49  H32 UNL     1     -21.434  -0.069  23.662  1.00  0.00     0.210 HD
ENDBRANCH  22  48
TORSDOF 9
ENDMDL
