MODEL 1
REMARK minimizedAffinity -7.10290098
REMARK CNNscore 0.617460668
REMARK CNNaffinity 6.81567526
REMARK  6 active torsions:
REMARK  status: ('A' for Active; 'I' for Inactive)
REMARK    1  A    between atoms: C2_2  and  C30_32 
REMARK    2  A    between atoms: C3_3  and  C4_4 
REMARK    3  A    between atoms: C4_4  and  C5_5 
REMARK    4  A    between atoms: C5_5  and  C6_6 
REMARK    5  A    between atoms: C6_6  and  C8_8 
REMARK    6  A    between atoms: C30_32  and  O4_34 
ROOT
HETATM    1  C8  UNL     1       2.568  54.879  -9.085  1.00  0.00    -0.002 C 
HETATM    2  C9  UNL     1       2.887  54.034  -7.819  1.00  0.00     0.007 C 
HETATM    3  C10 UNL     1       1.679  53.106  -7.580  1.00  0.00     0.015 C 
HETATM    4  C11 UNL     1       0.546  53.701  -8.436  1.00  0.00    -0.005 C 
HETATM    5  C12 UNL     1      -0.080  54.876  -7.618  1.00  0.00     0.021 C 
HETATM    6  C13 UNL     1      -0.637  52.840  -8.842  1.00  0.00    -0.000 C 
HETATM    7  C14 UNL     1      -1.336  53.054  -9.985  1.00  0.00    -0.060 C 
HETATM    8  C15 UNL     1      -0.860  54.155 -10.960  1.00  0.00     0.036 C 
HETATM    9  C16 UNL     1       0.413  54.953 -10.595  1.00  0.00     0.015 C 
HETATM   10  C17 UNL     1       1.362  54.126  -9.720  1.00  0.00    -0.028 C 
HETATM   11  C18 UNL     1       1.865  52.911 -10.553  1.00  0.00     0.016 C 
HETATM   12  C19 UNL     1      -2.660  52.304 -10.350  1.00  0.00    -0.014 C 
HETATM   13  C20 UNL     1      -3.768  53.397 -10.317  1.00  0.00     0.020 C 
HETATM   14  C21 UNL     1      -2.609  51.717 -11.791  1.00  0.00     0.021 C 
HETATM   15  C22 UNL     1      -2.145  50.273 -11.837  1.00  0.00     0.080 C 
HETATM   16  C23 UNL     1      -3.139  49.383 -11.127  1.00  0.00     0.135 C 
HETATM   17  O1  UNL     1      -3.320  48.227 -11.514  1.00  0.00    -0.297 OA
HETATM   18  C24 UNL     1      -3.890  49.964  -9.921  1.00  0.00     0.018 C 
HETATM   19  C25 UNL     1      -5.300  50.377 -10.388  1.00  0.00     0.023 C 
HETATM   20  C26 UNL     1      -4.095  48.830  -8.888  1.00  0.00     0.023 C 
HETATM   21  C27 UNL     1      -3.073  51.170  -9.307  1.00  0.00     0.020 C 
HETATM   22  C28 UNL     1      -1.862  50.648  -8.517  1.00  0.00     0.090 C 
HETATM   23  C29 UNL     1      -1.082  51.775  -7.915  1.00  0.00     0.157 C 
HETATM   24  O2  UNL     1      -0.780  51.784  -6.725  1.00  0.00    -0.293 OA
ENDROOT
BRANCH   1  25
HETATM   25  C6  UNL     1       3.833  55.302  -9.891  1.00  0.00    -0.014 C 
HETATM   26  C7  UNL     1       3.631  56.318 -11.021  1.00  0.00     0.010 C 
BRANCH  25  27
HETATM   27  C5  UNL     1       4.979  55.747  -8.956  1.00  0.00     0.008 C 
BRANCH  27  28
HETATM   28  C4  UNL     1       6.296  55.004  -9.213  1.00  0.00     0.028 C 
BRANCH  28  29
HETATM   29  C3  UNL     1       6.607  54.045  -8.097  1.00  0.00    -0.013 C 
HETATM   30  C2  UNL     1       6.625  52.697  -8.132  1.00  0.00     0.008 C 
HETATM   31  C1  UNL     1       7.055  51.882  -6.946  1.00  0.00     0.055 C 
BRANCH  30  32
HETATM   32  C30 UNL     1       6.255  51.880  -9.309  1.00  0.00     0.171 C 
HETATM   33  O3  UNL     1       5.130  51.773  -9.766  1.00  0.00    -0.646 OA
BRANCH  32  34
HETATM   34  O4  UNL     1       7.310  51.317  -9.919  1.00  0.00    -0.773 OA
HETATM   35  H44 UNL     1       6.912  50.857 -10.687  1.00  0.00     0.167 HD
ENDBRANCH  32  34
ENDBRANCH  30  32
ENDBRANCH  28  29
ENDBRANCH  27  28
ENDBRANCH  25  27
ENDBRANCH   1  25
TORSDOF 6
ENDMDL
MODEL 2
REMARK minimizedAffinity -8.03412914
REMARK CNNscore 0.607441187
REMARK CNNaffinity 7.25833559
REMARK  6 active torsions:
REMARK  status: ('A' for Active; 'I' for Inactive)
REMARK    1  A    between atoms: C2_2  and  C30_32 
REMARK    2  A    between atoms: C3_3  and  C4_4 
REMARK    3  A    between atoms: C4_4  and  C5_5 
REMARK    4  A    between atoms: C5_5  and  C6_6 
REMARK    5  A    between atoms: C6_6  and  C8_8 
REMARK    6  A    between atoms: C30_32  and  O4_34 
ROOT
HETATM    1  C8  UNL     1      -1.998  52.449 -11.109  1.00  0.00    -0.002 C 
HETATM    2  C9  UNL     1      -1.545  50.990 -11.396  1.00  0.00     0.007 C 
HETATM    3  C10 UNL     1      -0.007  50.965 -11.290  1.00  0.00     0.015 C 
HETATM    4  C11 UNL     1       0.418  52.444 -11.351  1.00  0.00    -0.005 C 
HETATM    5  C12 UNL     1       0.439  52.855 -12.858  1.00  0.00     0.021 C 
HETATM    6  C13 UNL     1       1.774  52.872 -10.816  1.00  0.00    -0.000 C 
HETATM    7  C14 UNL     1       2.001  54.111 -10.313  1.00  0.00    -0.060 C 
HETATM    8  C15 UNL     1       0.819  55.098 -10.191  1.00  0.00     0.036 C 
HETATM    9  C16 UNL     1      -0.583  54.618 -10.633  1.00  0.00     0.015 C 
HETATM   10  C17 UNL     1      -0.728  53.099 -10.485  1.00  0.00    -0.028 C 
HETATM   11  C18 UNL     1      -0.630  52.741  -8.973  1.00  0.00     0.016 C 
HETATM   12  C19 UNL     1       3.417  54.644  -9.916  1.00  0.00    -0.014 C 
HETATM   13  C20 UNL     1       3.721  55.783 -10.931  1.00  0.00     0.020 C 
HETATM   14  C21 UNL     1       3.418  55.261  -8.487  1.00  0.00     0.021 C 
HETATM   15  C22 UNL     1       3.828  54.279  -7.406  1.00  0.00     0.080 C 
HETATM   16  C23 UNL     1       5.263  53.850  -7.607  1.00  0.00     0.135 C 
HETATM   17  O1  UNL     1       5.972  53.584  -6.634  1.00  0.00    -0.297 OA
HETATM   18  C24 UNL     1       5.788  53.750  -9.046  1.00  0.00     0.018 C 
HETATM   19  C25 UNL     1       6.614  55.017  -9.344  1.00  0.00     0.023 C 
HETATM   20  C26 UNL     1       6.780  52.564  -9.117  1.00  0.00     0.023 C 
HETATM   21  C27 UNL     1       4.579  53.560 -10.049  1.00  0.00     0.020 C 
HETATM   22  C28 UNL     1       4.039  52.123  -9.966  1.00  0.00     0.090 C 
HETATM   23  C29 UNL     1       2.902  51.918 -10.918  1.00  0.00     0.157 C 
HETATM   24  O2  UNL     1       2.884  50.974 -11.702  1.00  0.00    -0.293 OA
ENDROOT
BRANCH   1  25
HETATM   25  C6  UNL     1      -3.414  52.552 -10.467  1.00  0.00    -0.014 C 
HETATM   26  C7  UNL     1      -4.061  53.941 -10.423  1.00  0.00     0.010 C 
BRANCH  25  27
HETATM   27  C5  UNL     1      -4.388  51.517 -11.075  1.00  0.00     0.008 C 
BRANCH  27  28
HETATM   28  C4  UNL     1      -4.688  50.342 -10.136  1.00  0.00     0.028 C 
BRANCH  28  29
HETATM   29  C3  UNL     1      -5.433  49.249 -10.853  1.00  0.00    -0.013 C 
HETATM   30  C2  UNL     1      -6.692  48.814 -10.640  1.00  0.00     0.008 C 
HETATM   31  C1  UNL     1      -7.326  47.771 -11.515  1.00  0.00     0.055 C 
BRANCH  30  32
HETATM   32  C30 UNL     1      -7.584  49.309  -9.567  1.00  0.00     0.171 C 
HETATM   33  O3  UNL     1      -7.767  48.758  -8.495  1.00  0.00    -0.646 OA
BRANCH  32  34
HETATM   34  O4  UNL     1      -8.125  50.507  -9.835  1.00  0.00    -0.773 OA
HETATM   35  H44 UNL     1      -8.642  50.711  -9.027  1.00  0.00     0.167 HD
ENDBRANCH  32  34
ENDBRANCH  30  32
ENDBRANCH  28  29
ENDBRANCH  27  28
ENDBRANCH  25  27
ENDBRANCH   1  25
TORSDOF 6
ENDMDL
MODEL 3
REMARK minimizedAffinity -7.1508131
REMARK CNNscore 0.437091261
REMARK CNNaffinity 6.55285263
REMARK  6 active torsions:
REMARK  status: ('A' for Active; 'I' for Inactive)
REMARK    1  A    between atoms: C2_2  and  C30_32 
REMARK    2  A    between atoms: C3_3  and  C4_4 
REMARK    3  A    between atoms: C4_4  and  C5_5 
REMARK    4  A    between atoms: C5_5  and  C6_6 
REMARK    5  A    between atoms: C6_6  and  C8_8 
REMARK    6  A    between atoms: C30_32  and  O4_34 
ROOT
HETATM    1  C8  UNL     1       2.170  54.400  -9.525  1.00  0.00    -0.002 C 
HETATM    2  C9  UNL     1       2.512  53.591  -8.242  1.00  0.00     0.007 C 
HETATM    3  C10 UNL     1       1.298  52.689  -7.939  1.00  0.00     0.015 C 
HETATM    4  C11 UNL     1       0.151  53.275  -8.783  1.00  0.00    -0.005 C 
HETATM    5  C12 UNL     1      -0.436  54.484  -7.986  1.00  0.00     0.021 C 
HETATM    6  C13 UNL     1      -1.056  52.420  -9.128  1.00  0.00    -0.000 C 
HETATM    7  C14 UNL     1      -1.784  52.609 -10.258  1.00  0.00    -0.060 C 
HETATM    8  C15 UNL     1      -1.320  53.670 -11.280  1.00  0.00     0.036 C 
HETATM    9  C16 UNL     1      -0.025  54.459 -10.976  1.00  0.00     0.015 C 
HETATM   10  C17 UNL     1       0.936  53.646 -10.101  1.00  0.00    -0.028 C 
HETATM   11  C18 UNL     1       1.398  52.398 -10.909  1.00  0.00     0.016 C 
HETATM   12  C19 UNL     1      -3.129  51.868 -10.561  1.00  0.00    -0.014 C 
HETATM   13  C20 UNL     1      -4.219  52.978 -10.533  1.00  0.00     0.020 C 
HETATM   14  C21 UNL     1      -3.126  51.234 -11.983  1.00  0.00     0.021 C 
HETATM   15  C22 UNL     1      -2.686  49.783 -11.996  1.00  0.00     0.080 C 
HETATM   16  C23 UNL     1      -3.672  48.931 -11.230  1.00  0.00     0.135 C 
HETATM   17  O1  UNL     1      -3.881  47.767 -11.575  1.00  0.00    -0.297 OA
HETATM   18  C24 UNL     1      -4.380  49.562 -10.024  1.00  0.00     0.018 C 
HETATM   19  C25 UNL     1      -5.797  49.981 -10.464  1.00  0.00     0.023 C 
HETATM   20  C26 UNL     1      -4.573  48.464  -8.950  1.00  0.00     0.023 C 
HETATM   21  C27 UNL     1      -3.528  50.774  -9.472  1.00  0.00     0.020 C 
HETATM   22  C28 UNL     1      -2.304  50.258  -8.698  1.00  0.00     0.090 C 
HETATM   23  C29 UNL     1      -1.491  51.391  -8.155  1.00  0.00     0.157 C 
HETATM   24  O2  UNL     1      -1.155  51.433  -6.975  1.00  0.00    -0.293 OA
ENDROOT
BRANCH   1  25
HETATM   25  C6  UNL     1       3.418  54.777 -10.379  1.00  0.00    -0.014 C 
HETATM   26  C7  UNL     1       3.597  56.258 -10.735  1.00  0.00     0.010 C 
BRANCH  25  27
HETATM   27  C5  UNL     1       4.716  54.201  -9.772  1.00  0.00     0.008 C 
BRANCH  27  28
HETATM   28  C4  UNL     1       5.872  55.208  -9.742  1.00  0.00     0.028 C 
BRANCH  28  29
HETATM   29  C3  UNL     1       6.734  55.013  -8.524  1.00  0.00    -0.013 C 
HETATM   30  C2  UNL     1       6.635  55.616  -7.323  1.00  0.00     0.008 C 
HETATM   31  C1  UNL     1       7.522  55.234  -6.172  1.00  0.00     0.055 C 
BRANCH  30  32
HETATM   32  C30 UNL     1       5.661  56.680  -6.992  1.00  0.00     0.171 C 
HETATM   33  O3  UNL     1       5.939  57.846  -6.773  1.00  0.00    -0.646 OA
BRANCH  32  34
HETATM   34  O4  UNL     1       4.384  56.268  -7.046  1.00  0.00    -0.773 OA
HETATM   35  H44 UNL     1       3.873  57.081  -6.849  1.00  0.00     0.167 HD
ENDBRANCH  32  34
ENDBRANCH  30  32
ENDBRANCH  28  29
ENDBRANCH  27  28
ENDBRANCH  25  27
ENDBRANCH   1  25
TORSDOF 6
ENDMDL
MODEL 4
REMARK minimizedAffinity -8.53927135
REMARK CNNscore 0.410191774
REMARK CNNaffinity 7.05886793
REMARK  6 active torsions:
REMARK  status: ('A' for Active; 'I' for Inactive)
REMARK    1  A    between atoms: C2_2  and  C30_32 
REMARK    2  A    between atoms: C3_3  and  C4_4 
REMARK    3  A    between atoms: C4_4  and  C5_5 
REMARK    4  A    between atoms: C5_5  and  C6_6 
REMARK    5  A    between atoms: C6_6  and  C8_8 
REMARK    6  A    between atoms: C30_32  and  O4_34 
ROOT
HETATM    1  C8  UNL     1      -2.264  49.817 -21.467  1.00  0.00    -0.002 C 
HETATM    2  C9  UNL     1      -1.148  50.765 -21.988  1.00  0.00     0.007 C 
HETATM    3  C10 UNL     1      -0.393  51.295 -20.752  1.00  0.00     0.015 C 
HETATM    4  C11 UNL     1      -1.316  50.982 -19.560  1.00  0.00    -0.005 C 
HETATM    5  C12 UNL     1      -2.391  52.115 -19.501  1.00  0.00     0.021 C 
HETATM    6  C13 UNL     1      -0.750  50.916 -18.153  1.00  0.00    -0.000 C 
HETATM    7  C14 UNL     1      -1.292  50.134 -17.185  1.00  0.00    -0.060 C 
HETATM    8  C15 UNL     1      -2.473  49.206 -17.546  1.00  0.00     0.036 C 
HETATM    9  C16 UNL     1      -2.973  49.195 -19.010  1.00  0.00     0.015 C 
HETATM   10  C17 UNL     1      -1.851  49.560 -19.988  1.00  0.00    -0.028 C 
HETATM   11  C18 UNL     1      -0.760  48.452 -19.920  1.00  0.00     0.016 C 
HETATM   12  C19 UNL     1      -0.847  50.170 -15.685  1.00  0.00    -0.014 C 
HETATM   13  C20 UNL     1      -2.072  50.737 -14.912  1.00  0.00     0.020 C 
HETATM   14  C21 UNL     1      -0.553  48.742 -15.140  1.00  0.00     0.021 C 
HETATM   15  C22 UNL     1       0.908  48.347 -15.240  1.00  0.00     0.080 C 
HETATM   16  C23 UNL     1       1.752  49.241 -14.362  1.00  0.00     0.135 C 
HETATM   17  O1  UNL     1       2.766  48.797 -13.820  1.00  0.00    -0.297 OA
HETATM   18  C24 UNL     1       1.308  50.700 -14.186  1.00  0.00     0.018 C 
HETATM   19  C25 UNL     1       0.595  50.823 -12.825  1.00  0.00     0.023 C 
HETATM   20  C26 UNL     1       2.577  51.581 -14.086  1.00  0.00     0.023 C 
HETATM   21  C27 UNL     1       0.390  51.134 -15.398  1.00  0.00     0.020 C 
HETATM   22  C28 UNL     1       1.243  51.368 -16.656  1.00  0.00     0.090 C 
HETATM   23  C29 UNL     1       0.393  51.793 -17.813  1.00  0.00     0.157 C 
HETATM   24  O2  UNL     1       0.666  52.789 -18.478  1.00  0.00    -0.293 OA
ENDROOT
BRANCH   1  25
HETATM   25  C6  UNL     1      -2.633  48.676 -22.462  1.00  0.00    -0.014 C 
HETATM   26  C7  UNL     1      -2.827  47.273 -21.875  1.00  0.00     0.010 C 
BRANCH  25  27
HETATM   27  C5  UNL     1      -3.835  49.065 -23.352  1.00  0.00     0.008 C 
BRANCH  27  28
HETATM   28  C4  UNL     1      -3.616  48.756 -24.838  1.00  0.00     0.028 C 
BRANCH  28  29
HETATM   29  C3  UNL     1      -2.525  49.615 -25.418  1.00  0.00    -0.013 C 
HETATM   30  C2  UNL     1      -2.357  50.005 -26.697  1.00  0.00     0.008 C 
HETATM   31  C1  UNL     1      -1.260  50.950 -27.097  1.00  0.00     0.055 C 
BRANCH  30  32
HETATM   32  C30 UNL     1      -3.217  49.583 -27.826  1.00  0.00     0.171 C 
HETATM   33  O3  UNL     1      -3.691  48.470 -27.971  1.00  0.00    -0.646 OA
BRANCH  32  34
HETATM   34  O4  UNL     1      -3.526  50.586 -28.663  1.00  0.00    -0.773 OA
HETATM   35  H44 UNL     1      -4.122  50.163 -29.316  1.00  0.00     0.167 HD
ENDBRANCH  32  34
ENDBRANCH  30  32
ENDBRANCH  28  29
ENDBRANCH  27  28
ENDBRANCH  25  27
ENDBRANCH   1  25
TORSDOF 6
ENDMDL
MODEL 5
REMARK minimizedAffinity -7.19285345
REMARK CNNscore 0.392807037
REMARK CNNaffinity 5.66877747
REMARK  6 active torsions:
REMARK  status: ('A' for Active; 'I' for Inactive)
REMARK    1  A    between atoms: C2_2  and  C30_32 
REMARK    2  A    between atoms: C3_3  and  C4_4 
REMARK    3  A    between atoms: C4_4  and  C5_5 
REMARK    4  A    between atoms: C5_5  and  C6_6 
REMARK    5  A    between atoms: C6_6  and  C8_8 
REMARK    6  A    between atoms: C30_32  and  O4_34 
ROOT
HETATM    1  C8  UNL     1     -14.569  44.368 -27.329  1.00  0.00    -0.002 C 
HETATM    2  C9  UNL     1     -15.077  45.277 -28.484  1.00  0.00     0.007 C 
HETATM    3  C10 UNL     1     -13.881  46.133 -28.945  1.00  0.00     0.015 C 
HETATM    4  C11 UNL     1     -12.844  46.007 -27.813  1.00  0.00    -0.005 C 
HETATM    5  C12 UNL     1     -13.256  47.022 -26.698  1.00  0.00     0.021 C 
HETATM    6  C13 UNL     1     -11.380  46.304 -28.083  1.00  0.00    -0.000 C 
HETATM    7  C14 UNL     1     -10.376  45.708 -27.390  1.00  0.00    -0.060 C 
HETATM    8  C15 UNL     1     -10.725  44.619 -26.352  1.00  0.00     0.036 C 
HETATM    9  C16 UNL     1     -12.213  44.241 -26.163  1.00  0.00     0.015 C 
HETATM   10  C17 UNL     1     -13.021  44.483 -27.443  1.00  0.00    -0.028 C 
HETATM   11  C18 UNL     1     -12.490  43.521 -28.547  1.00  0.00     0.016 C 
HETATM   12  C19 UNL     1      -8.870  46.115 -27.518  1.00  0.00    -0.014 C 
HETATM   13  C20 UNL     1      -8.495  46.723 -26.135  1.00  0.00     0.020 C 
HETATM   14  C21 UNL     1      -7.960  44.874 -27.758  1.00  0.00     0.021 C 
HETATM   15  C22 UNL     1      -7.688  44.602 -29.226  1.00  0.00     0.080 C 
HETATM   16  C23 UNL     1      -6.901  45.741 -29.831  1.00  0.00     0.135 C 
HETATM   17  O1  UNL     1      -6.089  45.523 -30.732  1.00  0.00    -0.297 OA
HETATM   18  C24 UNL     1      -7.158  47.156 -29.294  1.00  0.00     0.018 C 
HETATM   19  C25 UNL     1      -6.023  47.510 -28.313  1.00  0.00     0.023 C 
HETATM   20  C26 UNL     1      -7.030  48.150 -30.474  1.00  0.00     0.023 C 
HETATM   21  C27 UNL     1      -8.589  47.227 -28.625  1.00  0.00     0.020 C 
HETATM   22  C28 UNL     1      -9.683  47.255 -29.704  1.00  0.00     0.090 C 
HETATM   23  C29 UNL     1     -11.046  47.336 -29.091  1.00  0.00     0.157 C 
HETATM   24  O2  UNL     1     -11.861  48.181 -29.448  1.00  0.00    -0.293 OA
ENDROOT
BRANCH   1  25
HETATM   25  C6  UNL     1     -15.321  43.007 -27.224  1.00  0.00    -0.014 C 
HETATM   26  C7  UNL     1     -14.501  41.736 -27.479  1.00  0.00     0.010 C 
BRANCH  25  27
HETATM   27  C5  UNL     1     -16.105  42.894 -25.898  1.00  0.00     0.008 C 
BRANCH  27  28
HETATM   28  C4  UNL     1     -16.452  44.253 -25.279  1.00  0.00     0.028 C 
BRANCH  28  29
HETATM   29  C3  UNL     1     -17.668  44.156 -24.398  1.00  0.00    -0.013 C 
HETATM   30  C2  UNL     1     -18.584  45.107 -24.128  1.00  0.00     0.008 C 
HETATM   31  C1  UNL     1     -19.803  44.817 -23.298  1.00  0.00     0.055 C 
BRANCH  30  32
HETATM   32  C30 UNL     1     -18.518  46.503 -24.615  1.00  0.00     0.171 C 
HETATM   33  O3  UNL     1     -17.524  47.207 -24.600  1.00  0.00    -0.646 OA
BRANCH  32  34
HETATM   34  O4  UNL     1     -19.658  46.922 -25.188  1.00  0.00    -0.773 OA
HETATM   35  H44 UNL     1     -19.442  47.829 -25.491  1.00  0.00     0.167 HD
ENDBRANCH  32  34
ENDBRANCH  30  32
ENDBRANCH  28  29
ENDBRANCH  27  28
ENDBRANCH  25  27
ENDBRANCH   1  25
TORSDOF 6
ENDMDL
MODEL 6
REMARK minimizedAffinity -7.638834
REMARK CNNscore 0.385619223
REMARK CNNaffinity 5.87191725
REMARK  6 active torsions:
REMARK  status: ('A' for Active; 'I' for Inactive)
REMARK    1  A    between atoms: C2_2  and  C30_32 
REMARK    2  A    between atoms: C3_3  and  C4_4 
REMARK    3  A    between atoms: C4_4  and  C5_5 
REMARK    4  A    between atoms: C5_5  and  C6_6 
REMARK    5  A    between atoms: C6_6  and  C8_8 
REMARK    6  A    between atoms: C30_32  and  O4_34 
ROOT
HETATM    1  C8  UNL     1     -12.204  45.109 -27.518  1.00  0.00    -0.002 C 
HETATM    2  C9  UNL     1     -11.287  43.975 -26.977  1.00  0.00     0.007 C 
HETATM    3  C10 UNL     1     -10.030  43.947 -27.869  1.00  0.00     0.015 C 
HETATM    4  C11 UNL     1     -10.414  44.759 -29.120  1.00  0.00    -0.005 C 
HETATM    5  C12 UNL     1     -11.212  43.802 -30.062  1.00  0.00     0.021 C 
HETATM    6  C13 UNL     1      -9.332  45.356 -30.004  1.00  0.00    -0.000 C 
HETATM    7  C14 UNL     1      -9.526  46.487 -30.728  1.00  0.00    -0.060 C 
HETATM    8  C15 UNL     1     -10.860  47.252 -30.583  1.00  0.00     0.036 C 
HETATM    9  C16 UNL     1     -11.914  46.700 -29.594  1.00  0.00     0.015 C 
HETATM   10  C17 UNL     1     -11.257  45.916 -28.453  1.00  0.00    -0.028 C 
HETATM   11  C18 UNL     1     -10.387  46.901 -27.617  1.00  0.00     0.016 C 
HETATM   12  C19 UNL     1      -8.503  47.033 -31.779  1.00  0.00    -0.014 C 
HETATM   13  C20 UNL     1      -9.217  46.888 -33.154  1.00  0.00     0.020 C 
HETATM   14  C21 UNL     1      -8.199  48.543 -31.553  1.00  0.00     0.021 C 
HETATM   15  C22 UNL     1      -6.973  48.789 -30.694  1.00  0.00     0.080 C 
HETATM   16  C23 UNL     1      -5.734  48.280 -31.394  1.00  0.00     0.135 C 
HETATM   17  O1  UNL     1      -4.654  48.851 -31.234  1.00  0.00    -0.297 OA
HETATM   18  C24 UNL     1      -5.873  47.039 -32.288  1.00  0.00     0.018 C 
HETATM   19  C25 UNL     1      -5.942  47.510 -33.754  1.00  0.00     0.023 C 
HETATM   20  C26 UNL     1      -4.573  46.208 -32.164  1.00  0.00     0.023 C 
HETATM   21  C27 UNL     1      -7.143  46.203 -31.855  1.00  0.00     0.020 C 
HETATM   22  C28 UNL     1      -6.861  45.441 -30.549  1.00  0.00     0.090 C 
HETATM   23  C29 UNL     1      -8.047  44.631 -30.129  1.00  0.00     0.157 C 
HETATM   24  O2  UNL     1      -7.945  43.440 -29.850  1.00  0.00    -0.293 OA
ENDROOT
BRANCH   1  25
HETATM   25  C6  UNL     1     -13.093  45.772 -26.423  1.00  0.00    -0.014 C 
HETATM   26  C7  UNL     1     -12.514  46.993 -25.699  1.00  0.00     0.010 C 
BRANCH  25  27
HETATM   27  C5  UNL     1     -14.513  46.075 -26.954  1.00  0.00     0.008 C 
BRANCH  27  28
HETATM   28  C4  UNL     1     -15.606  45.247 -26.270  1.00  0.00     0.028 C 
BRANCH  28  29
HETATM   29  C3  UNL     1     -16.523  46.120 -25.456  1.00  0.00    -0.013 C 
HETATM   30  C2  UNL     1     -17.864  46.049 -25.341  1.00  0.00     0.008 C 
HETATM   31  C1  UNL     1     -18.625  46.941 -24.403  1.00  0.00     0.055 C 
BRANCH  30  32
HETATM   32  C30 UNL     1     -18.724  45.100 -26.084  1.00  0.00     0.171 C 
HETATM   33  O3  UNL     1     -19.369  44.195 -25.583  1.00  0.00    -0.646 OA
BRANCH  32  34
HETATM   34  O4  UNL     1     -18.820  45.379 -27.393  1.00  0.00    -0.773 OA
HETATM   35  H44 UNL     1     -19.444  44.702 -27.727  1.00  0.00     0.167 HD
ENDBRANCH  32  34
ENDBRANCH  30  32
ENDBRANCH  28  29
ENDBRANCH  27  28
ENDBRANCH  25  27
ENDBRANCH   1  25
TORSDOF 6
ENDMDL
MODEL 7
REMARK minimizedAffinity -7.75014591
REMARK CNNscore 0.366680443
REMARK CNNaffinity 6.62327242
REMARK  6 active torsions:
REMARK  status: ('A' for Active; 'I' for Inactive)
REMARK    1  A    between atoms: C2_2  and  C30_32 
REMARK    2  A    between atoms: C3_3  and  C4_4 
REMARK    3  A    between atoms: C4_4  and  C5_5 
REMARK    4  A    between atoms: C5_5  and  C6_6 
REMARK    5  A    between atoms: C6_6  and  C8_8 
REMARK    6  A    between atoms: C30_32  and  O4_34 
ROOT
HETATM    1  C8  UNL     1       1.325  54.292 -10.502  1.00  0.00    -0.002 C 
HETATM    2  C9  UNL     1       2.439  53.568 -11.309  1.00  0.00     0.007 C 
HETATM    3  C10 UNL     1       3.786  53.946 -10.660  1.00  0.00     0.015 C 
HETATM    4  C11 UNL     1       3.471  55.169  -9.779  1.00  0.00    -0.005 C 
HETATM    5  C12 UNL     1       3.467  56.421 -10.714  1.00  0.00     0.021 C 
HETATM    6  C13 UNL     1       4.397  55.544  -8.635  1.00  0.00    -0.000 C 
HETATM    7  C14 UNL     1       3.957  56.180  -7.520  1.00  0.00    -0.060 C 
HETATM    8  C15 UNL     1       2.445  56.453  -7.360  1.00  0.00     0.036 C 
HETATM    9  C16 UNL     1       1.493  55.966  -8.477  1.00  0.00     0.015 C 
HETATM   10  C17 UNL     1       2.062  54.744  -9.207  1.00  0.00    -0.028 C 
HETATM   11  C18 UNL     1       2.145  53.563  -8.196  1.00  0.00     0.016 C 
HETATM   12  C19 UNL     1       4.903  56.737  -6.405  1.00  0.00    -0.014 C 
HETATM   13  C20 UNL     1       4.750  58.283  -6.476  1.00  0.00     0.020 C 
HETATM   14  C21 UNL     1       4.453  56.275  -4.988  1.00  0.00     0.021 C 
HETATM   15  C22 UNL     1       5.151  55.014  -4.514  1.00  0.00     0.080 C 
HETATM   16  C23 UNL     1       6.631  55.267  -4.350  1.00  0.00     0.135 C 
HETATM   17  O1  UNL     1       7.266  54.676  -3.475  1.00  0.00    -0.297 OA
HETATM   18  C24 UNL     1       7.300  56.263  -5.307  1.00  0.00     0.018 C 
HETATM   19  C25 UNL     1       7.464  57.604  -4.566  1.00  0.00     0.023 C 
HETATM   20  C26 UNL     1       8.734  55.759  -5.603  1.00  0.00     0.023 C 
HETATM   21  C27 UNL     1       6.445  56.396  -6.631  1.00  0.00     0.020 C 
HETATM   22  C28 UNL     1       6.636  55.155  -7.517  1.00  0.00     0.090 C 
HETATM   23  C29 UNL     1       5.844  55.267  -8.783  1.00  0.00     0.157 C 
HETATM   24  O2  UNL     1       6.360  55.083  -9.881  1.00  0.00    -0.293 OA
ENDROOT
BRANCH   1  25
HETATM   25  C6  UNL     1      -0.036  53.533 -10.491  1.00  0.00    -0.014 C 
HETATM   26  C7  UNL     1       0.010  52.022 -10.238  1.00  0.00     0.010 C 
BRANCH  25  27
HETATM   27  C5  UNL     1      -1.056  54.213  -9.550  1.00  0.00     0.008 C 
BRANCH  27  28
HETATM   28  C4  UNL     1      -2.389  54.537 -10.233  1.00  0.00     0.028 C 
BRANCH  28  29
HETATM   29  C3  UNL     1      -3.345  53.378 -10.140  1.00  0.00    -0.013 C 
HETATM   30  C2  UNL     1      -3.803  52.589 -11.133  1.00  0.00     0.008 C 
HETATM   31  C1  UNL     1      -4.683  51.404 -10.857  1.00  0.00     0.055 C 
BRANCH  30  32
HETATM   32  C30 UNL     1      -3.490  52.773 -12.568  1.00  0.00     0.171 C 
HETATM   33  O3  UNL     1      -2.676  52.121 -13.200  1.00  0.00    -0.646 OA
BRANCH  32  34
HETATM   34  O4  UNL     1      -4.268  53.685 -13.171  1.00  0.00    -0.773 OA
HETATM   35  H44 UNL     1      -3.972  53.659 -14.104  1.00  0.00     0.167 HD
ENDBRANCH  32  34
ENDBRANCH  30  32
ENDBRANCH  28  29
ENDBRANCH  27  28
ENDBRANCH  25  27
ENDBRANCH   1  25
TORSDOF 6
ENDMDL
MODEL 8
REMARK minimizedAffinity -7.26355076
REMARK CNNscore 0.306364238
REMARK CNNaffinity 6.05964994
REMARK  6 active torsions:
REMARK  status: ('A' for Active; 'I' for Inactive)
REMARK    1  A    between atoms: C2_2  and  C30_32 
REMARK    2  A    between atoms: C3_3  and  C4_4 
REMARK    3  A    between atoms: C4_4  and  C5_5 
REMARK    4  A    between atoms: C5_5  and  C6_6 
REMARK    5  A    between atoms: C6_6  and  C8_8 
REMARK    6  A    between atoms: C30_32  and  O4_34 
ROOT
HETATM    1  C8  UNL     1      -5.201  48.512 -23.508  1.00  0.00    -0.002 C 
HETATM    2  C9  UNL     1      -3.803  48.262 -22.875  1.00  0.00     0.007 C 
HETATM    3  C10 UNL     1      -4.025  48.036 -21.366  1.00  0.00     0.015 C 
HETATM    4  C11 UNL     1      -5.450  48.552 -21.093  1.00  0.00    -0.005 C 
HETATM    5  C12 UNL     1      -5.355  50.104 -20.938  1.00  0.00     0.021 C 
HETATM    6  C13 UNL     1      -6.208  48.087 -19.862  1.00  0.00    -0.000 C 
HETATM    7  C14 UNL     1      -7.562  48.009 -19.827  1.00  0.00    -0.060 C 
HETATM    8  C15 UNL     1      -8.364  48.313 -21.111  1.00  0.00     0.036 C 
HETATM    9  C16 UNL     1      -7.580  48.676 -22.394  1.00  0.00     0.015 C 
HETATM   10  C17 UNL     1      -6.184  48.043 -22.395  1.00  0.00    -0.028 C 
HETATM   11  C18 UNL     1      -6.346  46.496 -22.439  1.00  0.00     0.016 C 
HETATM   12  C19 UNL     1      -8.383  47.704 -18.529  1.00  0.00    -0.014 C 
HETATM   13  C20 UNL     1      -9.168  49.013 -18.229  1.00  0.00     0.020 C 
HETATM   14  C21 UNL     1      -9.419  46.566 -18.761  1.00  0.00     0.021 C 
HETATM   15  C22 UNL     1      -8.901  45.191 -18.380  1.00  0.00     0.080 C 
HETATM   16  C23 UNL     1      -8.631  45.128 -16.895  1.00  0.00     0.135 C 
HETATM   17  O1  UNL     1      -8.791  44.071 -16.282  1.00  0.00    -0.297 OA
HETATM   18  C24 UNL     1      -8.149  46.408 -16.197  1.00  0.00     0.018 C 
HETATM   19  C25 UNL     1      -9.354  47.045 -15.478  1.00  0.00     0.023 C 
HETATM   20  C26 UNL     1      -7.151  46.004 -15.085  1.00  0.00     0.023 C 
HETATM   21  C27 UNL     1      -7.484  47.379 -17.253  1.00  0.00     0.020 C 
HETATM   22  C28 UNL     1      -6.089  46.866 -17.647  1.00  0.00     0.090 C 
HETATM   23  C29 UNL     1      -5.436  47.780 -18.636  1.00  0.00     0.157 C 
HETATM   24  O2  UNL     1      -4.298  48.205 -18.463  1.00  0.00    -0.293 OA
ENDROOT
BRANCH   1  25
HETATM   25  C6  UNL     1      -5.308  48.052 -24.993  1.00  0.00    -0.014 C 
HETATM   26  C7  UNL     1      -6.716  47.949 -25.592  1.00  0.00     0.010 C 
BRANCH  25  27
HETATM   27  C5  UNL     1      -4.384  48.882 -25.912  1.00  0.00     0.008 C 
BRANCH  27  28
HETATM   28  C4  UNL     1      -4.206  48.270 -27.306  1.00  0.00     0.028 C 
BRANCH  28  29
HETATM   29  C3  UNL     1      -5.536  48.002 -27.958  1.00  0.00    -0.013 C 
HETATM   30  C2  UNL     1      -5.848  48.033 -29.269  1.00  0.00     0.008 C 
HETATM   31  C1  UNL     1      -7.210  47.642 -29.766  1.00  0.00     0.055 C 
BRANCH  30  32
HETATM   32  C30 UNL     1      -4.913  48.422 -30.348  1.00  0.00     0.171 C 
HETATM   33  O3  UNL     1      -4.501  47.680 -31.223  1.00  0.00    -0.646 OA
BRANCH  32  34
HETATM   34  O4  UNL     1      -4.615  49.730 -30.349  1.00  0.00    -0.773 OA
HETATM   35  H44 UNL     1      -4.034  49.833 -31.131  1.00  0.00     0.167 HD
ENDBRANCH  32  34
ENDBRANCH  30  32
ENDBRANCH  28  29
ENDBRANCH  27  28
ENDBRANCH  25  27
ENDBRANCH   1  25
TORSDOF 6
ENDMDL
MODEL 9
REMARK minimizedAffinity -7.52508068
REMARK CNNscore 0.28662312
REMARK CNNaffinity 5.66263247
REMARK  6 active torsions:
REMARK  status: ('A' for Active; 'I' for Inactive)
REMARK    1  A    between atoms: C2_2  and  C30_32 
REMARK    2  A    between atoms: C3_3  and  C4_4 
REMARK    3  A    between atoms: C4_4  and  C5_5 
REMARK    4  A    between atoms: C5_5  and  C6_6 
REMARK    5  A    between atoms: C6_6  and  C8_8 
REMARK    6  A    between atoms: C30_32  and  O4_34 
ROOT
HETATM    1  C8  UNL     1       3.602  66.959 -35.851  1.00  0.00    -0.002 C 
HETATM    2  C9  UNL     1       2.336  66.075 -36.038  1.00  0.00     0.007 C 
HETATM    3  C10 UNL     1       1.473  66.746 -37.125  1.00  0.00     0.015 C 
HETATM    4  C11 UNL     1       2.032  68.176 -37.248  1.00  0.00    -0.005 C 
HETATM    5  C12 UNL     1       1.397  69.019 -36.096  1.00  0.00     0.021 C 
HETATM    6  C13 UNL     1       1.779  68.989 -38.505  1.00  0.00    -0.000 C 
HETATM    7  C14 UNL     1       2.639  69.943 -38.942  1.00  0.00    -0.060 C 
HETATM    8  C15 UNL     1       3.972  70.152 -38.188  1.00  0.00     0.036 C 
HETATM    9  C16 UNL     1       4.275  69.242 -36.975  1.00  0.00     0.015 C 
HETATM   10  C17 UNL     1       3.577  67.884 -37.103  1.00  0.00    -0.028 C 
HETATM   11  C18 UNL     1       4.175  67.139 -38.333  1.00  0.00     0.016 C 
HETATM   12  C19 UNL     1       2.331  70.917 -40.127  1.00  0.00    -0.014 C 
HETATM   13  C20 UNL     1       2.226  72.327 -39.477  1.00  0.00     0.020 C 
HETATM   14  C21 UNL     1       3.496  70.951 -41.159  1.00  0.00     0.021 C 
HETATM   15  C22 UNL     1       3.307  69.985 -42.314  1.00  0.00     0.080 C 
HETATM   16  C23 UNL     1       2.099  70.378 -43.131  1.00  0.00     0.135 C 
HETATM   17  O1  UNL     1       2.081  70.175 -44.346  1.00  0.00    -0.297 OA
HETATM   18  C24 UNL     1       0.913  71.020 -42.397  1.00  0.00     0.018 C 
HETATM   19  C25 UNL     1       0.979  72.543 -42.620  1.00  0.00     0.023 C 
HETATM   20  C26 UNL     1      -0.392  70.542 -43.079  1.00  0.00     0.023 C 
HETATM   21  C27 UNL     1       0.949  70.624 -40.866  1.00  0.00     0.020 C 
HETATM   22  C28 UNL     1       0.495  69.167 -40.681  1.00  0.00     0.090 C 
HETATM   23  C29 UNL     1       0.509  68.776 -39.236  1.00  0.00     0.157 C 
HETATM   24  O2  UNL     1      -0.466  68.255 -38.703  1.00  0.00    -0.293 OA
ENDROOT
BRANCH   1  25
HETATM   25  C6  UNL     1       4.863  66.162 -35.401  1.00  0.00    -0.014 C 
HETATM   26  C7  UNL     1       6.181  66.939 -35.305  1.00  0.00     0.010 C 
BRANCH  25  27
HETATM   27  C5  UNL     1       4.600  65.372 -34.100  1.00  0.00     0.008 C 
BRANCH  27  28
HETATM   28  C4  UNL     1       5.736  64.410 -33.734  1.00  0.00     0.028 C 
BRANCH  28  29
HETATM   29  C3  UNL     1       5.522  63.054 -34.350  1.00  0.00    -0.013 C 
HETATM   30  C2  UNL     1       6.384  62.020 -34.418  1.00  0.00     0.008 C 
HETATM   31  C1  UNL     1       5.978  60.689 -34.986  1.00  0.00     0.055 C 
BRANCH  30  32
HETATM   32  C30 UNL     1       7.784  62.057 -33.940  1.00  0.00     0.171 C 
HETATM   33  O3  UNL     1       8.464  63.063 -33.830  1.00  0.00    -0.646 OA
BRANCH  32  34
HETATM   34  O4  UNL     1       8.238  60.863 -33.528  1.00  0.00    -0.773 OA
HETATM   35  H44 UNL     1       9.143  61.060 -33.207  1.00  0.00     0.167 HD
ENDBRANCH  32  34
ENDBRANCH  30  32
ENDBRANCH  28  29
ENDBRANCH  27  28
ENDBRANCH  25  27
ENDBRANCH   1  25
TORSDOF 6
ENDMDL
