MODEL 1
REMARK minimizedAffinity -6.73911619
REMARK CNNscore 0.784125209
REMARK CNNaffinity 6.18851614
REMARK  12 active torsions:
REMARK  status: ('A' for Active; 'I' for Inactive)
REMARK    1  A    between atoms: C2_2  and  C3_3 
REMARK    2  A    between atoms: C2_2  and  C5_6 
REMARK    3  A    between atoms: C3_3  and  C4_4 
REMARK    4  A    between atoms: C4_4  and  O1_5 
REMARK    5  A    between atoms: C5_6  and  C6_7 
REMARK    6  A    between atoms: C6_7  and  C7_8 
REMARK    7  A    between atoms: C7_8  and  C9_10 
REMARK    8  A    between atoms: C10_11  and  O2_12 
REMARK    9  A    between atoms: C11_13  and  O3_14 
REMARK   10  A    between atoms: C22_25  and  O4_26 
REMARK   11  A    between atoms: C25_29  and  O5_30 
REMARK   12  A    between atoms: C27_32  and  O6_33 
ROOT
HETATM    1  C9  UNL     1     -13.010  45.386 -26.730  1.00  0.00     0.029 C 
HETATM    2  C10 UNL     1     -13.339  46.907 -26.664  1.00  0.00     0.152 C 
HETATM    3  C11 UNL     1     -12.065  47.671 -27.102  1.00  0.00     0.155 C 
HETATM    4  C12 UNL     1     -11.359  46.653 -27.991  1.00  0.00     0.060 C 
HETATM    5  C13 UNL     1     -11.501  45.343 -27.165  1.00  0.00    -0.029 C 
HETATM    6  C14 UNL     1     -10.682  45.316 -25.834  1.00  0.00     0.016 C 
HETATM    7  C15 UNL     1     -11.023  44.156 -28.016  1.00  0.00     0.011 C 
HETATM    8  C16 UNL     1      -9.604  44.380 -28.570  1.00  0.00     0.009 C 
HETATM    9  C17 UNL     1      -9.477  45.710 -29.359  1.00  0.00     0.029 C 
HETATM   10  C18 UNL     1      -8.095  45.865 -30.106  1.00  0.00    -0.031 C 
HETATM   11  C19 UNL     1      -6.888  45.686 -29.154  1.00  0.00     0.016 C 
HETATM   12  C20 UNL     1      -7.995  44.721 -31.182  1.00  0.00     0.012 C 
HETATM   13  C21 UNL     1      -7.237  45.145 -32.433  1.00  0.00     0.032 C 
HETATM   14  C22 UNL     1      -7.970  46.276 -33.155  1.00  0.00     0.118 C 
HETATM   15  C23 UNL     1      -8.684  47.236 -32.197  1.00  0.00     0.039 C 
HETATM   16  C24 UNL     1      -7.989  47.267 -30.820  1.00  0.00     0.025 C 
HETATM   17  C25 UNL     1      -8.503  48.450 -29.981  1.00  0.00     0.126 C 
HETATM   18  C26 UNL     1      -9.884  48.214 -29.372  1.00  0.00     0.071 C 
HETATM   19  C27 UNL     1      -9.927  46.942 -28.502  1.00  0.00     0.071 C 
ENDROOT
BRANCH   1  20
HETATM   20  C7  UNL     1     -14.041  44.558 -27.558  1.00  0.00    -0.011 C 
HETATM   21  C8  UNL     1     -15.015  45.380 -28.418  1.00  0.00     0.010 C 
BRANCH  20  22
HETATM   22  C6  UNL     1     -14.892  43.613 -26.663  1.00  0.00     0.005 C 
BRANCH  22  23
HETATM   23  C5  UNL     1     -16.354  43.475 -27.109  1.00  0.00     0.005 C 
BRANCH  23  24
HETATM   24  C2  UNL     1     -16.560  42.452 -28.252  1.00  0.00    -0.017 C 
HETATM   25  C1  UNL     1     -15.733  41.198 -27.949  1.00  0.00     0.010 C 
BRANCH  24  26
HETATM   26  C3  UNL     1     -18.059  42.142 -28.469  1.00  0.00     0.030 C 
BRANCH  26  27
HETATM   27  C4  UNL     1     -18.849  43.251 -29.162  1.00  0.00     0.164 C 
BRANCH  27  28
HETATM   28  O1  UNL     1     -18.035  43.917 -30.116  1.00  0.00    -0.401 OA
HETATM   29  H9  UNL     1     -18.585  44.601 -30.535  1.00  0.00     0.209 HD
ENDBRANCH  27  28
ENDBRANCH  26  27
ENDBRANCH  24  26
ENDBRANCH  23  24
ENDBRANCH  22  23
ENDBRANCH  20  22
ENDBRANCH   1  20
BRANCH   2  30
HETATM   30  O2  UNL     1     -13.708  47.282 -25.338  1.00  0.00    -0.393 OA
HETATM   31  H20 UNL     1     -13.912  48.234 -25.369  1.00  0.00     0.210 HD
ENDBRANCH   2  30
BRANCH   3  32
HETATM   32  O3  UNL     1     -12.450  48.841 -27.820  1.00  0.00    -0.392 OA
HETATM   33  H22 UNL     1     -11.963  49.585 -27.418  1.00  0.00     0.210 HD
ENDBRANCH   3  32
BRANCH  19  34
HETATM   34  O6  UNL     1      -9.078  47.135 -27.377  1.00  0.00    -0.389 OA
HETATM   35  H48 UNL     1      -8.351  47.733 -27.650  1.00  0.00     0.210 HD
ENDBRANCH  19  34
BRANCH  17  36
HETATM   36  O5  UNL     1      -7.589  48.724 -28.913  1.00  0.00    -0.395 OA
HETATM   37  H45 UNL     1      -6.732  48.954 -29.319  1.00  0.00     0.210 HD
ENDBRANCH  17  36
BRANCH  14  38
HETATM   38  O4  UNL     1      -7.010  46.994 -33.926  1.00  0.00    -0.396 OA
HETATM   39  H40 UNL     1      -7.496  47.621 -34.491  1.00  0.00     0.210 HD
ENDBRANCH  14  38
TORSDOF 12
ENDMDL
MODEL 2
REMARK minimizedAffinity -7.44245672
REMARK CNNscore 0.758230269
REMARK CNNaffinity 6.04404402
REMARK  12 active torsions:
REMARK  status: ('A' for Active; 'I' for Inactive)
REMARK    1  A    between atoms: C2_2  and  C3_3 
REMARK    2  A    between atoms: C2_2  and  C5_6 
REMARK    3  A    between atoms: C3_3  and  C4_4 
REMARK    4  A    between atoms: C4_4  and  O1_5 
REMARK    5  A    between atoms: C5_6  and  C6_7 
REMARK    6  A    between atoms: C6_7  and  C7_8 
REMARK    7  A    between atoms: C7_8  and  C9_10 
REMARK    8  A    between atoms: C10_11  and  O2_12 
REMARK    9  A    between atoms: C11_13  and  O3_14 
REMARK   10  A    between atoms: C22_25  and  O4_26 
REMARK   11  A    between atoms: C25_29  and  O5_30 
REMARK   12  A    between atoms: C27_32  and  O6_33 
ROOT
HETATM    1  C9  UNL     1     -12.637  45.707 -26.517  1.00  0.00     0.029 C 
HETATM    2  C10 UNL     1     -12.596  47.186 -26.033  1.00  0.00     0.152 C 
HETATM    3  C11 UNL     1     -11.223  47.767 -26.451  1.00  0.00     0.155 C 
HETATM    4  C12 UNL     1     -10.855  46.910 -27.657  1.00  0.00     0.060 C 
HETATM    5  C13 UNL     1     -11.224  45.481 -27.166  1.00  0.00    -0.029 C 
HETATM    6  C14 UNL     1     -10.320  44.929 -26.017  1.00  0.00     0.016 C 
HETATM    7  C15 UNL     1     -11.112  44.498 -28.343  1.00  0.00     0.011 C 
HETATM    8  C16 UNL     1      -9.734  44.574 -29.026  1.00  0.00     0.009 C 
HETATM    9  C17 UNL     1      -9.371  46.015 -29.474  1.00  0.00     0.029 C 
HETATM   10  C18 UNL     1      -8.063  46.086 -30.355  1.00  0.00    -0.031 C 
HETATM   11  C19 UNL     1      -6.851  45.416 -29.663  1.00  0.00     0.016 C 
HETATM   12  C20 UNL     1      -8.327  45.282 -31.681  1.00  0.00     0.012 C 
HETATM   13  C21 UNL     1      -7.605  45.868 -32.886  1.00  0.00     0.032 C 
HETATM   14  C22 UNL     1      -8.115  47.276 -33.193  1.00  0.00     0.118 C 
HETATM   15  C23 UNL     1      -8.499  48.063 -31.935  1.00  0.00     0.039 C 
HETATM   16  C24 UNL     1      -7.697  47.578 -30.709  1.00  0.00     0.025 C 
HETATM   17  C25 UNL     1      -7.846  48.567 -29.540  1.00  0.00     0.126 C 
HETATM   18  C26 UNL     1      -9.185  48.457 -28.812  1.00  0.00     0.071 C 
HETATM   19  C27 UNL     1      -9.446  47.032 -28.285  1.00  0.00     0.071 C 
ENDROOT
BRANCH   1  20
HETATM   20  C7  UNL     1     -13.901  45.360 -27.364  1.00  0.00    -0.011 C 
HETATM   21  C8  UNL     1     -13.913  45.917 -28.797  1.00  0.00     0.010 C 
BRANCH  20  22
HETATM   22  C6  UNL     1     -15.216  45.821 -26.673  1.00  0.00     0.005 C 
BRANCH  22  23
HETATM   23  C5  UNL     1     -15.854  44.760 -25.767  1.00  0.00     0.005 C 
BRANCH  23  24
HETATM   24  C2  UNL     1     -17.126  45.251 -25.036  1.00  0.00    -0.017 C 
HETATM   25  C1  UNL     1     -16.811  46.575 -24.332  1.00  0.00     0.010 C 
BRANCH  24  26
HETATM   26  C3  UNL     1     -18.329  45.359 -26.002  1.00  0.00     0.030 C 
BRANCH  26  27
HETATM   27  C4  UNL     1     -19.698  45.349 -25.324  1.00  0.00     0.164 C 
BRANCH  27  28
HETATM   28  O1  UNL     1     -20.166  46.676 -25.133  1.00  0.00    -0.401 OA
HETATM   29  H9  UNL     1     -21.040  46.615 -24.713  1.00  0.00     0.209 HD
ENDBRANCH  27  28
ENDBRANCH  26  27
ENDBRANCH  24  26
ENDBRANCH  23  24
ENDBRANCH  22  23
ENDBRANCH  20  22
ENDBRANCH   1  20
BRANCH   2  30
HETATM   30  O2  UNL     1     -12.749  47.253 -24.616  1.00  0.00    -0.393 OA
HETATM   31  H20 UNL     1     -12.728  48.198 -24.382  1.00  0.00     0.210 HD
ENDBRANCH   2  30
BRANCH   3  32
HETATM   32  O3  UNL     1     -11.387  49.141 -26.796  1.00  0.00    -0.392 OA
HETATM   33  H22 UNL     1     -10.707  49.634 -26.299  1.00  0.00     0.210 HD
ENDBRANCH   3  32
BRANCH  19  34
HETATM   34  O6  UNL     1      -8.478  46.736 -27.283  1.00  0.00    -0.389 OA
HETATM   35  H48 UNL     1      -7.659  47.227 -27.504  1.00  0.00     0.210 HD
ENDBRANCH  19  34
BRANCH  17  36
HETATM   36  O5  UNL     1      -6.802  48.350 -28.583  1.00  0.00    -0.395 OA
HETATM   37  H45 UNL     1      -5.955  48.505 -29.041  1.00  0.00     0.210 HD
ENDBRANCH  17  36
BRANCH  14  38
HETATM   38  O4  UNL     1      -7.086  47.969 -33.896  1.00  0.00    -0.396 OA
HETATM   39  H40 UNL     1      -7.461  48.810 -34.212  1.00  0.00     0.210 HD
ENDBRANCH  14  38
TORSDOF 12
ENDMDL
MODEL 3
REMARK minimizedAffinity -9.41258526
REMARK CNNscore 0.676558971
REMARK CNNaffinity 6.64145422
REMARK  12 active torsions:
REMARK  status: ('A' for Active; 'I' for Inactive)
REMARK    1  A    between atoms: C2_2  and  C3_3 
REMARK    2  A    between atoms: C2_2  and  C5_6 
REMARK    3  A    between atoms: C3_3  and  C4_4 
REMARK    4  A    between atoms: C4_4  and  O1_5 
REMARK    5  A    between atoms: C5_6  and  C6_7 
REMARK    6  A    between atoms: C6_7  and  C7_8 
REMARK    7  A    between atoms: C7_8  and  C9_10 
REMARK    8  A    between atoms: C10_11  and  O2_12 
REMARK    9  A    between atoms: C11_13  and  O3_14 
REMARK   10  A    between atoms: C22_25  and  O4_26 
REMARK   11  A    between atoms: C25_29  and  O5_30 
REMARK   12  A    between atoms: C27_32  and  O6_33 
ROOT
HETATM    1  C9  UNL     1      -2.138  50.655 -24.597  1.00  0.00     0.029 C 
HETATM    2  C10 UNL     1      -3.211  51.690 -25.050  1.00  0.00     0.152 C 
HETATM    3  C11 UNL     1      -4.594  51.118 -24.655  1.00  0.00     0.155 C 
HETATM    4  C12 UNL     1      -4.253  50.209 -23.479  1.00  0.00     0.060 C 
HETATM    5  C13 UNL     1      -2.980  49.476 -23.991  1.00  0.00    -0.029 C 
HETATM    6  C14 UNL     1      -3.227  48.486 -25.176  1.00  0.00     0.016 C 
HETATM    7  C15 UNL     1      -2.369  48.662 -22.839  1.00  0.00     0.011 C 
HETATM    8  C16 UNL     1      -3.400  47.719 -22.191  1.00  0.00     0.009 C 
HETATM    9  C17 UNL     1      -4.676  48.467 -21.722  1.00  0.00     0.029 C 
HETATM   10  C18 UNL     1      -5.655  47.564 -20.874  1.00  0.00    -0.031 C 
HETATM   11  C19 UNL     1      -6.037  46.258 -21.612  1.00  0.00     0.016 C 
HETATM   12  C20 UNL     1      -4.904  47.135 -19.560  1.00  0.00     0.012 C 
HETATM   13  C21 UNL     1      -5.834  46.999 -18.361  1.00  0.00     0.032 C 
HETATM   14  C22 UNL     1      -6.468  48.345 -18.010  1.00  0.00     0.118 C 
HETATM   15  C23 UNL     1      -6.748  49.216 -19.240  1.00  0.00     0.039 C 
HETATM   16  C24 UNL     1      -6.969  48.349 -20.497  1.00  0.00     0.025 C 
HETATM   17  C25 UNL     1      -7.559  49.194 -21.640  1.00  0.00     0.126 C 
HETATM   18  C26 UNL     1      -6.531  50.085 -22.334  1.00  0.00     0.071 C 
HETATM   19  C27 UNL     1      -5.338  49.279 -22.886  1.00  0.00     0.071 C 
ENDROOT
BRANCH   1  20
HETATM   20  C7  UNL     1      -1.001  51.274 -23.725  1.00  0.00    -0.011 C 
HETATM   21  C8  UNL     1      -1.465  52.199 -22.589  1.00  0.00     0.010 C 
BRANCH  20  22
HETATM   22  C6  UNL     1       0.031  52.064 -24.579  1.00  0.00     0.005 C 
BRANCH  22  23
HETATM   23  C5  UNL     1       0.468  51.342 -25.861  1.00  0.00     0.005 C 
BRANCH  23  24
HETATM   24  C2  UNL     1       1.161  52.268 -26.889  1.00  0.00    -0.017 C 
HETATM   25  C1  UNL     1       2.477  51.620 -27.332  1.00  0.00     0.010 C 
BRANCH  24  26
HETATM   26  C3  UNL     1       0.225  52.594 -28.077  1.00  0.00     0.030 C 
BRANCH  26  27
HETATM   27  C4  UNL     1      -0.491  53.939 -27.978  1.00  0.00     0.164 C 
BRANCH  27  28
HETATM   28  O1  UNL     1      -1.882  53.779 -28.219  1.00  0.00    -0.401 OA
HETATM   29  H9  UNL     1      -2.291  54.656 -28.132  1.00  0.00     0.209 HD
ENDBRANCH  27  28
ENDBRANCH  26  27
ENDBRANCH  24  26
ENDBRANCH  23  24
ENDBRANCH  22  23
ENDBRANCH  20  22
ENDBRANCH   1  20
BRANCH   2  30
HETATM   30  O2  UNL     1      -3.145  51.894 -26.460  1.00  0.00    -0.393 OA
HETATM   31  H20 UNL     1      -3.827  52.555 -26.673  1.00  0.00     0.210 HD
ENDBRANCH   2  30
BRANCH   3  32
HETATM   32  O3  UNL     1      -5.450  52.193 -24.276  1.00  0.00    -0.392 OA
HETATM   33  H22 UNL     1      -6.277  52.079 -24.780  1.00  0.00     0.210 HD
ENDBRANCH   3  32
BRANCH  19  34
HETATM   34  O6  UNL     1      -5.811  48.422 -23.919  1.00  0.00    -0.389 OA
HETATM   35  H48 UNL     1      -6.738  48.184 -23.708  1.00  0.00     0.210 HD
ENDBRANCH  19  34
BRANCH  17  36
HETATM   36  O5  UNL     1      -8.141  48.336 -22.628  1.00  0.00    -0.395 OA
HETATM   37  H45 UNL     1      -8.852  47.831 -22.190  1.00  0.00     0.210 HD
ENDBRANCH  17  36
BRANCH  14  38
HETATM   38  O4  UNL     1      -7.688  48.085 -17.319  1.00  0.00    -0.396 OA
HETATM   39  H40 UNL     1      -8.017  48.934 -16.975  1.00  0.00     0.210 HD
ENDBRANCH  14  38
TORSDOF 12
ENDMDL
MODEL 4
REMARK minimizedAffinity -7.19358778
REMARK CNNscore 0.575088918
REMARK CNNaffinity 6.11171484
REMARK  12 active torsions:
REMARK  status: ('A' for Active; 'I' for Inactive)
REMARK    1  A    between atoms: C2_2  and  C3_3 
REMARK    2  A    between atoms: C2_2  and  C5_6 
REMARK    3  A    between atoms: C3_3  and  C4_4 
REMARK    4  A    between atoms: C4_4  and  O1_5 
REMARK    5  A    between atoms: C5_6  and  C6_7 
REMARK    6  A    between atoms: C6_7  and  C7_8 
REMARK    7  A    between atoms: C7_8  and  C9_10 
REMARK    8  A    between atoms: C10_11  and  O2_12 
REMARK    9  A    between atoms: C11_13  and  O3_14 
REMARK   10  A    between atoms: C22_25  and  O4_26 
REMARK   11  A    between atoms: C25_29  and  O5_30 
REMARK   12  A    between atoms: C27_32  and  O6_33 
ROOT
HETATM    1  C9  UNL     1     -11.435  45.981 -26.424  1.00  0.00     0.029 C 
HETATM    2  C10 UNL     1     -12.488  46.951 -27.039  1.00  0.00     0.152 C 
HETATM    3  C11 UNL     1     -11.719  47.963 -27.922  1.00  0.00     0.155 C 
HETATM    4  C12 UNL     1     -10.468  47.182 -28.307  1.00  0.00     0.060 C 
HETATM    5  C13 UNL     1     -10.061  46.528 -26.955  1.00  0.00    -0.029 C 
HETATM    6  C14 UNL     1      -9.561  47.532 -25.867  1.00  0.00     0.016 C 
HETATM    7  C15 UNL     1      -8.924  45.524 -27.203  1.00  0.00     0.011 C 
HETATM    8  C16 UNL     1      -7.742  46.166 -27.953  1.00  0.00     0.009 C 
HETATM    9  C17 UNL     1      -8.178  46.844 -29.279  1.00  0.00     0.029 C 
HETATM   10  C18 UNL     1      -6.963  47.329 -30.162  1.00  0.00    -0.031 C 
HETATM   11  C19 UNL     1      -5.996  48.250 -29.379  1.00  0.00     0.016 C 
HETATM   12  C20 UNL     1      -6.133  46.060 -30.584  1.00  0.00     0.012 C 
HETATM   13  C21 UNL     1      -5.505  46.193 -31.965  1.00  0.00     0.032 C 
HETATM   14  C22 UNL     1      -6.581  46.313 -33.044  1.00  0.00     0.118 C 
HETATM   15  C23 UNL     1      -7.822  47.079 -32.569  1.00  0.00     0.039 C 
HETATM   16  C24 UNL     1      -7.464  48.082 -31.453  1.00  0.00     0.025 C 
HETATM   17  C25 UNL     1      -8.627  49.060 -31.211  1.00  0.00     0.126 C 
HETATM   18  C26 UNL     1      -9.779  48.453 -30.412  1.00  0.00     0.071 C 
HETATM   19  C27 UNL     1      -9.314  47.897 -29.050  1.00  0.00     0.071 C 
ENDROOT
BRANCH   1  20
HETATM   20  C7  UNL     1     -11.765  44.473 -26.650  1.00  0.00    -0.011 C 
HETATM   21  C8  UNL     1     -11.912  44.038 -28.118  1.00  0.00     0.010 C 
BRANCH  20  22
HETATM   22  C6  UNL     1     -13.057  44.036 -25.903  1.00  0.00     0.005 C 
BRANCH  22  23
HETATM   23  C5  UNL     1     -14.213  43.636 -26.830  1.00  0.00     0.005 C 
BRANCH  23  24
HETATM   24  C2  UNL     1     -15.278  44.744 -27.007  1.00  0.00    -0.017 C 
HETATM   25  C1  UNL     1     -15.320  45.159 -28.481  1.00  0.00     0.010 C 
BRANCH  24  26
HETATM   26  C3  UNL     1     -16.658  44.293 -26.473  1.00  0.00     0.030 C 
BRANCH  26  27
HETATM   27  C4  UNL     1     -17.774  44.277 -27.516  1.00  0.00     0.164 C 
BRANCH  27  28
HETATM   28  O1  UNL     1     -18.672  45.356 -27.297  1.00  0.00    -0.401 OA
HETATM   29  H9  UNL     1     -19.352  45.309 -27.990  1.00  0.00     0.209 HD
ENDBRANCH  27  28
ENDBRANCH  26  27
ENDBRANCH  24  26
ENDBRANCH  23  24
ENDBRANCH  22  23
ENDBRANCH  20  22
ENDBRANCH   1  20
BRANCH   2  30
HETATM   30  O2  UNL     1     -13.200  47.634 -26.008  1.00  0.00    -0.393 OA
HETATM   31  H20 UNL     1     -13.846  48.208 -26.456  1.00  0.00     0.210 HD
ENDBRANCH   2  30
BRANCH   3  32
HETATM   32  O3  UNL     1     -12.520  48.293 -29.054  1.00  0.00    -0.392 OA
HETATM   33  H22 UNL     1     -12.543  49.267 -29.102  1.00  0.00     0.210 HD
ENDBRANCH   3  32
BRANCH  19  34
HETATM   34  O6  UNL     1      -8.866  48.984 -28.248  1.00  0.00    -0.389 OA
HETATM   35  H48 UNL     1      -8.505  49.670 -28.848  1.00  0.00     0.210 HD
ENDBRANCH  19  34
BRANCH  17  36
HETATM   36  O5  UNL     1      -8.155  50.212 -30.503  1.00  0.00    -0.395 OA
HETATM   37  H45 UNL     1      -7.478  50.637 -31.063  1.00  0.00     0.210 HD
ENDBRANCH  17  36
BRANCH  14  38
HETATM   38  O4  UNL     1      -6.004  46.981 -34.163  1.00  0.00    -0.396 OA
HETATM   39  H40 UNL     1      -6.643  46.932 -34.896  1.00  0.00     0.210 HD
ENDBRANCH  14  38
TORSDOF 12
ENDMDL
MODEL 5
REMARK minimizedAffinity -7.63315868
REMARK CNNscore 0.56527257
REMARK CNNaffinity 6.36392975
REMARK  12 active torsions:
REMARK  status: ('A' for Active; 'I' for Inactive)
REMARK    1  A    between atoms: C2_2  and  C3_3 
REMARK    2  A    between atoms: C2_2  and  C5_6 
REMARK    3  A    between atoms: C3_3  and  C4_4 
REMARK    4  A    between atoms: C4_4  and  O1_5 
REMARK    5  A    between atoms: C5_6  and  C6_7 
REMARK    6  A    between atoms: C6_7  and  C7_8 
REMARK    7  A    between atoms: C7_8  and  C9_10 
REMARK    8  A    between atoms: C10_11  and  O2_12 
REMARK    9  A    between atoms: C11_13  and  O3_14 
REMARK   10  A    between atoms: C22_25  and  O4_26 
REMARK   11  A    between atoms: C25_29  and  O5_30 
REMARK   12  A    between atoms: C27_32  and  O6_33 
ROOT
HETATM    1  C9  UNL     1      -4.010  49.273 -22.500  1.00  0.00     0.029 C 
HETATM    2  C10 UNL     1      -5.038  49.167 -21.335  1.00  0.00     0.152 C 
HETATM    3  C11 UNL     1      -6.439  49.001 -21.972  1.00  0.00     0.155 C 
HETATM    4  C12 UNL     1      -6.115  48.368 -23.321  1.00  0.00     0.060 C 
HETATM    5  C13 UNL     1      -4.898  49.214 -23.795  1.00  0.00    -0.029 C 
HETATM    6  C14 UNL     1      -5.230  50.701 -24.143  1.00  0.00     0.016 C 
HETATM    7  C15 UNL     1      -4.301  48.574 -25.059  1.00  0.00     0.011 C 
HETATM    8  C16 UNL     1      -5.363  48.362 -26.154  1.00  0.00     0.009 C 
HETATM    9  C17 UNL     1      -6.584  47.549 -25.648  1.00  0.00     0.029 C 
HETATM   10  C18 UNL     1      -7.587  47.145 -26.798  1.00  0.00    -0.031 C 
HETATM   11  C19 UNL     1      -8.058  48.366 -27.623  1.00  0.00     0.016 C 
HETATM   12  C20 UNL     1      -6.825  46.195 -27.794  1.00  0.00     0.012 C 
HETATM   13  C21 UNL     1      -7.727  45.138 -28.416  1.00  0.00     0.032 C 
HETATM   14  C22 UNL     1      -8.278  44.195 -27.346  1.00  0.00     0.118 C 
HETATM   15  C23 UNL     1      -8.544  44.896 -26.009  1.00  0.00     0.039 C 
HETATM   16  C24 UNL     1      -8.846  46.395 -26.216  1.00  0.00     0.025 C 
HETATM   17  C25 UNL     1      -9.420  47.014 -24.930  1.00  0.00     0.126 C 
HETATM   18  C26 UNL     1      -8.365  47.289 -23.860  1.00  0.00     0.071 C 
HETATM   19  C27 UNL     1      -7.233  48.198 -24.378  1.00  0.00     0.071 C 
ENDROOT
BRANCH   1  20
HETATM   20  C7  UNL     1      -2.818  48.273 -22.377  1.00  0.00    -0.011 C 
HETATM   21  C8  UNL     1      -3.050  47.077 -21.439  1.00  0.00     0.010 C 
BRANCH  20  22
HETATM   22  C6  UNL     1      -1.507  48.975 -21.923  1.00  0.00     0.005 C 
BRANCH  22  23
HETATM   23  C5  UNL     1      -1.682  50.456 -21.560  1.00  0.00     0.005 C 
BRANCH  23  24
HETATM   24  C2  UNL     1      -0.645  51.387 -22.232  1.00  0.00    -0.017 C 
HETATM   25  C1  UNL     1      -1.337  52.177 -23.347  1.00  0.00     0.010 C 
BRANCH  24  26
HETATM   26  C3  UNL     1       0.052  52.300 -21.196  1.00  0.00     0.030 C 
BRANCH  26  27
HETATM   27  C4  UNL     1       1.017  53.324 -21.791  1.00  0.00     0.164 C 
BRANCH  27  28
HETATM   28  O1  UNL     1       1.276  54.362 -20.857  1.00  0.00    -0.401 OA
HETATM   29  H9  UNL     1       1.901  54.977 -21.277  1.00  0.00     0.209 HD
ENDBRANCH  27  28
ENDBRANCH  26  27
ENDBRANCH  24  26
ENDBRANCH  23  24
ENDBRANCH  22  23
ENDBRANCH  20  22
ENDBRANCH   1  20
BRANCH   2  30
HETATM   30  O2  UNL     1      -4.999  50.342 -20.526  1.00  0.00    -0.393 OA
HETATM   31  H20 UNL     1      -5.650  50.206 -19.814  1.00  0.00     0.210 HD
ENDBRANCH   2  30
BRANCH   3  32
HETATM   32  O3  UNL     1      -7.225  48.143 -21.148  1.00  0.00    -0.392 OA
HETATM   33  H22 UNL     1      -8.071  48.605 -20.996  1.00  0.00     0.210 HD
ENDBRANCH   3  32
BRANCH  19  34
HETATM   34  O6  UNL     1      -7.779  49.480 -24.668  1.00  0.00    -0.389 OA
HETATM   35  H48 UNL     1      -8.712  49.353 -24.941  1.00  0.00     0.210 HD
ENDBRANCH  19  34
BRANCH  17  36
HETATM   36  O5  UNL     1     -10.074  48.251 -25.236  1.00  0.00    -0.395 OA
HETATM   37  H45 UNL     1     -10.799  48.048 -25.857  1.00  0.00     0.210 HD
ENDBRANCH  17  36
BRANCH  14  38
HETATM   38  O4  UNL     1      -9.491  43.634 -27.843  1.00  0.00    -0.396 OA
HETATM   39  H40 UNL     1      -9.765  42.933 -27.225  1.00  0.00     0.210 HD
ENDBRANCH  14  38
TORSDOF 12
ENDMDL
MODEL 6
REMARK minimizedAffinity -8.75280571
REMARK CNNscore 0.546876073
REMARK CNNaffinity 5.52739763
REMARK  12 active torsions:
REMARK  status: ('A' for Active; 'I' for Inactive)
REMARK    1  A    between atoms: C2_2  and  C3_3 
REMARK    2  A    between atoms: C2_2  and  C5_6 
REMARK    3  A    between atoms: C3_3  and  C4_4 
REMARK    4  A    between atoms: C4_4  and  O1_5 
REMARK    5  A    between atoms: C5_6  and  C6_7 
REMARK    6  A    between atoms: C6_7  and  C7_8 
REMARK    7  A    between atoms: C7_8  and  C9_10 
REMARK    8  A    between atoms: C10_11  and  O2_12 
REMARK    9  A    between atoms: C11_13  and  O3_14 
REMARK   10  A    between atoms: C22_25  and  O4_26 
REMARK   11  A    between atoms: C25_29  and  O5_30 
REMARK   12  A    between atoms: C27_32  and  O6_33 
ROOT
HETATM    1  C9  UNL     1       6.824  65.318 -35.082  1.00  0.00     0.029 C 
HETATM    2  C10 UNL     1       5.750  64.824 -34.068  1.00  0.00     0.152 C 
HETATM    3  C11 UNL     1       4.467  65.653 -34.319  1.00  0.00     0.155 C 
HETATM    4  C12 UNL     1       4.613  66.053 -35.783  1.00  0.00     0.060 C 
HETATM    5  C13 UNL     1       6.106  66.480 -35.858  1.00  0.00    -0.029 C 
HETATM    6  C14 UNL     1       6.454  67.786 -35.073  1.00  0.00     0.016 C 
HETATM    7  C15 UNL     1       6.489  66.719 -37.327  1.00  0.00     0.011 C 
HETATM    8  C16 UNL     1       5.533  67.710 -38.018  1.00  0.00     0.009 C 
HETATM    9  C17 UNL     1       4.046  67.282 -37.897  1.00  0.00     0.029 C 
HETATM   10  C18 UNL     1       3.069  68.166 -38.766  1.00  0.00    -0.031 C 
HETATM   11  C19 UNL     1       3.220  69.678 -38.467  1.00  0.00     0.016 C 
HETATM   12  C20 UNL     1       3.449  67.966 -40.280  1.00  0.00     0.012 C 
HETATM   13  C21 UNL     1       2.246  68.038 -41.210  1.00  0.00     0.032 C 
HETATM   14  C22 UNL     1       1.263  66.904 -40.917  1.00  0.00     0.118 C 
HETATM   15  C23 UNL     1       1.200  66.535 -39.430  1.00  0.00     0.039 C 
HETATM   16  C24 UNL     1       1.567  67.741 -38.541  1.00  0.00     0.025 C 
HETATM   17  C25 UNL     1       1.195  67.466 -37.074  1.00  0.00     0.126 C 
HETATM   18  C26 UNL     1       2.172  66.535 -36.359  1.00  0.00     0.071 C 
HETATM   19  C27 UNL     1       3.620  67.064 -36.406  1.00  0.00     0.071 C 
ENDROOT
BRANCH   1  20
HETATM   20  C7  UNL     1       7.477  64.170 -35.912  1.00  0.00    -0.011 C 
HETATM   21  C8  UNL     1       7.097  62.743 -35.483  1.00  0.00     0.010 C 
BRANCH  20  22
HETATM   22  C6  UNL     1       9.030  64.258 -35.917  1.00  0.00     0.005 C 
BRANCH  22  23
HETATM   23  C5  UNL     1       9.735  62.896 -35.987  1.00  0.00     0.005 C 
BRANCH  23  24
HETATM   24  C2  UNL     1      10.799  62.691 -34.883  1.00  0.00    -0.017 C 
HETATM   25  C1  UNL     1      12.057  63.484 -35.254  1.00  0.00     0.010 C 
BRANCH  24  26
HETATM   26  C3  UNL     1      10.247  63.064 -33.488  1.00  0.00     0.030 C 
BRANCH  26  27
HETATM   27  C4  UNL     1      10.087  61.887 -32.527  1.00  0.00     0.164 C 
BRANCH  27  28
HETATM   28  O1  UNL     1       8.764  61.374 -32.588  1.00  0.00    -0.401 OA
HETATM   29  H9  UNL     1       8.718  60.624 -31.971  1.00  0.00     0.209 HD
ENDBRANCH  27  28
ENDBRANCH  26  27
ENDBRANCH  24  26
ENDBRANCH  23  24
ENDBRANCH  22  23
ENDBRANCH  20  22
ENDBRANCH   1  20
BRANCH   2  30
HETATM   30  O2  UNL     1       6.204  65.010 -32.728  1.00  0.00    -0.393 OA
HETATM   31  H20 UNL     1       5.497  64.671 -32.150  1.00  0.00     0.210 HD
ENDBRANCH   2  30
BRANCH   3  32
HETATM   32  O3  UNL     1       3.328  64.825 -34.096  1.00  0.00    -0.392 OA
HETATM   33  H22 UNL     1       2.741  65.319 -33.492  1.00  0.00     0.210 HD
ENDBRANCH   3  32
BRANCH  19  34
HETATM   34  O6  UNL     1       3.684  68.275 -35.661  1.00  0.00    -0.389 OA
HETATM   35  H48 UNL     1       2.809  68.714 -35.729  1.00  0.00     0.210 HD
ENDBRANCH  19  34
BRANCH  17  36
HETATM   36  O5  UNL     1       1.143  68.698 -36.345  1.00  0.00    -0.395 OA
HETATM   37  H45 UNL     1       0.455  69.251 -36.762  1.00  0.00     0.210 HD
ENDBRANCH  17  36
BRANCH  14  38
HETATM   38  O4  UNL     1      -0.026  67.317 -41.364  1.00  0.00    -0.396 OA
HETATM   39  H40 UNL     1      -0.618  66.547 -41.306  1.00  0.00     0.210 HD
ENDBRANCH  14  38
TORSDOF 12
ENDMDL
MODEL 7
REMARK minimizedAffinity -7.19099951
REMARK CNNscore 0.54055357
REMARK CNNaffinity 6.38201904
REMARK  12 active torsions:
REMARK  status: ('A' for Active; 'I' for Inactive)
REMARK    1  A    between atoms: C2_2  and  C3_3 
REMARK    2  A    between atoms: C2_2  and  C5_6 
REMARK    3  A    between atoms: C3_3  and  C4_4 
REMARK    4  A    between atoms: C4_4  and  O1_5 
REMARK    5  A    between atoms: C5_6  and  C6_7 
REMARK    6  A    between atoms: C6_7  and  C7_8 
REMARK    7  A    between atoms: C7_8  and  C9_10 
REMARK    8  A    between atoms: C10_11  and  O2_12 
REMARK    9  A    between atoms: C11_13  and  O3_14 
REMARK   10  A    between atoms: C22_25  and  O4_26 
REMARK   11  A    between atoms: C25_29  and  O5_30 
REMARK   12  A    between atoms: C27_32  and  O6_33 
ROOT
HETATM    1  C9  UNL     1      -3.406  50.197 -24.023  1.00  0.00     0.029 C 
HETATM    2  C10 UNL     1      -4.917  50.493 -23.792  1.00  0.00     0.152 C 
HETATM    3  C11 UNL     1      -5.301  49.877 -22.425  1.00  0.00     0.155 C 
HETATM    4  C12 UNL     1      -3.972  49.873 -21.679  1.00  0.00     0.060 C 
HETATM    5  C13 UNL     1      -2.988  49.353 -22.766  1.00  0.00    -0.029 C 
HETATM    6  C14 UNL     1      -3.196  47.860 -23.176  1.00  0.00     0.016 C 
HETATM    7  C15 UNL     1      -1.547  49.485 -22.246  1.00  0.00     0.011 C 
HETATM    8  C16 UNL     1      -1.365  48.802 -20.878  1.00  0.00     0.009 C 
HETATM    9  C17 UNL     1      -2.381  49.310 -19.820  1.00  0.00     0.029 C 
HETATM   10  C18 UNL     1      -2.085  48.780 -18.363  1.00  0.00    -0.031 C 
HETATM   11  C19 UNL     1      -1.977  47.237 -18.309  1.00  0.00     0.016 C 
HETATM   12  C20 UNL     1      -0.686  49.345 -17.916  1.00  0.00     0.012 C 
HETATM   13  C21 UNL     1      -0.610  49.630 -16.422  1.00  0.00     0.032 C 
HETATM   14  C22 UNL     1      -1.601  50.725 -16.027  1.00  0.00     0.118 C 
HETATM   15  C23 UNL     1      -2.897  50.686 -16.845  1.00  0.00     0.039 C 
HETATM   16  C24 UNL     1      -3.193  49.258 -17.349  1.00  0.00     0.025 C 
HETATM   17  C25 UNL     1      -4.633  49.161 -17.884  1.00  0.00     0.126 C 
HETATM   18  C26 UNL     1      -4.812  49.777 -19.270  1.00  0.00     0.071 C 
HETATM   19  C27 UNL     1      -3.860  49.157 -20.312  1.00  0.00     0.071 C 
ENDROOT
BRANCH   1  20
HETATM   20  C7  UNL     1      -2.565  51.465 -24.372  1.00  0.00    -0.011 C 
HETATM   21  C8  UNL     1      -2.799  52.686 -23.468  1.00  0.00     0.010 C 
BRANCH  20  22
HETATM   22  C6  UNL     1      -2.780  51.926 -25.842  1.00  0.00     0.005 C 
BRANCH  22  23
HETATM   23  C5  UNL     1      -2.228  50.950 -26.892  1.00  0.00     0.005 C 
BRANCH  23  24
HETATM   24  C2  UNL     1      -0.857  51.373 -27.471  1.00  0.00    -0.017 C 
HETATM   25  C1  UNL     1      -0.862  52.887 -27.703  1.00  0.00     0.010 C 
BRANCH  24  26
HETATM   26  C3  UNL     1       0.307  50.911 -26.563  1.00  0.00     0.030 C 
BRANCH  26  27
HETATM   27  C4  UNL     1       1.504  51.859 -26.525  1.00  0.00     0.164 C 
BRANCH  27  28
HETATM   28  O1  UNL     1       1.484  52.636 -25.337  1.00  0.00    -0.401 OA
HETATM   29  H9  UNL     1       2.269  53.210 -25.356  1.00  0.00     0.209 HD
ENDBRANCH  27  28
ENDBRANCH  26  27
ENDBRANCH  24  26
ENDBRANCH  23  24
ENDBRANCH  22  23
ENDBRANCH  20  22
ENDBRANCH   1  20
BRANCH   2  30
HETATM   30  O2  UNL     1      -5.704  49.916 -24.834  1.00  0.00    -0.393 OA
HETATM   31  H20 UNL     1      -6.629  50.148 -24.637  1.00  0.00     0.210 HD
ENDBRANCH   2  30
BRANCH   3  32
HETATM   32  O3  UNL     1      -6.272  50.710 -21.797  1.00  0.00    -0.392 OA
HETATM   33  H22 UNL     1      -7.005  50.126 -21.527  1.00  0.00     0.210 HD
ENDBRANCH   3  32
BRANCH  19  34
HETATM   34  O6  UNL     1      -4.213  47.789 -20.489  1.00  0.00    -0.389 OA
HETATM   35  H48 UNL     1      -4.580  47.463 -19.640  1.00  0.00     0.210 HD
ENDBRANCH  19  34
BRANCH  17  36
HETATM   36  O5  UNL     1      -5.035  47.788 -17.954  1.00  0.00    -0.395 OA
HETATM   37  H45 UNL     1      -4.995  47.429 -17.047  1.00  0.00     0.210 HD
ENDBRANCH  17  36
BRANCH  14  38
HETATM   38  O4  UNL     1      -1.903  50.561 -14.643  1.00  0.00    -0.396 OA
HETATM   39  H40 UNL     1      -2.420  51.336 -14.361  1.00  0.00     0.210 HD
ENDBRANCH  14  38
TORSDOF 12
ENDMDL
MODEL 8
REMARK minimizedAffinity -8.50768661
REMARK CNNscore 0.539415896
REMARK CNNaffinity 6.5453372
REMARK  12 active torsions:
REMARK  status: ('A' for Active; 'I' for Inactive)
REMARK    1  A    between atoms: C2_2  and  C3_3 
REMARK    2  A    between atoms: C2_2  and  C5_6 
REMARK    3  A    between atoms: C3_3  and  C4_4 
REMARK    4  A    between atoms: C4_4  and  O1_5 
REMARK    5  A    between atoms: C5_6  and  C6_7 
REMARK    6  A    between atoms: C6_7  and  C7_8 
REMARK    7  A    between atoms: C7_8  and  C9_10 
REMARK    8  A    between atoms: C10_11  and  O2_12 
REMARK    9  A    between atoms: C11_13  and  O3_14 
REMARK   10  A    between atoms: C22_25  and  O4_26 
REMARK   11  A    between atoms: C25_29  and  O5_30 
REMARK   12  A    between atoms: C27_32  and  O6_33 
ROOT
HETATM    1  C9  UNL     1      -3.199  51.262 -25.445  1.00  0.00     0.029 C 
HETATM    2  C10 UNL     1      -2.010  51.863 -24.638  1.00  0.00     0.152 C 
HETATM    3  C11 UNL     1      -2.278  51.570 -23.142  1.00  0.00     0.155 C 
HETATM    4  C12 UNL     1      -3.154  50.325 -23.200  1.00  0.00     0.060 C 
HETATM    5  C13 UNL     1      -4.151  50.680 -24.340  1.00  0.00    -0.029 C 
HETATM    6  C14 UNL     1      -5.152  51.831 -24.000  1.00  0.00     0.016 C 
HETATM    7  C15 UNL     1      -4.989  49.437 -24.682  1.00  0.00     0.011 C 
HETATM    8  C16 UNL     1      -5.671  48.841 -23.436  1.00  0.00     0.009 C 
HETATM    9  C17 UNL     1      -4.661  48.530 -22.299  1.00  0.00     0.029 C 
HETATM   10  C18 UNL     1      -5.301  47.734 -21.095  1.00  0.00    -0.031 C 
HETATM   11  C19 UNL     1      -6.555  48.439 -20.524  1.00  0.00     0.016 C 
HETATM   12  C20 UNL     1      -5.777  46.336 -21.637  1.00  0.00     0.012 C 
HETATM   13  C21 UNL     1      -5.652  45.223 -20.605  1.00  0.00     0.032 C 
HETATM   14  C22 UNL     1      -4.188  44.999 -20.222  1.00  0.00     0.118 C 
HETATM   15  C23 UNL     1      -3.364  46.292 -20.221  1.00  0.00     0.039 C 
HETATM   16  C24 UNL     1      -4.254  47.519 -19.936  1.00  0.00     0.025 C 
HETATM   17  C25 UNL     1      -3.390  48.752 -19.620  1.00  0.00     0.126 C 
HETATM   18  C26 UNL     1      -2.761  49.391 -20.856  1.00  0.00     0.071 C 
HETATM   19  C27 UNL     1      -3.816  49.789 -21.907  1.00  0.00     0.071 C 
ENDROOT
BRANCH   1  20
HETATM   20  C7  UNL     1      -2.754  50.320 -26.607  1.00  0.00    -0.011 C 
HETATM   21  C8  UNL     1      -2.320  48.906 -26.186  1.00  0.00     0.010 C 
BRANCH  20  22
HETATM   22  C6  UNL     1      -1.599  50.931 -27.450  1.00  0.00     0.005 C 
BRANCH  22  23
HETATM   23  C5  UNL     1      -0.205  50.738 -26.837  1.00  0.00     0.005 C 
BRANCH  23  24
HETATM   24  C2  UNL     1       0.713  51.975 -26.982  1.00  0.00    -0.017 C 
HETATM   25  C1  UNL     1       2.170  51.505 -27.042  1.00  0.00     0.010 C 
BRANCH  24  26
HETATM   26  C3  UNL     1       0.312  52.838 -28.200  1.00  0.00     0.030 C 
BRANCH  26  27
HETATM   27  C4  UNL     1      -0.300  54.194 -27.851  1.00  0.00     0.164 C 
BRANCH  27  28
HETATM   28  O1  UNL     1      -1.718  54.123 -27.891  1.00  0.00    -0.401 OA
HETATM   29  H9  UNL     1      -2.056  55.003 -27.650  1.00  0.00     0.209 HD
ENDBRANCH  27  28
ENDBRANCH  26  27
ENDBRANCH  24  26
ENDBRANCH  23  24
ENDBRANCH  22  23
ENDBRANCH  20  22
ENDBRANCH   1  20
BRANCH   2  30
HETATM   30  O2  UNL     1      -1.917  53.270 -24.858  1.00  0.00    -0.393 OA
HETATM   31  H20 UNL     1      -1.152  53.578 -24.340  1.00  0.00     0.210 HD
ENDBRANCH   2  30
BRANCH   3  32
HETATM   32  O3  UNL     1      -1.035  51.326 -22.487  1.00  0.00    -0.392 OA
HETATM   33  H22 UNL     1      -1.021  51.899 -21.697  1.00  0.00     0.210 HD
ENDBRANCH   3  32
BRANCH  19  34
HETATM   34  O6  UNL     1      -4.634  50.818 -21.360  1.00  0.00    -0.389 OA
HETATM   35  H48 UNL     1      -4.674  50.683 -20.390  1.00  0.00     0.210 HD
ENDBRANCH  19  34
BRANCH  17  36
HETATM   36  O5  UNL     1      -4.184  49.747 -18.962  1.00  0.00    -0.395 OA
HETATM   37  H45 UNL     1      -4.511  49.352 -18.132  1.00  0.00     0.210 HD
ENDBRANCH  17  36
BRANCH  14  38
HETATM   38  O4  UNL     1      -4.162  44.412 -18.923  1.00  0.00    -0.396 OA
HETATM   39  H40 UNL     1      -3.245  44.143 -18.741  1.00  0.00     0.210 HD
ENDBRANCH  14  38
TORSDOF 12
ENDMDL
MODEL 9
REMARK minimizedAffinity -9.05339718
REMARK CNNscore 0.524855793
REMARK CNNaffinity 6.27121735
REMARK  12 active torsions:
REMARK  status: ('A' for Active; 'I' for Inactive)
REMARK    1  A    between atoms: C2_2  and  C3_3 
REMARK    2  A    between atoms: C2_2  and  C5_6 
REMARK    3  A    between atoms: C3_3  and  C4_4 
REMARK    4  A    between atoms: C4_4  and  O1_5 
REMARK    5  A    between atoms: C5_6  and  C6_7 
REMARK    6  A    between atoms: C6_7  and  C7_8 
REMARK    7  A    between atoms: C7_8  and  C9_10 
REMARK    8  A    between atoms: C10_11  and  O2_12 
REMARK    9  A    between atoms: C11_13  and  O3_14 
REMARK   10  A    between atoms: C22_25  and  O4_26 
REMARK   11  A    between atoms: C25_29  and  O5_30 
REMARK   12  A    between atoms: C27_32  and  O6_33 
ROOT
HETATM    1  C9  UNL     1      -2.227  51.298 -24.237  1.00  0.00     0.029 C 
HETATM    2  C10 UNL     1      -3.434  52.239 -24.528  1.00  0.00     0.152 C 
HETATM    3  C11 UNL     1      -4.719  51.469 -24.140  1.00  0.00     0.155 C 
HETATM    4  C12 UNL     1      -4.213  50.489 -23.088  1.00  0.00     0.060 C 
HETATM    5  C13 UNL     1      -2.895  49.970 -23.731  1.00  0.00    -0.029 C 
HETATM    6  C14 UNL     1      -3.092  49.088 -25.006  1.00  0.00     0.016 C 
HETATM    7  C15 UNL     1      -2.134  49.118 -22.703  1.00  0.00     0.011 C 
HETATM    8  C16 UNL     1      -3.014  47.997 -22.120  1.00  0.00     0.009 C 
HETATM    9  C17 UNL     1      -4.339  48.534 -21.517  1.00  0.00     0.029 C 
HETATM   10  C18 UNL     1      -5.161  47.437 -20.735  1.00  0.00    -0.031 C 
HETATM   11  C19 UNL     1      -5.432  46.179 -21.596  1.00  0.00     0.016 C 
HETATM   12  C20 UNL     1      -4.296  46.965 -19.508  1.00  0.00     0.012 C 
HETATM   13  C21 UNL     1      -5.137  46.595 -18.294  1.00  0.00     0.032 C 
HETATM   14  C22 UNL     1      -5.900  47.812 -17.769  1.00  0.00     0.118 C 
HETATM   15  C23 UNL     1      -6.344  48.767 -18.883  1.00  0.00     0.039 C 
HETATM   16  C24 UNL     1      -6.534  48.016 -20.218  1.00  0.00     0.025 C 
HETATM   17  C25 UNL     1      -7.277  48.900 -21.235  1.00  0.00     0.126 C 
HETATM   18  C26 UNL     1      -6.397  49.975 -21.868  1.00  0.00     0.071 C 
HETATM   19  C27 UNL     1      -5.152  49.380 -22.556  1.00  0.00     0.071 C 
ENDROOT
BRANCH   1  20
HETATM   20  C7  UNL     1      -1.122  51.952 -23.351  1.00  0.00    -0.011 C 
HETATM   21  C8  UNL     1       0.311  51.860 -23.902  1.00  0.00     0.010 C 
BRANCH  20  22
HETATM   22  C6  UNL     1      -1.105  51.372 -21.908  1.00  0.00     0.005 C 
BRANCH  22  23
HETATM   23  C5  UNL     1       0.162  51.710 -21.111  1.00  0.00     0.005 C 
BRANCH  23  24
HETATM   24  C2  UNL     1      -0.070  52.745 -19.985  1.00  0.00    -0.017 C 
HETATM   25  C1  UNL     1       0.218  52.082 -18.635  1.00  0.00     0.010 C 
BRANCH  24  26
HETATM   26  C3  UNL     1       0.766  54.026 -20.213  1.00  0.00     0.030 C 
BRANCH  26  27
HETATM   27  C4  UNL     1       1.812  53.919 -21.321  1.00  0.00     0.164 C 
BRANCH  27  28
HETATM   28  O1  UNL     1       1.858  55.120 -22.078  1.00  0.00    -0.401 OA
HETATM   29  H9  UNL     1       2.544  55.005 -22.757  1.00  0.00     0.209 HD
ENDBRANCH  27  28
ENDBRANCH  26  27
ENDBRANCH  24  26
ENDBRANCH  23  24
ENDBRANCH  22  23
ENDBRANCH  20  22
ENDBRANCH   1  20
BRANCH   2  30
HETATM   30  O2  UNL     1      -3.468  52.596 -25.909  1.00  0.00    -0.393 OA
HETATM   31  H20 UNL     1      -4.232  53.191 -26.018  1.00  0.00     0.210 HD
ENDBRANCH   2  30
BRANCH   3  32
HETATM   32  O3  UNL     1      -5.670  52.389 -23.610  1.00  0.00    -0.392 OA
HETATM   33  H22 UNL     1      -6.505  52.230 -24.088  1.00  0.00     0.210 HD
ENDBRANCH   3  32
BRANCH  19  34
HETATM   34  O6  UNL     1      -5.580  48.585 -23.656  1.00  0.00    -0.389 OA
HETATM   35  H48 UNL     1      -6.461  48.217 -23.435  1.00  0.00     0.210 HD
ENDBRANCH  19  34
BRANCH  17  36
HETATM   36  O5  UNL     1      -7.811  48.088 -22.287  1.00  0.00    -0.395 OA
HETATM   37  H45 UNL     1      -8.435  47.459 -21.877  1.00  0.00     0.210 HD
ENDBRANCH  17  36
BRANCH  14  38
HETATM   38  O4  UNL     1      -7.043  47.337 -17.061  1.00  0.00    -0.396 OA
HETATM   39  H40 UNL     1      -7.448  48.100 -16.612  1.00  0.00     0.210 HD
ENDBRANCH  14  38
TORSDOF 12
ENDMDL
