MODEL 1
REMARK minimizedAffinity -7.84508657
REMARK  4 active torsions:
REMARK  status: ('A' for Active; 'I' for Inactive)
REMARK       I    between atoms: N1_1  and  C1_2 
REMARK       I    between atoms: C1_2  and  N2_4 
REMARK    1  A    between atoms: N2_4  and  N3_5 
REMARK    2  A    between atoms: C2_7  and  C3_8 
REMARK    3  A    between atoms: C6_11  and  O2_12 
REMARK    4  A    between atoms: O2_12  and  C7_13 
ROOT
HETATM    1  C3  UNL     1       0.540  52.930 -22.926  1.00  0.00    -0.019 A 
HETATM    2  C4  UNL     1       1.290  53.875 -22.219  1.00  0.00     0.015 A 
HETATM    3  C5  UNL     1       1.174  53.955 -20.830  1.00  0.00     0.038 A 
HETATM    4  C6  UNL     1       0.299  53.104 -20.154  1.00  0.00     0.076 A 
HETATM    5  C13 UNL     1      -0.434  52.143 -20.857  1.00  0.00     0.038 A 
HETATM    6  C14 UNL     1      -0.319  52.060 -22.246  1.00  0.00     0.015 A 
ENDROOT
BRANCH   1   7
HETATM    7  C2  UNL     1       0.641  52.822 -24.396  1.00  0.00     0.118 C 
HETATM    8  N3  UNL     1       0.459  53.849 -25.167  1.00  0.00    -0.307 N 
ATOM      9  H3  UNL     1       0.210  54.761 -24.783  1.00  0.00     0.186 HD
BRANCH   8  10
HETATM   10  N2  UNL     1       0.615  53.664 -26.518  1.00  0.00    -0.252 N 
HETATM   11  C1  UNL     1      -0.400  53.339 -27.399  1.00  0.00     0.332 C 
HETATM   12  N1  UNL     1       0.067  53.063 -28.653  1.00  0.00    -0.351 N 
HETATM   13  O1  UNL     1      -1.605  53.317 -27.180  1.00  0.00    -0.246 OA
HETATM   14  H1  UNL     1      -0.663  52.735 -29.274  1.00  0.00     0.160 HD
HETATM   15  H2  UNL     1       0.940  52.564 -28.736  1.00  0.00     0.160 HD
HETATM   16  H3  UNL     1       1.545  53.359 -26.772  1.00  0.00     0.191 HD
ENDBRANCH   8  10
ENDBRANCH   1   7
BRANCH   4  17
HETATM   17  O2  UNL     1       0.256  53.211 -18.783  1.00  0.00    -0.311 OA
BRANCH  17  18
HETATM   18  C7  UNL     1       0.308  52.043 -18.057  1.00  0.00     0.076 A 
HETATM   19  C8  UNL     1       1.169  52.020 -16.957  1.00  0.00     0.040 A 
HETATM   20  C9  UNL     1       1.242  50.879 -16.158  1.00  0.00     0.045 A 
HETATM   21  C10 UNL     1       0.444  49.779 -16.459  1.00  0.00     0.116 A 
HETATM   22  F1  UNL     1       0.516  48.684 -15.692  1.00  0.00    -0.206 F 
HETATM   23  C11 UNL     1      -0.431  49.801 -17.540  1.00  0.00     0.045 A 
HETATM   24  C12 UNL     1      -0.508  50.943 -18.340  1.00  0.00     0.040 A 
ENDBRANCH  17  18
ENDBRANCH   4  17
TORSDOF 4
ENDMDL
MODEL 2
REMARK minimizedAffinity -7.76351166
REMARK  4 active torsions:
REMARK  status: ('A' for Active; 'I' for Inactive)
REMARK       I    between atoms: N1_1  and  C1_2 
REMARK       I    between atoms: C1_2  and  N2_4 
REMARK    1  A    between atoms: N2_4  and  N3_5 
REMARK    2  A    between atoms: C2_7  and  C3_8 
REMARK    3  A    between atoms: C6_11  and  O2_12 
REMARK    4  A    between atoms: O2_12  and  C7_13 
ROOT
HETATM    1  C3  UNL     1       0.703  52.972 -20.716  1.00  0.00    -0.019 A 
HETATM    2  C4  UNL     1       0.301  52.008 -21.645  1.00  0.00     0.015 A 
HETATM    3  C5  UNL     1       0.414  52.270 -23.011  1.00  0.00     0.038 A 
HETATM    4  C6  UNL     1       0.913  53.500 -23.445  1.00  0.00     0.076 A 
HETATM    5  C13 UNL     1       1.338  54.455 -22.517  1.00  0.00     0.038 A 
HETATM    6  C14 UNL     1       1.227  54.194 -21.150  1.00  0.00     0.015 A 
ENDROOT
BRANCH   1   7
HETATM    7  C2  UNL     1       0.595  52.723 -19.263  1.00  0.00     0.118 C 
HETATM    8  N3  UNL     1       1.492  53.154 -18.432  1.00  0.00    -0.307 N 
ATOM      9  H3  UNL     1       2.320  53.653 -18.759  1.00  0.00     0.186 HD
BRANCH   8  10
HETATM   10  N2  UNL     1       1.288  52.914 -17.096  1.00  0.00    -0.252 N 
HETATM   11  C1  UNL     1       2.279  52.607 -16.181  1.00  0.00     0.332 C 
HETATM   12  N1  UNL     1       1.772  52.263 -14.960  1.00  0.00    -0.351 N 
HETATM   13  O1  UNL     1       3.491  52.650 -16.346  1.00  0.00    -0.246 OA
HETATM   14  H1  UNL     1       2.490  51.949 -14.318  1.00  0.00     0.160 HD
HETATM   15  H2  UNL     1       0.923  51.719 -14.934  1.00  0.00     0.160 HD
HETATM   16  H3  UNL     1       0.364  52.555 -16.895  1.00  0.00     0.191 HD
ENDBRANCH   8  10
ENDBRANCH   1   7
BRANCH   4  17
HETATM   17  O2  UNL     1       1.030  53.683 -24.803  1.00  0.00    -0.311 OA
BRANCH  17  18
HETATM   18  C7  UNL     1       0.268  52.875 -25.616  1.00  0.00     0.076 A 
HETATM   19  C8  UNL     1      -1.120  53.006 -25.516  1.00  0.00     0.040 A 
HETATM   20  C9  UNL     1      -1.949  52.241 -26.337  1.00  0.00     0.045 A 
HETATM   21  C10 UNL     1      -1.382  51.365 -27.258  1.00  0.00     0.116 A 
HETATM   22  F1  UNL     1      -2.179  50.631 -28.045  1.00  0.00    -0.206 F 
HETATM   23  C11 UNL     1      -0.002  51.244 -27.379  1.00  0.00     0.045 A 
HETATM   24  C12 UNL     1       0.831  52.009 -26.560  1.00  0.00     0.040 A 
ENDBRANCH  17  18
ENDBRANCH   4  17
TORSDOF 4
ENDMDL
MODEL 3
REMARK minimizedAffinity -7.75229073
REMARK  4 active torsions:
REMARK  status: ('A' for Active; 'I' for Inactive)
REMARK       I    between atoms: N1_1  and  C1_2 
REMARK       I    between atoms: C1_2  and  N2_4 
REMARK    1  A    between atoms: N2_4  and  N3_5 
REMARK    2  A    between atoms: C2_7  and  C3_8 
REMARK    3  A    between atoms: C6_11  and  O2_12 
REMARK    4  A    between atoms: O2_12  and  C7_13 
ROOT
HETATM    1  C3  UNL     1       0.764  52.985 -20.322  1.00  0.00    -0.019 A 
HETATM    2  C4  UNL     1       0.382  51.971 -21.206  1.00  0.00     0.015 A 
HETATM    3  C5  UNL     1       0.481  52.177 -22.583  1.00  0.00     0.038 A 
HETATM    4  C6  UNL     1       0.946  53.399 -23.072  1.00  0.00     0.076 A 
HETATM    5  C13 UNL     1       1.351  54.404 -22.189  1.00  0.00     0.038 A 
HETATM    6  C14 UNL     1       1.253  54.200 -20.812  1.00  0.00     0.015 A 
ENDROOT
BRANCH   1   7
HETATM    7  C2  UNL     1       0.669  52.796 -18.859  1.00  0.00     0.118 C 
HETATM    8  N3  UNL     1       1.671  53.049 -18.076  1.00  0.00    -0.307 N 
ATOM      9  H3  UNL     1       2.569  53.356 -18.449  1.00  0.00     0.186 HD
BRANCH   8  10
HETATM   10  N2  UNL     1       1.479  52.886 -16.726  1.00  0.00    -0.252 N 
HETATM   11  C1  UNL     1       2.426  52.407 -15.839  1.00  0.00     0.332 C 
HETATM   12  N1  UNL     1       1.912  52.202 -14.590  1.00  0.00    -0.351 N 
HETATM   13  O1  UNL     1       3.614  52.202 -16.050  1.00  0.00    -0.246 OA
HETATM   14  H1  UNL     1       2.579  51.765 -13.965  1.00  0.00     0.160 HD
HETATM   15  H2  UNL     1       0.973  51.842 -14.515  1.00  0.00     0.160 HD
HETATM   16  H3  UNL     1       0.511  52.725 -16.480  1.00  0.00     0.191 HD
ENDBRANCH   8  10
ENDBRANCH   1   7
BRANCH   4  17
HETATM   17  O2  UNL     1       1.052  53.526 -24.438  1.00  0.00    -0.311 OA
BRANCH  17  18
HETATM   18  C7  UNL     1       0.232  52.734 -25.210  1.00  0.00     0.076 A 
HETATM   19  C8  UNL     1       0.836  51.673 -25.890  1.00  0.00     0.040 A 
HETATM   20  C9  UNL     1       0.056  50.811 -26.662  1.00  0.00     0.045 A 
HETATM   21  C10 UNL     1      -1.319  51.011 -26.734  1.00  0.00     0.116 A 
HETATM   22  F1  UNL     1      -2.067  50.183 -27.475  1.00  0.00    -0.206 F 
HETATM   23  C11 UNL     1      -1.931  52.052 -26.043  1.00  0.00     0.045 A 
HETATM   24  C12 UNL     1      -1.154  52.915 -25.269  1.00  0.00     0.040 A 
ENDBRANCH  17  18
ENDBRANCH   4  17
TORSDOF 4
ENDMDL
MODEL 4
REMARK minimizedAffinity -7.56535816
REMARK  4 active torsions:
REMARK  status: ('A' for Active; 'I' for Inactive)
REMARK       I    between atoms: N1_1  and  C1_2 
REMARK       I    between atoms: C1_2  and  N2_4 
REMARK    1  A    between atoms: N2_4  and  N3_5 
REMARK    2  A    between atoms: C2_7  and  C3_8 
REMARK    3  A    between atoms: C6_11  and  O2_12 
REMARK    4  A    between atoms: O2_12  and  C7_13 
ROOT
HETATM    1  C3  UNL     1      -0.309  52.371 -20.691  1.00  0.00    -0.019 A 
HETATM    2  C4  UNL     1      -1.422  51.621 -21.083  1.00  0.00     0.015 A 
HETATM    3  C5  UNL     1      -1.732  51.496 -22.439  1.00  0.00     0.038 A 
HETATM    4  C6  UNL     1      -0.940  52.132 -23.396  1.00  0.00     0.076 A 
HETATM    5  C13 UNL     1       0.187  52.862 -23.006  1.00  0.00     0.038 A 
HETATM    6  C14 UNL     1       0.499  52.988 -21.651  1.00  0.00     0.015 A 
ENDROOT
BRANCH   1   7
HETATM    7  C2  UNL     1       0.044  52.522 -19.264  1.00  0.00     0.118 C 
HETATM    8  N3  UNL     1       1.210  52.953 -18.895  1.00  0.00    -0.307 N 
ATOM      9  H3  UNL     1       1.933  53.172 -19.580  1.00  0.00     0.186 HD
BRANCH   8  10
HETATM   10  N2  UNL     1       1.435  53.103 -17.549  1.00  0.00    -0.252 N 
HETATM   11  C1  UNL     1       1.306  52.102 -16.604  1.00  0.00     0.332 C 
HETATM   12  N1  UNL     1       1.437  52.570 -15.328  1.00  0.00    -0.351 N 
HETATM   13  O1  UNL     1       1.135  50.905 -16.798  1.00  0.00    -0.246 OA
HETATM   14  H1  UNL     1       1.252  51.856 -14.633  1.00  0.00     0.160 HD
HETATM   15  H2  UNL     1       1.047  53.475 -15.110  1.00  0.00     0.160 HD
HETATM   16  H3  UNL     1       1.283  54.049 -17.225  1.00  0.00     0.191 HD
ENDBRANCH   8  10
ENDBRANCH   1   7
BRANCH   4  17
HETATM   17  O2  UNL     1      -1.280  51.941 -24.715  1.00  0.00    -0.311 OA
BRANCH  17  18
HETATM   18  C7  UNL     1      -0.251  51.851 -25.625  1.00  0.00     0.076 A 
HETATM   19  C8  UNL     1      -0.580  52.025 -26.971  1.00  0.00     0.040 A 
HETATM   20  C9  UNL     1       0.422  51.979 -27.941  1.00  0.00     0.045 A 
HETATM   21  C10 UNL     1       1.743  51.776 -27.553  1.00  0.00     0.116 A 
HETATM   22  F1  UNL     1       2.703  51.732 -28.484  1.00  0.00    -0.206 F 
HETATM   23  C11 UNL     1       2.082  51.623 -26.213  1.00  0.00     0.045 A 
HETATM   24  C12 UNL     1       1.082  51.670 -25.240  1.00  0.00     0.040 A 
ENDBRANCH  17  18
ENDBRANCH   4  17
TORSDOF 4
ENDMDL
MODEL 5
REMARK minimizedAffinity -7.55781174
REMARK  4 active torsions:
REMARK  status: ('A' for Active; 'I' for Inactive)
REMARK       I    between atoms: N1_1  and  C1_2 
REMARK       I    between atoms: C1_2  and  N2_4 
REMARK    1  A    between atoms: N2_4  and  N3_5 
REMARK    2  A    between atoms: C2_7  and  C3_8 
REMARK    3  A    between atoms: C6_11  and  O2_12 
REMARK    4  A    between atoms: O2_12  and  C7_13 
ROOT
HETATM    1  C3  UNL     1       0.459  52.735 -22.744  1.00  0.00    -0.019 A 
HETATM    2  C4  UNL     1      -0.419  51.952 -21.990  1.00  0.00     0.015 A 
HETATM    3  C5  UNL     1      -0.515  52.147 -20.611  1.00  0.00     0.038 A 
HETATM    4  C6  UNL     1       0.278  53.112 -19.988  1.00  0.00     0.076 A 
HETATM    5  C13 UNL     1       1.140  53.913 -20.744  1.00  0.00     0.038 A 
HETATM    6  C14 UNL     1       1.236  53.720 -22.124  1.00  0.00     0.015 A 
ENDROOT
BRANCH   1   7
HETATM    7  C2  UNL     1       0.583  52.551 -24.205  1.00  0.00     0.118 C 
HETATM    8  N3  UNL     1       0.681  53.562 -25.011  1.00  0.00    -0.307 N 
ATOM      9  H3  UNL     1       0.645  54.521 -24.663  1.00  0.00     0.186 HD
BRANCH   8  10
HETATM   10  N2  UNL     1       0.836  53.295 -26.349  1.00  0.00    -0.252 N 
HETATM   11  C1  UNL     1      -0.198  53.111 -27.248  1.00  0.00     0.332 C 
HETATM   12  N1  UNL     1       0.245  52.705 -28.475  1.00  0.00    -0.351 N 
HETATM   13  O1  UNL     1      -1.394  53.304 -27.066  1.00  0.00    -0.246 OA
HETATM   14  H1  UNL     1      -0.516  52.480 -29.106  1.00  0.00     0.160 HD
HETATM   15  H2  UNL     1       1.020  52.061 -28.511  1.00  0.00     0.160 HD
HETATM   16  H3  UNL     1       1.705  52.825 -26.561  1.00  0.00     0.191 HD
ENDBRANCH   8  10
ENDBRANCH   1   7
BRANCH   4  17
HETATM   17  O2  UNL     1       0.112  53.278 -18.632  1.00  0.00    -0.311 OA
BRANCH  17  18
HETATM   18  C7  UNL     1       0.386  52.196 -17.827  1.00  0.00     0.076 A 
HETATM   19  C8  UNL     1       1.375  52.365 -16.855  1.00  0.00     0.040 A 
HETATM   20  C9  UNL     1       1.676  51.318 -15.983  1.00  0.00     0.045 A 
HETATM   21  C10 UNL     1       0.976  50.120 -16.083  1.00  0.00     0.116 A 
HETATM   22  F1  UNL     1       1.265  49.116 -15.246  1.00  0.00    -0.206 F 
HETATM   23  C11 UNL     1      -0.026  49.951 -17.034  1.00  0.00     0.045 A 
HETATM   24  C12 UNL     1      -0.331  50.996 -17.906  1.00  0.00     0.040 A 
ENDBRANCH  17  18
ENDBRANCH   4  17
TORSDOF 4
ENDMDL
MODEL 6
REMARK minimizedAffinity -7.47245073
REMARK  4 active torsions:
REMARK  status: ('A' for Active; 'I' for Inactive)
REMARK       I    between atoms: N1_1  and  C1_2 
REMARK       I    between atoms: C1_2  and  N2_4 
REMARK    1  A    between atoms: N2_4  and  N3_5 
REMARK    2  A    between atoms: C2_7  and  C3_8 
REMARK    3  A    between atoms: C6_11  and  O2_12 
REMARK    4  A    between atoms: O2_12  and  C7_13 
ROOT
HETATM    1  C3  UNL     1       0.027  52.195 -19.388  1.00  0.00    -0.019 A 
HETATM    2  C4  UNL     1      -0.970  51.265 -19.700  1.00  0.00     0.015 A 
HETATM    3  C5  UNL     1      -1.493  51.216 -20.993  1.00  0.00     0.038 A 
HETATM    4  C6  UNL     1      -1.032  52.106 -21.965  1.00  0.00     0.076 A 
HETATM    5  C13 UNL     1      -0.018  53.020 -21.661  1.00  0.00     0.038 A 
HETATM    6  C14 UNL     1       0.507  53.070 -20.368  1.00  0.00     0.015 A 
ENDROOT
BRANCH   1   7
HETATM    7  C2  UNL     1       0.600  52.271 -18.028  1.00  0.00     0.118 C 
HETATM    8  N3  UNL     1       1.624  53.021 -17.763  1.00  0.00    -0.307 N 
ATOM      9  H3  UNL     1       2.087  53.560 -18.495  1.00  0.00     0.186 HD
BRANCH   8  10
HETATM   10  N2  UNL     1       2.062  53.062 -16.463  1.00  0.00    -0.252 N 
HETATM   11  C1  UNL     1       3.275  52.571 -16.016  1.00  0.00     0.332 C 
HETATM   12  N1  UNL     1       3.379  52.603 -14.654  1.00  0.00    -0.351 N 
HETATM   13  O1  UNL     1       4.216  52.171 -16.688  1.00  0.00    -0.246 OA
HETATM   14  H1  UNL     1       4.226  52.159 -14.321  1.00  0.00     0.160 HD
HETATM   15  H2  UNL     1       2.557  52.394 -14.109  1.00  0.00     0.160 HD
HETATM   16  H3  UNL     1       1.307  53.075 -15.791  1.00  0.00     0.191 HD
ENDBRANCH   8  10
ENDBRANCH   1   7
BRANCH   4  17
HETATM   17  O2  UNL     1      -1.565  51.984 -23.228  1.00  0.00    -0.311 OA
BRANCH  17  18
HETATM   18  C7  UNL     1      -0.683  51.804 -24.269  1.00  0.00     0.076 A 
HETATM   19  C8  UNL     1      -1.085  50.946 -25.296  1.00  0.00     0.040 A 
HETATM   20  C9  UNL     1      -0.253  50.747 -26.398  1.00  0.00     0.045 A 
HETATM   21  C10 UNL     1       0.963  51.418 -26.469  1.00  0.00     0.116 A 
HETATM   22  F1  UNL     1       1.761  51.227 -27.527  1.00  0.00    -0.206 F 
HETATM   23  C11 UNL     1       1.362  52.291 -25.461  1.00  0.00     0.045 A 
HETATM   24  C12 UNL     1       0.531  52.494 -24.358  1.00  0.00     0.040 A 
ENDBRANCH  17  18
ENDBRANCH   4  17
TORSDOF 4
ENDMDL
MODEL 7
REMARK minimizedAffinity -7.44968271
REMARK  4 active torsions:
REMARK  status: ('A' for Active; 'I' for Inactive)
REMARK       I    between atoms: N1_1  and  C1_2 
REMARK       I    between atoms: C1_2  and  N2_4 
REMARK    1  A    between atoms: N2_4  and  N3_5 
REMARK    2  A    between atoms: C2_7  and  C3_8 
REMARK    3  A    between atoms: C6_11  and  O2_12 
REMARK    4  A    between atoms: O2_12  and  C7_13 
ROOT
HETATM    1  C3  UNL     1       0.204  52.281 -23.020  1.00  0.00    -0.019 A 
HETATM    2  C4  UNL     1      -0.823  51.554 -22.410  1.00  0.00     0.015 A 
HETATM    3  C5  UNL     1      -1.092  51.737 -21.053  1.00  0.00     0.038 A 
HETATM    4  C6  UNL     1      -0.325  52.633 -20.306  1.00  0.00     0.076 A 
HETATM    5  C13 UNL     1       0.686  53.378 -20.919  1.00  0.00     0.038 A 
HETATM    6  C14 UNL     1       0.957  53.197 -22.277  1.00  0.00     0.015 A 
ENDROOT
BRANCH   1   7
HETATM    7  C2  UNL     1       0.513  52.109 -24.454  1.00  0.00     0.118 C 
HETATM    8  N3  UNL     1       1.234  52.970 -25.102  1.00  0.00    -0.307 N 
ATOM      9  H3  UNL     1       1.586  53.813 -24.648  1.00  0.00     0.186 HD
BRANCH   8  10
HETATM   10  N2  UNL     1       1.506  52.706 -26.422  1.00  0.00    -0.252 N 
HETATM   11  C1  UNL     1       2.371  51.728 -26.876  1.00  0.00     0.332 C 
HETATM   12  N1  UNL     1       2.569  51.794 -28.226  1.00  0.00    -0.351 N 
HETATM   13  O1  UNL     1       2.909  50.841 -26.225  1.00  0.00    -0.246 OA
HETATM   14  H1  UNL     1       3.273  51.138 -28.546  1.00  0.00     0.160 HD
HETATM   15  H2  UNL     1       2.624  52.705 -28.655  1.00  0.00     0.160 HD
HETATM   16  H3  UNL     1       1.386  53.513 -27.020  1.00  0.00     0.191 HD
ENDBRANCH   8  10
ENDBRANCH   1   7
BRANCH   4  17
HETATM   17  O2  UNL     1      -0.663  52.792 -18.981  1.00  0.00    -0.311 OA
BRANCH  17  18
HETATM   18  C7  UNL     1      -0.176  51.862 -18.091  1.00  0.00     0.076 A 
HETATM   19  C8  UNL     1       0.860  52.274 -17.249  1.00  0.00     0.040 A 
HETATM   20  C9  UNL     1       1.375  51.391 -16.300  1.00  0.00     0.045 A 
HETATM   21  C10 UNL     1       0.839  50.112 -16.192  1.00  0.00     0.116 A 
HETATM   22  F1  UNL     1       1.333  49.265 -15.281  1.00  0.00    -0.206 F 
HETATM   23  C11 UNL     1      -0.208  49.700 -17.011  1.00  0.00     0.045 A 
HETATM   24  C12 UNL     1      -0.726  50.582 -17.961  1.00  0.00     0.040 A 
ENDBRANCH  17  18
ENDBRANCH   4  17
TORSDOF 4
ENDMDL
MODEL 8
REMARK minimizedAffinity -7.44826365
REMARK  4 active torsions:
REMARK  status: ('A' for Active; 'I' for Inactive)
REMARK       I    between atoms: N1_1  and  C1_2 
REMARK       I    between atoms: C1_2  and  N2_4 
REMARK    1  A    between atoms: N2_4  and  N3_5 
REMARK    2  A    between atoms: C2_7  and  C3_8 
REMARK    3  A    between atoms: C6_11  and  O2_12 
REMARK    4  A    between atoms: O2_12  and  C7_13 
ROOT
HETATM    1  C3  UNL     1       0.099  52.186 -23.007  1.00  0.00    -0.019 A 
HETATM    2  C4  UNL     1       0.889  52.950 -22.142  1.00  0.00     0.015 A 
HETATM    3  C5  UNL     1       0.547  53.046 -20.792  1.00  0.00     0.038 A 
HETATM    4  C6  UNL     1      -0.590  52.392 -20.314  1.00  0.00     0.076 A 
HETATM    5  C13 UNL     1      -1.367  51.609 -21.172  1.00  0.00     0.038 A 
HETATM    6  C14 UNL     1      -1.026  51.511 -22.522  1.00  0.00     0.015 A 
ENDROOT
BRANCH   1   7
HETATM    7  C2  UNL     1       0.435  52.067 -24.441  1.00  0.00     0.118 C 
HETATM    8  N3  UNL     1       1.241  52.901 -25.021  1.00  0.00    -0.307 N 
ATOM      9  H3  UNL     1       1.646  53.687 -24.512  1.00  0.00     0.186 HD
BRANCH   8  10
HETATM   10  N2  UNL     1       1.529  52.687 -26.346  1.00  0.00    -0.252 N 
HETATM   11  C1  UNL     1       2.386  51.715 -26.828  1.00  0.00     0.332 C 
HETATM   12  N1  UNL     1       2.607  51.833 -28.171  1.00  0.00    -0.351 N 
HETATM   13  O1  UNL     1       2.901  50.794 -26.206  1.00  0.00    -0.246 OA
HETATM   14  H1  UNL     1       3.305  51.181 -28.507  1.00  0.00     0.160 HD
HETATM   15  H2  UNL     1       2.681  52.761 -28.560  1.00  0.00     0.160 HD
HETATM   16  H3  UNL     1       1.431  53.520 -26.912  1.00  0.00     0.191 HD
ENDBRANCH   8  10
ENDBRANCH   1   7
BRANCH   4  17
HETATM   17  O2  UNL     1      -0.853  52.499 -18.967  1.00  0.00    -0.311 OA
BRANCH  17  18
HETATM   18  C7  UNL     1      -0.426  51.471 -18.158  1.00  0.00     0.076 A 
HETATM   19  C8  UNL     1       0.550  51.778 -17.207  1.00  0.00     0.040 A 
HETATM   20  C9  UNL     1       1.000  50.788 -16.332  1.00  0.00     0.045 A 
HETATM   21  C10 UNL     1       0.460  49.509 -16.408  1.00  0.00     0.116 A 
HETATM   22  F1  UNL     1       0.892  48.560 -15.568  1.00  0.00    -0.206 F 
HETATM   23  C11 UNL     1      -0.528  49.200 -17.337  1.00  0.00     0.045 A 
HETATM   24  C12 UNL     1      -0.982  50.188 -18.213  1.00  0.00     0.040 A 
ENDBRANCH  17  18
ENDBRANCH   4  17
TORSDOF 4
ENDMDL
MODEL 9
REMARK minimizedAffinity -7.25269365
REMARK  4 active torsions:
REMARK  status: ('A' for Active; 'I' for Inactive)
REMARK       I    between atoms: N1_1  and  C1_2 
REMARK       I    between atoms: C1_2  and  N2_4 
REMARK    1  A    between atoms: N2_4  and  N3_5 
REMARK    2  A    between atoms: C2_7  and  C3_8 
REMARK    3  A    between atoms: C6_11  and  O2_12 
REMARK    4  A    between atoms: O2_12  and  C7_13 
ROOT
HETATM    1  C3  UNL     1      -2.075  50.242 -25.751  1.00  0.00    -0.019 A 
HETATM    2  C4  UNL     1      -0.815  50.467 -26.313  1.00  0.00     0.015 A 
HETATM    3  C5  UNL     1       0.122  51.243 -25.627  1.00  0.00     0.038 A 
HETATM    4  C6  UNL     1      -0.209  51.804 -24.392  1.00  0.00     0.076 A 
HETATM    5  C13 UNL     1      -1.460  51.559 -23.819  1.00  0.00     0.038 A 
HETATM    6  C14 UNL     1      -2.397  50.783 -24.502  1.00  0.00     0.015 A 
ENDROOT
BRANCH   1   7
HETATM    7  C2  UNL     1      -3.087  49.425 -26.452  1.00  0.00     0.118 C 
HETATM    8  N3  UNL     1      -4.299  49.313 -26.004  1.00  0.00    -0.307 N 
ATOM      9  H3  UNL     1      -4.583  49.760 -25.132  1.00  0.00     0.186 HD
BRANCH   8  10
HETATM   10  N2  UNL     1      -5.183  48.568 -26.744  1.00  0.00    -0.252 N 
HETATM   11  C1  UNL     1      -4.983  48.159 -28.049  1.00  0.00     0.332 C 
HETATM   12  N1  UNL     1      -6.092  47.570 -28.587  1.00  0.00    -0.351 N 
HETATM   13  O1  UNL     1      -3.955  48.238 -28.710  1.00  0.00    -0.246 OA
HETATM   14  H1  UNL     1      -5.977  47.354 -29.570  1.00  0.00     0.160 HD
HETATM   15  H2  UNL     1      -6.995  47.948 -28.346  1.00  0.00     0.160 HD
HETATM   16  H3  UNL     1      -6.145  48.693 -26.455  1.00  0.00     0.191 HD
ENDBRANCH   8  10
ENDBRANCH   1   7
BRANCH   4  17
HETATM   17  O2  UNL     1       0.770  52.530 -23.754  1.00  0.00    -0.311 OA
BRANCH  17  18
HETATM   18  C7  UNL     1       0.698  52.616 -22.382  1.00  0.00     0.076 A 
HETATM   19  C8  UNL     1       0.989  53.857 -21.810  1.00  0.00     0.040 A 
HETATM   20  C9  UNL     1       0.901  54.021 -20.428  1.00  0.00     0.045 A 
HETATM   21  C10 UNL     1       0.509  52.947 -19.634  1.00  0.00     0.116 A 
HETATM   22  F1  UNL     1       0.424  53.106 -18.307  1.00  0.00    -0.206 F 
HETATM   23  C11 UNL     1       0.196  51.714 -20.197  1.00  0.00     0.045 A 
HETATM   24  C12 UNL     1       0.282  51.548 -21.580  1.00  0.00     0.040 A 
ENDBRANCH  17  18
ENDBRANCH   4  17
TORSDOF 4
ENDMDL
