MODEL 1
REMARK minimizedAffinity -11.6636515
REMARK  6 active torsions:
REMARK  status: ('A' for Active; 'I' for Inactive)
REMARK    1  A    between atoms: N1_2  and  C2_3 
REMARK    2  A    between atoms: C4_5  and  N3_29 
REMARK    3  A    between atoms: C5_7  and  N2_12 
REMARK    4  A    between atoms: C7_9  and  O2_10 
REMARK    5  A    between atoms: C27_32  and  O3_33 
REMARK    6  A    between atoms: C28_36  and  O4_37 
ROOT
HETATM    1  C2  UNL     1      -4.912  49.062 -22.259  1.00  0.00     0.257 C 
HETATM    2  C3  UNL     1      -3.404  49.177 -22.013  1.00  0.00     0.092 C 
HETATM    3  C4  UNL     1      -2.590  48.980 -23.300  1.00  0.00     0.234 C 
HETATM    4  O1  UNL     1      -3.358  48.546 -24.420  1.00  0.00    -0.333 OA
HETATM    5  C5  UNL     1      -4.556  49.297 -24.746  1.00  0.00     0.168 C 
HETATM    6  C6  UNL     1      -5.433  48.157 -25.316  1.00  0.00     0.074 C 
HETATM    7  C7  UNL     1      -5.261  49.926 -23.496  1.00  0.00     0.209 C 
ENDROOT
BRANCH   1   8
HETATM    8  N1  UNL     1      -5.679  49.477 -21.064  1.00  0.00     0.086 N 
HETATM    9  C1  UNL     1      -4.857  50.140 -20.061  1.00  0.00     0.307 C 
HETATM   10  H4  UNL     1      -6.136  48.671 -20.641  1.00  0.00     0.316 HD
ENDBRANCH   1   8
BRANCH   7  11
HETATM   11  O2  UNL     1      -4.781  51.258 -23.223  1.00  0.00    -0.384 OA
HETATM   12  C8  UNL     1      -4.704  52.081 -24.376  1.00  0.00     0.202 C 
ENDBRANCH   7  11
BRANCH   3  13
HETATM   13  N3  UNL     1      -1.697  50.071 -23.672  1.00  0.00    -0.316 N 
HETATM   14  C24 UNL     1      -1.536  50.552 -24.964  1.00  0.00     0.048 A 
HETATM   15  C19 UNL     1      -0.727  51.698 -24.886  1.00  0.00     0.004 A 
HETATM   16  C23 UNL     1      -2.047  50.078 -26.186  1.00  0.00     0.030 A 
HETATM   17  C18 UNL     1      -0.389  51.898 -23.511  1.00  0.00     0.021 A 
HETATM   18  C20 UNL     1      -0.430  52.376 -26.090  1.00  0.00     0.014 A 
HETATM   19  C17 UNL     1       0.341  52.782 -22.704  1.00  0.00     0.040 A 
HETATM   20  C25 UNL     1      -0.993  50.861 -22.817  1.00  0.00     0.077 A 
HETATM   21  C16 UNL     1       0.502  52.679 -21.300  1.00  0.00     0.019 A 
HETATM   22  C27 UNL     1       1.114  53.957 -23.029  1.00  0.00     0.150 A 
HETATM   23  C15 UNL     1      -0.065  51.626 -20.563  1.00  0.00     0.017 A 
HETATM   24  C28 UNL     1       1.401  53.807 -20.866  1.00  0.00     0.256 A 
HETATM   25  C14 UNL     1      -0.050  51.168 -19.218  1.00  0.00     0.004 A 
HETATM   26  C26 UNL     1      -0.821  50.718 -21.273  1.00  0.00     0.077 A 
HETATM   27  C9  UNL     1      -0.769  49.958 -19.166  1.00  0.00     0.049 A 
HETATM   28  C13 UNL     1       0.561  51.659 -18.043  1.00  0.00     0.014 A 
HETATM   29  N2  UNL     1      -1.302  49.742 -20.437  1.00  0.00    -0.308 N 
HETATM   30  C10 UNL     1      -0.823  49.218 -17.968  1.00  0.00     0.030 A 
HETATM   31  C11 UNL     1      -0.202  49.726 -16.822  1.00  0.00     0.002 A 
HETATM   32  C12 UNL     1       0.474  50.937 -16.854  1.00  0.00     0.001 A 
HETATM   33  N4  UNL     1       1.730  54.591 -22.082  1.00  0.00    -0.340 N 
ATOM     34  H4  UNL     1       2.305  55.430 -22.155  1.00  0.00     0.164 HD
HETATM   35  C21 UNL     1      -0.933  51.908 -27.309  1.00  0.00     0.001 A 
HETATM   36  C22 UNL     1      -1.730  50.773 -27.353  1.00  0.00     0.002 A 
BRANCH  24  37
HETATM   37  O4  UNL     1       0.760  54.590 -19.884  1.00  0.00    -0.372 OA
HETATM   38  H26 UNL     1       0.947  55.496 -20.182  1.00  0.00     0.212 HD
ENDBRANCH  24  37
BRANCH  22  39
HETATM   39  O3  UNL     1       1.197  54.395 -24.279  1.00  0.00    -0.346 OA
HETATM   40  H24 UNL     1       1.757  55.188 -24.276  1.00  0.00     0.219 HD
ENDBRANCH  22  39
ENDBRANCH   3  13
TORSDOF 6
ENDMDL
MODEL 2
REMARK minimizedAffinity -11.5934763
REMARK  6 active torsions:
REMARK  status: ('A' for Active; 'I' for Inactive)
REMARK    1  A    between atoms: N1_2  and  C2_3 
REMARK    2  A    between atoms: C4_5  and  N3_29 
REMARK    3  A    between atoms: C5_7  and  N2_12 
REMARK    4  A    between atoms: C7_9  and  O2_10 
REMARK    5  A    between atoms: C27_32  and  O3_33 
REMARK    6  A    between atoms: C28_36  and  O4_37 
ROOT
HETATM    1  C2  UNL     1      -2.635  49.100 -19.146  1.00  0.00     0.257 C 
HETATM    2  C3  UNL     1      -1.241  49.494 -19.649  1.00  0.00     0.092 C 
HETATM    3  C4  UNL     1      -1.177  49.562 -21.181  1.00  0.00     0.234 C 
HETATM    4  O1  UNL     1      -2.341  49.072 -21.841  1.00  0.00    -0.333 OA
HETATM    5  C5  UNL     1      -3.626  49.592 -21.414  1.00  0.00     0.168 C 
HETATM    6  C6  UNL     1      -4.510  48.348 -21.667  1.00  0.00     0.074 C 
HETATM    7  C7  UNL     1      -3.675  49.971 -19.894  1.00  0.00     0.209 C 
ENDROOT
BRANCH   1   8
HETATM    8  N1  UNL     1      -2.736  49.260 -17.679  1.00  0.00     0.086 N 
HETATM    9  C1  UNL     1      -3.638  50.333 -17.283  1.00  0.00     0.307 C 
HETATM   10  H4  UNL     1      -1.816  49.434 -17.279  1.00  0.00     0.316 HD
ENDBRANCH   1   8
BRANCH   7  11
HETATM   11  O2  UNL     1      -3.305  51.346 -19.671  1.00  0.00    -0.384 OA
HETATM   12  C8  UNL     1      -2.854  51.605 -18.351  1.00  0.00     0.202 C 
ENDBRANCH   7  11
BRANCH   3  13
HETATM   13  N3  UNL     1      -0.750  50.835 -21.752  1.00  0.00    -0.316 N 
HETATM   14  C24 UNL     1      -0.022  51.799 -21.070  1.00  0.00     0.048 A 
HETATM   15  C19 UNL     1       0.330  52.793 -22.000  1.00  0.00     0.004 A 
HETATM   16  C23 UNL     1       0.362  51.870 -19.719  1.00  0.00     0.030 A 
HETATM   17  C18 UNL     1      -0.211  52.412 -23.267  1.00  0.00     0.021 A 
HETATM   18  C20 UNL     1       1.094  53.887 -21.535  1.00  0.00     0.014 A 
HETATM   19  C17 UNL     1      -0.269  52.872 -24.590  1.00  0.00     0.040 A 
HETATM   20  C25 UNL     1      -0.879  51.216 -23.051  1.00  0.00     0.077 A 
HETATM   21  C16 UNL     1      -0.943  52.232 -25.660  1.00  0.00     0.019 A 
HETATM   22  C27 UNL     1       0.271  54.056 -25.216  1.00  0.00     0.150 A 
HETATM   23  C15 UNL     1      -1.659  51.038 -25.477  1.00  0.00     0.017 A 
HETATM   24  C28 UNL     1      -0.783  53.103 -26.879  1.00  0.00     0.256 A 
HETATM   25  C14 UNL     1      -2.490  50.190 -26.258  1.00  0.00     0.004 A 
HETATM   26  C26 UNL     1      -1.639  50.499 -24.209  1.00  0.00     0.077 A 
HETATM   27  C9  UNL     1      -2.988  49.177 -25.416  1.00  0.00     0.049 A 
HETATM   28  C13 UNL     1      -2.901  50.228 -27.609  1.00  0.00     0.014 A 
HETATM   29  N2  UNL     1      -2.385  49.347 -24.170  1.00  0.00    -0.308 N 
HETATM   30  C10 UNL     1      -3.934  48.254 -25.903  1.00  0.00     0.030 A 
HETATM   31  C11 UNL     1      -4.328  48.321 -27.244  1.00  0.00     0.002 A 
HETATM   32  C12 UNL     1      -3.812  49.289 -28.091  1.00  0.00     0.001 A 
HETATM   33  N4  UNL     1       0.044  54.266 -26.473  1.00  0.00    -0.340 N 
ATOM     34  H4  UNL     1       0.360  55.047 -27.049  1.00  0.00     0.164 HD
HETATM   35  C21 UNL     1       1.476  53.964 -20.191  1.00  0.00     0.001 A 
HETATM   36  C22 UNL     1       1.113  52.967 -19.297  1.00  0.00     0.002 A 
BRANCH  24  37
HETATM   37  O4  UNL     1      -0.193  52.369 -27.928  1.00  0.00    -0.372 OA
HETATM   38  H26 UNL     1       0.475  52.988 -28.268  1.00  0.00     0.212 HD
ENDBRANCH  24  37
BRANCH  22  39
HETATM   39  O3  UNL     1       0.997  54.924 -24.521  1.00  0.00    -0.346 OA
HETATM   40  H24 UNL     1       1.260  55.637 -25.125  1.00  0.00     0.219 HD
ENDBRANCH  22  39
ENDBRANCH   3  13
TORSDOF 6
ENDMDL
MODEL 3
REMARK minimizedAffinity -11.5429449
REMARK  6 active torsions:
REMARK  status: ('A' for Active; 'I' for Inactive)
REMARK    1  A    between atoms: N1_2  and  C2_3 
REMARK    2  A    between atoms: C4_5  and  N3_29 
REMARK    3  A    between atoms: C5_7  and  N2_12 
REMARK    4  A    between atoms: C7_9  and  O2_10 
REMARK    5  A    between atoms: C27_32  and  O3_33 
REMARK    6  A    between atoms: C28_36  and  O4_37 
ROOT
HETATM    1  C2  UNL     1      -4.216  50.272 -20.856  1.00  0.00     0.257 C 
HETATM    2  C3  UNL     1      -2.965  49.911 -21.665  1.00  0.00     0.092 C 
HETATM    3  C4  UNL     1      -3.306  49.129 -22.941  1.00  0.00     0.234 C 
HETATM    4  O1  UNL     1      -4.671  48.728 -23.038  1.00  0.00    -0.333 OA
HETATM    5  C5  UNL     1      -5.686  49.744 -22.837  1.00  0.00     0.168 C 
HETATM    6  C6  UNL     1      -6.801  48.879 -22.203  1.00  0.00     0.074 C 
HETATM    7  C7  UNL     1      -5.259  50.869 -21.834  1.00  0.00     0.209 C 
ENDROOT
BRANCH   1   8
HETATM    8  N1  UNL     1      -3.888  51.212 -19.761  1.00  0.00     0.086 N 
HETATM    9  C1  UNL     1      -2.977  50.645 -18.777  1.00  0.00     0.307 C 
HETATM   10  H4  UNL     1      -4.739  51.517 -19.291  1.00  0.00     0.316 HD
ENDBRANCH   1   8
BRANCH   7  11
HETATM   11  O2  UNL     1      -4.618  51.972 -22.505  1.00  0.00    -0.384 OA
HETATM   12  C8  UNL     1      -5.181  52.269 -23.773  1.00  0.00     0.202 C 
ENDBRANCH   7  11
BRANCH   3  13
HETATM   13  N3  UNL     1      -2.844  49.711 -24.196  1.00  0.00    -0.316 N 
HETATM   14  C24 UNL     1      -3.319  49.355 -25.451  1.00  0.00     0.048 A 
HETATM   15  C19 UNL     1      -2.753  50.245 -26.380  1.00  0.00     0.004 A 
HETATM   16  C23 UNL     1      -4.206  48.334 -25.837  1.00  0.00     0.030 A 
HETATM   17  C18 UNL     1      -1.911  51.148 -25.658  1.00  0.00     0.021 A 
HETATM   18  C20 UNL     1      -3.102  50.085 -27.739  1.00  0.00     0.014 A 
HETATM   19  C17 UNL     1      -1.070  52.245 -25.889  1.00  0.00     0.040 A 
HETATM   20  C25 UNL     1      -1.990  50.761 -24.329  1.00  0.00     0.077 A 
HETATM   21  C16 UNL     1      -0.324  52.937 -24.902  1.00  0.00     0.019 A 
HETATM   22  C27 UNL     1      -0.709  52.935 -27.104  1.00  0.00     0.150 A 
HETATM   23  C15 UNL     1      -0.349  52.557 -23.551  1.00  0.00     0.017 A 
HETATM   24  C28 UNL     1       0.474  54.004 -25.607  1.00  0.00     0.256 A 
HETATM   25  C14 UNL     1       0.302  52.941 -22.347  1.00  0.00     0.004 A 
HETATM   26  C26 UNL     1      -1.169  51.497 -23.227  1.00  0.00     0.077 A 
HETATM   27  C9  UNL     1      -0.118  52.062 -21.329  1.00  0.00     0.049 A 
HETATM   28  C13 UNL     1       1.256  53.938 -22.047  1.00  0.00     0.014 A 
HETATM   29  N2  UNL     1      -1.088  51.227 -21.883  1.00  0.00    -0.308 N 
HETATM   30  C10 UNL     1       0.456  52.141 -20.045  1.00  0.00     0.030 A 
HETATM   31  C11 UNL     1       1.405  53.135 -19.780  1.00  0.00     0.002 A 
HETATM   32  C12 UNL     1       1.794  54.031 -20.764  1.00  0.00     0.001 A 
HETATM   33  N4  UNL     1       0.131  53.920 -27.048  1.00  0.00    -0.340 N 
ATOM     34  H4  UNL     1       0.475  54.500 -27.813  1.00  0.00     0.164 HD
HETATM   35  C21 UNL     1      -3.982  49.070 -28.131  1.00  0.00     0.001 A 
HETATM   36  C22 UNL     1      -4.525  48.206 -27.190  1.00  0.00     0.002 A 
BRANCH  24  37
HETATM   37  O4  UNL     1       0.180  55.270 -25.062  1.00  0.00    -0.372 OA
HETATM   38  H26 UNL     1       0.072  55.821 -25.855  1.00  0.00     0.212 HD
ENDBRANCH  24  37
BRANCH  22  39
HETATM   39  O3  UNL     1      -1.229  52.577 -28.273  1.00  0.00    -0.346 OA
HETATM   40  H24 UNL     1      -0.859  53.164 -28.951  1.00  0.00     0.219 HD
ENDBRANCH  22  39
ENDBRANCH   3  13
TORSDOF 6
ENDMDL
MODEL 4
REMARK minimizedAffinity -10.43538
REMARK  6 active torsions:
REMARK  status: ('A' for Active; 'I' for Inactive)
REMARK    1  A    between atoms: N1_2  and  C2_3 
REMARK    2  A    between atoms: C4_5  and  N3_29 
REMARK    3  A    between atoms: C5_7  and  N2_12 
REMARK    4  A    between atoms: C7_9  and  O2_10 
REMARK    5  A    between atoms: C27_32  and  O3_33 
REMARK    6  A    between atoms: C28_36  and  O4_37 
ROOT
HETATM    1  C2  UNL     1      -0.464  52.376 -27.589  1.00  0.00     0.257 C 
HETATM    2  C3  UNL     1      -1.486  51.488 -26.869  1.00  0.00     0.092 C 
HETATM    3  C4  UNL     1      -0.832  50.603 -25.799  1.00  0.00     0.234 C 
HETATM    4  O1  UNL     1       0.594  50.631 -25.804  1.00  0.00    -0.333 OA
HETATM    5  C5  UNL     1       1.242  51.928 -25.785  1.00  0.00     0.168 C 
HETATM    6  C6  UNL     1       2.513  51.598 -26.604  1.00  0.00     0.074 C 
HETATM    7  C7  UNL     1       0.424  53.048 -26.513  1.00  0.00     0.209 C 
ENDROOT
BRANCH   1   8
HETATM    8  N1  UNL     1      -1.138  53.374 -28.448  1.00  0.00     0.086 N 
HETATM    9  C1  UNL     1      -0.619  54.723 -28.271  1.00  0.00     0.307 C 
HETATM   10  H4  UNL     1      -2.140  53.376 -28.267  1.00  0.00     0.316 HD
ENDBRANCH   1   8
BRANCH   7  11
HETATM   11  O2  UNL     1      -0.463  53.738 -25.610  1.00  0.00    -0.384 OA
HETATM   12  C8  UNL     1       0.136  54.850 -24.965  1.00  0.00     0.202 C 
ENDBRANCH   7  11
BRANCH   3  13
HETATM   13  N3  UNL     1      -1.350  50.742 -24.442  1.00  0.00    -0.316 N 
HETATM   14  C24 UNL     1      -0.664  51.339 -23.394  1.00  0.00     0.048 A 
HETATM   15  C19 UNL     1      -1.551  51.426 -22.308  1.00  0.00     0.004 A 
HETATM   16  C23 UNL     1       0.657  51.818 -23.321  1.00  0.00     0.030 A 
HETATM   17  C18 UNL     1      -2.797  50.856 -22.720  1.00  0.00     0.021 A 
HETATM   18  C20 UNL     1      -1.076  52.016 -21.116  1.00  0.00     0.014 A 
HETATM   19  C17 UNL     1      -4.079  50.604 -22.214  1.00  0.00     0.040 A 
HETATM   20  C25 UNL     1      -2.609  50.436 -24.027  1.00  0.00     0.077 A 
HETATM   21  C16 UNL     1      -5.134  49.968 -22.914  1.00  0.00     0.019 A 
HETATM   22  C27 UNL     1      -4.666  50.865 -20.921  1.00  0.00     0.150 A 
HETATM   23  C15 UNL     1      -4.976  49.498 -24.227  1.00  0.00     0.017 A 
HETATM   24  C28 UNL     1      -6.303  49.863 -21.969  1.00  0.00     0.256 A 
HETATM   25  C14 UNL     1      -5.746  48.770 -25.175  1.00  0.00     0.004 A 
HETATM   26  C26 UNL     1      -3.750  49.722 -24.816  1.00  0.00     0.077 A 
HETATM   27  C9  UNL     1      -4.935  48.536 -26.303  1.00  0.00     0.049 A 
HETATM   28  C13 UNL     1      -7.056  48.244 -25.147  1.00  0.00     0.014 A 
HETATM   29  N2  UNL     1      -3.729  49.204 -26.086  1.00  0.00    -0.308 N 
HETATM   30  C10 UNL     1      -5.408  47.736 -27.361  1.00  0.00     0.030 A 
HETATM   31  C11 UNL     1      -6.709  47.222 -27.301  1.00  0.00     0.002 A 
HETATM   32  C12 UNL     1      -7.529  47.481 -26.213  1.00  0.00     0.001 A 
HETATM   33  N4  UNL     1      -5.887  50.497 -20.694  1.00  0.00    -0.340 N 
ATOM     34  H4  UNL     1      -6.433  50.616 -19.840  1.00  0.00     0.164 HD
HETATM   35  C21 UNL     1       0.238  52.491 -21.036  1.00  0.00     0.001 A 
HETATM   36  C22 UNL     1       1.091  52.392 -22.125  1.00  0.00     0.002 A 
BRANCH  24  37
HETATM   37  O4  UNL     1      -7.439  50.484 -22.528  1.00  0.00    -0.372 OA
HETATM   38  H26 UNL     1      -7.788  50.997 -21.780  1.00  0.00     0.212 HD
ENDBRANCH  24  37
BRANCH  22  39
HETATM   39  O3  UNL     1      -3.973  51.479 -19.968  1.00  0.00    -0.346 OA
HETATM   40  H24 UNL     1      -4.549  51.555 -19.190  1.00  0.00     0.219 HD
ENDBRANCH  22  39
ENDBRANCH   3  13
TORSDOF 6
ENDMDL
MODEL 5
REMARK minimizedAffinity -10.3448925
REMARK  6 active torsions:
REMARK  status: ('A' for Active; 'I' for Inactive)
REMARK    1  A    between atoms: N1_2  and  C2_3 
REMARK    2  A    between atoms: C4_5  and  N3_29 
REMARK    3  A    between atoms: C5_7  and  N2_12 
REMARK    4  A    between atoms: C7_9  and  O2_10 
REMARK    5  A    between atoms: C27_32  and  O3_33 
REMARK    6  A    between atoms: C28_36  and  O4_37 
ROOT
HETATM    1  C2  UNL     1      -3.692  47.146 -21.153  1.00  0.00     0.257 C 
HETATM    2  C3  UNL     1      -2.213  47.468 -20.910  1.00  0.00     0.092 C 
HETATM    3  C4  UNL     1      -1.697  48.567 -21.849  1.00  0.00     0.234 C 
HETATM    4  O1  UNL     1      -2.613  48.941 -22.876  1.00  0.00    -0.333 OA
HETATM    5  C5  UNL     1      -3.968  49.274 -22.480  1.00  0.00     0.168 C 
HETATM    6  C6  UNL     1      -4.735  48.787 -23.733  1.00  0.00     0.074 C 
HETATM    7  C7  UNL     1      -4.465  48.486 -21.221  1.00  0.00     0.209 C 
ENDROOT
BRANCH   1   8
HETATM    8  N1  UNL     1      -4.223  46.257 -20.097  1.00  0.00     0.086 N 
HETATM    9  C1  UNL     1      -4.756  45.006 -20.619  1.00  0.00     0.307 C 
HETATM   10  H4  UNL     1      -4.950  46.734 -19.566  1.00  0.00     0.316 HD
ENDBRANCH   1   8
BRANCH   7  11
HETATM   11  O2  UNL     1      -4.182  49.194 -19.997  1.00  0.00    -0.384 OA
HETATM   12  C8  UNL     1      -4.453  50.585 -20.071  1.00  0.00     0.202 C 
ENDBRANCH   7  11
BRANCH   3  13
HETATM   13  N3  UNL     1      -1.124  49.746 -21.209  1.00  0.00    -0.316 N 
HETATM   14  C24 UNL     1      -0.873  49.859 -19.849  1.00  0.00     0.048 A 
HETATM   15  C19 UNL     1      -0.175  51.063 -19.651  1.00  0.00     0.004 A 
HETATM   16  C23 UNL     1      -1.193  48.997 -18.785  1.00  0.00     0.030 A 
HETATM   17  C18 UNL     1      -0.015  51.686 -20.928  1.00  0.00     0.021 A 
HETATM   18  C20 UNL     1       0.204  51.393 -18.331  1.00  0.00     0.014 A 
HETATM   19  C17 UNL     1       0.546  52.839 -21.496  1.00  0.00     0.040 A 
HETATM   20  C25 UNL     1      -0.633  50.846 -21.841  1.00  0.00     0.077 A 
HETATM   21  C16 UNL     1       0.510  53.186 -22.869  1.00  0.00     0.019 A 
HETATM   22  C27 UNL     1       1.250  53.952 -20.903  1.00  0.00     0.150 A 
HETATM   23  C15 UNL     1      -0.134  52.380 -23.821  1.00  0.00     0.017 A 
HETATM   24  C28 UNL     1       1.186  54.525 -23.013  1.00  0.00     0.256 A 
HETATM   25  C14 UNL     1      -0.434  52.442 -25.209  1.00  0.00     0.004 A 
HETATM   26  C26 UNL     1      -0.697  51.211 -23.356  1.00  0.00     0.077 A 
HETATM   27  C9  UNL     1      -1.217  51.317 -25.533  1.00  0.00     0.049 A 
HETATM   28  C13 UNL     1      -0.145  53.393 -26.212  1.00  0.00     0.014 A 
HETATM   29  N2  UNL     1      -1.300  50.530 -24.385  1.00  0.00    -0.308 N 
HETATM   30  C10 UNL     1      -1.754  51.178 -26.828  1.00  0.00     0.030 A 
HETATM   31  C11 UNL     1      -1.457  52.141 -27.799  1.00  0.00     0.002 A 
HETATM   32  C12 UNL     1      -0.654  53.231 -27.500  1.00  0.00     0.001 A 
HETATM   33  N4  UNL     1       1.645  54.925 -21.660  1.00  0.00    -0.340 N 
ATOM     34  H4  UNL     1       2.152  55.768 -21.390  1.00  0.00     0.164 HD
HETATM   35  C21 UNL     1      -0.114  50.541 -17.268  1.00  0.00     0.001 A 
HETATM   36  C22 UNL     1      -0.804  49.359 -17.494  1.00  0.00     0.002 A 
BRANCH  24  37
HETATM   37  O4  UNL     1       2.250  54.436 -23.933  1.00  0.00    -0.372 OA
HETATM   38  H26 UNL     1       2.962  54.917 -23.479  1.00  0.00     0.212 HD
ENDBRANCH  24  37
BRANCH  22  39
HETATM   39  O3  UNL     1       1.498  53.986 -19.599  1.00  0.00    -0.346 OA
HETATM   40  H24 UNL     1       1.977  54.809 -19.413  1.00  0.00     0.219 HD
ENDBRANCH  22  39
ENDBRANCH   3  13
TORSDOF 6
ENDMDL
MODEL 6
REMARK minimizedAffinity -10.1339226
REMARK  6 active torsions:
REMARK  status: ('A' for Active; 'I' for Inactive)
REMARK    1  A    between atoms: N1_2  and  C2_3 
REMARK    2  A    between atoms: C4_5  and  N3_29 
REMARK    3  A    between atoms: C5_7  and  N2_12 
REMARK    4  A    between atoms: C7_9  and  O2_10 
REMARK    5  A    between atoms: C27_32  and  O3_33 
REMARK    6  A    between atoms: C28_36  and  O4_37 
ROOT
HETATM    1  C2  UNL     1      -5.389  48.050 -20.081  1.00  0.00     0.257 C 
HETATM    2  C3  UNL     1      -5.573  48.971 -21.293  1.00  0.00     0.092 C 
HETATM    3  C4  UNL     1      -4.406  49.954 -21.456  1.00  0.00     0.234 C 
HETATM    4  O1  UNL     1      -3.484  49.957 -20.368  1.00  0.00    -0.333 OA
HETATM    5  C5  UNL     1      -2.951  48.681 -19.934  1.00  0.00     0.168 C 
HETATM    6  C6  UNL     1      -2.773  48.971 -18.424  1.00  0.00     0.074 C 
HETATM    7  C7  UNL     1      -3.947  47.487 -20.126  1.00  0.00     0.209 C 
ENDROOT
BRANCH   1   8
HETATM    8  N1  UNL     1      -6.401  46.971 -20.074  1.00  0.00     0.086 N 
HETATM    9  C1  UNL     1      -6.860  46.627 -18.735  1.00  0.00     0.307 C 
HETATM   10  H4  UNL     1      -6.030  46.136 -20.525  1.00  0.00     0.316 HD
ENDBRANCH   1   8
BRANCH   7  11
HETATM   11  O2  UNL     1      -3.786  46.854 -21.410  1.00  0.00    -0.384 OA
HETATM   12  C8  UNL     1      -2.435  46.776 -21.838  1.00  0.00     0.202 C 
ENDBRANCH   7  11
BRANCH   3  13
HETATM   13  N3  UNL     1      -3.703  49.914 -22.734  1.00  0.00    -0.316 N 
HETATM   14  C24 UNL     1      -4.182  49.288 -23.876  1.00  0.00     0.048 A 
HETATM   15  C19 UNL     1      -3.307  49.610 -24.927  1.00  0.00     0.004 A 
HETATM   16  C23 UNL     1      -5.315  48.478 -24.068  1.00  0.00     0.030 A 
HETATM   17  C18 UNL     1      -2.275  50.443 -24.393  1.00  0.00     0.021 A 
HETATM   18  C20 UNL     1      -3.598  49.090 -26.208  1.00  0.00     0.014 A 
HETATM   19  C17 UNL     1      -1.120  51.120 -24.809  1.00  0.00     0.040 A 
HETATM   20  C25 UNL     1      -2.557  50.579 -23.042  1.00  0.00     0.077 A 
HETATM   21  C16 UNL     1      -0.262  51.881 -23.977  1.00  0.00     0.019 A 
HETATM   22  C27 UNL     1      -0.482  51.220 -26.101  1.00  0.00     0.150 A 
HETATM   23  C15 UNL     1      -0.493  52.017 -22.598  1.00  0.00     0.017 A 
HETATM   24  C28 UNL     1       0.873  52.378 -24.834  1.00  0.00     0.256 A 
HETATM   25  C14 UNL     1       0.164  52.603 -21.483  1.00  0.00     0.004 A 
HETATM   26  C26 UNL     1      -1.623  51.401 -22.103  1.00  0.00     0.077 A 
HETATM   27  C9  UNL     1      -0.576  52.282 -20.328  1.00  0.00     0.049 A 
HETATM   28  C13 UNL     1       1.359  53.344 -21.353  1.00  0.00     0.014 A 
HETATM   29  N2  UNL     1      -1.719  51.603 -20.748  1.00  0.00    -0.308 N 
HETATM   30  C10 UNL     1      -0.092  52.644 -19.055  1.00  0.00     0.030 A 
HETATM   31  C11 UNL     1       1.100  53.371 -18.958  1.00  0.00     0.002 A 
HETATM   32  C12 UNL     1       1.813  53.727 -20.092  1.00  0.00     0.001 A 
HETATM   33  N4  UNL     1       0.617  51.895 -26.214  1.00  0.00    -0.340 N 
ATOM     34  H4  UNL     1       1.174  52.057 -27.052  1.00  0.00     0.164 HD
HETATM   35  C21 UNL     1      -4.722  48.281 -26.405  1.00  0.00     0.001 A 
HETATM   36  C22 UNL     1      -5.568  47.980 -25.347  1.00  0.00     0.002 A 
BRANCH  24  37
HETATM   37  O4  UNL     1       0.954  53.784 -24.768  1.00  0.00    -0.372 OA
HETATM   38  H26 UNL     1       1.075  54.032 -25.700  1.00  0.00     0.212 HD
ENDBRANCH  24  37
BRANCH  22  39
HETATM   39  O3  UNL     1      -1.010  50.633 -27.169  1.00  0.00    -0.346 OA
HETATM   40  H24 UNL     1      -0.431  50.824 -27.925  1.00  0.00     0.219 HD
ENDBRANCH  22  39
ENDBRANCH   3  13
TORSDOF 6
ENDMDL
MODEL 7
REMARK minimizedAffinity -9.98176479
REMARK  6 active torsions:
REMARK  status: ('A' for Active; 'I' for Inactive)
REMARK    1  A    between atoms: N1_2  and  C2_3 
REMARK    2  A    between atoms: C4_5  and  N3_29 
REMARK    3  A    between atoms: C5_7  and  N2_12 
REMARK    4  A    between atoms: C7_9  and  O2_10 
REMARK    5  A    between atoms: C27_32  and  O3_33 
REMARK    6  A    between atoms: C28_36  and  O4_37 
ROOT
HETATM    1  C2  UNL     1      -2.758  50.589 -18.948  1.00  0.00     0.257 C 
HETATM    2  C3  UNL     1      -3.843  50.988 -19.955  1.00  0.00     0.092 C 
HETATM    3  C4  UNL     1      -3.312  51.027 -21.394  1.00  0.00     0.234 C 
HETATM    4  O1  UNL     1      -1.899  50.876 -21.504  1.00  0.00    -0.333 OA
HETATM    5  C5  UNL     1      -1.287  49.753 -20.820  1.00  0.00     0.168 C 
HETATM    6  C6  UNL     1       0.085  50.376 -20.468  1.00  0.00     0.074 C 
HETATM    7  C7  UNL     1      -2.030  49.340 -19.504  1.00  0.00     0.209 C 
ENDROOT
BRANCH   1   8
HETATM    8  N1  UNL     1      -3.339  50.338 -17.611  1.00  0.00     0.086 N 
HETATM    9  C1  UNL     1      -2.440  50.694 -16.522  1.00  0.00     0.307 C 
HETATM   10  H4  UNL     1      -3.603  49.359 -17.519  1.00  0.00     0.316 HD
ENDBRANCH   1   8
BRANCH   7  11
HETATM   11  O2  UNL     1      -3.040  48.342 -19.748  1.00  0.00    -0.384 OA
HETATM   12  C8  UNL     1      -2.597  47.275 -20.572  1.00  0.00     0.202 C 
ENDBRANCH   7  11
BRANCH   3  13
HETATM   13  N3  UNL     1      -4.003  50.179 -22.360  1.00  0.00    -0.316 N 
HETATM   14  C24 UNL     1      -5.165  49.469 -22.094  1.00  0.00     0.048 A 
HETATM   15  C19 UNL     1      -5.604  48.915 -23.309  1.00  0.00     0.004 A 
HETATM   16  C23 UNL     1      -5.868  49.283 -20.890  1.00  0.00     0.030 A 
HETATM   17  C18 UNL     1      -4.670  49.298 -24.322  1.00  0.00     0.021 A 
HETATM   18  C20 UNL     1      -6.790  48.149 -23.292  1.00  0.00     0.014 A 
HETATM   19  C17 UNL     1      -4.455  49.136 -25.698  1.00  0.00     0.040 A 
HETATM   20  C25 UNL     1      -3.701  50.053 -23.680  1.00  0.00     0.077 A 
HETATM   21  C16 UNL     1      -3.359  49.657 -26.431  1.00  0.00     0.019 A 
HETATM   22  C27 UNL     1      -5.203  48.424 -26.706  1.00  0.00     0.150 A 
HETATM   23  C15 UNL     1      -2.339  50.399 -25.813  1.00  0.00     0.017 A 
HETATM   24  C28 UNL     1      -3.510  49.194 -27.857  1.00  0.00     0.256 A 
HETATM   25  C14 UNL     1      -1.100  50.983 -26.190  1.00  0.00     0.004 A 
HETATM   26  C26 UNL     1      -2.479  50.627 -24.461  1.00  0.00     0.077 A 
HETATM   27  C9  UNL     1      -0.501  51.514 -25.031  1.00  0.00     0.049 A 
HETATM   28  C13 UNL     1      -0.410  51.062 -27.420  1.00  0.00     0.014 A 
HETATM   29  N2  UNL     1      -1.412  51.349 -23.988  1.00  0.00    -0.308 N 
HETATM   30  C10 UNL     1       0.796  52.060 -25.091  1.00  0.00     0.030 A 
HETATM   31  C11 UNL     1       1.458  52.117 -26.323  1.00  0.00     0.002 A 
HETATM   32  C12 UNL     1       0.860  51.634 -27.477  1.00  0.00     0.001 A 
HETATM   33  N4  UNL     1      -4.764  48.404 -27.924  1.00  0.00    -0.340 N 
ATOM     34  H4  UNL     1      -5.181  47.951 -28.738  1.00  0.00     0.164 HD
HETATM   35  C21 UNL     1      -7.493  47.957 -22.097  1.00  0.00     0.001 A 
HETATM   36  C22 UNL     1      -7.035  48.517 -20.913  1.00  0.00     0.002 A 
BRANCH  24  37
HETATM   37  O4  UNL     1      -3.529  50.301 -28.729  1.00  0.00    -0.372 OA
HETATM   38  H26 UNL     1      -4.266  50.087 -29.325  1.00  0.00     0.212 HD
ENDBRANCH  24  37
BRANCH  22  39
HETATM   39  O3  UNL     1      -6.334  47.797 -26.401  1.00  0.00    -0.346 OA
HETATM   40  H24 UNL     1      -6.672  47.390 -27.215  1.00  0.00     0.219 HD
ENDBRANCH  22  39
ENDBRANCH   3  13
TORSDOF 6
ENDMDL
MODEL 8
REMARK minimizedAffinity -9.97600746
REMARK  6 active torsions:
REMARK  status: ('A' for Active; 'I' for Inactive)
REMARK    1  A    between atoms: N1_2  and  C2_3 
REMARK    2  A    between atoms: C4_5  and  N3_29 
REMARK    3  A    between atoms: C5_7  and  N2_12 
REMARK    4  A    between atoms: C7_9  and  O2_10 
REMARK    5  A    between atoms: C27_32  and  O3_33 
REMARK    6  A    between atoms: C28_36  and  O4_37 
ROOT
HETATM    1  C2  UNL     1      -1.807  52.613 -26.408  1.00  0.00     0.257 C 
HETATM    2  C3  UNL     1      -2.214  52.692 -24.932  1.00  0.00     0.092 C 
HETATM    3  C4  UNL     1      -3.062  51.487 -24.500  1.00  0.00     0.234 C 
HETATM    4  O1  UNL     1      -3.465  50.637 -25.571  1.00  0.00    -0.333 OA
HETATM    5  C5  UNL     1      -2.438  50.171 -26.483  1.00  0.00     0.168 C 
HETATM    6  C6  UNL     1      -3.266  50.082 -27.787  1.00  0.00     0.074 C 
HETATM    7  C7  UNL     1      -1.262  51.188 -26.676  1.00  0.00     0.209 C 
ENDROOT
BRANCH   1   8
HETATM    8  N1  UNL     1      -0.811  53.655 -26.741  1.00  0.00     0.086 N 
HETATM    9  C1  UNL     1      -0.451  53.669 -28.153  1.00  0.00     0.307 C 
HETATM   10  H4  UNL     1       0.031  53.529 -26.183  1.00  0.00     0.316 HD
ENDBRANCH   1   8
BRANCH   7  11
HETATM   11  O2  UNL     1      -0.197  50.964 -25.731  1.00  0.00    -0.384 OA
HETATM   12  C8  UNL     1       1.083  50.857 -26.333  1.00  0.00     0.202 C 
ENDBRANCH   7  11
BRANCH   3  13
HETATM   13  N3  UNL     1      -2.549  50.706 -23.379  1.00  0.00    -0.316 N 
HETATM   14  C24 UNL     1      -1.408  51.023 -22.656  1.00  0.00     0.048 A 
HETATM   15  C19 UNL     1      -1.341  50.134 -21.570  1.00  0.00     0.004 A 
HETATM   16  C23 UNL     1      -0.441  52.023 -22.864  1.00  0.00     0.030 A 
HETATM   17  C18 UNL     1      -2.469  49.259 -21.656  1.00  0.00     0.021 A 
HETATM   18  C20 UNL     1      -0.257  50.271 -20.674  1.00  0.00     0.014 A 
HETATM   19  C17 UNL     1      -3.044  48.181 -20.969  1.00  0.00     0.040 A 
HETATM   20  C25 UNL     1      -3.161  49.642 -22.794  1.00  0.00     0.077 A 
HETATM   21  C16 UNL     1      -4.218  47.487 -21.353  1.00  0.00     0.019 A 
HETATM   22  C27 UNL     1      -2.637  47.482 -19.773  1.00  0.00     0.150 A 
HETATM   23  C15 UNL     1      -4.931  47.822 -22.515  1.00  0.00     0.017 A 
HETATM   24  C28 UNL     1      -4.432  46.377 -20.357  1.00  0.00     0.256 A 
HETATM   25  C14 UNL     1      -6.052  47.322 -23.232  1.00  0.00     0.004 A 
HETATM   26  C26 UNL     1      -4.449  48.888 -23.245  1.00  0.00     0.077 A 
HETATM   27  C9  UNL     1      -6.187  48.083 -24.409  1.00  0.00     0.049 A 
HETATM   28  C13 UNL     1      -6.938  46.247 -23.000  1.00  0.00     0.014 A 
HETATM   29  N2  UNL     1      -5.230  49.096 -24.355  1.00  0.00    -0.308 N 
HETATM   30  C10 UNL     1      -7.156  47.734 -25.370  1.00  0.00     0.030 A 
HETATM   31  C11 UNL     1      -8.015  46.659 -25.116  1.00  0.00     0.002 A 
HETATM   32  C12 UNL     1      -7.917  45.929 -23.941  1.00  0.00     0.001 A 
HETATM   33  N4  UNL     1      -3.341  46.478 -19.356  1.00  0.00    -0.340 N 
ATOM     34  H4  UNL     1      -3.183  45.895 -18.534  1.00  0.00     0.164 HD
HETATM   35  C21 UNL     1       0.710  51.262 -20.877  1.00  0.00     0.001 A 
HETATM   36  C22 UNL     1       0.617  52.125 -21.960  1.00  0.00     0.002 A 
BRANCH  24  37
HETATM   37  O4  UNL     1      -5.708  46.490 -19.768  1.00  0.00    -0.372 OA
HETATM   38  H26 UNL     1      -5.519  46.344 -18.826  1.00  0.00     0.212 HD
ENDBRANCH  24  37
BRANCH  22  39
HETATM   39  O3  UNL     1      -1.557  47.857 -19.097  1.00  0.00    -0.346 OA
HETATM   40  H24 UNL     1      -1.466  47.262 -18.335  1.00  0.00     0.219 HD
ENDBRANCH  22  39
ENDBRANCH   3  13
TORSDOF 6
ENDMDL
MODEL 9
REMARK minimizedAffinity -9.92705536
REMARK  6 active torsions:
REMARK  status: ('A' for Active; 'I' for Inactive)
REMARK    1  A    between atoms: N1_2  and  C2_3 
REMARK    2  A    between atoms: C4_5  and  N3_29 
REMARK    3  A    between atoms: C5_7  and  N2_12 
REMARK    4  A    between atoms: C7_9  and  O2_10 
REMARK    5  A    between atoms: C27_32  and  O3_33 
REMARK    6  A    between atoms: C28_36  and  O4_37 
ROOT
HETATM    1  C2  UNL     1      -3.098  48.729 -18.901  1.00  0.00     0.257 C 
HETATM    2  C3  UNL     1      -3.430  49.969 -19.739  1.00  0.00     0.092 C 
HETATM    3  C4  UNL     1      -2.371  51.070 -19.589  1.00  0.00     0.234 C 
HETATM    4  O1  UNL     1      -1.399  50.817 -18.576  1.00  0.00    -0.333 OA
HETATM    5  C5  UNL     1      -0.726  49.534 -18.595  1.00  0.00     0.168 C 
HETATM    6  C6  UNL     1      -0.500  49.333 -17.078  1.00  0.00     0.074 C 
HETATM    7  C7  UNL     1      -1.613  48.368 -19.153  1.00  0.00     0.209 C 
ENDROOT
BRANCH   1   8
HETATM    8  N1  UNL     1      -4.001  47.605 -19.233  1.00  0.00     0.086 N 
HETATM    9  C1  UNL     1      -5.388  47.862 -18.871  1.00  0.00     0.307 C 
HETATM   10  H4  UNL     1      -3.688  46.753 -18.771  1.00  0.00     0.316 HD
ENDBRANCH   1   8
BRANCH   7  11
HETATM   11  O2  UNL     1      -1.457  48.209 -20.577  1.00  0.00    -0.384 OA
HETATM   12  C8  UNL     1      -1.900  46.950 -21.058  1.00  0.00     0.202 C 
ENDBRANCH   7  11
BRANCH   3  13
HETATM   13  N3  UNL     1      -1.734  51.524 -20.820  1.00  0.00    -0.316 N 
HETATM   14  C24 UNL     1      -0.624  52.355 -20.872  1.00  0.00     0.048 A 
HETATM   15  C19 UNL     1      -0.217  52.426 -22.215  1.00  0.00     0.004 A 
HETATM   16  C23 UNL     1       0.058  53.036 -19.847  1.00  0.00     0.030 A 
HETATM   17  C18 UNL     1      -1.116  51.622 -22.984  1.00  0.00     0.021 A 
HETATM   18  C20 UNL     1       0.915  53.215 -22.518  1.00  0.00     0.014 A 
HETATM   19  C17 UNL     1      -1.333  51.228 -24.311  1.00  0.00     0.040 A 
HETATM   20  C25 UNL     1      -2.035  51.111 -22.081  1.00  0.00     0.077 A 
HETATM   21  C16 UNL     1      -2.386  50.394 -24.764  1.00  0.00     0.019 A 
HETATM   22  C27 UNL     1      -0.629  51.544 -25.531  1.00  0.00     0.150 A 
HETATM   23  C15 UNL     1      -3.357  49.883 -23.889  1.00  0.00     0.017 A 
HETATM   24  C28 UNL     1      -2.259  50.282 -26.262  1.00  0.00     0.256 A 
HETATM   25  C14 UNL     1      -4.552  49.120 -23.987  1.00  0.00     0.004 A 
HETATM   26  C26 UNL     1      -3.210  50.203 -22.556  1.00  0.00     0.077 A 
HETATM   27  C9  UNL     1      -5.120  49.038 -22.700  1.00  0.00     0.049 A 
HETATM   28  C13 UNL     1      -5.227  48.528 -25.077  1.00  0.00     0.014 A 
HETATM   29  N2  UNL     1      -4.229  49.651 -21.819  1.00  0.00    -0.308 N 
HETATM   30  C10 UNL     1      -6.376  48.428 -22.519  1.00  0.00     0.030 A 
HETATM   31  C11 UNL     1      -7.025  47.858 -23.620  1.00  0.00     0.002 A 
HETATM   32  C12 UNL     1      -6.455  47.897 -24.883  1.00  0.00     0.001 A 
HETATM   33  N4  UNL     1      -1.061  51.065 -26.654  1.00  0.00    -0.340 N 
ATOM     34  H4  UNL     1      -0.671  51.196 -27.587  1.00  0.00     0.164 HD
HETATM   35  C21 UNL     1       1.595  53.898 -21.504  1.00  0.00     0.001 A 
HETATM   36  C22 UNL     1       1.169  53.808 -20.186  1.00  0.00     0.002 A 
BRANCH  24  37
HETATM   37  O4  UNL     1      -2.159  48.928 -26.641  1.00  0.00    -0.372 OA
HETATM   38  H26 UNL     1      -1.434  48.944 -27.289  1.00  0.00     0.212 HD
ENDBRANCH  24  37
BRANCH  22  39
HETATM   39  O3  UNL     1       0.454  52.312 -25.514  1.00  0.00    -0.346 OA
HETATM   40  H24 UNL     1       0.770  52.395 -26.429  1.00  0.00     0.219 HD
ENDBRANCH  22  39
ENDBRANCH   3  13
TORSDOF 6
ENDMDL
