MODEL 1
REMARK minimizedAffinity -8.7813282
REMARK  6 active torsions:
REMARK  status: ('A' for Active; 'I' for Inactive)
REMARK    1  A    between atoms: C9_10  and  C10_11 
REMARK    2  A    between atoms: C11_13  and  O3_14 
REMARK    3  A    between atoms: C12_15  and  C13_16 
REMARK    4  A    between atoms: C14_18  and  O5_19 
REMARK    5  A    between atoms: C16_21  and  C17_22 
REMARK    6  A    between atoms: C17_22  and  C18_23 
ROOT
HETATM    1  C1  UNL     1       2.595   8.090   9.483  1.00  0.00     0.043 C 
HETATM    2  C2  UNL     1       1.912   7.293  10.577  1.00  0.00    -0.087 C 
HETATM    3  C3  UNL     1       1.457   7.960  11.657  1.00  0.00    -0.024 C 
HETATM    4  C4  UNL     1       0.775   7.453  12.890  1.00  0.00     0.030 C 
HETATM    5  C5  UNL     1      -0.725   7.766  12.872  1.00  0.00     0.042 C 
HETATM    6  C6  UNL     1      -1.620   6.877  13.785  1.00  0.00     0.069 C 
HETATM    7  C7  UNL     1      -0.881   6.525  15.094  1.00  0.00     0.047 C 
HETATM    8  O1  UNL     1      -2.674   7.778  14.189  1.00  0.00    -0.338 OA
HETATM    9  C8  UNL     1      -3.971   7.374  14.304  1.00  0.00     0.095 A 
HETATM   10  C9  UNL     1      -4.900   8.400  14.578  1.00  0.00     0.070 A 
HETATM   11  C11 UNL     1      -6.267   8.120  14.605  1.00  0.00     0.097 A 
HETATM   12  C12 UNL     1      -6.712   6.831  14.318  1.00  0.00     0.069 A 
HETATM   13  C14 UNL     1      -5.779   5.800  14.074  1.00  0.00     0.091 A 
HETATM   14  C15 UNL     1      -4.388   6.040  14.100  1.00  0.00     0.015 A 
HETATM   15  C16 UNL     1      -3.282   4.984  13.934  1.00  0.00     0.032 C 
HETATM   16  C21 UNL     1      -2.209   5.642  13.002  1.00  0.00     0.034 C 
HETATM   17  C22 UNL     1      -1.138   4.688  12.481  1.00  0.00     0.006 A 
HETATM   18  C23 UNL     1      -0.362   4.992  11.200  1.00  0.00    -0.001 A 
HETATM   19  C24 UNL     1       1.129   4.780  11.119  1.00  0.00     0.010 C 
HETATM   20  C25 UNL     1       1.853   5.810  10.239  1.00  0.00     0.034 C 
HETATM   21  C26 UNL     1      -1.323   3.818  11.227  1.00  0.00    -0.039 A 
HETATM   22  C27 UNL     1      -2.523   3.946  10.316  1.00  0.00     0.015 C 
HETATM   23  C28 UNL     1      -0.794   2.401  11.294  1.00  0.00     0.015 C 
ENDROOT
BRANCH  15  24
HETATM   24  C17 UNL     1      -3.679   3.537  13.550  1.00  0.00     0.014 C 
BRANCH  24  25
HETATM   25  C18 UNL     1      -4.144   3.366  12.079  1.00  0.00    -0.022 C 
HETATM   26  C19 UNL     1      -5.544   3.948  11.852  1.00  0.00     0.009 C 
HETATM   27  C20 UNL     1      -4.151   1.880  11.708  1.00  0.00     0.009 C 
ENDBRANCH  24  25
ENDBRANCH  15  24
BRANCH  13  28
HETATM   28  O5  UNL     1      -6.233   4.545  13.769  1.00  0.00    -0.359 OA
HETATM   29  H15 UNL     1      -7.215   4.518  13.806  1.00  0.00     0.217 HD
ENDBRANCH  13  28
BRANCH  10  30
HETATM   30  C10 UNL     1      -4.473   9.798  14.842  1.00  0.00     0.275 C 
HETATM   31  O2  UNL     1      -4.571  10.351  15.929  1.00  0.00    -0.301 OA
ENDBRANCH  10  30
BRANCH  12  32
HETATM   32  C13 UNL     1      -8.166   6.571  14.241  1.00  0.00     0.275 C 
HETATM   33  O4  UNL     1      -8.664   6.054  13.245  1.00  0.00    -0.301 OA
ENDBRANCH  12  32
BRANCH  11  34
HETATM   34  O3  UNL     1      -7.152   9.122  14.906  1.00  0.00    -0.359 OA
HETATM   35  H13 UNL     1      -7.591   8.899  15.750  1.00  0.00     0.217 HD
ENDBRANCH  11  34
TORSDOF 6
ENDMDL
MODEL 2
REMARK minimizedAffinity -8.5739603
REMARK  6 active torsions:
REMARK  status: ('A' for Active; 'I' for Inactive)
REMARK    1  A    between atoms: C9_10  and  C10_11 
REMARK    2  A    between atoms: C11_13  and  O3_14 
REMARK    3  A    between atoms: C12_15  and  C13_16 
REMARK    4  A    between atoms: C14_18  and  O5_19 
REMARK    5  A    between atoms: C16_21  and  C17_22 
REMARK    6  A    between atoms: C17_22  and  C18_23 
ROOT
HETATM    1  C1  UNL     1      -7.604   3.680  14.415  1.00  0.00     0.043 C 
HETATM    2  C2  UNL     1      -6.574   4.461  13.622  1.00  0.00    -0.087 C 
HETATM    3  C3  UNL     1      -6.258   5.702  14.043  1.00  0.00    -0.024 C 
HETATM    4  C4  UNL     1      -5.312   6.708  13.462  1.00  0.00     0.030 C 
HETATM    5  C5  UNL     1      -4.022   6.806  14.284  1.00  0.00     0.042 C 
HETATM    6  C6  UNL     1      -2.782   7.385  13.541  1.00  0.00     0.069 C 
HETATM    7  C7  UNL     1      -3.207   8.502  12.564  1.00  0.00     0.047 C 
HETATM    8  O1  UNL     1      -2.063   8.070  14.590  1.00  0.00    -0.338 OA
HETATM    9  C8  UNL     1      -0.701   8.057  14.665  1.00  0.00     0.095 A 
HETATM   10  C9  UNL     1      -0.155   8.658  15.819  1.00  0.00     0.070 A 
HETATM   11  C11 UNL     1       1.219   8.604  16.055  1.00  0.00     0.097 A 
HETATM   12  C12 UNL     1       2.043   7.915  15.168  1.00  0.00     0.069 A 
HETATM   13  C14 UNL     1       1.499   7.341  13.999  1.00  0.00     0.091 A 
HETATM   14  C15 UNL     1       0.122   7.432  13.702  1.00  0.00     0.015 A 
HETATM   15  C16 UNL     1      -0.566   6.922  12.425  1.00  0.00     0.032 C 
HETATM   16  C21 UNL     1      -1.896   6.247  12.905  1.00  0.00     0.034 C 
HETATM   17  C22 UNL     1      -2.626   5.435  11.839  1.00  0.00     0.006 A 
HETATM   18  C23 UNL     1      -3.595   4.317  12.222  1.00  0.00    -0.001 A 
HETATM   19  C24 UNL     1      -4.923   4.159  11.523  1.00  0.00     0.010 C 
HETATM   20  C25 UNL     1      -6.048   3.658  12.441  1.00  0.00     0.034 C 
HETATM   21  C26 UNL     1      -2.293   3.967  11.525  1.00  0.00    -0.039 A 
HETATM   22  C27 UNL     1      -1.318   3.157  12.349  1.00  0.00     0.015 C 
HETATM   23  C28 UNL     1      -2.295   3.565  10.065  1.00  0.00     0.015 C 
ENDROOT
BRANCH  15  24
HETATM   24  C17 UNL     1       0.257   6.090  11.411  1.00  0.00     0.014 C 
BRANCH  24  25
HETATM   25  C18 UNL     1       0.451   6.768  10.028  1.00  0.00    -0.022 C 
HETATM   26  C19 UNL     1       1.863   6.543   9.475  1.00  0.00     0.009 C 
HETATM   27  C20 UNL     1       0.192   8.273  10.149  1.00  0.00     0.009 C 
ENDBRANCH  24  25
ENDBRANCH  15  24
BRANCH  13  28
HETATM   28  O5  UNL     1       2.319   6.647  13.150  1.00  0.00    -0.359 OA
HETATM   29  H15 UNL     1       3.249   6.681  13.469  1.00  0.00     0.217 HD
ENDBRANCH  13  28
BRANCH  10  30
HETATM   30  C10 UNL     1      -1.004   9.360  16.816  1.00  0.00     0.275 C 
HETATM   31  O2  UNL     1      -2.128   8.996  17.137  1.00  0.00    -0.301 OA
ENDBRANCH  10  30
BRANCH  12  32
HETATM   32  C13 UNL     1       3.481   7.770  15.486  1.00  0.00     0.275 C 
HETATM   33  O4  UNL     1       4.162   8.743  15.795  1.00  0.00    -0.301 OA
ENDBRANCH  12  32
BRANCH  11  34
HETATM   34  O3  UNL     1       1.734   9.222  17.165  1.00  0.00    -0.359 OA
HETATM   35  H13 UNL     1       2.314   9.950  16.866  1.00  0.00     0.217 HD
ENDBRANCH  11  34
TORSDOF 6
ENDMDL
MODEL 3
REMARK minimizedAffinity -8.55840969
REMARK  6 active torsions:
REMARK  status: ('A' for Active; 'I' for Inactive)
REMARK    1  A    between atoms: C9_10  and  C10_11 
REMARK    2  A    between atoms: C11_13  and  O3_14 
REMARK    3  A    between atoms: C12_15  and  C13_16 
REMARK    4  A    between atoms: C14_18  and  O5_19 
REMARK    5  A    between atoms: C16_21  and  C17_22 
REMARK    6  A    between atoms: C17_22  and  C18_23 
ROOT
HETATM    1  C1  UNL     1      -3.986  13.444  15.421  1.00  0.00     0.043 C 
HETATM    2  C2  UNL     1      -3.365  12.061  15.425  1.00  0.00    -0.087 C 
HETATM    3  C3  UNL     1      -4.044  11.064  16.028  1.00  0.00    -0.024 C 
HETATM    4  C4  UNL     1      -3.682   9.622  16.212  1.00  0.00     0.030 C 
HETATM    5  C5  UNL     1      -4.479   8.717  15.267  1.00  0.00     0.042 C 
HETATM    6  C6  UNL     1      -3.859   7.318  14.977  1.00  0.00     0.069 C 
HETATM    7  C7  UNL     1      -3.162   6.760  16.236  1.00  0.00     0.047 C 
HETATM    8  O1  UNL     1      -5.019   6.477  14.797  1.00  0.00    -0.338 OA
HETATM    9  C8  UNL     1      -5.062   5.491  13.855  1.00  0.00     0.095 A 
HETATM   10  C9  UNL     1      -6.310   4.847  13.714  1.00  0.00     0.070 A 
HETATM   11  C11 UNL     1      -6.500   3.901  12.706  1.00  0.00     0.097 A 
HETATM   12  C12 UNL     1      -5.466   3.628  11.813  1.00  0.00     0.069 A 
HETATM   13  C14 UNL     1      -4.210   4.251  11.976  1.00  0.00     0.091 A 
HETATM   14  C15 UNL     1      -3.968   5.166  13.022  1.00  0.00     0.015 A 
HETATM   15  C16 UNL     1      -2.624   5.839  13.347  1.00  0.00     0.032 C 
HETATM   16  C21 UNL     1      -2.969   7.331  13.676  1.00  0.00     0.034 C 
HETATM   17  C22 UNL     1      -1.764   8.262  13.775  1.00  0.00     0.006 A 
HETATM   18  C23 UNL     1      -1.909   9.768  13.560  1.00  0.00    -0.001 A 
HETATM   19  C24 UNL     1      -1.219  10.758  14.467  1.00  0.00     0.010 C 
HETATM   20  C25 UNL     1      -2.025  12.043  14.704  1.00  0.00     0.034 C 
HETATM   21  C26 UNL     1      -1.125   8.945  12.554  1.00  0.00    -0.039 A 
HETATM   22  C27 UNL     1      -1.730   8.873  11.170  1.00  0.00     0.015 C 
HETATM   23  C28 UNL     1       0.387   9.015  12.525  1.00  0.00     0.015 C 
ENDROOT
BRANCH  15  24
HETATM   24  C17 UNL     1      -1.434   5.644  12.375  1.00  0.00     0.014 C 
BRANCH  24  25
HETATM   25  C18 UNL     1      -0.257   4.815  12.955  1.00  0.00    -0.022 C 
HETATM   26  C19 UNL     1       0.925   5.707  13.354  1.00  0.00     0.009 C 
HETATM   27  C20 UNL     1       0.213   3.790  11.919  1.00  0.00     0.009 C 
ENDBRANCH  24  25
ENDBRANCH  15  24
BRANCH  13  28
HETATM   28  O5  UNL     1      -3.212   3.990  11.075  1.00  0.00    -0.359 OA
HETATM   29  H15 UNL     1      -3.512   3.324  10.416  1.00  0.00     0.217 HD
ENDBRANCH  13  28
BRANCH  10  30
HETATM   30  C10 UNL     1      -7.454   5.144  14.613  1.00  0.00     0.275 C 
HETATM   31  O2  UNL     1      -7.716   4.504  15.623  1.00  0.00    -0.301 OA
ENDBRANCH  10  30
BRANCH  12  32
HETATM   32  C13 UNL     1      -5.715   2.706  10.682  1.00  0.00     0.275 C 
HETATM   33  O4  UNL     1      -5.942   1.515  10.875  1.00  0.00    -0.301 OA
ENDBRANCH  12  32
BRANCH  11  34
HETATM   34  O3  UNL     1      -7.708   3.262  12.605  1.00  0.00    -0.359 OA
HETATM   35  H13 UNL     1      -7.568   2.312  12.788  1.00  0.00     0.217 HD
ENDBRANCH  11  34
TORSDOF 6
ENDMDL
MODEL 4
REMARK minimizedAffinity -8.16673183
REMARK  6 active torsions:
REMARK  status: ('A' for Active; 'I' for Inactive)
REMARK    1  A    between atoms: C9_10  and  C10_11 
REMARK    2  A    between atoms: C11_13  and  O3_14 
REMARK    3  A    between atoms: C12_15  and  C13_16 
REMARK    4  A    between atoms: C14_18  and  O5_19 
REMARK    5  A    between atoms: C16_21  and  C17_22 
REMARK    6  A    between atoms: C17_22  and  C18_23 
ROOT
HETATM    1  C1  UNL     1      -7.147   3.125  13.875  1.00  0.00     0.043 C 
HETATM    2  C2  UNL     1      -6.198   4.188  13.354  1.00  0.00    -0.087 C 
HETATM    3  C3  UNL     1      -6.385   5.459  13.763  1.00  0.00    -0.024 C 
HETATM    4  C4  UNL     1      -5.640   6.708  13.408  1.00  0.00     0.030 C 
HETATM    5  C5  UNL     1      -4.726   7.162  14.551  1.00  0.00     0.042 C 
HETATM    6  C6  UNL     1      -3.543   8.093  14.152  1.00  0.00     0.069 C 
HETATM    7  C7  UNL     1      -3.967   9.056  13.023  1.00  0.00     0.047 C 
HETATM    8  O1  UNL     1      -3.385   8.937  15.313  1.00  0.00    -0.338 OA
HETATM    9  C8  UNL     1      -2.158   9.321  15.770  1.00  0.00     0.095 A 
HETATM   10  C9  UNL     1      -2.164  10.032  16.989  1.00  0.00     0.070 A 
HETATM   11  C11 UNL     1      -0.962  10.377  17.606  1.00  0.00     0.097 A 
HETATM   12  C12 UNL     1       0.245   9.977  17.035  1.00  0.00     0.069 A 
HETATM   13  C14 UNL     1       0.249   9.292  15.801  1.00  0.00     0.091 A 
HETATM   14  C15 UNL     1      -0.949   8.983  15.122  1.00  0.00     0.015 A 
HETATM   15  C16 UNL     1      -1.064   8.319  13.740  1.00  0.00     0.032 C 
HETATM   16  C21 UNL     1      -2.225   7.276  13.869  1.00  0.00     0.034 C 
HETATM   17  C22 UNL     1      -2.353   6.308  12.697  1.00  0.00     0.006 A 
HETATM   18  C23 UNL     1      -3.031   4.948  12.864  1.00  0.00    -0.001 A 
HETATM   19  C24 UNL     1      -3.997   4.423  11.831  1.00  0.00     0.010 C 
HETATM   20  C25 UNL     1      -5.147   3.597  12.426  1.00  0.00     0.034 C 
HETATM   21  C26 UNL     1      -1.539   5.007  12.587  1.00  0.00    -0.039 A 
HETATM   22  C27 UNL     1      -0.656   4.501  13.705  1.00  0.00     0.015 C 
HETATM   23  C28 UNL     1      -1.004   4.650  11.217  1.00  0.00     0.015 C 
ENDROOT
BRANCH  15  24
HETATM   24  C17 UNL     1       0.219   7.784  13.057  1.00  0.00     0.014 C 
BRANCH  24  25
HETATM   25  C18 UNL     1       0.685   8.607  11.826  1.00  0.00    -0.022 C 
HETATM   26  C19 UNL     1      -0.298   8.488  10.655  1.00  0.00     0.009 C 
HETATM   27  C20 UNL     1       2.066   8.125  11.374  1.00  0.00     0.009 C 
ENDBRANCH  24  25
ENDBRANCH  15  24
BRANCH  13  28
HETATM   28  O5  UNL     1       1.441   8.884  15.265  1.00  0.00    -0.359 OA
HETATM   29  H15 UNL     1       2.190   9.183  15.830  1.00  0.00     0.217 HD
ENDBRANCH  13  28
BRANCH  10  30
HETATM   30  C10 UNL     1      -3.429  10.436  17.657  1.00  0.00     0.275 C 
HETATM   31  O2  UNL     1      -3.600  10.415  18.869  1.00  0.00    -0.301 OA
ENDBRANCH  10  30
BRANCH  12  32
HETATM   32  C13 UNL     1       1.508  10.251  17.755  1.00  0.00     0.275 C 
HETATM   33  O4  UNL     1       2.344   9.368  17.924  1.00  0.00    -0.301 OA
ENDBRANCH  12  32
BRANCH  11  34
HETATM   34  O3  UNL     1      -0.987  11.096  18.772  1.00  0.00    -0.359 OA
HETATM   35  H13 UNL     1      -0.579  11.968  18.602  1.00  0.00     0.217 HD
ENDBRANCH  11  34
TORSDOF 6
ENDMDL
MODEL 5
REMARK minimizedAffinity -7.99592257
REMARK  6 active torsions:
REMARK  status: ('A' for Active; 'I' for Inactive)
REMARK    1  A    between atoms: C9_10  and  C10_11 
REMARK    2  A    between atoms: C11_13  and  O3_14 
REMARK    3  A    between atoms: C12_15  and  C13_16 
REMARK    4  A    between atoms: C14_18  and  O5_19 
REMARK    5  A    between atoms: C16_21  and  C17_22 
REMARK    6  A    between atoms: C17_22  and  C18_23 
ROOT
HETATM    1  C1  UNL     1       5.275   7.804  15.001  1.00  0.00     0.043 C 
HETATM    2  C2  UNL     1       4.001   8.191  14.277  1.00  0.00    -0.087 C 
HETATM    3  C3  UNL     1       3.643   7.473  13.193  1.00  0.00    -0.024 C 
HETATM    4  C4  UNL     1       2.472   7.629  12.273  1.00  0.00     0.030 C 
HETATM    5  C5  UNL     1       1.409   6.556  12.529  1.00  0.00     0.042 C 
HETATM    6  C6  UNL     1      -0.032   6.893  12.043  1.00  0.00     0.069 C 
HETATM    7  C7  UNL     1       0.013   7.690  10.722  1.00  0.00     0.047 C 
HETATM    8  O1  UNL     1      -0.563   5.601  11.674  1.00  0.00    -0.338 OA
HETATM    9  C8  UNL     1      -1.858   5.250  11.923  1.00  0.00     0.095 A 
HETATM   10  C9  UNL     1      -2.187   3.911  11.625  1.00  0.00     0.070 A 
HETATM   11  C11 UNL     1      -3.450   3.412  11.943  1.00  0.00     0.097 A 
HETATM   12  C12 UNL     1      -4.370   4.230  12.596  1.00  0.00     0.069 A 
HETATM   13  C14 UNL     1      -4.048   5.578  12.866  1.00  0.00     0.091 A 
HETATM   14  C15 UNL     1      -2.801   6.128  12.501  1.00  0.00     0.015 A 
HETATM   15  C16 UNL     1      -2.374   7.596  12.666  1.00  0.00     0.032 C 
HETATM   16  C21 UNL     1      -0.897   7.549  13.186  1.00  0.00     0.034 C 
HETATM   17  C22 UNL     1      -0.344   8.884  13.674  1.00  0.00     0.006 A 
HETATM   18  C23 UNL     1       0.817   8.945  14.666  1.00  0.00    -0.001 A 
HETATM   19  C24 UNL     1       1.954   9.920  14.483  1.00  0.00     0.010 C 
HETATM   20  C25 UNL     1       3.314   9.376  14.942  1.00  0.00     0.034 C 
HETATM   21  C26 UNL     1      -0.559   9.414  15.101  1.00  0.00    -0.039 A 
HETATM   22  C27 UNL     1      -1.208   8.587  16.188  1.00  0.00     0.015 C 
HETATM   23  C28 UNL     1      -0.850  10.893  15.244  1.00  0.00     0.015 C 
ENDROOT
BRANCH  15  24
HETATM   24  C17 UNL     1      -3.305   8.565  13.437  1.00  0.00     0.014 C 
BRANCH  24  25
HETATM   25  C18 UNL     1      -4.084   7.913  14.610  1.00  0.00    -0.022 C 
HETATM   26  C19 UNL     1      -4.934   8.938  15.370  1.00  0.00     0.009 C 
HETATM   27  C20 UNL     1      -3.100   7.256  15.583  1.00  0.00     0.009 C 
ENDBRANCH  24  25
ENDBRANCH  15  24
BRANCH  13  28
HETATM   28  O5  UNL     1      -4.953   6.362  13.530  1.00  0.00    -0.359 OA
HETATM   29  H15 UNL     1      -5.780   5.857  13.704  1.00  0.00     0.217 HD
ENDBRANCH  13  28
BRANCH  10  30
HETATM   30  C10 UNL     1      -1.220   2.990  10.973  1.00  0.00     0.275 C 
HETATM   31  O2  UNL     1      -0.147   2.664  11.464  1.00  0.00    -0.301 OA
ENDBRANCH  10  30
BRANCH  12  32
HETATM   32  C13 UNL     1      -5.664   3.658  13.028  1.00  0.00     0.275 C 
HETATM   33  O4  UNL     1      -6.726   4.111  12.610  1.00  0.00    -0.301 OA
ENDBRANCH  12  32
BRANCH  11  34
HETATM   34  O3  UNL     1      -3.763   2.118  11.616  1.00  0.00    -0.359 OA
HETATM   35  H13 UNL     1      -4.481   2.136  10.952  1.00  0.00     0.217 HD
ENDBRANCH  11  34
TORSDOF 6
ENDMDL
MODEL 6
REMARK minimizedAffinity -7.64982319
REMARK  6 active torsions:
REMARK  status: ('A' for Active; 'I' for Inactive)
REMARK    1  A    between atoms: C9_10  and  C10_11 
REMARK    2  A    between atoms: C11_13  and  O3_14 
REMARK    3  A    between atoms: C12_15  and  C13_16 
REMARK    4  A    between atoms: C14_18  and  O5_19 
REMARK    5  A    between atoms: C16_21  and  C17_22 
REMARK    6  A    between atoms: C17_22  and  C18_23 
ROOT
HETATM    1  C1  UNL     1      -5.448   3.356   9.207  1.00  0.00     0.043 C 
HETATM    2  C2  UNL     1      -4.548   3.549  10.413  1.00  0.00    -0.087 C 
HETATM    3  C3  UNL     1      -3.236   3.273  10.274  1.00  0.00    -0.024 C 
HETATM    4  C4  UNL     1      -2.123   3.340  11.273  1.00  0.00     0.030 C 
HETATM    5  C5  UNL     1      -1.226   4.560  11.035  1.00  0.00     0.042 C 
HETATM    6  C6  UNL     1      -0.387   5.040  12.256  1.00  0.00     0.069 C 
HETATM    7  C7  UNL     1       0.090   3.835  13.095  1.00  0.00     0.047 C 
HETATM    8  O1  UNL     1       0.814   5.559  11.644  1.00  0.00    -0.338 OA
HETATM    9  C8  UNL     1       1.438   6.681  12.105  1.00  0.00     0.095 A 
HETATM   10  C9  UNL     1       2.520   7.134  11.321  1.00  0.00     0.070 A 
HETATM   11  C11 UNL     1       3.160   8.333  11.636  1.00  0.00     0.097 A 
HETATM   12  C12 UNL     1       2.698   9.102  12.702  1.00  0.00     0.069 A 
HETATM   13  C14 UNL     1       1.635   8.631  13.503  1.00  0.00     0.091 A 
HETATM   14  C15 UNL     1       1.007   7.393  13.246  1.00  0.00     0.015 A 
HETATM   15  C16 UNL     1      -0.097   6.742  14.096  1.00  0.00     0.032 C 
HETATM   16  C21 UNL     1      -1.131   6.165  13.071  1.00  0.00     0.034 C 
HETATM   17  C22 UNL     1      -2.450   5.699  13.682  1.00  0.00     0.006 A 
HETATM   18  C23 UNL     1      -3.724   5.615  12.843  1.00  0.00    -0.001 A 
HETATM   19  C24 UNL     1      -4.654   4.431  12.949  1.00  0.00     0.010 C 
HETATM   20  C25 UNL     1      -5.325   4.053  11.620  1.00  0.00     0.034 C 
HETATM   21  C26 UNL     1      -3.632   6.644  13.955  1.00  0.00    -0.039 A 
HETATM   22  C27 UNL     1      -3.644   8.086  13.501  1.00  0.00     0.015 C 
HETATM   23  C28 UNL     1      -4.387   6.436  15.250  1.00  0.00     0.015 C 
ENDROOT
BRANCH  15  24
HETATM   24  C17 UNL     1      -0.717   7.548  15.264  1.00  0.00     0.014 C 
BRANCH  24  25
HETATM   25  C18 UNL     1      -1.696   8.669  14.823  1.00  0.00    -0.022 C 
HETATM   26  C19 UNL     1      -1.052   9.624  13.811  1.00  0.00     0.009 C 
HETATM   27  C20 UNL     1      -2.153   9.468  16.048  1.00  0.00     0.009 C 
ENDBRANCH  24  25
ENDBRANCH  15  24
BRANCH  13  28
HETATM   28  O5  UNL     1       1.176   9.409  14.532  1.00  0.00    -0.359 OA
HETATM   29  H15 UNL     1       1.714  10.229  14.606  1.00  0.00     0.217 HD
ENDBRANCH  13  28
BRANCH  10  30
HETATM   30  C10 UNL     1       3.014   6.371  10.146  1.00  0.00     0.275 C 
HETATM   31  O2  UNL     1       2.358   5.524   9.554  1.00  0.00    -0.301 OA
ENDBRANCH  10  30
BRANCH  12  32
HETATM   32  C13 UNL     1       3.312  10.423  12.958  1.00  0.00     0.275 C 
HETATM   33  O4  UNL     1       4.500  10.522  13.250  1.00  0.00    -0.301 OA
ENDBRANCH  12  32
BRANCH  11  34
HETATM   34  O3  UNL     1       4.230   8.741  10.883  1.00  0.00    -0.359 OA
HETATM   35  H13 UNL     1       5.023   8.740  11.454  1.00  0.00     0.217 HD
ENDBRANCH  11  34
TORSDOF 6
ENDMDL
MODEL 7
REMARK minimizedAffinity -7.41691542
REMARK  6 active torsions:
REMARK  status: ('A' for Active; 'I' for Inactive)
REMARK    1  A    between atoms: C9_10  and  C10_11 
REMARK    2  A    between atoms: C11_13  and  O3_14 
REMARK    3  A    between atoms: C12_15  and  C13_16 
REMARK    4  A    between atoms: C14_18  and  O5_19 
REMARK    5  A    between atoms: C16_21  and  C17_22 
REMARK    6  A    between atoms: C17_22  and  C18_23 
ROOT
HETATM    1  C1  UNL     1      -4.701   3.323   9.083  1.00  0.00     0.043 C 
HETATM    2  C2  UNL     1      -4.188   3.622  10.478  1.00  0.00    -0.087 C 
HETATM    3  C3  UNL     1      -2.853   3.661  10.668  1.00  0.00    -0.024 C 
HETATM    4  C4  UNL     1      -2.061   3.903  11.916  1.00  0.00     0.030 C 
HETATM    5  C5  UNL     1      -1.449   5.308  11.930  1.00  0.00     0.042 C 
HETATM    6  C6  UNL     1      -1.066   5.872  13.330  1.00  0.00     0.069 C 
HETATM    7  C7  UNL     1      -0.532   4.746  14.242  1.00  0.00     0.047 C 
HETATM    8  O1  UNL     1       0.088   6.693  13.047  1.00  0.00    -0.338 OA
HETATM    9  C8  UNL     1       0.299   7.889  13.669  1.00  0.00     0.095 A 
HETATM   10  C9  UNL     1       1.397   8.633  13.189  1.00  0.00     0.070 A 
HETATM   11  C11 UNL     1       1.639   9.918  13.674  1.00  0.00     0.097 A 
HETATM   12  C12 UNL     1       0.766  10.480  14.603  1.00  0.00     0.069 A 
HETATM   13  C14 UNL     1      -0.314   9.722  15.104  1.00  0.00     0.091 A 
HETATM   14  C15 UNL     1      -0.549   8.398  14.678  1.00  0.00     0.015 A 
HETATM   15  C16 UNL     1      -1.638   7.452  15.213  1.00  0.00     0.032 C 
HETATM   16  C21 UNL     1      -2.229   6.735  13.952  1.00  0.00     0.034 C 
HETATM   17  C22 UNL     1      -3.506   5.938  14.205  1.00  0.00     0.006 A 
HETATM   18  C23 UNL     1      -4.485   5.632  13.072  1.00  0.00    -0.001 A 
HETATM   19  C24 UNL     1      -5.105   4.264  12.921  1.00  0.00     0.010 C 
HETATM   20  C25 UNL     1      -5.328   3.846  11.461  1.00  0.00     0.034 C 
HETATM   21  C26 UNL     1      -4.909   6.568  14.189  1.00  0.00    -0.039 A 
HETATM   22  C27 UNL     1      -5.154   8.000  13.770  1.00  0.00     0.015 C 
HETATM   23  C28 UNL     1      -5.880   6.098  15.250  1.00  0.00     0.015 C 
ENDROOT
BRANCH  15  24
HETATM   24  C17 UNL     1      -2.693   8.007  16.201  1.00  0.00     0.014 C 
BRANCH  24  25
HETATM   25  C18 UNL     1      -2.913   9.541  16.114  1.00  0.00    -0.022 C 
HETATM   26  C19 UNL     1      -3.211  10.153  17.487  1.00  0.00     0.009 C 
HETATM   27  C20 UNL     1      -4.077   9.843  15.165  1.00  0.00     0.009 C 
ENDBRANCH  24  25
ENDBRANCH  15  24
BRANCH  13  28
HETATM   28  O5  UNL     1      -1.178  10.297  15.998  1.00  0.00    -0.359 OA
HETATM   29  H15 UNL     1      -0.883  11.209  16.219  1.00  0.00     0.217 HD
ENDBRANCH  13  28
BRANCH  10  30
HETATM   30  C10 UNL     1       2.325   8.091  12.163  1.00  0.00     0.275 C 
HETATM   31  O2  UNL     1       2.285   8.390  10.976  1.00  0.00    -0.301 OA
ENDBRANCH  10  30
BRANCH  12  32
HETATM   32  C13 UNL     1       0.970  11.883  15.027  1.00  0.00     0.275 C 
HETATM   33  O4  UNL     1       0.158  12.447  15.755  1.00  0.00    -0.301 OA
ENDBRANCH  12  32
BRANCH  11  34
HETATM   34  O3  UNL     1       2.730  10.613  13.220  1.00  0.00    -0.359 OA
HETATM   35  H13 UNL     1       3.340  10.748  13.971  1.00  0.00     0.217 HD
ENDBRANCH  11  34
TORSDOF 6
ENDMDL
MODEL 8
REMARK minimizedAffinity -7.19087315
REMARK  6 active torsions:
REMARK  status: ('A' for Active; 'I' for Inactive)
REMARK    1  A    between atoms: C9_10  and  C10_11 
REMARK    2  A    between atoms: C11_13  and  O3_14 
REMARK    3  A    between atoms: C12_15  and  C13_16 
REMARK    4  A    between atoms: C14_18  and  O5_19 
REMARK    5  A    between atoms: C16_21  and  C17_22 
REMARK    6  A    between atoms: C17_22  and  C18_23 
ROOT
HETATM    1  C1  UNL     1       7.305  18.574  22.720  1.00  0.00     0.043 C 
HETATM    2  C2  UNL     1       6.581  17.299  23.108  1.00  0.00    -0.087 C 
HETATM    3  C3  UNL     1       5.235  17.328  23.166  1.00  0.00    -0.024 C 
HETATM    4  C4  UNL     1       4.260  16.253  23.536  1.00  0.00     0.030 C 
HETATM    5  C5  UNL     1       3.547  15.690  22.302  1.00  0.00     0.042 C 
HETATM    6  C6  UNL     1       2.931  14.268  22.458  1.00  0.00     0.069 C 
HETATM    7  C7  UNL     1       2.362  14.076  23.880  1.00  0.00     0.047 C 
HETATM    8  O1  UNL     1       1.769  14.320  21.602  1.00  0.00    -0.338 OA
HETATM    9  C8  UNL     1       1.383  13.259  20.836  1.00  0.00     0.095 A 
HETATM   10  C9  UNL     1       0.309  13.510  19.956  1.00  0.00     0.070 A 
HETATM   11  C11 UNL     1      -0.096  12.533  19.046  1.00  0.00     0.097 A 
HETATM   12  C12 UNL     1       0.595  11.324  18.981  1.00  0.00     0.069 A 
HETATM   13  C14 UNL     1       1.649  11.064  19.883  1.00  0.00     0.091 A 
HETATM   14  C15 UNL     1       2.041  12.010  20.855  1.00  0.00     0.015 A 
HETATM   15  C16 UNL     1       3.113  11.806  21.939  1.00  0.00     0.032 C 
HETATM   16  C21 UNL     1       3.927  13.143  21.982  1.00  0.00     0.034 C 
HETATM   17  C22 UNL     1       5.213  13.087  22.802  1.00  0.00     0.006 A 
HETATM   18  C23 UNL     1       6.361  14.062  22.542  1.00  0.00    -0.001 A 
HETATM   19  C24 UNL     1       7.098  14.725  23.679  1.00  0.00     0.010 C 
HETATM   20  C25 UNL     1       7.554  16.158  23.367  1.00  0.00     0.034 C 
HETATM   21  C26 UNL     1       6.552  12.588  22.234  1.00  0.00    -0.039 A 
HETATM   22  C27 UNL     1       6.744  12.254  20.772  1.00  0.00     0.015 C 
HETATM   23  C28 UNL     1       7.399  11.723  23.144  1.00  0.00     0.015 C 
ENDROOT
BRANCH  15  24
HETATM   24  C17 UNL     1       3.975  10.519  21.907  1.00  0.00     0.014 C 
BRANCH  24  25
HETATM   25  C18 UNL     1       3.687   9.522  23.061  1.00  0.00    -0.022 C 
HETATM   26  C19 UNL     1       2.764   8.383  22.614  1.00  0.00     0.009 C 
HETATM   27  C20 UNL     1       3.039  10.263  24.235  1.00  0.00     0.009 C 
ENDBRANCH  24  25
ENDBRANCH  15  24
BRANCH  13  28
HETATM   28  O5  UNL     1       2.333   9.882  19.790  1.00  0.00    -0.359 OA
HETATM   29  H15 UNL     1       1.942   9.315  19.087  1.00  0.00     0.217 HD
ENDBRANCH  13  28
BRANCH  10  30
HETATM   30  C10 UNL     1      -0.423  14.803  19.957  1.00  0.00     0.275 C 
HETATM   31  O2  UNL     1      -1.612  14.917  20.228  1.00  0.00    -0.301 OA
ENDBRANCH  10  30
BRANCH  12  32
HETATM   32  C13 UNL     1       0.228  10.340  17.939  1.00  0.00     0.275 C 
HETATM   33  O4  UNL     1       1.086   9.666  17.376  1.00  0.00    -0.301 OA
ENDBRANCH  12  32
BRANCH  11  34
HETATM   34  O3  UNL     1      -1.162  12.783  18.222  1.00  0.00    -0.359 OA
HETATM   35  H13 UNL     1      -1.879  12.161  18.455  1.00  0.00     0.217 HD
ENDBRANCH  11  34
TORSDOF 6
ENDMDL
MODEL 9
REMARK minimizedAffinity -7.07033205
REMARK  6 active torsions:
REMARK  status: ('A' for Active; 'I' for Inactive)
REMARK    1  A    between atoms: C9_10  and  C10_11 
REMARK    2  A    between atoms: C11_13  and  O3_14 
REMARK    3  A    between atoms: C12_15  and  C13_16 
REMARK    4  A    between atoms: C14_18  and  O5_19 
REMARK    5  A    between atoms: C16_21  and  C17_22 
REMARK    6  A    between atoms: C17_22  and  C18_23 
ROOT
HETATM    1  C1  UNL     1       5.326  12.663  12.379  1.00  0.00     0.043 C 
HETATM    2  C2  UNL     1       4.920  11.281  12.853  1.00  0.00    -0.087 C 
HETATM    3  C3  UNL     1       4.305  11.175  14.048  1.00  0.00    -0.024 C 
HETATM    4  C4  UNL     1       3.817   9.964  14.780  1.00  0.00     0.030 C 
HETATM    5  C5  UNL     1       2.291   9.843  14.715  1.00  0.00     0.042 C 
HETATM    6  C6  UNL     1       1.707   8.419  14.957  1.00  0.00     0.069 C 
HETATM    7  C7  UNL     1       2.534   7.667  16.021  1.00  0.00     0.047 C 
HETATM    8  O1  UNL     1       0.442   8.690  15.599  1.00  0.00    -0.338 OA
HETATM    9  C8  UNL     1      -0.679   7.962  15.330  1.00  0.00     0.095 A 
HETATM   10  C9  UNL     1      -1.864   8.432  15.936  1.00  0.00     0.070 A 
HETATM   11  C11 UNL     1      -3.089   7.833  15.641  1.00  0.00     0.097 A 
HETATM   12  C12 UNL     1      -3.142   6.795  14.713  1.00  0.00     0.069 A 
HETATM   13  C14 UNL     1      -1.952   6.306  14.131  1.00  0.00     0.091 A 
HETATM   14  C15 UNL     1      -0.692   6.852  14.455  1.00  0.00     0.015 A 
HETATM   15  C16 UNL     1       0.672   6.349  13.953  1.00  0.00     0.032 C 
HETATM   16  C21 UNL     1       1.494   7.636  13.606  1.00  0.00     0.034 C 
HETATM   17  C22 UNL     1       2.789   7.385  12.840  1.00  0.00     0.006 A 
HETATM   18  C23 UNL     1       3.425   8.478  11.980  1.00  0.00    -0.001 A 
HETATM   19  C24 UNL     1       4.912   8.729  12.008  1.00  0.00     0.010 C 
HETATM   20  C25 UNL     1       5.292  10.208  11.839  1.00  0.00     0.034 C 
HETATM   21  C26 UNL     1       2.849   7.244  11.309  1.00  0.00    -0.039 A 
HETATM   22  C27 UNL     1       1.652   7.494  10.421  1.00  0.00     0.015 C 
HETATM   23  C28 UNL     1       3.769   6.177  10.758  1.00  0.00     0.015 C 
ENDROOT
BRANCH  15  24
HETATM   24  C17 UNL     1       0.709   5.241  12.870  1.00  0.00     0.014 C 
BRANCH  24  25
HETATM   25  C18 UNL     1      -0.558   5.171  11.977  1.00  0.00    -0.022 C 
HETATM   26  C19 UNL     1      -0.845   3.741  11.505  1.00  0.00     0.009 C 
HETATM   27  C20 UNL     1      -0.381   6.078  10.755  1.00  0.00     0.009 C 
ENDBRANCH  24  25
ENDBRANCH  15  24
BRANCH  13  28
HETATM   28  O5  UNL     1      -2.024   5.303  13.202  1.00  0.00    -0.359 OA
HETATM   29  H15 UNL     1      -2.956   5.008  13.090  1.00  0.00     0.217 HD
ENDBRANCH  13  28
BRANCH  10  30
HETATM   30  C10 UNL     1      -1.859   9.568  16.894  1.00  0.00     0.275 C 
HETATM   31  O2  UNL     1      -2.186  10.711  16.604  1.00  0.00    -0.301 OA
ENDBRANCH  10  30
BRANCH  12  32
HETATM   32  C13 UNL     1      -4.458   6.242  14.326  1.00  0.00     0.275 C 
HETATM   33  O4  UNL     1      -5.302   6.943  13.775  1.00  0.00    -0.301 OA
ENDBRANCH  12  32
BRANCH  11  34
HETATM   34  O3  UNL     1      -4.223   8.282  16.264  1.00  0.00    -0.359 OA
HETATM   35  H13 UNL     1      -4.567   7.562  16.829  1.00  0.00     0.217 HD
ENDBRANCH  11  34
TORSDOF 6
ENDMDL
