MODEL 1
REMARK minimizedAffinity -9.627141
REMARK CNNscore 0.757401109
REMARK CNNaffinity 7.32561684
REMARK  10 active torsions:
REMARK  status: ('A' for Active; 'I' for Inactive)
REMARK    1  A    between atoms: O1_2  and  C2_3 
REMARK    2  A    between atoms: C2_3  and  C3_4 
REMARK    3  A    between atoms: C2_3  and  C26_35 
REMARK    4  A    between atoms: C3_4  and  C4_5 
REMARK    5  A    between atoms: C4_5  and  C5_6 
REMARK    6  A    between atoms: C5_6  and  C7_8 
REMARK    7  A    between atoms: C13_17  and  C14_18 
REMARK    8  A    between atoms: C14_18  and  O5_19 
REMARK    9  A    between atoms: C17_24  and  O8_25 
REMARK   10  A    between atoms: C30_39  and  O10_40 
ROOT
HETATM    1  C7  UNL     1      -2.241   4.473  11.808  1.00  0.00     0.135 C 
HETATM    2  O2  UNL     1      -2.387   5.244  13.004  1.00  0.00    -0.348 OA
HETATM    3  C8  UNL     1      -1.335   6.193  13.284  1.00  0.00     0.177 C 
HETATM    4  C9  UNL     1       0.006   5.435  13.354  1.00  0.00     0.102 C 
HETATM    5  C10 UNL     1       0.234   4.501  12.160  1.00  0.00     0.143 C 
HETATM    6  O3  UNL     1       0.442   5.274  10.960  1.00  0.00    -0.315 OA
HETATM    7  C11 UNL     1       1.706   5.401  10.483  1.00  0.00     0.261 C 
HETATM    8  O4  UNL     1       2.714   4.914  10.976  1.00  0.00    -0.265 OA
HETATM    9  C12 UNL     1       1.708   6.262   9.250  1.00  0.00     0.145 C 
HETATM   10  C13 UNL     1       1.983   7.723   9.592  1.00  0.00     0.164 C 
HETATM   11  O6  UNL     1       0.984   8.237  10.505  1.00  0.00    -0.313 OA
HETATM   12  C15 UNL     1      -0.224   8.588   9.983  1.00  0.00     0.264 C 
HETATM   13  O7  UNL     1      -0.505   8.531   8.790  1.00  0.00    -0.265 OA
HETATM   14  C16 UNL     1      -1.137   9.179  11.032  1.00  0.00     0.179 C 
HETATM   15  C17 UNL     1      -1.076   8.465  12.398  1.00  0.00     0.177 C 
HETATM   16  O9  UNL     1      -1.313   7.092  12.172  1.00  0.00    -0.318 OA
HETATM   17  C18 UNL     1      -2.180   9.044  13.325  1.00  0.00     0.045 C 
HETATM   18  C19 UNL     1      -1.777  10.362  13.997  1.00  0.00     0.015 C 
HETATM   19  C20 UNL     1      -2.704   8.031  14.361  1.00  0.00     0.024 C 
HETATM   20  C21 UNL     1      -1.748   6.862  14.664  1.00  0.00     0.010 C 
HETATM   21  C22 UNL     1      -2.519   5.854  15.567  1.00  0.00     0.020 C 
HETATM   22  C23 UNL     1      -0.576   7.342  15.549  1.00  0.00     0.020 C 
HETATM   23  C24 UNL     1      -0.988   3.591  11.945  1.00  0.00     0.041 C 
HETATM   24  C25 UNL     1      -0.777   2.668  10.744  1.00  0.00     0.015 C 
ENDROOT
BRANCH   1  25
HETATM   25  C5  UNL     1      -3.577   3.708  11.578  1.00  0.00     0.011 C 
HETATM   26  C6  UNL     1      -3.447   2.207  11.874  1.00  0.00     0.012 C 
BRANCH  25  27
HETATM   27  C4  UNL     1      -4.691   4.347  12.449  1.00  0.00     0.009 C 
BRANCH  27  28
HETATM   28  C3  UNL     1      -6.122   3.840  12.202  1.00  0.00     0.037 C 
BRANCH  28  29
HETATM   29  C2  UNL     1      -6.926   3.589  13.493  1.00  0.00     0.153 C 
BRANCH  29  30
HETATM   30  O1  UNL     1      -7.979   2.663  13.192  1.00  0.00    -0.386 OA
HETATM   31  C1  UNL     1      -7.537   1.559  12.415  1.00  0.00     0.202 C 
ENDBRANCH  29  30
BRANCH  29  32
HETATM   32  C26 UNL     1      -7.555   4.851  14.061  1.00  0.00    -0.027 A 
HETATM   33  C27 UNL     1      -8.579   5.544  13.392  1.00  0.00     0.010 A 
HETATM   34  C28 UNL     1      -9.133   6.707  13.936  1.00  0.00     0.003 A 
HETATM   35  C29 UNL     1      -8.681   7.187  15.163  1.00  0.00     0.036 A 
HETATM   36  C30 UNL     1      -7.689   6.494  15.845  1.00  0.00     0.066 A 
HETATM   37  C31 UNL     1      -7.124   5.337  15.309  1.00  0.00     0.046 A 
BRANCH  36  38
HETATM   38  O10 UNL     1      -7.287   6.985  17.053  1.00  0.00    -0.361 OA
HETATM   39  H45 UNL     1      -6.673   6.349  17.454  1.00  0.00     0.217 HD
ENDBRANCH  36  38
ENDBRANCH  29  32
ENDBRANCH  28  29
ENDBRANCH  27  28
ENDBRANCH  25  27
ENDBRANCH   1  25
BRANCH  15  40
HETATM   40  O8  UNL     1       0.198   8.674  12.982  1.00  0.00    -0.364 OA
HETATM   41  H25 UNL     1       0.870   8.598  12.276  1.00  0.00     0.213 HD
ENDBRANCH  15  40
BRANCH  10  42
HETATM   42  C14 UNL     1       3.354   7.926  10.257  1.00  0.00     0.197 C 
BRANCH  42  43
HETATM   43  O5  UNL     1       4.335   7.096   9.628  1.00  0.00    -0.398 OA
HETATM   44  H22 UNL     1       4.143   6.172   9.870  1.00  0.00     0.209 HD
ENDBRANCH  42  43
ENDBRANCH  10  42
TORSDOF 10
ENDMDL
MODEL 2
REMARK minimizedAffinity -8.05992794
REMARK CNNscore 0.730413556
REMARK CNNaffinity 7.15481424
REMARK  10 active torsions:
REMARK  status: ('A' for Active; 'I' for Inactive)
REMARK    1  A    between atoms: O1_2  and  C2_3 
REMARK    2  A    between atoms: C2_3  and  C3_4 
REMARK    3  A    between atoms: C2_3  and  C26_35 
REMARK    4  A    between atoms: C3_4  and  C4_5 
REMARK    5  A    between atoms: C4_5  and  C5_6 
REMARK    6  A    between atoms: C5_6  and  C7_8 
REMARK    7  A    between atoms: C13_17  and  C14_18 
REMARK    8  A    between atoms: C14_18  and  O5_19 
REMARK    9  A    between atoms: C17_24  and  O8_25 
REMARK   10  A    between atoms: C30_39  and  O10_40 
ROOT
HETATM    1  C7  UNL     1     -10.513   8.368  14.674  1.00  0.00     0.135 C 
HETATM    2  O2  UNL     1     -10.598   9.764  14.976  1.00  0.00    -0.348 OA
HETATM    3  C8  UNL     1     -11.912  10.357  14.896  1.00  0.00     0.177 C 
HETATM    4  C9  UNL     1     -12.469  10.131  13.476  1.00  0.00     0.102 C 
HETATM    5  C10 UNL     1     -12.350   8.678  13.004  1.00  0.00     0.143 C 
HETATM    6  O3  UNL     1     -13.243   7.837  13.764  1.00  0.00    -0.315 OA
HETATM    7  C11 UNL     1     -14.396   7.424  13.178  1.00  0.00     0.261 C 
HETATM    8  O4  UNL     1     -14.765   7.695  12.044  1.00  0.00    -0.265 OA
HETATM    9  C12 UNL     1     -15.192   6.586  14.142  1.00  0.00     0.145 C 
HETATM   10  C13 UNL     1     -16.205   7.431  14.908  1.00  0.00     0.164 C 
HETATM   11  O6  UNL     1     -15.543   8.480  15.655  1.00  0.00    -0.313 OA
HETATM   12  C15 UNL     1     -14.945   8.134  16.828  1.00  0.00     0.264 C 
HETATM   13  O7  UNL     1     -14.963   7.004  17.308  1.00  0.00    -0.265 OA
HETATM   14  C16 UNL     1     -14.365   9.337  17.537  1.00  0.00     0.179 C 
HETATM   15  C17 UNL     1     -13.676  10.350  16.600  1.00  0.00     0.177 C 
HETATM   16  O9  UNL     1     -12.719   9.645  15.839  1.00  0.00    -0.318 OA
HETATM   17  C18 UNL     1     -12.971  11.436  17.458  1.00  0.00     0.045 C 
HETATM   18  C19 UNL     1     -13.921  12.536  17.947  1.00  0.00     0.015 C 
HETATM   19  C20 UNL     1     -11.727  12.042  16.778  1.00  0.00     0.024 C 
HETATM   20  C21 UNL     1     -11.689  11.889  15.245  1.00  0.00     0.010 C 
HETATM   21  C22 UNL     1     -10.289  12.375  14.765  1.00  0.00     0.020 C 
HETATM   22  C23 UNL     1     -12.678  12.875  14.583  1.00  0.00     0.020 C 
HETATM   23  C24 UNL     1     -10.914   8.162  13.202  1.00  0.00     0.041 C 
HETATM   24  C25 UNL     1     -10.789   6.706  12.751  1.00  0.00     0.015 C 
ENDROOT
BRANCH   1  25
HETATM   25  C5  UNL     1      -9.081   7.892  15.052  1.00  0.00     0.011 C 
HETATM   26  C6  UNL     1      -8.927   7.653  16.561  1.00  0.00     0.012 C 
BRANCH  25  27
HETATM   27  C4  UNL     1      -8.739   6.608  14.252  1.00  0.00     0.009 C 
BRANCH  27  28
HETATM   28  C3  UNL     1      -7.757   5.631  14.922  1.00  0.00     0.037 C 
BRANCH  28  29
HETATM   29  C2  UNL     1      -6.452   5.419  14.131  1.00  0.00     0.153 C 
BRANCH  29  30
HETATM   30  O1  UNL     1      -6.278   6.535  13.246  1.00  0.00    -0.386 OA
HETATM   31  C1  UNL     1      -5.203   7.381  13.632  1.00  0.00     0.202 C 
ENDBRANCH  29  30
BRANCH  29  32
HETATM   32  C26 UNL     1      -6.459   4.150  13.294  1.00  0.00    -0.027 A 
HETATM   33  C27 UNL     1      -7.482   3.191  13.397  1.00  0.00     0.010 A 
HETATM   34  C28 UNL     1      -7.456   2.029  12.620  1.00  0.00     0.003 A 
HETATM   35  C29 UNL     1      -6.416   1.815  11.717  1.00  0.00     0.036 A 
HETATM   36  C30 UNL     1      -5.416   2.770  11.588  1.00  0.00     0.066 A 
HETATM   37  C31 UNL     1      -5.426   3.930  12.364  1.00  0.00     0.046 A 
BRANCH  36  38
HETATM   38  O10 UNL     1      -4.425   2.534  10.680  1.00  0.00    -0.361 OA
HETATM   39  H45 UNL     1      -3.863   3.324  10.626  1.00  0.00     0.217 HD
ENDBRANCH  36  38
ENDBRANCH  29  32
ENDBRANCH  28  29
ENDBRANCH  27  28
ENDBRANCH  25  27
ENDBRANCH   1  25
BRANCH  15  40
HETATM   40  O8  UNL     1     -14.648  10.956  15.766  1.00  0.00    -0.364 OA
HETATM   41  H25 UNL     1     -15.276  10.262  15.481  1.00  0.00     0.213 HD
ENDBRANCH  15  40
BRANCH  10  42
HETATM   42  C14 UNL     1     -17.228   8.108  13.983  1.00  0.00     0.197 C 
BRANCH  42  43
HETATM   43  O5  UNL     1     -16.881   9.482  13.784  1.00  0.00    -0.398 OA
HETATM   44  H22 UNL     1     -17.042   9.954  14.620  1.00  0.00     0.209 HD
ENDBRANCH  42  43
ENDBRANCH  10  42
TORSDOF 10
ENDMDL
MODEL 3
REMARK minimizedAffinity -8.47635651
REMARK CNNscore 0.526679516
REMARK CNNaffinity 6.61649752
REMARK  10 active torsions:
REMARK  status: ('A' for Active; 'I' for Inactive)
REMARK    1  A    between atoms: O1_2  and  C2_3 
REMARK    2  A    between atoms: C2_3  and  C3_4 
REMARK    3  A    between atoms: C2_3  and  C26_35 
REMARK    4  A    between atoms: C3_4  and  C4_5 
REMARK    5  A    between atoms: C4_5  and  C5_6 
REMARK    6  A    between atoms: C5_6  and  C7_8 
REMARK    7  A    between atoms: C13_17  and  C14_18 
REMARK    8  A    between atoms: C14_18  and  O5_19 
REMARK    9  A    between atoms: C17_24  and  O8_25 
REMARK   10  A    between atoms: C30_39  and  O10_40 
ROOT
HETATM    1  C7  UNL     1       1.510   7.446  14.053  1.00  0.00     0.135 C 
HETATM    2  O2  UNL     1       0.997   7.195  12.741  1.00  0.00    -0.348 OA
HETATM    3  C8  UNL     1       1.787   7.694  11.640  1.00  0.00     0.177 C 
HETATM    4  C9  UNL     1       1.965   9.216  11.811  1.00  0.00     0.102 C 
HETATM    5  C10 UNL     1       2.429   9.616  13.216  1.00  0.00     0.143 C 
HETATM    6  O3  UNL     1       3.786   9.176  13.432  1.00  0.00    -0.315 OA
HETATM    7  C11 UNL     1       4.782  10.097  13.367  1.00  0.00     0.261 C 
HETATM    8  O4  UNL     1       4.645  11.291  13.141  1.00  0.00    -0.265 OA
HETATM    9  C12 UNL     1       6.113   9.432  13.592  1.00  0.00     0.145 C 
HETATM   10  C13 UNL     1       6.766   9.035  12.271  1.00  0.00     0.164 C 
HETATM   11  O6  UNL     1       5.921   8.122  11.531  1.00  0.00    -0.313 OA
HETATM   12  C15 UNL     1       5.913   6.817  11.919  1.00  0.00     0.264 C 
HETATM   13  O7  UNL     1       6.601   6.361  12.828  1.00  0.00    -0.265 OA
HETATM   14  C16 UNL     1       5.051   5.968  11.013  1.00  0.00     0.179 C 
HETATM   15  C17 UNL     1       3.733   6.642  10.581  1.00  0.00     0.177 C 
HETATM   16  O9  UNL     1       3.062   7.054  11.753  1.00  0.00    -0.318 OA
HETATM   17  C18 UNL     1       2.864   5.611   9.810  1.00  0.00     0.045 C 
HETATM   18  C19 UNL     1       3.266   5.458   8.338  1.00  0.00     0.015 C 
HETATM   19  C20 UNL     1       1.349   5.863   9.947  1.00  0.00     0.024 C 
HETATM   20  C21 UNL     1       0.965   7.302  10.340  1.00  0.00     0.010 C 
HETATM   21  C22 UNL     1      -0.567   7.313  10.620  1.00  0.00     0.020 C 
HETATM   22  C23 UNL     1       1.134   8.251   9.133  1.00  0.00     0.020 C 
HETATM   23  C24 UNL     1       1.534   8.967  14.286  1.00  0.00     0.041 C 
HETATM   24  C25 UNL     1       2.001   9.345  15.692  1.00  0.00     0.015 C 
ENDROOT
BRANCH   1  25
HETATM   25  C5  UNL     1       0.649   6.627  15.058  1.00  0.00     0.011 C 
HETATM   26  C6  UNL     1      -0.216   7.527  15.951  1.00  0.00     0.012 C 
BRANCH  25  27
HETATM   27  C4  UNL     1      -0.232   5.618  14.275  1.00  0.00     0.009 C 
BRANCH  27  28
HETATM   28  C3  UNL     1      -1.733   5.623  14.610  1.00  0.00     0.037 C 
BRANCH  28  29
HETATM   29  C2  UNL     1      -2.627   6.126  13.461  1.00  0.00     0.153 C 
BRANCH  29  30
HETATM   30  O1  UNL     1      -3.313   7.304  13.909  1.00  0.00    -0.386 OA
HETATM   31  C1  UNL     1      -3.019   8.447  13.118  1.00  0.00     0.202 C 
ENDBRANCH  29  30
BRANCH  29  32
HETATM   32  C26 UNL     1      -3.671   5.111  13.024  1.00  0.00    -0.027 A 
HETATM   33  C27 UNL     1      -5.042   5.288  13.282  1.00  0.00     0.010 A 
HETATM   34  C28 UNL     1      -5.977   4.331  12.875  1.00  0.00     0.003 A 
HETATM   35  C29 UNL     1      -5.559   3.191  12.193  1.00  0.00     0.036 A 
HETATM   36  C30 UNL     1      -4.210   3.021  11.909  1.00  0.00     0.066 A 
HETATM   37  C31 UNL     1      -3.266   3.964  12.317  1.00  0.00     0.046 A 
BRANCH  36  38
HETATM   38  O10 UNL     1      -3.841   1.901  11.221  1.00  0.00    -0.361 OA
HETATM   39  H45 UNL     1      -2.896   1.969  11.007  1.00  0.00     0.217 HD
ENDBRANCH  36  38
ENDBRANCH  29  32
ENDBRANCH  28  29
ENDBRANCH  27  28
ENDBRANCH  25  27
ENDBRANCH   1  25
BRANCH  15  40
HETATM   40  O8  UNL     1       4.022   7.747   9.742  1.00  0.00    -0.364 OA
HETATM   41  H25 UNL     1       4.798   8.213  10.113  1.00  0.00     0.213 HD
ENDBRANCH  15  40
BRANCH  10  42
HETATM   42  C14 UNL     1       7.038  10.242  11.361  1.00  0.00     0.197 C 
BRANCH  42  43
HETATM   43  O5  UNL     1       6.223  10.169  10.188  1.00  0.00    -0.398 OA
HETATM   44  H22 UNL     1       6.558   9.439   9.637  1.00  0.00     0.209 HD
ENDBRANCH  42  43
ENDBRANCH  10  42
TORSDOF 10
ENDMDL
MODEL 4
REMARK minimizedAffinity -7.64471579
REMARK CNNscore 0.518635273
REMARK CNNaffinity 6.78473282
REMARK  10 active torsions:
REMARK  status: ('A' for Active; 'I' for Inactive)
REMARK    1  A    between atoms: O1_2  and  C2_3 
REMARK    2  A    between atoms: C2_3  and  C3_4 
REMARK    3  A    between atoms: C2_3  and  C26_35 
REMARK    4  A    between atoms: C3_4  and  C4_5 
REMARK    5  A    between atoms: C4_5  and  C5_6 
REMARK    6  A    between atoms: C5_6  and  C7_8 
REMARK    7  A    between atoms: C13_17  and  C14_18 
REMARK    8  A    between atoms: C14_18  and  O5_19 
REMARK    9  A    between atoms: C17_24  and  O8_25 
REMARK   10  A    between atoms: C30_39  and  O10_40 
ROOT
HETATM    1  C7  UNL     1     -11.793   8.580  14.788  1.00  0.00     0.135 C 
HETATM    2  O2  UNL     1     -12.329   9.171  15.975  1.00  0.00    -0.348 OA
HETATM    3  C8  UNL     1     -13.767   9.296  16.033  1.00  0.00     0.177 C 
HETATM    4  C9  UNL     1     -14.238  10.126  14.822  1.00  0.00     0.102 C 
HETATM    5  C10 UNL     1     -13.651   9.639  13.491  1.00  0.00     0.143 C 
HETATM    6  O3  UNL     1     -14.206   8.351  13.149  1.00  0.00    -0.315 OA
HETATM    7  C11 UNL     1     -15.165   8.296  12.190  1.00  0.00     0.261 C 
HETATM    8  O4  UNL     1     -15.620   9.247  11.569  1.00  0.00    -0.265 OA
HETATM    9  C12 UNL     1     -15.626   6.875  12.005  1.00  0.00     0.145 C 
HETATM   10  C13 UNL     1     -16.851   6.572  12.863  1.00  0.00     0.164 C 
HETATM   11  O6  UNL     1     -16.563   6.778  14.266  1.00  0.00    -0.313 OA
HETATM   12  C15 UNL     1     -15.867   5.802  14.914  1.00  0.00     0.264 C 
HETATM   13  O7  UNL     1     -15.504   4.750  14.397  1.00  0.00    -0.265 OA
HETATM   14  C16 UNL     1     -15.708   6.112  16.385  1.00  0.00     0.179 C 
HETATM   15  C17 UNL     1     -15.405   7.594  16.690  1.00  0.00     0.177 C 
HETATM   16  O9  UNL     1     -14.280   7.965  15.923  1.00  0.00    -0.318 OA
HETATM   17  C18 UNL     1     -15.086   7.747  18.202  1.00  0.00     0.045 C 
HETATM   18  C19 UNL     1     -16.340   7.823  19.082  1.00  0.00     0.015 C 
HETATM   19  C20 UNL     1     -14.122   8.909  18.510  1.00  0.00     0.024 C 
HETATM   20  C21 UNL     1     -14.058  10.001  17.425  1.00  0.00     0.010 C 
HETATM   21  C22 UNL     1     -12.904  10.973  17.814  1.00  0.00     0.020 C 
HETATM   22  C23 UNL     1     -15.325  10.883  17.475  1.00  0.00     0.020 C 
HETATM   23  C24 UNL     1     -12.123   9.496  13.595  1.00  0.00     0.041 C 
HETATM   24  C25 UNL     1     -11.531   8.992  12.279  1.00  0.00     0.015 C 
ENDROOT
BRANCH   1  25
HETATM   25  C5  UNL     1     -10.278   8.322  15.035  1.00  0.00     0.011 C 
HETATM   26  C6  UNL     1      -9.860   8.650  16.476  1.00  0.00     0.012 C 
BRANCH  25  27
HETATM   27  C4  UNL     1      -9.946   6.847  14.688  1.00  0.00     0.009 C 
BRANCH  27  28
HETATM   28  C3  UNL     1      -8.639   6.609  13.912  1.00  0.00     0.037 C 
BRANCH  28  29
HETATM   29  C2  UNL     1      -7.666   5.642  14.613  1.00  0.00     0.153 C 
BRANCH  29  30
HETATM   30  O1  UNL     1      -6.553   6.403  15.103  1.00  0.00    -0.386 OA
HETATM   31  C1  UNL     1      -6.602   7.767  14.708  1.00  0.00     0.202 C 
ENDBRANCH  29  30
BRANCH  29  32
HETATM   32  C26 UNL     1      -7.128   4.561  13.689  1.00  0.00    -0.027 A 
HETATM   33  C27 UNL     1      -7.852   3.389  13.407  1.00  0.00     0.010 A 
HETATM   34  C28 UNL     1      -7.327   2.408  12.560  1.00  0.00     0.003 A 
HETATM   35  C29 UNL     1      -6.078   2.589  11.971  1.00  0.00     0.036 A 
HETATM   36  C30 UNL     1      -5.368   3.756  12.221  1.00  0.00     0.066 A 
HETATM   37  C31 UNL     1      -5.877   4.739  13.071  1.00  0.00     0.046 A 
BRANCH  36  38
HETATM   38  O10 UNL     1      -4.157   3.907  11.610  1.00  0.00    -0.361 OA
HETATM   39  H45 UNL     1      -3.830   4.802  11.793  1.00  0.00     0.217 HD
ENDBRANCH  36  38
ENDBRANCH  29  32
ENDBRANCH  28  29
ENDBRANCH  27  28
ENDBRANCH  25  27
ENDBRANCH   1  25
BRANCH  15  40
HETATM   40  O8  UNL     1     -16.534   8.382  16.356  1.00  0.00    -0.364 OA
HETATM   41  H25 UNL     1     -16.902   8.043  15.515  1.00  0.00     0.213 HD
ENDBRANCH  15  40
BRANCH  10  42
HETATM   42  C14 UNL     1     -18.054   7.461  12.511  1.00  0.00     0.197 C 
BRANCH  42  43
HETATM   43  O5  UNL     1     -18.189   8.512  13.473  1.00  0.00    -0.398 OA
HETATM   44  H22 UNL     1     -18.488   8.113  14.309  1.00  0.00     0.209 HD
ENDBRANCH  42  43
ENDBRANCH  10  42
TORSDOF 10
ENDMDL
MODEL 5
REMARK minimizedAffinity -7.37745667
REMARK CNNscore 0.5058074
REMARK CNNaffinity 6.09582758
REMARK  10 active torsions:
REMARK  status: ('A' for Active; 'I' for Inactive)
REMARK    1  A    between atoms: O1_2  and  C2_3 
REMARK    2  A    between atoms: C2_3  and  C3_4 
REMARK    3  A    between atoms: C2_3  and  C26_35 
REMARK    4  A    between atoms: C3_4  and  C4_5 
REMARK    5  A    between atoms: C4_5  and  C5_6 
REMARK    6  A    between atoms: C5_6  and  C7_8 
REMARK    7  A    between atoms: C13_17  and  C14_18 
REMARK    8  A    between atoms: C14_18  and  O5_19 
REMARK    9  A    between atoms: C17_24  and  O8_25 
REMARK   10  A    between atoms: C30_39  and  O10_40 
ROOT
HETATM    1  C7  UNL     1      -2.847  10.240  15.436  1.00  0.00     0.135 C 
HETATM    2  O2  UNL     1      -3.589  11.443  15.656  1.00  0.00    -0.348 OA
HETATM    3  C8  UNL     1      -2.935  12.461  16.445  1.00  0.00     0.177 C 
HETATM    4  C9  UNL     1      -2.566  11.860  17.816  1.00  0.00     0.102 C 
HETATM    5  C10 UNL     1      -1.841  10.514  17.710  1.00  0.00     0.143 C 
HETATM    6  O3  UNL     1      -0.524  10.705  17.153  1.00  0.00    -0.315 OA
HETATM    7  C11 UNL     1       0.543  10.664  17.991  1.00  0.00     0.261 C 
HETATM    8  O4  UNL     1       0.505  10.476  19.199  1.00  0.00    -0.265 OA
HETATM    9  C12 UNL     1       1.812  10.912  17.221  1.00  0.00     0.145 C 
HETATM   10  C13 UNL     1       2.197  12.388  17.244  1.00  0.00     0.164 C 
HETATM   11  O6  UNL     1       1.149  13.205  16.669  1.00  0.00    -0.313 OA
HETATM   12  C15 UNL     1       1.060  13.249  15.311  1.00  0.00     0.264 C 
HETATM   13  O7  UNL     1       1.830  12.674  14.547  1.00  0.00    -0.265 OA
HETATM   14  C16 UNL     1      -0.024  14.197  14.851  1.00  0.00     0.179 C 
HETATM   15  C17 UNL     1      -1.313  14.141  15.697  1.00  0.00     0.177 C 
HETATM   16  O9  UNL     1      -1.738  12.796  15.737  1.00  0.00    -0.318 OA
HETATM   17  C18 UNL     1      -2.402  15.018  15.022  1.00  0.00     0.045 C 
HETATM   18  C19 UNL     1      -2.261  16.512  15.338  1.00  0.00     0.015 C 
HETATM   19  C20 UNL     1      -3.838  14.528  15.293  1.00  0.00     0.024 C 
HETATM   20  C21 UNL     1      -3.993  13.641  16.543  1.00  0.00     0.010 C 
HETATM   21  C22 UNL     1      -5.450  13.089  16.542  1.00  0.00     0.020 C 
HETATM   22  C23 UNL     1      -3.917  14.500  17.824  1.00  0.00     0.020 C 
HETATM   23  C24 UNL     1      -2.619   9.552  16.794  1.00  0.00     0.041 C 
HETATM   24  C25 UNL     1      -1.893   8.212  16.667  1.00  0.00     0.015 C 
ENDROOT
BRANCH   1  25
HETATM   25  C5  UNL     1      -3.621   9.398  14.380  1.00  0.00     0.011 C 
HETATM   26  C6  UNL     1      -2.742   8.311  13.745  1.00  0.00     0.012 C 
BRANCH  25  27
HETATM   27  C4  UNL     1      -4.877   8.774  15.042  1.00  0.00     0.009 C 
BRANCH  27  28
HETATM   28  C3  UNL     1      -4.894   7.240  15.157  1.00  0.00     0.037 C 
BRANCH  28  29
HETATM   29  C2  UNL     1      -6.272   6.609  14.879  1.00  0.00     0.153 C 
BRANCH  29  30
HETATM   30  O1  UNL     1      -6.824   6.169  16.129  1.00  0.00    -0.386 OA
HETATM   31  C1  UNL     1      -7.789   7.070  16.652  1.00  0.00     0.202 C 
ENDBRANCH  29  30
BRANCH  29  32
HETATM   32  C26 UNL     1      -6.205   5.412  13.945  1.00  0.00    -0.027 A 
HETATM   33  C27 UNL     1      -5.054   5.110  13.197  1.00  0.00     0.010 A 
HETATM   34  C28 UNL     1      -5.025   4.006  12.339  1.00  0.00     0.003 A 
HETATM   35  C29 UNL     1      -6.141   3.179  12.228  1.00  0.00     0.036 A 
HETATM   36  C30 UNL     1      -7.273   3.453  12.984  1.00  0.00     0.066 A 
HETATM   37  C31 UNL     1      -7.316   4.556  13.837  1.00  0.00     0.046 A 
BRANCH  36  38
HETATM   38  O10 UNL     1      -8.338   2.609  12.863  1.00  0.00    -0.361 OA
HETATM   39  H45 UNL     1      -9.007   2.861  13.520  1.00  0.00     0.217 HD
ENDBRANCH  36  38
ENDBRANCH  29  32
ENDBRANCH  28  29
ENDBRANCH  27  28
ENDBRANCH  25  27
ENDBRANCH   1  25
BRANCH  15  40
HETATM   40  O8  UNL     1      -1.043  14.631  16.999  1.00  0.00    -0.364 OA
HETATM   41  H25 UNL     1      -0.170  14.286  17.277  1.00  0.00     0.213 HD
ENDBRANCH  15  40
BRANCH  10  42
HETATM   42  C14 UNL     1       2.451  12.911  18.666  1.00  0.00     0.197 C 
BRANCH  42  43
HETATM   43  O5  UNL     1       1.317  13.650  19.130  1.00  0.00    -0.398 OA
HETATM   44  H22 UNL     1       1.279  14.483  18.628  1.00  0.00     0.209 HD
ENDBRANCH  42  43
ENDBRANCH  10  42
TORSDOF 10
ENDMDL
MODEL 6
REMARK minimizedAffinity -7.11458302
REMARK CNNscore 0.477819651
REMARK CNNaffinity 6.55262995
REMARK  10 active torsions:
REMARK  status: ('A' for Active; 'I' for Inactive)
REMARK    1  A    between atoms: O1_2  and  C2_3 
REMARK    2  A    between atoms: C2_3  and  C3_4 
REMARK    3  A    between atoms: C2_3  and  C26_35 
REMARK    4  A    between atoms: C3_4  and  C4_5 
REMARK    5  A    between atoms: C4_5  and  C5_6 
REMARK    6  A    between atoms: C5_6  and  C7_8 
REMARK    7  A    between atoms: C13_17  and  C14_18 
REMARK    8  A    between atoms: C14_18  and  O5_19 
REMARK    9  A    between atoms: C17_24  and  O8_25 
REMARK   10  A    between atoms: C30_39  and  O10_40 
ROOT
HETATM    1  C7  UNL     1      -0.684   7.749  13.326  1.00  0.00     0.135 C 
HETATM    2  O2  UNL     1       0.294   8.063  14.321  1.00  0.00    -0.348 OA
HETATM    3  C8  UNL     1       1.627   7.557  14.090  1.00  0.00     0.177 C 
HETATM    4  C9  UNL     1       1.553   6.024  13.948  1.00  0.00     0.102 C 
HETATM    5  C10 UNL     1       0.471   5.560  12.966  1.00  0.00     0.143 C 
HETATM    6  O3  UNL     1       0.838   5.923  11.618  1.00  0.00    -0.315 OA
HETATM    7  C11 UNL     1       1.316   4.955  10.796  1.00  0.00     0.261 C 
HETATM    8  O4  UNL     1       1.471   3.776  11.084  1.00  0.00    -0.265 OA
HETATM    9  C12 UNL     1       1.662   5.543   9.455  1.00  0.00     0.145 C 
HETATM   10  C13 UNL     1       3.133   5.945   9.387  1.00  0.00     0.164 C 
HETATM   11  O6  UNL     1       3.450   6.921  10.409  1.00  0.00    -0.313 OA
HETATM   12  C15 UNL     1       3.086   8.213  10.178  1.00  0.00     0.264 C 
HETATM   13  O7  UNL     1       2.544   8.606   9.149  1.00  0.00    -0.265 OA
HETATM   14  C16 UNL     1       3.548   9.130  11.287  1.00  0.00     0.179 C 
HETATM   15  C17 UNL     1       3.395   8.538  12.702  1.00  0.00     0.177 C 
HETATM   16  O9  UNL     1       2.052   8.127  12.849  1.00  0.00    -0.318 OA
HETATM   17  C18 UNL     1       3.728   9.634  13.751  1.00  0.00     0.045 C 
HETATM   18  C19 UNL     1       5.234   9.809  13.988  1.00  0.00     0.015 C 
HETATM   19  C20 UNL     1       2.975   9.457  15.084  1.00  0.00     0.024 C 
HETATM   20  C21 UNL     1       2.465   8.028  15.354  1.00  0.00     0.010 C 
HETATM   21  C22 UNL     1       1.572   8.088  16.629  1.00  0.00     0.020 C 
HETATM   22  C23 UNL     1       3.638   7.107  15.757  1.00  0.00     0.020 C 
HETATM   23  C24 UNL     1      -0.878   6.222  13.296  1.00  0.00     0.041 C 
HETATM   24  C25 UNL     1      -1.959   5.780  12.311  1.00  0.00     0.015 C 
ENDROOT
BRANCH   1  25
HETATM   25  C5  UNL     1      -1.960   8.581  13.642  1.00  0.00     0.011 C 
HETATM   26  C6  UNL     1      -1.758  10.080  13.376  1.00  0.00     0.012 C 
BRANCH  25  27
HETATM   27  C4  UNL     1      -3.150   8.031  12.813  1.00  0.00     0.009 C 
BRANCH  27  28
HETATM   28  C3  UNL     1      -4.552   8.258  13.403  1.00  0.00     0.037 C 
BRANCH  28  29
HETATM   29  C2  UNL     1      -5.029   7.126  14.333  1.00  0.00     0.153 C 
BRANCH  29  30
HETATM   30  O1  UNL     1      -3.895   6.315  14.670  1.00  0.00    -0.386 OA
HETATM   31  C1  UNL     1      -3.601   6.329  16.060  1.00  0.00     0.202 C 
ENDBRANCH  29  30
BRANCH  29  32
HETATM   32  C26 UNL     1      -6.078   6.229  13.695  1.00  0.00    -0.027 A 
HETATM   33  C27 UNL     1      -7.434   6.594  13.629  1.00  0.00     0.010 A 
HETATM   34  C28 UNL     1      -8.378   5.744  13.044  1.00  0.00     0.003 A 
HETATM   35  C29 UNL     1      -7.978   4.524  12.502  1.00  0.00     0.036 A 
HETATM   36  C30 UNL     1      -6.636   4.167  12.538  1.00  0.00     0.066 A 
HETATM   37  C31 UNL     1      -5.687   5.004  13.127  1.00  0.00     0.046 A 
BRANCH  36  38
HETATM   38  O10 UNL     1      -6.280   2.974  11.980  1.00  0.00    -0.361 OA
HETATM   39  H45 UNL     1      -5.311   2.909  11.986  1.00  0.00     0.217 HD
ENDBRANCH  36  38
ENDBRANCH  29  32
ENDBRANCH  28  29
ENDBRANCH  27  28
ENDBRANCH  25  27
ENDBRANCH   1  25
BRANCH  15  40
HETATM   40  O8  UNL     1       4.283   7.445  12.853  1.00  0.00    -0.364 OA
HETATM   41  H25 UNL     1       4.271   6.929  12.022  1.00  0.00     0.213 HD
ENDBRANCH  15  40
BRANCH  10  42
HETATM   42  C14 UNL     1       4.080   4.752   9.589  1.00  0.00     0.197 C 
BRANCH  42  43
HETATM   43  O5  UNL     1       3.630   3.629   8.826  1.00  0.00    -0.398 OA
HETATM   44  H22 UNL     1       2.815   3.294   9.240  1.00  0.00     0.209 HD
ENDBRANCH  42  43
ENDBRANCH  10  42
TORSDOF 10
ENDMDL
MODEL 7
REMARK minimizedAffinity -8.17837334
REMARK CNNscore 0.43669793
REMARK CNNaffinity 6.29758263
REMARK  10 active torsions:
REMARK  status: ('A' for Active; 'I' for Inactive)
REMARK    1  A    between atoms: O1_2  and  C2_3 
REMARK    2  A    between atoms: C2_3  and  C3_4 
REMARK    3  A    between atoms: C2_3  and  C26_35 
REMARK    4  A    between atoms: C3_4  and  C4_5 
REMARK    5  A    between atoms: C4_5  and  C5_6 
REMARK    6  A    between atoms: C5_6  and  C7_8 
REMARK    7  A    between atoms: C13_17  and  C14_18 
REMARK    8  A    between atoms: C14_18  and  O5_19 
REMARK    9  A    between atoms: C17_24  and  O8_25 
REMARK   10  A    between atoms: C30_39  and  O10_40 
ROOT
HETATM    1  C7  UNL     1      -2.354   7.606  14.846  1.00  0.00     0.135 C 
HETATM    2  O2  UNL     1      -1.487   7.291  13.752  1.00  0.00    -0.348 OA
HETATM    3  C8  UNL     1      -0.515   8.298  13.397  1.00  0.00     0.177 C 
HETATM    4  C9  UNL     1      -1.261   9.606  13.066  1.00  0.00     0.102 C 
HETATM    5  C10 UNL     1      -2.290  10.002  14.131  1.00  0.00     0.143 C 
HETATM    6  O3  UNL     1      -1.617  10.393  15.346  1.00  0.00    -0.315 OA
HETATM    7  C11 UNL     1      -1.527  11.716  15.637  1.00  0.00     0.261 C 
HETATM    8  O4  UNL     1      -1.969  12.634  14.960  1.00  0.00    -0.265 OA
HETATM    9  C12 UNL     1      -0.770  11.910  16.923  1.00  0.00     0.145 C 
HETATM   10  C13 UNL     1       0.715  12.145  16.664  1.00  0.00     0.164 C 
HETATM   11  O6  UNL     1       1.300  11.026  15.956  1.00  0.00    -0.313 OA
HETATM   12  C15 UNL     1       1.602   9.913  16.680  1.00  0.00     0.264 C 
HETATM   13  O7  UNL     1       1.446   9.813  17.893  1.00  0.00    -0.265 OA
HETATM   14  C16 UNL     1       2.275   8.859  15.831  1.00  0.00     0.179 C 
HETATM   15  C17 UNL     1       1.677   8.708  14.418  1.00  0.00     0.177 C 
HETATM   16  O9  UNL     1       0.289   8.495  14.564  1.00  0.00    -0.318 OA
HETATM   17  C18 UNL     1       2.328   7.484  13.718  1.00  0.00     0.045 C 
HETATM   18  C19 UNL     1       3.698   7.794  13.103  1.00  0.00     0.015 C 
HETATM   19  C20 UNL     1       1.402   6.801  12.692  1.00  0.00     0.024 C 
HETATM   20  C21 UNL     1       0.264   7.691  12.155  1.00  0.00     0.010 C 
HETATM   21  C22 UNL     1      -0.667   6.784  11.297  1.00  0.00     0.020 C 
HETATM   22  C23 UNL     1       0.819   8.721  11.146  1.00  0.00     0.020 C 
HETATM   23  C24 UNL     1      -3.218   8.816  14.451  1.00  0.00     0.041 C 
HETATM   24  C25 UNL     1      -4.236   9.195  15.527  1.00  0.00     0.015 C 
ENDROOT
BRANCH   1  25
HETATM   25  C5  UNL     1      -3.138   6.312  15.210  1.00  0.00     0.011 C 
HETATM   26  C6  UNL     1      -4.628   6.586  15.459  1.00  0.00     0.012 C 
BRANCH  25  27
HETATM   27  C4  UNL     1      -2.953   5.264  14.081  1.00  0.00     0.009 C 
BRANCH  27  28
HETATM   28  C3  UNL     1      -3.835   5.445  12.834  1.00  0.00     0.037 C 
BRANCH  28  29
HETATM   29  C2  UNL     1      -3.956   4.177  11.967  1.00  0.00     0.153 C 
BRANCH  29  30
HETATM   30  O1  UNL     1      -4.825   3.255  12.640  1.00  0.00    -0.386 OA
HETATM   31  C1  UNL     1      -6.179   3.372  12.226  1.00  0.00     0.202 C 
ENDBRANCH  29  30
BRANCH  29  32
HETATM   32  C26 UNL     1      -2.624   3.484  11.731  1.00  0.00    -0.027 A 
HETATM   33  C27 UNL     1      -1.401   4.058  12.121  1.00  0.00     0.010 A 
HETATM   34  C28 UNL     1      -0.191   3.400  11.883  1.00  0.00     0.003 A 
HETATM   35  C29 UNL     1      -0.185   2.151  11.265  1.00  0.00     0.036 A 
HETATM   36  C30 UNL     1      -1.389   1.563  10.901  1.00  0.00     0.066 A 
HETATM   37  C31 UNL     1      -2.603   2.214  11.127  1.00  0.00     0.046 A 
BRANCH  36  38
HETATM   38  O10 UNL     1      -1.344   0.331  10.317  1.00  0.00    -0.361 OA
HETATM   39  H45 UNL     1      -2.253   0.005  10.215  1.00  0.00     0.217 HD
ENDBRANCH  36  38
ENDBRANCH  29  32
ENDBRANCH  28  29
ENDBRANCH  27  28
ENDBRANCH  25  27
ENDBRANCH   1  25
BRANCH  15  40
HETATM   40  O8  UNL     1       1.937   9.883  13.669  1.00  0.00    -0.364 OA
HETATM   41  H25 UNL     1       1.805  10.652  14.258  1.00  0.00     0.213 HD
ENDBRANCH  15  40
BRANCH  10  42
HETATM   42  C14 UNL     1       0.975  13.403  15.820  1.00  0.00     0.197 C 
BRANCH  42  43
HETATM   43  O5  UNL     1       0.171  14.488  16.291  1.00  0.00    -0.398 OA
HETATM   44  H22 UNL     1      -0.755  14.295  16.059  1.00  0.00     0.209 HD
ENDBRANCH  42  43
ENDBRANCH  10  42
TORSDOF 10
ENDMDL
MODEL 8
REMARK minimizedAffinity -8.5806036
REMARK CNNscore 0.380392164
REMARK CNNaffinity 6.03280067
REMARK  10 active torsions:
REMARK  status: ('A' for Active; 'I' for Inactive)
REMARK    1  A    between atoms: O1_2  and  C2_3 
REMARK    2  A    between atoms: C2_3  and  C3_4 
REMARK    3  A    between atoms: C2_3  and  C26_35 
REMARK    4  A    between atoms: C3_4  and  C4_5 
REMARK    5  A    between atoms: C4_5  and  C5_6 
REMARK    6  A    between atoms: C5_6  and  C7_8 
REMARK    7  A    between atoms: C13_17  and  C14_18 
REMARK    8  A    between atoms: C14_18  and  O5_19 
REMARK    9  A    between atoms: C17_24  and  O8_25 
REMARK   10  A    between atoms: C30_39  and  O10_40 
ROOT
HETATM    1  C7  UNL     1      -1.302   9.309  13.913  1.00  0.00     0.135 C 
HETATM    2  O2  UNL     1      -2.380   9.822  14.702  1.00  0.00    -0.348 OA
HETATM    3  C8  UNL     1      -2.014  10.459  15.945  1.00  0.00     0.177 C 
HETATM    4  C9  UNL     1      -1.221   9.452  16.801  1.00  0.00     0.102 C 
HETATM    5  C10 UNL     1      -0.086   8.767  16.031  1.00  0.00     0.143 C 
HETATM    6  O3  UNL     1       0.954   9.721  15.731  1.00  0.00    -0.315 OA
HETATM    7  C11 UNL     1       2.091   9.691  16.472  1.00  0.00     0.261 C 
HETATM    8  O4  UNL     1       2.333   8.919  17.389  1.00  0.00    -0.265 OA
HETATM    9  C12 UNL     1       3.029  10.777  16.020  1.00  0.00     0.145 C 
HETATM   10  C13 UNL     1       2.849  12.047  16.846  1.00  0.00     0.164 C 
HETATM   11  O6  UNL     1       1.493  12.543  16.742  1.00  0.00    -0.313 OA
HETATM   12  C15 UNL     1       1.160  13.231  15.615  1.00  0.00     0.264 C 
HETATM   13  O7  UNL     1       1.942  13.486  14.704  1.00  0.00    -0.265 OA
HETATM   14  C16 UNL     1      -0.256  13.755  15.677  1.00  0.00     0.179 C 
HETATM   15  C17 UNL     1      -1.269  12.770  16.294  1.00  0.00     0.177 C 
HETATM   16  O9  UNL     1      -1.162  11.552  15.588  1.00  0.00    -0.318 OA
HETATM   17  C18 UNL     1      -2.702  13.347  16.136  1.00  0.00     0.045 C 
HETATM   18  C19 UNL     1      -3.060  14.385  17.207  1.00  0.00     0.015 C 
HETATM   19  C20 UNL     1      -3.791  12.262  16.029  1.00  0.00     0.024 C 
HETATM   20  C21 UNL     1      -3.394  10.889  16.603  1.00  0.00     0.010 C 
HETATM   21  C22 UNL     1      -4.528   9.886  16.232  1.00  0.00     0.020 C 
HETATM   22  C23 UNL     1      -3.415  10.925  18.147  1.00  0.00     0.020 C 
HETATM   23  C24 UNL     1      -0.608   8.186  14.704  1.00  0.00     0.041 C 
HETATM   24  C25 UNL     1       0.521   7.517  13.920  1.00  0.00     0.015 C 
ENDROOT
BRANCH   1  25
HETATM   25  C5  UNL     1      -1.888   8.894  12.533  1.00  0.00     0.011 C 
HETATM   26  C6  UNL     1      -1.035   7.823  11.838  1.00  0.00     0.012 C 
BRANCH  25  27
HETATM   27  C4  UNL     1      -3.346   8.400  12.722  1.00  0.00     0.009 C 
BRANCH  27  28
HETATM   28  C3  UNL     1      -3.516   6.945  13.192  1.00  0.00     0.037 C 
BRANCH  28  29
HETATM   29  C2  UNL     1      -4.933   6.614  13.697  1.00  0.00     0.153 C 
BRANCH  29  30
HETATM   30  O1  UNL     1      -4.897   6.563  15.131  1.00  0.00    -0.386 OA
HETATM   31  C1  UNL     1      -3.615   6.221  15.637  1.00  0.00     0.202 C 
ENDBRANCH  29  30
BRANCH  29  32
HETATM   32  C26 UNL     1      -5.453   5.279  13.190  1.00  0.00    -0.027 A 
HETATM   33  C27 UNL     1      -4.641   4.383  12.472  1.00  0.00     0.010 A 
HETATM   34  C28 UNL     1      -5.151   3.166  12.011  1.00  0.00     0.003 A 
HETATM   35  C29 UNL     1      -6.474   2.818  12.273  1.00  0.00     0.036 A 
HETATM   36  C30 UNL     1      -7.276   3.684  13.006  1.00  0.00     0.066 A 
HETATM   37  C31 UNL     1      -6.781   4.905  13.464  1.00  0.00     0.046 A 
BRANCH  36  38
HETATM   38  O10 UNL     1      -8.560   3.299  13.259  1.00  0.00    -0.361 OA
HETATM   39  H45 UNL     1      -8.962   3.947  13.862  1.00  0.00     0.217 HD
ENDBRANCH  36  38
ENDBRANCH  29  32
ENDBRANCH  28  29
ENDBRANCH  27  28
ENDBRANCH  25  27
ENDBRANCH   1  25
BRANCH  15  40
HETATM   40  O8  UNL     1      -0.973  12.592  17.668  1.00  0.00    -0.364 OA
HETATM   41  H25 UNL     1      -0.002  12.535  17.764  1.00  0.00     0.213 HD
ENDBRANCH  15  40
BRANCH  10  42
HETATM   42  C14 UNL     1       3.138  11.825  18.339  1.00  0.00     0.197 C 
BRANCH  42  43
HETATM   43  O5  UNL     1       4.349  11.080  18.502  1.00  0.00    -0.398 OA
HETATM   44  H22 UNL     1       4.179  10.168  18.206  1.00  0.00     0.209 HD
ENDBRANCH  42  43
ENDBRANCH  10  42
TORSDOF 10
ENDMDL
MODEL 9
REMARK minimizedAffinity -9.04903793
REMARK CNNscore 0.375659615
REMARK CNNaffinity 6.17762518
REMARK  10 active torsions:
REMARK  status: ('A' for Active; 'I' for Inactive)
REMARK    1  A    between atoms: O1_2  and  C2_3 
REMARK    2  A    between atoms: C2_3  and  C3_4 
REMARK    3  A    between atoms: C2_3  and  C26_35 
REMARK    4  A    between atoms: C3_4  and  C4_5 
REMARK    5  A    between atoms: C4_5  and  C5_6 
REMARK    6  A    between atoms: C5_6  and  C7_8 
REMARK    7  A    between atoms: C13_17  and  C14_18 
REMARK    8  A    between atoms: C14_18  and  O5_19 
REMARK    9  A    between atoms: C17_24  and  O8_25 
REMARK   10  A    between atoms: C30_39  and  O10_40 
ROOT
HETATM    1  C7  UNL     1      -2.282   7.430  14.392  1.00  0.00     0.135 C 
HETATM    2  O2  UNL     1      -1.376   7.092  13.337  1.00  0.00    -0.348 OA
HETATM    3  C8  UNL     1      -0.426   8.113  12.961  1.00  0.00     0.177 C 
HETATM    4  C9  UNL     1      -1.201   9.380  12.549  1.00  0.00     0.102 C 
HETATM    5  C10 UNL     1      -2.270   9.792  13.567  1.00  0.00     0.143 C 
HETATM    6  O3  UNL     1      -1.644  10.259  14.780  1.00  0.00    -0.315 OA
HETATM    7  C11 UNL     1      -1.602  11.596  15.010  1.00  0.00     0.261 C 
HETATM    8  O4  UNL     1      -2.051  12.468  14.280  1.00  0.00    -0.265 OA
HETATM    9  C12 UNL     1      -0.887  11.873  16.305  1.00  0.00     0.145 C 
HETATM   10  C13 UNL     1       0.597  12.142  16.075  1.00  0.00     0.164 C 
HETATM   11  O6  UNL     1       1.235  11.010  15.436  1.00  0.00    -0.313 OA
HETATM   12  C15 UNL     1       1.550   9.942  16.219  1.00  0.00     0.264 C 
HETATM   13  O7  UNL     1       1.363   9.893  17.431  1.00  0.00    -0.265 OA
HETATM   14  C16 UNL     1       2.278   8.871  15.439  1.00  0.00     0.179 C 
HETATM   15  C17 UNL     1       1.724   8.637  14.019  1.00  0.00     0.177 C 
HETATM   16  O9  UNL     1       0.339   8.388  14.138  1.00  0.00    -0.318 OA
HETATM   17  C18 UNL     1       2.430   7.403  13.394  1.00  0.00     0.045 C 
HETATM   18  C19 UNL     1       3.807   7.727  12.802  1.00  0.00     0.015 C 
HETATM   19  C20 UNL     1       1.554   6.645  12.377  1.00  0.00     0.024 C 
HETATM   20  C21 UNL     1       0.406   7.473  11.769  1.00  0.00     0.010 C 
HETATM   21  C22 UNL     1      -0.474   6.498  10.931  1.00  0.00     0.020 C 
HETATM   22  C23 UNL     1       0.957   8.472  10.728  1.00  0.00     0.020 C 
HETATM   23  C24 UNL     1      -3.171   8.594  13.918  1.00  0.00     0.041 C 
HETATM   24  C25 UNL     1      -4.230   8.990  14.947  1.00  0.00     0.015 C 
ENDROOT
BRANCH   1  25
HETATM   25  C5  UNL     1      -3.038   6.131  14.795  1.00  0.00     0.011 C 
HETATM   26  C6  UNL     1      -3.998   6.358  15.971  1.00  0.00     0.012 C 
BRANCH  25  27
HETATM   27  C4  UNL     1      -3.799   5.576  13.562  1.00  0.00     0.009 C 
BRANCH  27  28
HETATM   28  C3  UNL     1      -5.144   6.246  13.235  1.00  0.00     0.037 C 
BRANCH  28  29
HETATM   29  C2  UNL     1      -6.330   5.265  13.174  1.00  0.00     0.153 C 
BRANCH  29  30
HETATM   30  O1  UNL     1      -6.771   5.011  14.515  1.00  0.00    -0.386 OA
HETATM   31  C1  UNL     1      -7.737   5.951  14.965  1.00  0.00     0.202 C 
ENDBRANCH  29  30
BRANCH  29  32
HETATM   32  C26 UNL     1      -5.974   3.933  12.534  1.00  0.00    -0.027 A 
HETATM   33  C27 UNL     1      -6.858   2.840  12.539  1.00  0.00     0.010 A 
HETATM   34  C28 UNL     1      -6.499   1.624  11.949  1.00  0.00     0.003 A 
HETATM   35  C29 UNL     1      -5.257   1.487  11.333  1.00  0.00     0.036 A 
HETATM   36  C30 UNL     1      -4.388   2.570  11.299  1.00  0.00     0.066 A 
HETATM   37  C31 UNL     1      -4.732   3.786  11.891  1.00  0.00     0.046 A 
BRANCH  36  38
HETATM   38  O10 UNL     1      -3.189   2.403  10.669  1.00  0.00    -0.361 OA
HETATM   39  H45 UNL     1      -2.738   3.262  10.634  1.00  0.00     0.217 HD
ENDBRANCH  36  38
ENDBRANCH  29  32
ENDBRANCH  28  29
ENDBRANCH  27  28
ENDBRANCH  25  27
ENDBRANCH   1  25
BRANCH  15  40
HETATM   40  O8  UNL     1       1.970   9.783  13.223  1.00  0.00    -0.364 OA
HETATM   41  H25 UNL     1       1.798  10.575  13.771  1.00  0.00     0.213 HD
ENDBRANCH  15  40
BRANCH  10  42
HETATM   42  C14 UNL     1       0.843  13.367  15.180  1.00  0.00     0.197 C 
BRANCH  42  43
HETATM   43  O5  UNL     1       0.005  13.309  14.023  1.00  0.00    -0.398 OA
HETATM   44  H22 UNL     1       0.333  12.591  13.453  1.00  0.00     0.209 HD
ENDBRANCH  42  43
ENDBRANCH  10  42
TORSDOF 10
ENDMDL
