MODEL 1
REMARK minimizedAffinity -8.82076073
REMARK CNNscore 0.615393102
REMARK CNNaffinity 6.72841978
REMARK  12 active torsions:
REMARK  status: ('A' for Active; 'I' for Inactive)
REMARK    1  A    between atoms: C3_3  and  O1_4 
REMARK    2  A    between atoms: N1_14  and  O2_16 
REMARK    3  A    between atoms: O2_16  and  C13_17 
REMARK    4  A    between atoms: C13_17  and  C14_18 
REMARK       I    between atoms: C14_18  and  N2_20 
REMARK    5  A    between atoms: N2_20  and  C15_21 
REMARK    6  A    between atoms: C15_21  and  C16_22 
REMARK    7  A    between atoms: C15_21  and  C27_38 
REMARK       I    between atoms: C16_22  and  N3_24 
REMARK    8  A    between atoms: N3_24  and  C17_25 
REMARK    9  A    between atoms: C17_25  and  C18_26 
REMARK   10  A    between atoms: C17_25  and  C20_30 
REMARK   11  A    between atoms: C18_26  and  C19_27 
REMARK   12  A    between atoms: C19_27  and  O6_29 
ROOT
HETATM    1  C1  UNL     1      -0.007  55.272 -26.968  1.00  0.00     0.015 C 
HETATM    2  C2  UNL     1      -0.383  54.131 -26.950  1.00  0.00    -0.078 C 
HETATM    3  C3  UNL     1      -0.820  52.727 -26.959  1.00  0.00     0.128 C 
HETATM    4  C4  UNL     1       0.375  51.767 -26.973  1.00  0.00     0.052 C 
HETATM    5  C5  UNL     1      -0.273  50.429 -26.643  1.00  0.00     0.010 C 
HETATM    6  C6  UNL     1      -1.241  50.768 -25.508  1.00  0.00     0.002 C 
HETATM    7  C7  UNL     1      -2.381  49.756 -25.255  1.00  0.00    -0.004 C 
HETATM    8  C8  UNL     1      -3.080  49.170 -26.491  1.00  0.00     0.010 C 
HETATM    9  C9  UNL     1      -4.126  48.122 -26.107  1.00  0.00     0.035 C 
HETATM   10  C10 UNL     1      -5.088  48.561 -25.023  1.00  0.00    -0.069 C 
HETATM   11  C11 UNL     1      -6.383  48.199 -25.103  1.00  0.00     0.030 C 
HETATM   12  C12 UNL     1      -7.328  48.375 -23.958  1.00  0.00     0.032 C 
HETATM   13  N1  UNL     1      -8.537  47.906 -23.895  1.00  0.00    -0.271 N 
ATOM     14  H1  UNL     1      -9.134  47.982 -23.071  1.00  0.00     0.194 HD
HETATM   15  C30 UNL     1      -6.817  49.077 -22.712  1.00  0.00     0.060 C 
HETATM   16  C31 UNL     1      -5.647  50.002 -23.022  1.00  0.00     0.020 C 
HETATM   17  C32 UNL     1      -4.504  49.307 -23.825  1.00  0.00    -0.016 C 
HETATM   18  C33 UNL     1      -3.828  48.264 -22.892  1.00  0.00     0.020 C 
HETATM   19  C34 UNL     1      -3.427  50.367 -24.292  1.00  0.00     0.002 C 
HETATM   20  C35 UNL     1      -4.040  51.664 -24.883  1.00  0.00     0.007 C 
HETATM   21  C36 UNL     1      -3.174  52.418 -25.901  1.00  0.00     0.014 C 
HETATM   22  C37 UNL     1      -1.653  52.267 -25.706  1.00  0.00     0.003 C 
HETATM   23  C38 UNL     1      -1.248  53.047 -24.427  1.00  0.00     0.020 C 
ENDROOT
BRANCH   3  24
HETATM   24  O1  UNL     1      -1.553  52.502 -28.164  1.00  0.00    -0.377 OA
HETATM   25  H2  UNL     1      -1.046  52.912 -28.883  1.00  0.00     0.211 HD
ENDBRANCH   3  24
BRANCH  13  26
HETATM   26  O2  UNL     1      -8.929  47.284 -25.087  1.00  0.00    -0.271 OA
BRANCH  26  27
HETATM   27  C13 UNL     1     -10.342  47.299 -25.193  1.00  0.00     0.303 C 
BRANCH  27  28
HETATM   28  C14 UNL     1     -11.039  45.961 -25.469  1.00  0.00     0.244 C 
HETATM   29  O3  UNL     1     -10.732  44.884 -24.965  1.00  0.00    -0.271 OA
HETATM   30  N2  UNL     1     -12.098  46.083 -26.369  1.00  0.00    -0.346 N 
HETATM   31  H16 UNL     1     -12.527  47.003 -26.414  1.00  0.00     0.163 HD
BRANCH  30  32
HETATM   32  C15 UNL     1     -13.011  44.961 -26.587  1.00  0.00     0.180 C 
BRANCH  32  33
HETATM   33  C16 UNL     1     -14.436  45.444 -26.230  1.00  0.00     0.241 C 
HETATM   34  O4  UNL     1     -14.892  46.500 -26.657  1.00  0.00    -0.271 OA
HETATM   35  N3  UNL     1     -15.165  44.564 -25.458  1.00  0.00    -0.354 N 
HETATM   36  H18 UNL     1     -14.675  43.771 -25.052  1.00  0.00     0.162 HD
BRANCH  35  37
HETATM   37  C17 UNL     1     -16.531  44.863 -25.016  1.00  0.00     0.098 C 
BRANCH  37  38
HETATM   38  C18 UNL     1     -16.746  46.386 -24.914  1.00  0.00     0.135 C 
BRANCH  38  39
HETATM   39  C19 UNL     1     -18.113  46.741 -24.392  1.00  0.00     0.141 C 
HETATM   40  O5  UNL     1     -19.046  47.223 -25.004  1.00  0.00    -0.650 OA
BRANCH  39  41
HETATM   41  O6  UNL     1     -18.254  46.411 -23.091  1.00  0.00    -0.776 OA
HETATM   42  H22 UNL     1     -19.194  46.609 -22.900  1.00  0.00     0.167 HD
ENDBRANCH  39  41
ENDBRANCH  38  39
ENDBRANCH  37  38
BRANCH  37  43
HETATM   43  C20 UNL     1     -17.545  44.125 -25.938  1.00  0.00     0.014 C 
HETATM   44  C21 UNL     1     -18.689  43.412 -25.180  1.00  0.00     0.033 C 
HETATM   45  C22 UNL     1     -19.212  42.188 -25.930  1.00  0.00     0.169 C 
HETATM   46  O7  UNL     1     -19.221  42.432 -27.332  1.00  0.00    -0.381 OA
HETATM   47  C23 UNL     1     -17.911  42.569 -27.914  1.00  0.00     0.054 C 
HETATM   48  C24 UNL     1     -17.452  41.196 -28.424  1.00  0.00     0.045 C 
HETATM   49  C25 UNL     1     -18.084  43.513 -29.110  1.00  0.00     0.045 C 
HETATM   50  C26 UNL     1     -16.884  43.142 -26.911  1.00  0.00     0.044 C 
ENDBRANCH  37  43
ENDBRANCH  35  37
ENDBRANCH  32  33
BRANCH  32  51
HETATM   51  C27 UNL     1     -12.910  44.421 -28.033  1.00  0.00     0.009 C 
HETATM   52  C28 UNL     1     -11.504  44.601 -28.615  1.00  0.00     0.012 C 
HETATM   53  C29 UNL     1     -13.346  42.955 -28.188  1.00  0.00     0.012 C 
ENDBRANCH  32  51
ENDBRANCH  30  32
ENDBRANCH  27  28
ENDBRANCH  26  27
ENDBRANCH  13  26
TORSDOF 12
ENDMDL
MODEL 2
REMARK minimizedAffinity -9.8350544
REMARK CNNscore 0.436223209
REMARK CNNaffinity 6.93655825
REMARK  12 active torsions:
REMARK  status: ('A' for Active; 'I' for Inactive)
REMARK    1  A    between atoms: C3_3  and  O1_4 
REMARK    2  A    between atoms: N1_14  and  O2_16 
REMARK    3  A    between atoms: O2_16  and  C13_17 
REMARK    4  A    between atoms: C13_17  and  C14_18 
REMARK       I    between atoms: C14_18  and  N2_20 
REMARK    5  A    between atoms: N2_20  and  C15_21 
REMARK    6  A    between atoms: C15_21  and  C16_22 
REMARK    7  A    between atoms: C15_21  and  C27_38 
REMARK       I    between atoms: C16_22  and  N3_24 
REMARK    8  A    between atoms: N3_24  and  C17_25 
REMARK    9  A    between atoms: C17_25  and  C18_26 
REMARK   10  A    between atoms: C17_25  and  C20_30 
REMARK   11  A    between atoms: C18_26  and  C19_27 
REMARK   12  A    between atoms: C19_27  and  O6_29 
ROOT
HETATM    1  C1  UNL     1       0.213  55.790 -26.818  1.00  0.00     0.015 C 
HETATM    2  C2  UNL     1      -0.069  54.622 -26.875  1.00  0.00    -0.078 C 
HETATM    3  C3  UNL     1      -0.391  53.191 -26.976  1.00  0.00     0.128 C 
HETATM    4  C4  UNL     1       0.875  52.339 -27.117  1.00  0.00     0.052 C 
HETATM    5  C5  UNL     1       0.354  50.930 -26.866  1.00  0.00     0.010 C 
HETATM    6  C6  UNL     1      -0.581  51.100 -25.667  1.00  0.00     0.002 C 
HETATM    7  C7  UNL     1      -1.622  49.979 -25.447  1.00  0.00    -0.004 C 
HETATM    8  C8  UNL     1      -2.332  49.432 -26.694  1.00  0.00     0.010 C 
HETATM    9  C9  UNL     1      -3.270  48.274 -26.349  1.00  0.00     0.035 C 
HETATM   10  C10 UNL     1      -4.209  48.547 -25.193  1.00  0.00    -0.069 C 
HETATM   11  C11 UNL     1      -5.473  48.084 -25.247  1.00  0.00     0.030 C 
HETATM   12  C12 UNL     1      -6.371  48.093 -24.051  1.00  0.00     0.032 C 
HETATM   13  N1  UNL     1      -7.535  47.521 -23.973  1.00  0.00    -0.271 N 
ATOM     14  H1  UNL     1      -8.094  47.485 -23.121  1.00  0.00     0.194 HD
HETATM   15  C30 UNL     1      -5.858  48.740 -22.777  1.00  0.00     0.060 C 
HETATM   16  C31 UNL     1      -4.783  49.781 -23.063  1.00  0.00     0.020 C 
HETATM   17  C32 UNL     1      -3.628  49.247 -23.967  1.00  0.00    -0.016 C 
HETATM   18  C33 UNL     1      -2.826  48.197 -23.149  1.00  0.00     0.020 C 
HETATM   19  C34 UNL     1      -2.665  50.426 -24.394  1.00  0.00     0.002 C 
HETATM   20  C35 UNL     1      -3.409  51.708 -24.853  1.00  0.00     0.007 C 
HETATM   21  C36 UNL     1      -2.658  52.606 -25.845  1.00  0.00     0.014 C 
HETATM   22  C37 UNL     1      -1.122  52.570 -25.728  1.00  0.00     0.003 C 
HETATM   23  C38 UNL     1      -0.718  53.282 -24.410  1.00  0.00     0.020 C 
ENDROOT
BRANCH   3  24
HETATM   24  O1  UNL     1      -1.163  52.997 -28.163  1.00  0.00    -0.377 OA
HETATM   25  H2  UNL     1      -0.726  53.501 -28.868  1.00  0.00     0.211 HD
ENDBRANCH   3  24
BRANCH  13  26
HETATM   26  O2  UNL     1      -7.934  46.960 -25.193  1.00  0.00    -0.271 OA
BRANCH  26  27
HETATM   27  C13 UNL     1      -9.117  47.593 -25.647  1.00  0.00     0.303 C 
BRANCH  27  28
HETATM   28  C14 UNL     1     -10.108  46.737 -26.445  1.00  0.00     0.244 C 
HETATM   29  O3  UNL     1      -9.804  45.925 -27.315  1.00  0.00    -0.271 OA
HETATM   30  N2  UNL     1     -11.433  46.962 -26.072  1.00  0.00    -0.346 N 
HETATM   31  H16 UNL     1     -11.567  47.308 -25.126  1.00  0.00     0.163 HD
BRANCH  30  32
HETATM   32  C15 UNL     1     -12.496  46.086 -26.568  1.00  0.00     0.180 C 
BRANCH  32  33
HETATM   33  C16 UNL     1     -13.466  45.821 -25.393  1.00  0.00     0.241 C 
HETATM   34  O4  UNL     1     -13.148  45.137 -24.426  1.00  0.00    -0.271 OA
HETATM   35  N3  UNL     1     -14.680  46.469 -25.492  1.00  0.00    -0.354 N 
HETATM   36  H18 UNL     1     -14.906  46.920 -26.375  1.00  0.00     0.162 HD
BRANCH  35  37
HETATM   37  C17 UNL     1     -15.726  46.325 -24.475  1.00  0.00     0.098 C 
BRANCH  37  38
HETATM   38  C18 UNL     1     -15.688  47.510 -23.489  1.00  0.00     0.135 C 
BRANCH  38  39
HETATM   39  C19 UNL     1     -15.279  47.091 -22.102  1.00  0.00     0.141 C 
HETATM   40  O5  UNL     1     -15.641  46.114 -21.477  1.00  0.00    -0.650 OA
BRANCH  39  41
HETATM   41  O6  UNL     1     -14.364  47.931 -21.575  1.00  0.00    -0.776 OA
HETATM   42  H22 UNL     1     -14.121  47.510 -20.725  1.00  0.00     0.167 HD
ENDBRANCH  39  41
ENDBRANCH  38  39
ENDBRANCH  37  38
BRANCH  37  43
HETATM   43  C20 UNL     1     -17.099  46.105 -25.174  1.00  0.00     0.014 C 
HETATM   44  C21 UNL     1     -18.254  46.944 -24.580  1.00  0.00     0.033 C 
HETATM   45  C22 UNL     1     -19.612  46.262 -24.738  1.00  0.00     0.169 C 
HETATM   46  O7  UNL     1     -19.684  45.586 -25.988  1.00  0.00    -0.381 OA
HETATM   47  C23 UNL     1     -18.798  44.457 -26.099  1.00  0.00     0.054 C 
HETATM   48  C24 UNL     1     -19.554  43.192 -25.672  1.00  0.00     0.045 C 
HETATM   49  C25 UNL     1     -18.446  44.349 -27.588  1.00  0.00     0.045 C 
HETATM   50  C26 UNL     1     -17.520  44.633 -25.248  1.00  0.00     0.044 C 
ENDBRANCH  37  43
ENDBRANCH  35  37
ENDBRANCH  32  33
BRANCH  32  51
HETATM   51  C27 UNL     1     -13.205  46.698 -27.799  1.00  0.00     0.009 C 
HETATM   52  C28 UNL     1     -12.748  48.136 -28.068  1.00  0.00     0.012 C 
HETATM   53  C29 UNL     1     -13.063  45.865 -29.083  1.00  0.00     0.012 C 
ENDBRANCH  32  51
ENDBRANCH  30  32
ENDBRANCH  27  28
ENDBRANCH  26  27
ENDBRANCH  13  26
TORSDOF 12
ENDMDL
MODEL 3
REMARK minimizedAffinity -9.21303368
REMARK CNNscore 0.363601476
REMARK CNNaffinity 6.79581976
REMARK  12 active torsions:
REMARK  status: ('A' for Active; 'I' for Inactive)
REMARK    1  A    between atoms: C3_3  and  O1_4 
REMARK    2  A    between atoms: N1_14  and  O2_16 
REMARK    3  A    between atoms: O2_16  and  C13_17 
REMARK    4  A    between atoms: C13_17  and  C14_18 
REMARK       I    between atoms: C14_18  and  N2_20 
REMARK    5  A    between atoms: N2_20  and  C15_21 
REMARK    6  A    between atoms: C15_21  and  C16_22 
REMARK    7  A    between atoms: C15_21  and  C27_38 
REMARK       I    between atoms: C16_22  and  N3_24 
REMARK    8  A    between atoms: N3_24  and  C17_25 
REMARK    9  A    between atoms: C17_25  and  C18_26 
REMARK   10  A    between atoms: C17_25  and  C20_30 
REMARK   11  A    between atoms: C18_26  and  C19_27 
REMARK   12  A    between atoms: C19_27  and  O6_29 
ROOT
HETATM    1  C1  UNL     1       0.657  55.741 -25.137  1.00  0.00     0.015 C 
HETATM    2  C2  UNL     1       0.269  54.632 -25.390  1.00  0.00    -0.078 C 
HETATM    3  C3  UNL     1      -0.186  53.277 -25.735  1.00  0.00     0.128 C 
HETATM    4  C4  UNL     1       0.984  52.382 -26.158  1.00  0.00     0.052 C 
HETATM    5  C5  UNL     1       0.361  50.992 -26.136  1.00  0.00     0.010 C 
HETATM    6  C6  UNL     1      -0.457  50.985 -24.843  1.00  0.00     0.002 C 
HETATM    7  C7  UNL     1      -1.572  49.920 -24.745  1.00  0.00    -0.004 C 
HETATM    8  C8  UNL     1      -2.425  49.686 -26.001  1.00  0.00     0.010 C 
HETATM    9  C9  UNL     1      -3.432  48.552 -25.798  1.00  0.00     0.035 C 
HETATM   10  C10 UNL     1      -4.248  48.655 -24.527  1.00  0.00    -0.069 C 
HETATM   11  C11 UNL     1      -5.549  48.304 -24.548  1.00  0.00     0.030 C 
HETATM   12  C12 UNL     1      -6.344  48.137 -23.293  1.00  0.00     0.032 C 
HETATM   13  N1  UNL     1      -7.544  47.646 -23.216  1.00  0.00    -0.271 N 
ATOM     14  H1  UNL     1      -8.035  47.479 -22.338  1.00  0.00     0.194 HD
HETATM   15  C30 UNL     1      -5.676  48.478 -21.973  1.00  0.00     0.060 C 
HETATM   16  C31 UNL     1      -4.539  49.475 -22.153  1.00  0.00     0.020 C 
HETATM   17  C32 UNL     1      -3.512  49.052 -23.249  1.00  0.00    -0.016 C 
HETATM   18  C33 UNL     1      -2.744  47.805 -22.731  1.00  0.00     0.020 C 
HETATM   19  C34 UNL     1      -2.485  50.220 -23.531  1.00  0.00     0.002 C 
HETATM   20  C35 UNL     1      -3.145  51.618 -23.661  1.00  0.00     0.007 C 
HETATM   21  C36 UNL     1      -2.398  52.641 -24.527  1.00  0.00     0.014 C 
HETATM   22  C37 UNL     1      -0.868  52.472 -24.567  1.00  0.00     0.003 C 
HETATM   23  C38 UNL     1      -0.298  52.875 -23.181  1.00  0.00     0.020 C 
ENDROOT
BRANCH   3  24
HETATM   24  O1  UNL     1      -1.064  53.380 -26.858  1.00  0.00    -0.377 OA
HETATM   25  H2  UNL     1      -0.642  53.983 -27.490  1.00  0.00     0.211 HD
ENDBRANCH   3  24
BRANCH  13  26
HETATM   26  O2  UNL     1      -8.087  47.370 -24.478  1.00  0.00    -0.271 OA
BRANCH  26  27
HETATM   27  C13 UNL     1      -9.468  47.688 -24.484  1.00  0.00     0.303 C 
BRANCH  27  28
HETATM   28  C14 UNL     1     -10.453  46.528 -24.674  1.00  0.00     0.244 C 
HETATM   29  O3  UNL     1     -10.143  45.344 -24.784  1.00  0.00    -0.271 OA
HETATM   30  N2  UNL     1     -11.782  46.950 -24.698  1.00  0.00    -0.346 N 
HETATM   31  H16 UNL     1     -11.970  47.823 -24.213  1.00  0.00     0.163 HD
BRANCH  30  32
HETATM   32  C15 UNL     1     -12.867  45.970 -24.653  1.00  0.00     0.180 C 
BRANCH  32  33
HETATM   33  C16 UNL     1     -13.248  45.764 -23.169  1.00  0.00     0.241 C 
HETATM   34  O4  UNL     1     -12.837  44.811 -22.515  1.00  0.00    -0.271 OA
HETATM   35  N3  UNL     1     -14.024  46.770 -22.630  1.00  0.00    -0.354 N 
HETATM   36  H18 UNL     1     -14.416  47.459 -23.267  1.00  0.00     0.162 HD
BRANCH  35  37
HETATM   37  C17 UNL     1     -14.488  46.736 -21.239  1.00  0.00     0.098 C 
BRANCH  37  38
HETATM   38  C18 UNL     1     -14.277  48.107 -20.566  1.00  0.00     0.135 C 
BRANCH  38  39
HETATM   39  C19 UNL     1     -13.287  48.045 -19.433  1.00  0.00     0.141 C 
HETATM   40  O5  UNL     1     -12.074  48.086 -19.496  1.00  0.00    -0.650 OA
BRANCH  39  41
HETATM   41  O6  UNL     1     -13.902  47.979 -18.234  1.00  0.00    -0.776 OA
HETATM   42  H22 UNL     1     -13.165  48.030 -17.591  1.00  0.00     0.167 HD
ENDBRANCH  39  41
ENDBRANCH  38  39
ENDBRANCH  37  38
BRANCH  37  43
HETATM   43  C20 UNL     1     -15.952  46.210 -21.196  1.00  0.00     0.014 C 
HETATM   44  C21 UNL     1     -16.688  46.273 -22.554  1.00  0.00     0.033 C 
HETATM   45  C22 UNL     1     -18.198  46.447 -22.393  1.00  0.00     0.169 C 
HETATM   46  O7  UNL     1     -18.664  45.705 -21.271  1.00  0.00    -0.381 OA
HETATM   47  C23 UNL     1     -18.196  46.200 -20.003  1.00  0.00     0.054 C 
HETATM   48  C24 UNL     1     -19.230  47.187 -19.445  1.00  0.00     0.045 C 
HETATM   49  C25 UNL     1     -18.127  44.976 -19.080  1.00  0.00     0.045 C 
HETATM   50  C26 UNL     1     -16.811  46.877 -20.116  1.00  0.00     0.044 C 
ENDBRANCH  37  43
ENDBRANCH  35  37
ENDBRANCH  32  33
BRANCH  32  51
HETATM   51  C27 UNL     1     -14.068  46.415 -25.521  1.00  0.00     0.009 C 
HETATM   52  C28 UNL     1     -13.620  46.995 -26.866  1.00  0.00     0.012 C 
HETATM   53  C29 UNL     1     -15.113  45.313 -25.759  1.00  0.00     0.012 C 
ENDBRANCH  32  51
ENDBRANCH  30  32
ENDBRANCH  27  28
ENDBRANCH  26  27
ENDBRANCH  13  26
TORSDOF 12
ENDMDL
MODEL 4
REMARK minimizedAffinity -8.62212849
REMARK CNNscore 0.282059699
REMARK CNNaffinity 6.67229128
REMARK  12 active torsions:
REMARK  status: ('A' for Active; 'I' for Inactive)
REMARK    1  A    between atoms: C3_3  and  O1_4 
REMARK    2  A    between atoms: N1_14  and  O2_16 
REMARK    3  A    between atoms: O2_16  and  C13_17 
REMARK    4  A    between atoms: C13_17  and  C14_18 
REMARK       I    between atoms: C14_18  and  N2_20 
REMARK    5  A    between atoms: N2_20  and  C15_21 
REMARK    6  A    between atoms: C15_21  and  C16_22 
REMARK    7  A    between atoms: C15_21  and  C27_38 
REMARK       I    between atoms: C16_22  and  N3_24 
REMARK    8  A    between atoms: N3_24  and  C17_25 
REMARK    9  A    between atoms: C17_25  and  C18_26 
REMARK   10  A    between atoms: C17_25  and  C20_30 
REMARK   11  A    between atoms: C18_26  and  C19_27 
REMARK   12  A    between atoms: C19_27  and  O6_29 
ROOT
HETATM    1  C1  UNL     1       0.097  55.309 -26.547  1.00  0.00     0.015 C 
HETATM    2  C2  UNL     1      -0.390  54.214 -26.452  1.00  0.00    -0.078 C 
HETATM    3  C3  UNL     1      -0.986  52.872 -26.375  1.00  0.00     0.128 C 
HETATM    4  C4  UNL     1      -0.174  51.851 -27.180  1.00  0.00     0.052 C 
HETATM    5  C5  UNL     1      -0.745  50.523 -26.699  1.00  0.00     0.010 C 
HETATM    6  C6  UNL     1      -0.857  50.707 -25.184  1.00  0.00     0.002 C 
HETATM    7  C7  UNL     1      -1.819  49.748 -24.448  1.00  0.00    -0.004 C 
HETATM    8  C8  UNL     1      -3.168  49.459 -25.124  1.00  0.00     0.010 C 
HETATM    9  C9  UNL     1      -3.988  48.433 -24.338  1.00  0.00     0.035 C 
HETATM   10  C10 UNL     1      -4.106  48.724 -22.857  1.00  0.00    -0.069 C 
HETATM   11  C11 UNL     1      -5.271  48.475 -22.227  1.00  0.00     0.030 C 
HETATM   12  C12 UNL     1      -5.385  48.496 -20.736  1.00  0.00     0.032 C 
HETATM   13  N1  UNL     1      -6.419  48.110 -20.051  1.00  0.00    -0.271 N 
ATOM     14  H1  UNL     1      -6.441  48.070 -19.031  1.00  0.00     0.194 HD
HETATM   15  C30 UNL     1      -4.166  48.911 -19.932  1.00  0.00     0.060 C 
HETATM   16  C31 UNL     1      -3.226  49.793 -20.742  1.00  0.00     0.020 C 
HETATM   17  C32 UNL     1      -2.846  49.185 -22.128  1.00  0.00    -0.016 C 
HETATM   18  C33 UNL     1      -1.953  47.939 -21.877  1.00  0.00     0.020 C 
HETATM   19  C34 UNL     1      -2.045  50.236 -22.996  1.00  0.00     0.002 C 
HETATM   20  C35 UNL     1      -2.657  51.662 -22.976  1.00  0.00     0.007 C 
HETATM   21  C36 UNL     1      -2.383  52.533 -24.209  1.00  0.00     0.014 C 
HETATM   22  C37 UNL     1      -1.055  52.242 -24.934  1.00  0.00     0.003 C 
HETATM   23  C38 UNL     1       0.109  52.733 -24.034  1.00  0.00     0.020 C 
ENDROOT
BRANCH   3  24
HETATM   24  O1  UNL     1      -2.286  52.933 -26.964  1.00  0.00    -0.377 OA
HETATM   25  H2  UNL     1      -2.198  53.436 -27.789  1.00  0.00     0.211 HD
ENDBRANCH   3  24
BRANCH  13  26
HETATM   26  O2  UNL     1      -7.498  47.755 -20.870  1.00  0.00    -0.271 OA
BRANCH  26  27
HETATM   27  C13 UNL     1      -8.640  48.514 -20.513  1.00  0.00     0.303 C 
BRANCH  27  28
HETATM   28  C14 UNL     1      -9.751  47.789 -19.744  1.00  0.00     0.244 C 
HETATM   29  O3  UNL     1      -9.813  47.679 -18.523  1.00  0.00    -0.271 OA
HETATM   30  N2  UNL     1     -10.728  47.257 -20.587  1.00  0.00    -0.346 N 
HETATM   31  H16 UNL     1     -10.824  47.718 -21.487  1.00  0.00     0.163 HD
BRANCH  30  32
HETATM   32  C15 UNL     1     -11.970  46.722 -20.028  1.00  0.00     0.180 C 
BRANCH  32  33
HETATM   33  C16 UNL     1     -13.133  47.226 -20.912  1.00  0.00     0.241 C 
HETATM   34  O4  UNL     1     -13.519  48.391 -20.881  1.00  0.00    -0.271 OA
HETATM   35  N3  UNL     1     -13.648  46.284 -21.777  1.00  0.00    -0.354 N 
HETATM   36  H18 UNL     1     -13.353  45.318 -21.657  1.00  0.00     0.162 HD
BRANCH  35  37
HETATM   37  C17 UNL     1     -14.762  46.583 -22.683  1.00  0.00     0.098 C 
BRANCH  37  38
HETATM   38  C18 UNL     1     -14.463  46.055 -24.100  1.00  0.00     0.135 C 
BRANCH  38  39
HETATM   39  C19 UNL     1     -13.443  46.894 -24.823  1.00  0.00     0.141 C 
HETATM   40  O5  UNL     1     -13.547  47.429 -25.909  1.00  0.00    -0.650 OA
BRANCH  39  41
HETATM   41  O6  UNL     1     -12.322  47.061 -24.090  1.00  0.00    -0.776 OA
HETATM   42  H22 UNL     1     -11.785  47.682 -24.623  1.00  0.00     0.167 HD
ENDBRANCH  39  41
ENDBRANCH  38  39
ENDBRANCH  37  38
BRANCH  37  43
HETATM   43  C20 UNL     1     -16.088  46.057 -22.060  1.00  0.00     0.014 C 
HETATM   44  C21 UNL     1     -17.255  45.933 -23.067  1.00  0.00     0.033 C 
HETATM   45  C22 UNL     1     -18.620  46.116 -22.405  1.00  0.00     0.169 C 
HETATM   46  O7  UNL     1     -18.624  45.529 -21.109  1.00  0.00    -0.381 OA
HETATM   47  C23 UNL     1     -17.769  46.192 -20.159  1.00  0.00     0.054 C 
HETATM   48  C24 UNL     1     -18.594  47.239 -19.397  1.00  0.00     0.045 C 
HETATM   49  C25 UNL     1     -17.316  45.104 -19.177  1.00  0.00     0.045 C 
HETATM   50  C26 UNL     1     -16.550  46.857 -20.837  1.00  0.00     0.044 C 
ENDBRANCH  37  43
ENDBRANCH  35  37
ENDBRANCH  32  33
BRANCH  32  51
HETATM   51  C27 UNL     1     -11.925  45.179 -19.925  1.00  0.00     0.009 C 
HETATM   52  C28 UNL     1     -13.259  44.597 -19.446  1.00  0.00     0.012 C 
HETATM   53  C29 UNL     1     -11.493  44.476 -21.222  1.00  0.00     0.012 C 
ENDBRANCH  32  51
ENDBRANCH  30  32
ENDBRANCH  27  28
ENDBRANCH  26  27
ENDBRANCH  13  26
TORSDOF 12
ENDMDL
MODEL 5
REMARK minimizedAffinity -9.18866062
REMARK CNNscore 0.25067395
REMARK CNNaffinity 6.34025621
REMARK  12 active torsions:
REMARK  status: ('A' for Active; 'I' for Inactive)
REMARK    1  A    between atoms: C3_3  and  O1_4 
REMARK    2  A    between atoms: N1_14  and  O2_16 
REMARK    3  A    between atoms: O2_16  and  C13_17 
REMARK    4  A    between atoms: C13_17  and  C14_18 
REMARK       I    between atoms: C14_18  and  N2_20 
REMARK    5  A    between atoms: N2_20  and  C15_21 
REMARK    6  A    between atoms: C15_21  and  C16_22 
REMARK    7  A    between atoms: C15_21  and  C27_38 
REMARK       I    between atoms: C16_22  and  N3_24 
REMARK    8  A    between atoms: N3_24  and  C17_25 
REMARK    9  A    between atoms: C17_25  and  C18_26 
REMARK   10  A    between atoms: C17_25  and  C20_30 
REMARK   11  A    between atoms: C18_26  and  C19_27 
REMARK   12  A    between atoms: C19_27  and  O6_29 
ROOT
HETATM    1  C1  UNL     1       0.380  55.122 -25.158  1.00  0.00     0.015 C 
HETATM    2  C2  UNL     1      -0.146  54.066 -25.386  1.00  0.00    -0.078 C 
HETATM    3  C3  UNL     1      -0.773  52.773 -25.700  1.00  0.00     0.128 C 
HETATM    4  C4  UNL     1       0.263  51.748 -26.175  1.00  0.00     0.052 C 
HETATM    5  C5  UNL     1      -0.516  50.440 -26.114  1.00  0.00     0.010 C 
HETATM    6  C6  UNL     1      -1.264  50.529 -24.783  1.00  0.00     0.002 C 
HETATM    7  C7  UNL     1      -2.490  49.601 -24.624  1.00  0.00    -0.004 C 
HETATM    8  C8  UNL     1      -3.425  49.468 -25.835  1.00  0.00     0.010 C 
HETATM    9  C9  UNL     1      -4.546  48.460 -25.577  1.00  0.00     0.035 C 
HETATM   10  C10 UNL     1      -5.281  48.656 -24.268  1.00  0.00    -0.069 C 
HETATM   11  C11 UNL     1      -6.613  48.459 -24.223  1.00  0.00     0.030 C 
HETATM   12  C12 UNL     1      -7.360  48.387 -22.929  1.00  0.00     0.032 C 
HETATM   13  N1  UNL     1      -8.603  48.038 -22.792  1.00  0.00    -0.271 N 
ATOM     14  H1  UNL     1      -9.066  47.931 -21.889  1.00  0.00     0.194 HD
HETATM   15  C30 UNL     1      -6.591  48.647 -21.646  1.00  0.00     0.060 C 
HETATM   16  C31 UNL     1      -5.357  49.505 -21.888  1.00  0.00     0.020 C 
HETATM   17  C32 UNL     1      -4.441  48.964 -23.030  1.00  0.00    -0.016 C 
HETATM   18  C33 UNL     1      -3.799  47.637 -22.543  1.00  0.00     0.020 C 
HETATM   19  C34 UNL     1      -3.300  50.005 -23.368  1.00  0.00     0.002 C 
HETATM   20  C35 UNL     1      -3.799  51.471 -23.474  1.00  0.00     0.007 C 
HETATM   21  C36 UNL     1      -2.982  52.400 -24.382  1.00  0.00     0.014 C 
HETATM   22  C37 UNL     1      -1.485  52.053 -24.495  1.00  0.00     0.003 C 
HETATM   23  C38 UNL     1      -0.805  52.387 -23.141  1.00  0.00     0.020 C 
ENDROOT
BRANCH   3  24
HETATM   24  O1  UNL     1      -1.687  52.978 -26.779  1.00  0.00    -0.377 OA
HETATM   25  H2  UNL     1      -1.229  53.527 -27.435  1.00  0.00     0.211 HD
ENDBRANCH   3  24
BRANCH  13  26
HETATM   26  O2  UNL     1      -9.236  47.828 -24.024  1.00  0.00    -0.271 OA
BRANCH  26  27
HETATM   27  C13 UNL     1     -10.157  46.757 -23.912  1.00  0.00     0.303 C 
BRANCH  27  28
HETATM   28  C14 UNL     1     -11.339  46.744 -24.889  1.00  0.00     0.244 C 
HETATM   29  O3  UNL     1     -11.719  47.704 -25.555  1.00  0.00    -0.271 OA
HETATM   30  N2  UNL     1     -11.959  45.497 -24.965  1.00  0.00    -0.346 N 
HETATM   31  H16 UNL     1     -11.372  44.704 -24.725  1.00  0.00     0.163 HD
BRANCH  30  32
HETATM   32  C15 UNL     1     -12.962  45.236 -25.998  1.00  0.00     0.180 C 
BRANCH  32  33
HETATM   33  C16 UNL     1     -14.212  46.078 -25.656  1.00  0.00     0.241 C 
HETATM   34  O4  UNL     1     -14.747  46.816 -26.479  1.00  0.00    -0.271 OA
HETATM   35  N3  UNL     1     -14.710  45.880 -24.385  1.00  0.00    -0.354 N 
HETATM   36  H18 UNL     1     -14.143  45.344 -23.733  1.00  0.00     0.162 HD
BRANCH  35  37
HETATM   37  C17 UNL     1     -15.884  46.602 -23.885  1.00  0.00     0.098 C 
BRANCH  37  38
HETATM   38  C18 UNL     1     -17.175  45.821 -24.203  1.00  0.00     0.135 C 
BRANCH  38  39
HETATM   39  C19 UNL     1     -18.417  46.617 -23.903  1.00  0.00     0.141 C 
HETATM   40  O5  UNL     1     -19.160  46.513 -22.947  1.00  0.00    -0.650 OA
BRANCH  39  41
HETATM   41  O6  UNL     1     -18.639  47.569 -24.832  1.00  0.00    -0.776 OA
HETATM   42  H22 UNL     1     -19.410  48.062 -24.484  1.00  0.00     0.167 HD
ENDBRANCH  39  41
ENDBRANCH  38  39
ENDBRANCH  37  38
BRANCH  37  43
HETATM   43  C20 UNL     1     -15.682  46.937 -22.379  1.00  0.00     0.014 C 
HETATM   44  C21 UNL     1     -14.244  47.374 -22.014  1.00  0.00     0.033 C 
HETATM   45  C22 UNL     1     -13.874  47.020 -20.574  1.00  0.00     0.169 C 
HETATM   46  O7  UNL     1     -14.997  47.192 -19.718  1.00  0.00    -0.381 OA
HETATM   47  C23 UNL     1     -16.069  46.263 -19.959  1.00  0.00     0.054 C 
HETATM   48  C24 UNL     1     -15.888  45.049 -19.038  1.00  0.00     0.045 C 
HETATM   49  C25 UNL     1     -17.355  47.000 -19.564  1.00  0.00     0.045 C 
HETATM   50  C26 UNL     1     -16.131  45.814 -21.437  1.00  0.00     0.044 C 
ENDBRANCH  37  43
ENDBRANCH  35  37
ENDBRANCH  32  33
BRANCH  32  51
HETATM   51  C27 UNL     1     -12.410  45.535 -27.412  1.00  0.00     0.009 C 
HETATM   52  C28 UNL     1     -12.192  44.255 -28.226  1.00  0.00     0.012 C 
HETATM   53  C29 UNL     1     -13.266  46.521 -28.224  1.00  0.00     0.012 C 
ENDBRANCH  32  51
ENDBRANCH  30  32
ENDBRANCH  27  28
ENDBRANCH  26  27
ENDBRANCH  13  26
TORSDOF 12
ENDMDL
MODEL 6
REMARK minimizedAffinity -9.06607246
REMARK CNNscore 0.230088964
REMARK CNNaffinity 6.37300682
REMARK  12 active torsions:
REMARK  status: ('A' for Active; 'I' for Inactive)
REMARK    1  A    between atoms: C3_3  and  O1_4 
REMARK    2  A    between atoms: N1_14  and  O2_16 
REMARK    3  A    between atoms: O2_16  and  C13_17 
REMARK    4  A    between atoms: C13_17  and  C14_18 
REMARK       I    between atoms: C14_18  and  N2_20 
REMARK    5  A    between atoms: N2_20  and  C15_21 
REMARK    6  A    between atoms: C15_21  and  C16_22 
REMARK    7  A    between atoms: C15_21  and  C27_38 
REMARK       I    between atoms: C16_22  and  N3_24 
REMARK    8  A    between atoms: N3_24  and  C17_25 
REMARK    9  A    between atoms: C17_25  and  C18_26 
REMARK   10  A    between atoms: C17_25  and  C20_30 
REMARK   11  A    between atoms: C18_26  and  C19_27 
REMARK   12  A    between atoms: C19_27  and  O6_29 
ROOT
HETATM    1  C1  UNL     1      -0.454  52.593 -24.993  1.00  0.00     0.015 C 
HETATM    2  C2  UNL     1      -1.373  51.819 -25.006  1.00  0.00    -0.078 C 
HETATM    3  C3  UNL     1      -2.499  50.874 -25.060  1.00  0.00     0.128 C 
HETATM    4  C4  UNL     1      -2.209  49.711 -26.016  1.00  0.00     0.052 C 
HETATM    5  C5  UNL     1      -3.310  48.718 -25.669  1.00  0.00     0.010 C 
HETATM    6  C6  UNL     1      -3.348  48.741 -24.140  1.00  0.00     0.002 C 
HETATM    7  C7  UNL     1      -4.642  48.215 -23.479  1.00  0.00    -0.004 C 
HETATM    8  C8  UNL     1      -5.973  48.632 -24.123  1.00  0.00     0.010 C 
HETATM    9  C9  UNL     1      -7.168  47.978 -23.427  1.00  0.00     0.035 C 
HETATM   10  C10 UNL     1      -7.163  48.102 -21.918  1.00  0.00    -0.069 C 
HETATM   11  C11 UNL     1      -8.326  48.311 -21.270  1.00  0.00     0.030 C 
HETATM   12  C12 UNL     1      -8.436  48.192 -19.783  1.00  0.00     0.032 C 
HETATM   13  N1  UNL     1      -9.542  48.214 -19.102  1.00  0.00    -0.271 N 
ATOM     14  H1  UNL     1      -9.591  48.060 -18.095  1.00  0.00     0.194 HD
HETATM   15  C30 UNL     1      -7.168  47.928 -18.992  1.00  0.00     0.060 C 
HETATM   16  C31 UNL     1      -5.926  48.404 -19.734  1.00  0.00     0.020 C 
HETATM   17  C32 UNL     1      -5.837  47.871 -21.198  1.00  0.00    -0.016 C 
HETATM   18  C33 UNL     1      -5.585  46.339 -21.135  1.00  0.00     0.020 C 
HETATM   19  C34 UNL     1      -4.646  48.566 -21.971  1.00  0.00     0.002 C 
HETATM   20  C35 UNL     1      -4.569  50.101 -21.756  1.00  0.00     0.007 C 
HETATM   21  C36 UNL     1      -3.926  50.912 -22.889  1.00  0.00     0.014 C 
HETATM   22  C37 UNL     1      -2.854  50.163 -23.703  1.00  0.00     0.003 C 
HETATM   23  C38 UNL     1      -1.603  49.978 -22.804  1.00  0.00     0.020 C 
ENDROOT
BRANCH   3  24
HETATM   24  O1  UNL     1      -3.633  51.571 -25.579  1.00  0.00    -0.377 OA
HETATM   25  H2  UNL     1      -3.324  52.084 -26.343  1.00  0.00     0.211 HD
ENDBRANCH   3  24
BRANCH  13  26
HETATM   26  O2  UNL     1     -10.658  48.474 -19.908  1.00  0.00    -0.271 OA
BRANCH  26  27
HETATM   27  C13 UNL     1     -11.725  47.619 -19.537  1.00  0.00     0.303 C 
BRANCH  27  28
HETATM   28  C14 UNL     1     -13.138  48.037 -19.961  1.00  0.00     0.244 C 
HETATM   29  O3  UNL     1     -13.584  49.181 -19.915  1.00  0.00    -0.271 OA
HETATM   30  N2  UNL     1     -13.897  46.966 -20.433  1.00  0.00    -0.346 N 
HETATM   31  H16 UNL     1     -13.363  46.188 -20.810  1.00  0.00     0.163 HD
BRANCH  30  32
HETATM   32  C15 UNL     1     -15.187  47.206 -21.081  1.00  0.00     0.180 C 
BRANCH  32  33
HETATM   33  C16 UNL     1     -14.947  47.207 -22.608  1.00  0.00     0.241 C 
HETATM   34  O4  UNL     1     -13.970  47.750 -23.115  1.00  0.00    -0.271 OA
HETATM   35  N3  UNL     1     -15.877  46.496 -23.337  1.00  0.00    -0.354 N 
HETATM   36  H18 UNL     1     -16.714  46.177 -22.855  1.00  0.00     0.162 HD
BRANCH  35  37
HETATM   37  C17 UNL     1     -15.814  46.398 -24.798  1.00  0.00     0.098 C 
BRANCH  37  38
HETATM   38  C18 UNL     1     -14.747  45.369 -25.225  1.00  0.00     0.135 C 
BRANCH  38  39
HETATM   39  C19 UNL     1     -13.617  46.000 -25.996  1.00  0.00     0.141 C 
HETATM   40  O5  UNL     1     -12.714  45.444 -26.589  1.00  0.00    -0.650 OA
BRANCH  39  41
HETATM   41  O6  UNL     1     -13.716  47.345 -26.018  1.00  0.00    -0.776 OA
HETATM   42  H22 UNL     1     -12.986  47.623 -26.610  1.00  0.00     0.167 HD
ENDBRANCH  39  41
ENDBRANCH  38  39
ENDBRANCH  37  38
BRANCH  37  43
HETATM   43  C20 UNL     1     -17.239  46.125 -25.360  1.00  0.00     0.014 C 
HETATM   44  C21 UNL     1     -18.362  46.916 -24.650  1.00  0.00     0.033 C 
HETATM   45  C22 UNL     1     -19.702  46.181 -24.678  1.00  0.00     0.169 C 
HETATM   46  O7  UNL     1     -19.870  45.506 -25.919  1.00  0.00    -0.381 OA
HETATM   47  C23 UNL     1     -18.955  44.413 -26.124  1.00  0.00     0.054 C 
HETATM   48  C24 UNL     1     -19.615  43.117 -25.632  1.00  0.00     0.045 C 
HETATM   49  C25 UNL     1     -18.748  44.322 -27.641  1.00  0.00     0.045 C 
HETATM   50  C26 UNL     1     -17.607  44.637 -25.402  1.00  0.00     0.044 C 
ENDBRANCH  37  43
ENDBRANCH  35  37
ENDBRANCH  32  33
BRANCH  32  51
HETATM   51  C27 UNL     1     -16.242  46.163 -20.644  1.00  0.00     0.009 C 
HETATM   52  C28 UNL     1     -15.775  45.347 -19.434  1.00  0.00     0.012 C 
HETATM   53  C29 UNL     1     -17.631  46.756 -20.358  1.00  0.00     0.012 C 
ENDBRANCH  32  51
ENDBRANCH  30  32
ENDBRANCH  27  28
ENDBRANCH  26  27
ENDBRANCH  13  26
TORSDOF 12
ENDMDL
MODEL 7
REMARK minimizedAffinity -8.41936111
REMARK CNNscore 0.191045895
REMARK CNNaffinity 5.49631882
REMARK  12 active torsions:
REMARK  status: ('A' for Active; 'I' for Inactive)
REMARK    1  A    between atoms: C3_3  and  O1_4 
REMARK    2  A    between atoms: N1_14  and  O2_16 
REMARK    3  A    between atoms: O2_16  and  C13_17 
REMARK    4  A    between atoms: C13_17  and  C14_18 
REMARK       I    between atoms: C14_18  and  N2_20 
REMARK    5  A    between atoms: N2_20  and  C15_21 
REMARK    6  A    between atoms: C15_21  and  C16_22 
REMARK    7  A    between atoms: C15_21  and  C27_38 
REMARK       I    between atoms: C16_22  and  N3_24 
REMARK    8  A    between atoms: N3_24  and  C17_25 
REMARK    9  A    between atoms: C17_25  and  C18_26 
REMARK   10  A    between atoms: C17_25  and  C20_30 
REMARK   11  A    between atoms: C18_26  and  C19_27 
REMARK   12  A    between atoms: C19_27  and  O6_29 
ROOT
HETATM    1  C1  UNL     1     -17.070  42.109 -23.914  1.00  0.00     0.015 C 
HETATM    2  C2  UNL     1     -16.762  43.179 -23.463  1.00  0.00    -0.078 C 
HETATM    3  C3  UNL     1     -16.405  44.506 -22.939  1.00  0.00     0.128 C 
HETATM    4  C4  UNL     1     -17.644  45.390 -22.758  1.00  0.00     0.052 C 
HETATM    5  C5  UNL     1     -17.108  46.541 -21.917  1.00  0.00     0.010 C 
HETATM    6  C6  UNL     1     -16.241  45.845 -20.866  1.00  0.00     0.002 C 
HETATM    7  C7  UNL     1     -15.190  46.727 -20.153  1.00  0.00    -0.004 C 
HETATM    8  C8  UNL     1     -14.405  47.717 -21.025  1.00  0.00     0.010 C 
HETATM    9  C9  UNL     1     -13.462  48.584 -20.189  1.00  0.00     0.035 C 
HETATM   10  C10 UNL     1     -12.591  47.813 -19.219  1.00  0.00    -0.069 C 
HETATM   11  C11 UNL     1     -11.317  48.204 -19.024  1.00  0.00     0.030 C 
HETATM   12  C12 UNL     1     -10.483  47.657 -17.909  1.00  0.00     0.032 C 
HETATM   13  N1  UNL     1      -9.314  48.096 -17.552  1.00  0.00    -0.271 N 
ATOM     14  H1  UNL     1      -8.800  47.748 -16.742  1.00  0.00     0.194 HD
HETATM   15  C30 UNL     1     -11.077  46.556 -17.047  1.00  0.00     0.060 C 
HETATM   16  C31 UNL     1     -12.156  45.777 -17.786  1.00  0.00     0.020 C 
HETATM   17  C32 UNL     1     -13.250  46.688 -18.425  1.00  0.00    -0.016 C 
HETATM   18  C33 UNL     1     -14.072  47.329 -17.274  1.00  0.00     0.020 C 
HETATM   19  C34 UNL     1     -14.213  45.837 -19.346  1.00  0.00     0.002 C 
HETATM   20  C35 UNL     1     -13.474  44.837 -20.274  1.00  0.00     0.007 C 
HETATM   21  C36 UNL     1     -14.190  44.469 -21.580  1.00  0.00     0.014 C 
HETATM   22  C37 UNL     1     -15.728  44.516 -21.519  1.00  0.00     0.003 C 
HETATM   23  C38 UNL     1     -16.216  43.334 -20.640  1.00  0.00     0.020 C 
ENDROOT
BRANCH   3  24
HETATM   24  O1  UNL     1     -15.568  45.149 -23.903  1.00  0.00    -0.377 OA
HETATM   25  H2  UNL     1     -15.977  45.005 -24.771  1.00  0.00     0.211 HD
ENDBRANCH   3  24
BRANCH  13  26
HETATM   26  O2  UNL     1      -8.840  49.100 -18.406  1.00  0.00    -0.271 OA
BRANCH  26  27
HETATM   27  C13 UNL     1      -7.484  48.849 -18.733  1.00  0.00     0.303 C 
BRANCH  27  28
HETATM   28  C14 UNL     1      -7.095  48.927 -20.214  1.00  0.00     0.244 C 
HETATM   29  O3  UNL     1      -7.871  48.813 -21.159  1.00  0.00    -0.271 OA
HETATM   30  N2  UNL     1      -5.732  49.161 -20.400  1.00  0.00    -0.346 N 
HETATM   31  H16 UNL     1      -5.262  49.630 -19.631  1.00  0.00     0.163 HD
BRANCH  30  32
HETATM   32  C15 UNL     1      -5.214  49.480 -21.731  1.00  0.00     0.180 C 
BRANCH  32  33
HETATM   33  C16 UNL     1      -4.207  50.641 -21.572  1.00  0.00     0.241 C 
HETATM   34  O4  UNL     1      -4.267  51.434 -20.638  1.00  0.00    -0.271 OA
HETATM   35  N3  UNL     1      -3.205  50.667 -22.520  1.00  0.00    -0.354 N 
HETATM   36  H18 UNL     1      -3.294  50.048 -23.321  1.00  0.00     0.162 HD
BRANCH  35  37
HETATM   37  C17 UNL     1      -2.168  51.704 -22.530  1.00  0.00     0.098 C 
BRANCH  37  38
HETATM   38  C18 UNL     1      -0.854  51.161 -21.932  1.00  0.00     0.135 C 
BRANCH  38  39
HETATM   39  C19 UNL     1      -0.125  52.193 -21.114  1.00  0.00     0.141 C 
HETATM   40  O5  UNL     1      -0.265  52.448 -19.934  1.00  0.00    -0.650 OA
BRANCH  39  41
HETATM   41  O6  UNL     1       0.809  52.840 -21.841  1.00  0.00    -0.776 OA
HETATM   42  H22 UNL     1       1.261  53.411 -21.186  1.00  0.00     0.167 HD
ENDBRANCH  39  41
ENDBRANCH  38  39
ENDBRANCH  37  38
BRANCH  37  43
HETATM   43  C20 UNL     1      -2.035  52.287 -23.967  1.00  0.00     0.014 C 
HETATM   44  C21 UNL     1      -3.335  52.220 -24.801  1.00  0.00     0.033 C 
HETATM   45  C22 UNL     1      -3.063  52.108 -26.300  1.00  0.00     0.169 C 
HETATM   46  O7  UNL     1      -1.931  52.893 -26.657  1.00  0.00    -0.381 OA
HETATM   47  C23 UNL     1      -0.686  52.412 -26.117  1.00  0.00     0.054 C 
HETATM   48  C24 UNL     1      -0.030  51.478 -27.144  1.00  0.00     0.045 C 
HETATM   49  C25 UNL     1       0.196  53.653 -25.937  1.00  0.00     0.045 C 
HETATM   50  C26 UNL     1      -0.879  51.680 -24.770  1.00  0.00     0.044 C 
ENDBRANCH  37  43
ENDBRANCH  35  37
ENDBRANCH  32  33
BRANCH  32  51
HETATM   51  C27 UNL     1      -4.589  48.237 -22.407  1.00  0.00     0.009 C 
HETATM   52  C28 UNL     1      -4.212  48.507 -23.868  1.00  0.00     0.012 C 
HETATM   53  C29 UNL     1      -3.375  47.660 -21.661  1.00  0.00     0.012 C 
ENDBRANCH  32  51
ENDBRANCH  30  32
ENDBRANCH  27  28
ENDBRANCH  26  27
ENDBRANCH  13  26
TORSDOF 12
ENDMDL
MODEL 8
REMARK minimizedAffinity -8.7256155
REMARK CNNscore 0.188544244
REMARK CNNaffinity 6.26339531
REMARK  12 active torsions:
REMARK  status: ('A' for Active; 'I' for Inactive)
REMARK    1  A    between atoms: C3_3  and  O1_4 
REMARK    2  A    between atoms: N1_14  and  O2_16 
REMARK    3  A    between atoms: O2_16  and  C13_17 
REMARK    4  A    between atoms: C13_17  and  C14_18 
REMARK       I    between atoms: C14_18  and  N2_20 
REMARK    5  A    between atoms: N2_20  and  C15_21 
REMARK    6  A    between atoms: C15_21  and  C16_22 
REMARK    7  A    between atoms: C15_21  and  C27_38 
REMARK       I    between atoms: C16_22  and  N3_24 
REMARK    8  A    between atoms: N3_24  and  C17_25 
REMARK    9  A    between atoms: C17_25  and  C18_26 
REMARK   10  A    between atoms: C17_25  and  C20_30 
REMARK   11  A    between atoms: C18_26  and  C19_27 
REMARK   12  A    between atoms: C19_27  and  O6_29 
ROOT
HETATM    1  C1  UNL     1      -0.038  53.574 -25.029  1.00  0.00     0.015 C 
HETATM    2  C2  UNL     1      -0.920  52.760 -24.961  1.00  0.00    -0.078 C 
HETATM    3  C3  UNL     1      -2.003  51.766 -24.916  1.00  0.00     0.128 C 
HETATM    4  C4  UNL     1      -1.752  50.618 -25.900  1.00  0.00     0.052 C 
HETATM    5  C5  UNL     1      -2.771  49.576 -25.458  1.00  0.00     0.010 C 
HETATM    6  C6  UNL     1      -2.668  49.596 -23.932  1.00  0.00     0.002 C 
HETATM    7  C7  UNL     1      -3.871  49.012 -23.157  1.00  0.00    -0.004 C 
HETATM    8  C8  UNL     1      -5.273  49.371 -23.672  1.00  0.00     0.010 C 
HETATM    9  C9  UNL     1      -6.368  48.664 -22.872  1.00  0.00     0.035 C 
HETATM   10  C10 UNL     1      -6.230  48.786 -21.370  1.00  0.00    -0.069 C 
HETATM   11  C11 UNL     1      -7.335  48.943 -20.616  1.00  0.00     0.030 C 
HETATM   12  C12 UNL     1      -7.302  48.818 -19.126  1.00  0.00     0.032 C 
HETATM   13  N1  UNL     1      -8.340  48.790 -18.345  1.00  0.00    -0.271 N 
ATOM     14  H1  UNL     1      -8.289  48.633 -17.338  1.00  0.00     0.194 HD
HETATM   15  C30 UNL     1      -5.955  48.609 -18.456  1.00  0.00     0.060 C 
HETATM   16  C31 UNL     1      -4.810  49.141 -19.307  1.00  0.00     0.020 C 
HETATM   17  C32 UNL     1      -4.833  48.613 -20.776  1.00  0.00    -0.016 C 
HETATM   18  C33 UNL     1      -4.510  47.094 -20.745  1.00  0.00     0.020 C 
HETATM   19  C34 UNL     1      -3.751  49.362 -21.653  1.00  0.00     0.002 C 
HETATM   20  C35 UNL     1      -3.722  50.898 -21.438  1.00  0.00     0.007 C 
HETATM   21  C36 UNL     1      -3.224  51.738 -22.621  1.00  0.00     0.014 C 
HETATM   22  C37 UNL     1      -2.199  51.038 -23.535  1.00  0.00     0.003 C 
HETATM   23  C38 UNL     1      -0.863  50.908 -22.757  1.00  0.00     0.020 C 
ENDROOT
BRANCH   3  24
HETATM   24  O1  UNL     1      -3.210  52.412 -25.324  1.00  0.00    -0.377 OA
HETATM   25  H2  UNL     1      -2.995  52.939 -26.110  1.00  0.00     0.211 HD
ENDBRANCH   3  24
BRANCH  13  26
HETATM   26  O2  UNL     1      -9.536  49.000 -19.043  1.00  0.00    -0.271 OA
BRANCH  26  27
HETATM   27  C13 UNL     1     -10.232  47.774 -19.180  1.00  0.00     0.303 C 
BRANCH  27  28
HETATM   28  C14 UNL     1     -10.869  47.184 -17.916  1.00  0.00     0.244 C 
HETATM   29  O3  UNL     1     -10.599  47.516 -16.764  1.00  0.00    -0.271 OA
HETATM   30  N2  UNL     1     -11.827  46.211 -18.201  1.00  0.00    -0.346 N 
HETATM   31  H16 UNL     1     -12.266  46.286 -19.114  1.00  0.00     0.163 HD
BRANCH  30  32
HETATM   32  C15 UNL     1     -12.689  45.693 -17.138  1.00  0.00     0.180 C 
BRANCH  32  33
HETATM   33  C16 UNL     1     -13.909  46.637 -17.028  1.00  0.00     0.241 C 
HETATM   34  O4  UNL     1     -14.379  46.972 -15.945  1.00  0.00    -0.271 OA
HETATM   35  N3  UNL     1     -14.373  47.120 -18.233  1.00  0.00    -0.354 N 
HETATM   36  H18 UNL     1     -14.004  46.704 -19.085  1.00  0.00     0.162 HD
BRANCH  35  37
HETATM   37  C17 UNL     1     -15.528  48.019 -18.320  1.00  0.00     0.098 C 
BRANCH  37  38
HETATM   38  C18 UNL     1     -15.065  49.484 -18.450  1.00  0.00     0.135 C 
BRANCH  38  39
HETATM   39  C19 UNL     1     -14.090  49.681 -19.580  1.00  0.00     0.141 C 
HETATM   40  O5  UNL     1     -13.507  48.830 -20.223  1.00  0.00    -0.650 OA
BRANCH  39  41
HETATM   41  O6  UNL     1     -13.931  50.986 -19.883  1.00  0.00    -0.776 OA
HETATM   42  H22 UNL     1     -13.352  50.974 -20.673  1.00  0.00     0.167 HD
ENDBRANCH  39  41
ENDBRANCH  38  39
ENDBRANCH  37  38
BRANCH  37  43
HETATM   43  C20 UNL     1     -16.475  47.535 -19.457  1.00  0.00     0.014 C 
HETATM   44  C21 UNL     1     -17.979  47.695 -19.141  1.00  0.00     0.033 C 
HETATM   45  C22 UNL     1     -18.840  46.650 -19.848  1.00  0.00     0.169 C 
HETATM   46  O7  UNL     1     -18.327  46.385 -21.149  1.00  0.00    -0.381 OA
HETATM   47  C23 UNL     1     -17.044  45.731 -21.154  1.00  0.00     0.054 C 
HETATM   48  C24 UNL     1     -17.264  44.213 -21.221  1.00  0.00     0.045 C 
HETATM   49  C25 UNL     1     -16.348  46.190 -22.441  1.00  0.00     0.045 C 
HETATM   50  C26 UNL     1     -16.197  46.098 -19.915  1.00  0.00     0.044 C 
ENDBRANCH  37  43
ENDBRANCH  35  37
ENDBRANCH  32  33
BRANCH  32  51
HETATM   51  C27 UNL     1     -13.095  44.225 -17.403  1.00  0.00     0.009 C 
HETATM   52  C28 UNL     1     -14.381  43.841 -16.662  1.00  0.00     0.012 C 
HETATM   53  C29 UNL     1     -13.236  43.871 -18.893  1.00  0.00     0.012 C 
ENDBRANCH  32  51
ENDBRANCH  30  32
ENDBRANCH  27  28
ENDBRANCH  26  27
ENDBRANCH  13  26
TORSDOF 12
ENDMDL
MODEL 9
REMARK minimizedAffinity -10.0093403
REMARK CNNscore 0.171196118
REMARK CNNaffinity 6.72182655
REMARK  12 active torsions:
REMARK  status: ('A' for Active; 'I' for Inactive)
REMARK    1  A    between atoms: C3_3  and  O1_4 
REMARK    2  A    between atoms: N1_14  and  O2_16 
REMARK    3  A    between atoms: O2_16  and  C13_17 
REMARK    4  A    between atoms: C13_17  and  C14_18 
REMARK       I    between atoms: C14_18  and  N2_20 
REMARK    5  A    between atoms: N2_20  and  C15_21 
REMARK    6  A    between atoms: C15_21  and  C16_22 
REMARK    7  A    between atoms: C15_21  and  C27_38 
REMARK       I    between atoms: C16_22  and  N3_24 
REMARK    8  A    between atoms: N3_24  and  C17_25 
REMARK    9  A    between atoms: C17_25  and  C18_26 
REMARK   10  A    between atoms: C17_25  and  C20_30 
REMARK   11  A    between atoms: C18_26  and  C19_27 
REMARK   12  A    between atoms: C19_27  and  O6_29 
ROOT
HETATM    1  C1  UNL     1     -11.030  40.513 -32.864  1.00  0.00     0.015 C 
HETATM    2  C2  UNL     1     -10.674  41.660 -32.823  1.00  0.00    -0.078 C 
HETATM    3  C3  UNL     1     -10.245  43.067 -32.810  1.00  0.00     0.128 C 
HETATM    4  C4  UNL     1     -11.283  43.975 -33.478  1.00  0.00     0.052 C 
HETATM    5  C5  UNL     1     -10.819  45.366 -33.062  1.00  0.00     0.010 C 
HETATM    6  C6  UNL     1     -10.471  45.201 -31.581  1.00  0.00     0.002 C 
HETATM    7  C7  UNL     1      -9.541  46.276 -30.974  1.00  0.00    -0.004 C 
HETATM    8  C8  UNL     1      -8.348  46.729 -31.829  1.00  0.00     0.010 C 
HETATM    9  C9  UNL     1      -7.559  47.851 -31.151  1.00  0.00     0.035 C 
HETATM   10  C10 UNL     1      -7.197  47.582 -29.706  1.00  0.00    -0.069 C 
HETATM   11  C11 UNL     1      -5.995  47.976 -29.243  1.00  0.00     0.030 C 
HETATM   12  C12 UNL     1      -5.668  47.974 -27.783  1.00  0.00     0.032 C 
HETATM   13  N1  UNL     1      -4.604  48.488 -27.245  1.00  0.00    -0.271 N 
ATOM     14  H1  UNL     1      -4.442  48.534 -26.239  1.00  0.00     0.194 HD
HETATM   15  C30 UNL     1      -6.700  47.412 -26.822  1.00  0.00     0.060 C 
HETATM   16  C31 UNL     1      -7.629  46.417 -27.504  1.00  0.00     0.020 C 
HETATM   17  C32 UNL     1      -8.274  46.969 -28.814  1.00  0.00    -0.016 C 
HETATM   18  C33 UNL     1      -9.270  48.095 -28.420  1.00  0.00     0.020 C 
HETATM   19  C34 UNL     1      -9.053  45.824 -29.576  1.00  0.00     0.002 C 
HETATM   20  C35 UNL     1      -8.273  44.485 -29.663  1.00  0.00     0.007 C 
HETATM   21  C36 UNL     1      -8.608  43.583 -30.859  1.00  0.00     0.014 C 
HETATM   22  C37 UNL     1     -10.051  43.705 -31.385  1.00  0.00     0.003 C 
HETATM   23  C38 UNL     1     -11.006  43.074 -30.337  1.00  0.00     0.020 C 
ENDROOT
BRANCH   3  24
HETATM   24  O1  UNL     1      -9.044  43.167 -33.578  1.00  0.00    -0.377 OA
HETATM   25  H2  UNL     1      -9.186  42.654 -34.390  1.00  0.00     0.211 HD
ENDBRANCH   3  24
BRANCH  13  26
HETATM   26  O2  UNL     1      -3.704  48.972 -28.203  1.00  0.00    -0.271 OA
BRANCH  26  27
HETATM   27  C13 UNL     1      -3.431  50.340 -27.955  1.00  0.00     0.303 C 
BRANCH  27  28
HETATM   28  C14 UNL     1      -2.205  50.665 -27.093  1.00  0.00     0.244 C 
HETATM   29  O3  UNL     1      -1.592  49.858 -26.398  1.00  0.00    -0.271 OA
HETATM   30  N2  UNL     1      -1.826  52.005 -27.181  1.00  0.00    -0.346 N 
HETATM   31  H16 UNL     1      -2.099  52.479 -28.037  1.00  0.00     0.163 HD
BRANCH  30  32
HETATM   32  C15 UNL     1      -0.558  52.451 -26.602  1.00  0.00     0.180 C 
BRANCH  32  33
HETATM   33  C16 UNL     1      -0.759  52.566 -25.074  1.00  0.00     0.241 C 
HETATM   34  O4  UNL     1      -1.580  53.333 -24.580  1.00  0.00    -0.271 OA
HETATM   35  N3  UNL     1       0.004  51.694 -24.326  1.00  0.00    -0.354 N 
HETATM   36  H18 UNL     1       0.738  51.177 -24.803  1.00  0.00     0.162 HD
BRANCH  35  37
HETATM   37  C17 UNL     1      -0.050  51.670 -22.860  1.00  0.00     0.098 C 
BRANCH  37  38
HETATM   38  C18 UNL     1      -0.105  53.105 -22.299  1.00  0.00     0.135 C 
BRANCH  38  39
HETATM   39  C19 UNL     1       0.992  53.376 -21.303  1.00  0.00     0.141 C 
HETATM   40  O5  UNL     1       1.503  52.597 -20.522  1.00  0.00    -0.650 OA
BRANCH  39  41
HETATM   41  O6  UNL     1       1.436  54.647 -21.380  1.00  0.00    -0.776 OA
HETATM   42  H22 UNL     1       2.190  54.671 -20.756  1.00  0.00     0.167 HD
ENDBRANCH  39  41
ENDBRANCH  38  39
ENDBRANCH  37  38
BRANCH  37  43
HETATM   43  C20 UNL     1      -1.216  50.748 -22.401  1.00  0.00     0.014 C 
HETATM   44  C21 UNL     1      -2.493  51.507 -21.973  1.00  0.00     0.033 C 
HETATM   45  C22 UNL     1      -3.300  50.746 -20.921  1.00  0.00     0.169 C 
HETATM   46  O7  UNL     1      -3.257  49.347 -21.181  1.00  0.00    -0.381 OA
HETATM   47  C23 UNL     1      -1.957  48.756 -21.008  1.00  0.00     0.054 C 
HETATM   48  C24 UNL     1      -1.843  48.223 -19.573  1.00  0.00     0.045 C 
HETATM   49  C25 UNL     1      -1.905  47.573 -21.984  1.00  0.00     0.045 C 
HETATM   50  C26 UNL     1      -0.816  49.756 -21.303  1.00  0.00     0.044 C 
ENDBRANCH  37  43
ENDBRANCH  35  37
ENDBRANCH  32  33
BRANCH  32  51
HETATM   51  C27 UNL     1       0.602  51.500 -26.980  1.00  0.00     0.009 C 
HETATM   52  C28 UNL     1       0.924  51.555 -28.478  1.00  0.00     0.012 C 
HETATM   53  C29 UNL     1       1.889  51.726 -26.170  1.00  0.00     0.012 C 
ENDBRANCH  32  51
ENDBRANCH  30  32
ENDBRANCH  27  28
ENDBRANCH  26  27
ENDBRANCH  13  26
TORSDOF 12
ENDMDL
