MODEL 1
REMARK minimizedAffinity -10.7743044
REMARK  7 active torsions:
REMARK  status: ('A' for Active; 'I' for Inactive)
REMARK    1  A    between atoms: N1_2  and  C2_3 
REMARK    2  A    between atoms: C4_5  and  N4_34 
REMARK    3  A    between atoms: C5_7  and  N2_12 
REMARK    4  A    between atoms: C7_9  and  O2_10 
REMARK    5  A    between atoms: C18_24  and  O3_25 
REMARK    6  A    between atoms: C19_26  and  C20_27 
REMARK    7  A    between atoms: C27_35  and  C28_36 
ROOT
HETATM    1  C2  UNL     1      -3.579  49.145 -21.112  1.00  0.00     0.257 C 
HETATM    2  C3  UNL     1      -2.334  49.165 -22.008  1.00  0.00     0.092 C 
HETATM    3  C4  UNL     1      -2.605  48.569 -23.395  1.00  0.00     0.234 C 
HETATM    4  O1  UNL     1      -3.879  47.944 -23.530  1.00  0.00    -0.333 OA
HETATM    5  C5  UNL     1      -5.048  48.695 -23.113  1.00  0.00     0.168 C 
HETATM    6  C6  UNL     1      -5.941  47.535 -22.612  1.00  0.00     0.074 C 
HETATM    7  C7  UNL     1      -4.773  49.685 -21.931  1.00  0.00     0.209 C 
ENDROOT
BRANCH   1   8
HETATM    8  N1  UNL     1      -3.412  49.956 -19.889  1.00  0.00     0.086 N 
HETATM    9  C1  UNL     1      -4.183  51.190 -19.893  1.00  0.00     0.307 C 
HETATM   10  H4  UNL     1      -3.678  49.385 -19.082  1.00  0.00     0.316 HD
ENDBRANCH   1   8
BRANCH   7  11
HETATM   11  O2  UNL     1      -4.380  51.002 -22.383  1.00  0.00    -0.384 OA
HETATM   12  C8  UNL     1      -5.113  51.444 -23.518  1.00  0.00     0.202 C 
ENDBRANCH   7  11
BRANCH   3  13
HETATM   13  N4  UNL     1      -2.332  49.449 -24.527  1.00  0.00    -0.316 N 
HETATM   14  C26 UNL     1      -2.922  49.331 -25.777  1.00  0.00     0.048 A 
HETATM   15  C21 UNL     1      -2.515  50.441 -26.539  1.00  0.00     0.004 A 
HETATM   16  C25 UNL     1      -3.785  48.348 -26.293  1.00  0.00     0.030 A 
HETATM   17  C20 UNL     1      -1.656  51.237 -25.717  1.00  0.00     0.021 A 
HETATM   18  C22 UNL     1      -2.999  50.545 -27.861  1.00  0.00     0.014 A 
HETATM   19  C27 UNL     1      -1.563  50.570 -24.505  1.00  0.00     0.077 A 
HETATM   20  C23 UNL     1      -3.855  49.569 -28.382  1.00  0.00     0.001 A 
HETATM   21  C24 UNL     1      -4.242  48.485 -27.605  1.00  0.00     0.002 A 
BRANCH  17  22
HETATM   22  C19 UNL     1      -0.919  52.428 -25.778  1.00  0.00     0.037 A 
HETATM   23  C16 UNL     1      -0.300  53.069 -24.677  1.00  0.00    -0.012 A 
HETATM   24  C15 UNL     1      -0.364  52.547 -23.377  1.00  0.00     0.015 A 
HETATM   25  C17 UNL     1       0.397  54.297 -25.193  1.00  0.00     0.162 A 
HETATM   26  C14 UNL     1       0.166  52.868 -22.099  1.00  0.00     0.004 A 
HETATM   27  C28 UNL     1      -1.088  51.386 -23.216  1.00  0.00     0.077 A 
HETATM   28  C9  UNL     1      -0.230  51.857 -21.201  1.00  0.00     0.049 A 
HETATM   29  C13 UNL     1       0.993  53.918 -21.640  1.00  0.00     0.014 A 
HETATM   30  N2  UNL     1      -1.056  50.981 -21.905  1.00  0.00    -0.308 N 
HETATM   31  C10 UNL     1       0.238  51.871 -19.873  1.00  0.00     0.030 A 
HETATM   32  C11 UNL     1       1.058  52.923 -19.446  1.00  0.00     0.002 A 
HETATM   33  C12 UNL     1       1.425  53.939 -20.314  1.00  0.00     0.001 A 
HETATM   34  N3  UNL     1       0.142  54.343 -26.663  1.00  0.00    -0.366 N 
HETATM   35  C18 UNL     1      -0.579  53.290 -26.886  1.00  0.00     0.148 A 
ATOM     36  H3  UNL     1       0.461  55.041 -27.335  1.00  0.00     0.162 HD
BRANCH  35  37
HETATM   37  O3  UNL     1      -0.994  53.021 -28.117  1.00  0.00    -0.346 OA
HETATM   38  H22 UNL     1      -0.656  53.727 -28.691  1.00  0.00     0.219 HD
ENDBRANCH  35  37
ENDBRANCH  17  22
ENDBRANCH   3  13
TORSDOF 7
ENDMDL
MODEL 2
REMARK minimizedAffinity -10.2135315
REMARK  7 active torsions:
REMARK  status: ('A' for Active; 'I' for Inactive)
REMARK    1  A    between atoms: N1_2  and  C2_3 
REMARK    2  A    between atoms: C4_5  and  N4_34 
REMARK    3  A    between atoms: C5_7  and  N2_12 
REMARK    4  A    between atoms: C7_9  and  O2_10 
REMARK    5  A    between atoms: C18_24  and  O3_25 
REMARK    6  A    between atoms: C19_26  and  C20_27 
REMARK    7  A    between atoms: C27_35  and  C28_36 
ROOT
HETATM    1  C2  UNL     1      -2.865  51.872 -26.891  1.00  0.00     0.257 C 
HETATM    2  C3  UNL     1      -3.096  52.267 -25.427  1.00  0.00     0.092 C 
HETATM    3  C4  UNL     1      -3.342  51.048 -24.529  1.00  0.00     0.234 C 
HETATM    4  O1  UNL     1      -3.501  49.819 -25.231  1.00  0.00    -0.333 OA
HETATM    5  C5  UNL     1      -2.497  49.470 -26.218  1.00  0.00     0.168 C 
HETATM    6  C6  UNL     1      -3.379  48.703 -27.232  1.00  0.00     0.074 C 
HETATM    7  C7  UNL     1      -1.850  50.708 -26.925  1.00  0.00     0.209 C 
ENDROOT
BRANCH   1   8
HETATM    8  N1  UNL     1      -2.357  52.993 -27.709  1.00  0.00     0.086 N 
HETATM    9  C1  UNL     1      -1.011  53.416 -27.354  1.00  0.00     0.307 C 
HETATM   10  H4  UNL     1      -2.385  52.715 -28.694  1.00  0.00     0.316 HD
ENDBRANCH   1   8
BRANCH   7  11
HETATM   11  O2  UNL     1      -0.670  51.191 -26.240  1.00  0.00    -0.384 OA
HETATM   12  C8  UNL     1       0.500  50.447 -26.551  1.00  0.00     0.202 C 
ENDBRANCH   7  11
BRANCH   3  13
HETATM   13  N4  UNL     1      -2.423  50.893 -23.405  1.00  0.00    -0.316 N 
HETATM   14  C26 UNL     1      -2.160  49.693 -22.763  1.00  0.00     0.048 A 
HETATM   15  C21 UNL     1      -1.123  49.928 -21.842  1.00  0.00     0.004 A 
HETATM   16  C25 UNL     1      -2.740  48.421 -22.923  1.00  0.00     0.030 A 
HETATM   17  C20 UNL     1      -0.766  51.310 -21.940  1.00  0.00     0.021 A 
HETATM   18  C22 UNL     1      -0.673  48.839 -21.065  1.00  0.00     0.014 A 
HETATM   19  C27 UNL     1      -1.609  51.856 -22.896  1.00  0.00     0.077 A 
HETATM   20  C23 UNL     1      -1.247  47.573 -21.217  1.00  0.00     0.001 A 
HETATM   21  C24 UNL     1      -2.268  47.369 -22.136  1.00  0.00     0.002 A 
BRANCH  17  22
HETATM   22  C19 UNL     1       0.137  52.224 -21.378  1.00  0.00     0.037 A 
HETATM   23  C16 UNL     1       0.384  52.390 -19.993  1.00  0.00    -0.012 A 
HETATM   24  C15 UNL     1      -0.271  51.620 -19.021  1.00  0.00     0.015 A 
HETATM   25  C17 UNL     1       1.435  53.454 -19.838  1.00  0.00     0.162 A 
HETATM   26  C14 UNL     1      -0.231  51.473 -17.608  1.00  0.00     0.004 A 
HETATM   27  C28 UNL     1      -1.197  50.709 -19.480  1.00  0.00     0.077 A 
HETATM   28  C9  UNL     1      -1.118  50.436 -17.258  1.00  0.00     0.049 A 
HETATM   29  C13 UNL     1       0.526  52.108 -16.599  1.00  0.00     0.014 A 
HETATM   30  N2  UNL     1      -1.749  50.019 -18.430  1.00  0.00    -0.308 N 
HETATM   31  C10 UNL     1      -1.208  50.008 -15.919  1.00  0.00     0.030 A 
HETATM   32  C11 UNL     1      -0.445  50.656 -14.940  1.00  0.00     0.002 A 
HETATM   33  C12 UNL     1       0.406  51.699 -15.272  1.00  0.00     0.001 A 
HETATM   34  N3  UNL     1       1.782  53.910 -21.216  1.00  0.00    -0.366 N 
HETATM   35  C18 UNL     1       1.029  53.186 -21.981  1.00  0.00     0.148 A 
ATOM     36  H3  UNL     1       2.457  54.625 -21.490  1.00  0.00     0.162 HD
BRANCH  35  37
HETATM   37  O3  UNL     1       1.083  53.339 -23.298  1.00  0.00    -0.346 OA
HETATM   38  H22 UNL     1       1.738  54.033 -23.477  1.00  0.00     0.219 HD
ENDBRANCH  35  37
ENDBRANCH  17  22
ENDBRANCH   3  13
TORSDOF 7
ENDMDL
MODEL 3
REMARK minimizedAffinity -10.0309925
REMARK  7 active torsions:
REMARK  status: ('A' for Active; 'I' for Inactive)
REMARK    1  A    between atoms: N1_2  and  C2_3 
REMARK    2  A    between atoms: C4_5  and  N4_34 
REMARK    3  A    between atoms: C5_7  and  N2_12 
REMARK    4  A    between atoms: C7_9  and  O2_10 
REMARK    5  A    between atoms: C18_24  and  O3_25 
REMARK    6  A    between atoms: C19_26  and  C20_27 
REMARK    7  A    between atoms: C27_35  and  C28_36 
ROOT
HETATM    1  C2  UNL     1      -5.305  49.550 -24.129  1.00  0.00     0.257 C 
HETATM    2  C3  UNL     1      -4.446  50.617 -24.820  1.00  0.00     0.092 C 
HETATM    3  C4  UNL     1      -3.889  51.647 -23.829  1.00  0.00     0.234 C 
HETATM    4  O1  UNL     1      -4.416  51.540 -22.509  1.00  0.00    -0.333 OA
HETATM    5  C5  UNL     1      -4.399  50.235 -21.877  1.00  0.00     0.168 C 
HETATM    6  C6  UNL     1      -5.684  50.339 -21.022  1.00  0.00     0.074 C 
HETATM    7  C7  UNL     1      -4.541  49.045 -22.885  1.00  0.00     0.209 C 
ENDROOT
BRANCH   1   8
HETATM    8  N1  UNL     1      -5.615  48.409 -25.015  1.00  0.00     0.086 N 
HETATM    9  C1  UNL     1      -4.835  48.390 -26.243  1.00  0.00     0.307 C 
HETATM   10  H4  UNL     1      -5.461  47.542 -24.493  1.00  0.00     0.316 HD
ENDBRANCH   1   8
BRANCH   7  11
HETATM   11  O2  UNL     1      -3.264  48.566 -23.370  1.00  0.00    -0.384 OA
HETATM   12  C8  UNL     1      -2.578  47.753 -22.428  1.00  0.00     0.202 C 
ENDBRANCH   7  11
BRANCH   3  13
HETATM   13  N4  UNL     1      -2.436  51.779 -23.802  1.00  0.00    -0.316 N 
HETATM   14  C26 UNL     1      -1.585  51.322 -24.798  1.00  0.00     0.048 A 
HETATM   15  C21 UNL     1      -0.289  51.765 -24.478  1.00  0.00     0.004 A 
HETATM   16  C25 UNL     1      -1.851  50.568 -25.955  1.00  0.00     0.030 A 
HETATM   17  C20 UNL     1      -0.375  52.501 -23.254  1.00  0.00     0.021 A 
HETATM   18  C22 UNL     1       0.759  51.424 -25.360  1.00  0.00     0.014 A 
HETATM   19  C27 UNL     1      -1.708  52.459 -22.876  1.00  0.00     0.077 A 
HETATM   20  C23 UNL     1       0.502  50.671 -26.510  1.00  0.00     0.001 A 
HETATM   21  C24 UNL     1      -0.788  50.250 -26.802  1.00  0.00     0.002 A 
BRANCH  17  22
HETATM   22  C19 UNL     1       0.452  53.212 -22.374  1.00  0.00     0.037 A 
HETATM   23  C16 UNL     1       0.650  52.906 -21.005  1.00  0.00    -0.012 A 
HETATM   24  C15 UNL     1       0.020  51.818 -20.384  1.00  0.00     0.015 A 
HETATM   25  C17 UNL     1       1.626  53.906 -20.447  1.00  0.00     0.162 A 
HETATM   26  C14 UNL     1       0.032  51.198 -19.106  1.00  0.00     0.004 A 
HETATM   27  C28 UNL     1      -0.832  51.072 -21.170  1.00  0.00     0.077 A 
HETATM   28  C9  UNL     1      -0.795  50.059 -19.172  1.00  0.00     0.049 A 
HETATM   29  C13 UNL     1       0.719  51.487 -17.907  1.00  0.00     0.014 A 
HETATM   30  N2  UNL     1      -1.367  50.037 -20.444  1.00  0.00    -0.308 N 
HETATM   31  C10 UNL     1      -0.894  49.195 -18.064  1.00  0.00     0.030 A 
HETATM   32  C11 UNL     1      -0.200  49.506 -16.889  1.00  0.00     0.002 A 
HETATM   33  C12 UNL     1       0.590  50.642 -16.805  1.00  0.00     0.001 A 
HETATM   34  N3  UNL     1       1.980  54.823 -21.569  1.00  0.00    -0.366 N 
HETATM   35  C18 UNL     1       1.295  54.368 -22.570  1.00  0.00     0.148 A 
ATOM     36  H3  UNL     1       2.614  55.623 -21.552  1.00  0.00     0.162 HD
BRANCH  35  37
HETATM   37  O3  UNL     1       1.375  54.965 -23.753  1.00  0.00    -0.346 OA
HETATM   38  H22 UNL     1       1.989  55.711 -23.653  1.00  0.00     0.219 HD
ENDBRANCH  35  37
ENDBRANCH  17  22
ENDBRANCH   3  13
TORSDOF 7
ENDMDL
MODEL 4
REMARK minimizedAffinity -9.93378067
REMARK  7 active torsions:
REMARK  status: ('A' for Active; 'I' for Inactive)
REMARK    1  A    between atoms: N1_2  and  C2_3 
REMARK    2  A    between atoms: C4_5  and  N4_34 
REMARK    3  A    between atoms: C5_7  and  N2_12 
REMARK    4  A    between atoms: C7_9  and  O2_10 
REMARK    5  A    between atoms: C18_24  and  O3_25 
REMARK    6  A    between atoms: C19_26  and  C20_27 
REMARK    7  A    between atoms: C27_35  and  C28_36 
ROOT
HETATM    1  C2  UNL     1      -5.428  49.682 -23.540  1.00  0.00     0.257 C 
HETATM    2  C3  UNL     1      -4.797  50.954 -22.960  1.00  0.00     0.092 C 
HETATM    3  C4  UNL     1      -4.693  50.906 -21.430  1.00  0.00     0.234 C 
HETATM    4  O1  UNL     1      -5.361  49.800 -20.828  1.00  0.00    -0.333 OA
HETATM    5  C5  UNL     1      -5.085  48.477 -21.351  1.00  0.00     0.168 C 
HETATM    6  C6  UNL     1      -6.462  47.810 -21.122  1.00  0.00     0.074 C 
HETATM    7  C7  UNL     1      -4.749  48.461 -22.881  1.00  0.00     0.209 C 
ENDROOT
BRANCH   1   8
HETATM    8  N1  UNL     1      -5.284  49.594 -25.008  1.00  0.00     0.086 N 
HETATM    9  C1  UNL     1      -4.653  48.365 -25.463  1.00  0.00     0.307 C 
HETATM   10  H4  UNL     1      -6.211  49.685 -25.432  1.00  0.00     0.316 HD
ENDBRANCH   1   8
BRANCH   7  11
HETATM   11  O2  UNL     1      -3.333  48.603 -23.145  1.00  0.00    -0.384 OA
HETATM   12  C8  UNL     1      -2.531  47.704 -22.392  1.00  0.00     0.202 C 
ENDBRANCH   7  11
BRANCH   3  13
HETATM   13  N4  UNL     1      -3.350  51.067 -20.881  1.00  0.00    -0.316 N 
HETATM   14  C26 UNL     1      -2.765  50.205 -19.966  1.00  0.00     0.048 A 
HETATM   15  C21 UNL     1      -1.430  50.616 -19.799  1.00  0.00     0.004 A 
HETATM   16  C25 UNL     1      -3.295  49.096 -19.283  1.00  0.00     0.030 A 
HETATM   17  C20 UNL     1      -1.221  51.757 -20.636  1.00  0.00     0.021 A 
HETATM   18  C22 UNL     1      -0.621  49.877 -18.909  1.00  0.00     0.014 A 
HETATM   19  C27 UNL     1      -2.436  52.001 -21.258  1.00  0.00     0.077 A 
HETATM   20  C23 UNL     1      -1.143  48.775 -18.224  1.00  0.00     0.001 A 
HETATM   21  C24 UNL     1      -2.464  48.391 -18.411  1.00  0.00     0.002 A 
BRANCH  17  22
HETATM   22  C19 UNL     1      -0.202  52.653 -20.989  1.00  0.00     0.037 A 
HETATM   23  C16 UNL     1       0.367  52.782 -22.280  1.00  0.00    -0.012 A 
HETATM   24  C15 UNL     1      -0.058  52.002 -23.365  1.00  0.00     0.015 A 
HETATM   25  C17 UNL     1       1.405  53.869 -22.218  1.00  0.00     0.162 A 
HETATM   26  C14 UNL     1       0.225  51.907 -24.754  1.00  0.00     0.004 A 
HETATM   27  C28 UNL     1      -1.044  51.075 -23.106  1.00  0.00     0.077 A 
HETATM   28  C9  UNL     1      -0.637  50.939 -25.305  1.00  0.00     0.049 A 
HETATM   29  C13 UNL     1       1.118  52.603 -25.600  1.00  0.00     0.014 A 
HETATM   30  N2  UNL     1      -1.373  50.395 -24.252  1.00  0.00    -0.308 N 
HETATM   31  C10 UNL     1      -0.639  50.706 -26.694  1.00  0.00     0.030 A 
HETATM   32  C11 UNL     1       0.255  51.411 -27.509  1.00  0.00     0.002 A 
HETATM   33  C12 UNL     1       1.130  52.342 -26.970  1.00  0.00     0.001 A 
HETATM   34  N3  UNL     1       1.416  54.363 -20.809  1.00  0.00    -0.366 N 
HETATM   35  C18 UNL     1       0.513  53.644 -20.221  1.00  0.00     0.148 A 
ATOM     36  H3  UNL     1       2.000  55.096 -20.405  1.00  0.00     0.162 HD
BRANCH  35  37
HETATM   37  O3  UNL     1       0.261  53.825 -18.931  1.00  0.00    -0.346 OA
HETATM   38  H22 UNL     1       0.854  54.529 -18.622  1.00  0.00     0.219 HD
ENDBRANCH  35  37
ENDBRANCH  17  22
ENDBRANCH   3  13
TORSDOF 7
ENDMDL
MODEL 5
REMARK minimizedAffinity -9.87572956
REMARK  7 active torsions:
REMARK  status: ('A' for Active; 'I' for Inactive)
REMARK    1  A    between atoms: N1_2  and  C2_3 
REMARK    2  A    between atoms: C4_5  and  N4_34 
REMARK    3  A    between atoms: C5_7  and  N2_12 
REMARK    4  A    between atoms: C7_9  and  O2_10 
REMARK    5  A    between atoms: C18_24  and  O3_25 
REMARK    6  A    between atoms: C19_26  and  C20_27 
REMARK    7  A    between atoms: C27_35  and  C28_36 
ROOT
HETATM    1  C2  UNL     1      -4.018  47.650 -20.841  1.00  0.00     0.257 C 
HETATM    2  C3  UNL     1      -2.509  47.817 -20.622  1.00  0.00     0.092 C 
HETATM    3  C4  UNL     1      -1.872  48.753 -21.656  1.00  0.00     0.234 C 
HETATM    4  O1  UNL     1      -2.738  49.134 -22.722  1.00  0.00    -0.333 OA
HETATM    5  C5  UNL     1      -4.048  49.652 -22.376  1.00  0.00     0.168 C 
HETATM    6  C6  UNL     1      -4.864  49.131 -23.582  1.00  0.00     0.074 C 
HETATM    7  C7  UNL     1      -4.635  49.051 -21.054  1.00  0.00     0.209 C 
ENDROOT
BRANCH   1   8
HETATM    8  N1  UNL     1      -4.688  46.983 -19.705  1.00  0.00     0.086 N 
HETATM    9  C1  UNL     1      -5.270  45.693 -20.042  1.00  0.00     0.307 C 
HETATM   10  H4  UNL     1      -4.008  46.870 -18.949  1.00  0.00     0.316 HD
ENDBRANCH   1   8
BRANCH   7  11
HETATM   11  O2  UNL     1      -4.280  49.822 -19.882  1.00  0.00    -0.384 OA
HETATM   12  C8  UNL     1      -4.250  51.222 -20.123  1.00  0.00     0.202 C 
ENDBRANCH   7  11
BRANCH   3  13
HETATM   13  N4  UNL     1      -1.170  49.913 -21.113  1.00  0.00    -0.316 N 
HETATM   14  C26 UNL     1      -0.780  50.048 -19.789  1.00  0.00     0.048 A 
HETATM   15  C21 UNL     1      -0.012  51.223 -19.697  1.00  0.00     0.004 A 
HETATM   16  C25 UNL     1      -1.028  49.230 -18.672  1.00  0.00     0.030 A 
HETATM   17  C20 UNL     1       0.049  51.802 -21.003  1.00  0.00     0.021 A 
HETATM   18  C22 UNL     1       0.509  51.571 -18.432  1.00  0.00     0.014 A 
HETATM   19  C27 UNL     1      -0.695  50.970 -21.825  1.00  0.00     0.077 A 
HETATM   20  C23 UNL     1       0.262  50.764 -17.317  1.00  0.00     0.001 A 
HETATM   21  C24 UNL     1      -0.497  49.608 -17.438  1.00  0.00     0.002 A 
BRANCH  17  22
HETATM   22  C19 UNL     1       0.610  52.908 -21.658  1.00  0.00     0.037 A 
HETATM   23  C16 UNL     1       0.611  53.120 -23.059  1.00  0.00    -0.012 A 
HETATM   24  C15 UNL     1       0.021  52.213 -23.952  1.00  0.00     0.015 A 
HETATM   25  C17 UNL     1       1.294  54.433 -23.324  1.00  0.00     0.162 A 
HETATM   26  C14 UNL     1      -0.214  52.132 -25.350  1.00  0.00     0.004 A 
HETATM   27  C28 UNL     1      -0.537  51.081 -23.398  1.00  0.00     0.077 A 
HETATM   28  C9  UNL     1      -0.951  50.957 -25.596  1.00  0.00     0.049 A 
HETATM   29  C13 UNL     1       0.100  52.992 -26.426  1.00  0.00     0.014 A 
HETATM   30  N2  UNL     1      -1.086  50.292 -24.378  1.00  0.00    -0.308 N 
HETATM   31  C10 UNL     1      -1.409  50.671 -26.897  1.00  0.00     0.030 A 
HETATM   32  C11 UNL     1      -1.083  51.542 -27.944  1.00  0.00     0.002 A 
HETATM   33  C12 UNL     1      -0.331  52.683 -27.716  1.00  0.00     0.001 A 
HETATM   34  N3  UNL     1       1.703  54.974 -21.995  1.00  0.00    -0.366 N 
HETATM   35  C18 UNL     1       1.289  54.078 -21.155  1.00  0.00     0.148 A 
ATOM     36  H3  UNL     1       2.194  55.846 -21.795  1.00  0.00     0.162 HD
BRANCH  35  37
HETATM   37  O3  UNL     1       1.495  54.246 -19.855  1.00  0.00    -0.346 OA
HETATM   38  H22 UNL     1       1.967  55.088 -19.748  1.00  0.00     0.219 HD
ENDBRANCH  35  37
ENDBRANCH  17  22
ENDBRANCH   3  13
TORSDOF 7
ENDMDL
MODEL 6
REMARK minimizedAffinity -9.83904457
REMARK  7 active torsions:
REMARK  status: ('A' for Active; 'I' for Inactive)
REMARK    1  A    between atoms: N1_2  and  C2_3 
REMARK    2  A    between atoms: C4_5  and  N4_34 
REMARK    3  A    between atoms: C5_7  and  N2_12 
REMARK    4  A    between atoms: C7_9  and  O2_10 
REMARK    5  A    between atoms: C18_24  and  O3_25 
REMARK    6  A    between atoms: C19_26  and  C20_27 
REMARK    7  A    between atoms: C27_35  and  C28_36 
ROOT
HETATM    1  C2  UNL     1      -5.270  50.036 -22.636  1.00  0.00     0.257 C 
HETATM    2  C3  UNL     1      -3.847  50.029 -22.063  1.00  0.00     0.092 C 
HETATM    3  C4  UNL     1      -2.824  49.457 -23.053  1.00  0.00     0.234 C 
HETATM    4  O1  UNL     1      -3.396  48.873 -24.221  1.00  0.00    -0.333 OA
HETATM    5  C5  UNL     1      -4.369  49.654 -24.960  1.00  0.00     0.168 C 
HETATM    6  C6  UNL     1      -5.277  48.516 -25.483  1.00  0.00     0.074 C 
HETATM    7  C7  UNL     1      -5.213  50.622 -24.065  1.00  0.00     0.209 C 
ENDROOT
BRANCH   1   8
HETATM    8  N1  UNL     1      -6.209  50.828 -21.815  1.00  0.00     0.086 N 
HETATM    9  C1  UNL     1      -6.752  50.100 -20.678  1.00  0.00     0.307 C 
HETATM   10  H4  UNL     1      -5.726  51.669 -21.489  1.00  0.00     0.316 HD
ENDBRANCH   1   8
BRANCH   7  11
HETATM   11  O2  UNL     1      -4.611  51.931 -23.933  1.00  0.00    -0.384 OA
HETATM   12  C8  UNL     1      -5.013  52.614 -22.753  1.00  0.00     0.202 C 
ENDBRANCH   7  11
BRANCH   3  13
HETATM   13  N4  UNL     1      -1.716  50.341 -23.401  1.00  0.00    -0.316 N 
HETATM   14  C26 UNL     1      -1.183  50.473 -24.674  1.00  0.00     0.048 A 
HETATM   15  C21 UNL     1      -0.241  51.516 -24.628  1.00  0.00     0.004 A 
HETATM   16  C25 UNL     1      -1.460  49.771 -25.861  1.00  0.00     0.030 A 
HETATM   17  C20 UNL     1      -0.212  52.013 -23.286  1.00  0.00     0.021 A 
HETATM   18  C22 UNL     1       0.436  51.845 -25.823  1.00  0.00     0.014 A 
HETATM   19  C27 UNL     1      -1.119  51.242 -22.575  1.00  0.00     0.077 A 
HETATM   20  C23 UNL     1       0.168  51.148 -27.005  1.00  0.00     0.001 A 
HETATM   21  C24 UNL     1      -0.769  50.124 -27.021  1.00  0.00     0.002 A 
BRANCH  17  22
HETATM   22  C19 UNL     1       0.433  52.996 -22.523  1.00  0.00     0.037 A 
HETATM   23  C16 UNL     1       0.626  52.952 -21.120  1.00  0.00    -0.012 A 
HETATM   24  C15 UNL     1       0.181  51.876 -20.339  1.00  0.00     0.015 A 
HETATM   25  C17 UNL     1       1.378  54.192 -20.721  1.00  0.00     0.162 A 
HETATM   26  C14 UNL     1       0.253  51.478 -18.977  1.00  0.00     0.004 A 
HETATM   27  C28 UNL     1      -0.486  50.869 -21.003  1.00  0.00     0.077 A 
HETATM   28  C9  UNL     1      -0.348  50.208 -18.867  1.00  0.00     0.049 A 
HETATM   29  C13 UNL     1       0.825  52.076 -17.833  1.00  0.00     0.014 A 
HETATM   30  N2  UNL     1      -0.852  49.879 -20.125  1.00  0.00    -0.308 N 
HETATM   31  C10 UNL     1      -0.332  49.526 -17.635  1.00  0.00     0.030 A 
HETATM   32  C11 UNL     1       0.243  50.143 -16.517  1.00  0.00     0.002 A 
HETATM   33  C12 UNL     1       0.807  51.406 -16.610  1.00  0.00     0.001 A 
HETATM   34  N3  UNL     1       1.604  54.972 -21.974  1.00  0.00    -0.366 N 
HETATM   35  C18 UNL     1       1.057  54.244 -22.895  1.00  0.00     0.148 A 
ATOM     36  H3  UNL     1       2.079  55.868 -22.079  1.00  0.00     0.162 HD
BRANCH  35  37
HETATM   37  O3  UNL     1       1.076  54.652 -24.158  1.00  0.00    -0.346 OA
HETATM   38  H22 UNL     1       1.537  55.506 -24.174  1.00  0.00     0.219 HD
ENDBRANCH  35  37
ENDBRANCH  17  22
ENDBRANCH   3  13
TORSDOF 7
ENDMDL
MODEL 7
REMARK minimizedAffinity -9.60278606
REMARK  7 active torsions:
REMARK  status: ('A' for Active; 'I' for Inactive)
REMARK    1  A    between atoms: N1_2  and  C2_3 
REMARK    2  A    between atoms: C4_5  and  N4_34 
REMARK    3  A    between atoms: C5_7  and  N2_12 
REMARK    4  A    between atoms: C7_9  and  O2_10 
REMARK    5  A    between atoms: C18_24  and  O3_25 
REMARK    6  A    between atoms: C19_26  and  C20_27 
REMARK    7  A    between atoms: C27_35  and  C28_36 
ROOT
HETATM    1  C2  UNL     1      -8.387  48.783 -24.414  1.00  0.00     0.257 C 
HETATM    2  C3  UNL     1      -7.404  49.606 -23.571  1.00  0.00     0.092 C 
HETATM    3  C4  UNL     1      -6.635  48.740 -22.565  1.00  0.00     0.234 C 
HETATM    4  O1  UNL     1      -7.101  47.397 -22.465  1.00  0.00    -0.333 OA
HETATM    5  C5  UNL     1      -7.262  46.644 -23.693  1.00  0.00     0.168 C 
HETATM    6  C6  UNL     1      -8.465  45.754 -23.301  1.00  0.00     0.074 C 
HETATM    7  C7  UNL     1      -7.650  47.526 -24.928  1.00  0.00     0.209 C 
ENDROOT
BRANCH   1   8
HETATM    8  N1  UNL     1      -8.925  49.543 -25.561  1.00  0.00     0.086 N 
HETATM    9  C1  UNL     1      -9.927  48.817 -26.327  1.00  0.00     0.307 C 
HETATM   10  H4  UNL     1      -9.324  50.419 -25.213  1.00  0.00     0.316 HD
ENDBRANCH   1   8
BRANCH   7  11
HETATM   11  O2  UNL     1      -6.496  48.012 -25.654  1.00  0.00    -0.384 OA
HETATM   12  C8  UNL     1      -6.440  47.542 -26.994  1.00  0.00     0.202 C 
ENDBRANCH   7  11
BRANCH   3  13
HETATM   13  N4  UNL     1      -5.180  48.782 -22.675  1.00  0.00    -0.316 N 
HETATM   14  C26 UNL     1      -4.311  48.015 -21.914  1.00  0.00     0.048 A 
HETATM   15  C21 UNL     1      -3.014  48.232 -22.413  1.00  0.00     0.004 A 
HETATM   16  C25 UNL     1      -4.559  47.143 -20.839  1.00  0.00     0.030 A 
HETATM   17  C20 UNL     1      -3.119  49.158 -23.499  1.00  0.00     0.021 A 
HETATM   18  C22 UNL     1      -1.947  47.544 -21.796  1.00  0.00     0.014 A 
HETATM   19  C27 UNL     1      -4.465  49.477 -23.599  1.00  0.00     0.077 A 
HETATM   20  C23 UNL     1      -2.187  46.679 -20.724  1.00  0.00     0.001 A 
HETATM   21  C24 UNL     1      -3.478  46.481 -20.254  1.00  0.00     0.002 A 
BRANCH  17  22
HETATM   22  C19 UNL     1      -2.302  49.805 -24.437  1.00  0.00     0.037 A 
HETATM   23  C16 UNL     1      -1.383  50.844 -24.149  1.00  0.00    -0.012 A 
HETATM   24  C15 UNL     1      -1.194  51.334 -22.849  1.00  0.00     0.015 A 
HETATM   25  C17 UNL     1      -0.706  51.228 -25.436  1.00  0.00     0.162 A 
HETATM   26  C14 UNL     1      -0.352  52.280 -22.204  1.00  0.00     0.004 A 
HETATM   27  C28 UNL     1      -1.974  50.772 -21.861  1.00  0.00     0.077 A 
HETATM   28  C9  UNL     1      -0.627  52.231 -20.823  1.00  0.00     0.049 A 
HETATM   29  C13 UNL     1       0.659  53.144 -22.680  1.00  0.00     0.014 A 
HETATM   30  N2  UNL     1      -1.678  51.332 -20.643  1.00  0.00    -0.308 N 
HETATM   31  C10 UNL     1       0.135  53.003 -19.925  1.00  0.00     0.030 A 
HETATM   32  C11 UNL     1       1.132  53.849 -20.425  1.00  0.00     0.002 A 
HETATM   33  C12 UNL     1       1.387  53.927 -21.786  1.00  0.00     0.001 A 
HETATM   34  N3  UNL     1      -1.291  50.358 -26.498  1.00  0.00    -0.366 N 
HETATM   35  C18 UNL     1      -2.145  49.621 -25.861  1.00  0.00     0.148 A 
ATOM     36  H3  UNL     1      -1.069  50.346 -27.494  1.00  0.00     0.162 HD
BRANCH  35  37
HETATM   37  O3  UNL     1      -2.859  48.718 -26.519  1.00  0.00    -0.346 OA
HETATM   38  H22 UNL     1      -2.595  48.771 -27.452  1.00  0.00     0.219 HD
ENDBRANCH  35  37
ENDBRANCH  17  22
ENDBRANCH   3  13
TORSDOF 7
ENDMDL
MODEL 8
REMARK minimizedAffinity -9.5813303
REMARK  7 active torsions:
REMARK  status: ('A' for Active; 'I' for Inactive)
REMARK    1  A    between atoms: N1_2  and  C2_3 
REMARK    2  A    between atoms: C4_5  and  N4_34 
REMARK    3  A    between atoms: C5_7  and  N2_12 
REMARK    4  A    between atoms: C7_9  and  O2_10 
REMARK    5  A    between atoms: C18_24  and  O3_25 
REMARK    6  A    between atoms: C19_26  and  C20_27 
REMARK    7  A    between atoms: C27_35  and  C28_36 
ROOT
HETATM    1  C2  UNL     1      -6.519  48.803 -21.990  1.00  0.00     0.257 C 
HETATM    2  C3  UNL     1      -6.438  49.592 -23.303  1.00  0.00     0.092 C 
HETATM    3  C4  UNL     1      -5.503  50.803 -23.196  1.00  0.00     0.234 C 
HETATM    4  O1  UNL     1      -5.043  51.080 -21.876  1.00  0.00    -0.333 OA
HETATM    5  C5  UNL     1      -4.470  49.985 -21.117  1.00  0.00     0.168 C 
HETATM    6  C6  UNL     1      -4.907  50.396 -19.691  1.00  0.00     0.074 C 
HETATM    7  C7  UNL     1      -5.082  48.587 -21.465  1.00  0.00     0.209 C 
ENDROOT
BRANCH   1   8
HETATM    8  N1  UNL     1      -7.187  47.495 -22.153  1.00  0.00     0.086 N 
HETATM    9  C1  UNL     1      -8.422  47.558 -22.920  1.00  0.00     0.307 C 
HETATM   10  H4  UNL     1      -6.533  46.850 -22.603  1.00  0.00     0.316 HD
ENDBRANCH   1   8
BRANCH   7  11
HETATM   11  O2  UNL     1      -4.369  47.912 -22.529  1.00  0.00    -0.384 OA
HETATM   12  C8  UNL     1      -2.959  47.924 -22.351  1.00  0.00     0.202 C 
ENDBRANCH   7  11
BRANCH   3  13
HETATM   13  N4  UNL     1      -4.400  50.838 -24.152  1.00  0.00    -0.316 N 
HETATM   14  C26 UNL     1      -4.209  49.913 -25.168  1.00  0.00     0.048 A 
HETATM   15  C21 UNL     1      -3.135  50.368 -25.953  1.00  0.00     0.004 A 
HETATM   16  C25 UNL     1      -4.898  48.723 -25.465  1.00  0.00     0.030 A 
HETATM   17  C20 UNL     1      -2.674  51.597 -25.382  1.00  0.00     0.021 A 
HETATM   18  C22 UNL     1      -2.755  49.586 -27.065  1.00  0.00     0.014 A 
HETATM   19  C27 UNL     1      -3.471  51.823 -24.270  1.00  0.00     0.077 A 
HETATM   20  C23 UNL     1      -3.433  48.401 -27.364  1.00  0.00     0.001 A 
HETATM   21  C24 UNL     1      -4.492  47.977 -26.572  1.00  0.00     0.002 A 
BRANCH  17  22
HETATM   22  C19 UNL     1      -1.703  52.582 -25.607  1.00  0.00     0.037 A 
HETATM   23  C16 UNL     1      -0.788  53.070 -24.640  1.00  0.00    -0.012 A 
HETATM   24  C15 UNL     1      -0.765  52.587 -23.324  1.00  0.00     0.015 A 
HETATM   25  C17 UNL     1       0.082  54.097 -25.309  1.00  0.00     0.162 A 
HETATM   26  C14 UNL     1       0.018  52.785 -22.156  1.00  0.00     0.004 A 
HETATM   27  C28 UNL     1      -1.702  51.628 -23.005  1.00  0.00     0.077 A 
HETATM   28  C9  UNL     1      -0.453  51.901 -21.165  1.00  0.00     0.049 A 
HETATM   29  C13 UNL     1       1.125  53.616 -21.874  1.00  0.00     0.014 A 
HETATM   30  N2  UNL     1      -1.559  51.237 -21.697  1.00  0.00    -0.308 N 
HETATM   31  C10 UNL     1       0.207  51.815 -19.925  1.00  0.00     0.030 A 
HETATM   32  C11 UNL     1       1.303  52.650 -19.673  1.00  0.00     0.002 A 
HETATM   33  C12 UNL     1       1.753  53.546 -20.630  1.00  0.00     0.001 A 
HETATM   34  N3  UNL     1      -0.383  54.190 -26.725  1.00  0.00    -0.366 N 
HETATM   35  C18 UNL     1      -1.352  53.333 -26.789  1.00  0.00     0.148 A 
ATOM     36  H3  UNL     1      -0.022  54.790 -27.467  1.00  0.00     0.162 HD
BRANCH  35  37
HETATM   37  O3  UNL     1      -2.006  53.159 -27.931  1.00  0.00    -0.346 OA
HETATM   38  H22 UNL     1      -1.609  53.762 -28.580  1.00  0.00     0.219 HD
ENDBRANCH  35  37
ENDBRANCH  17  22
ENDBRANCH   3  13
TORSDOF 7
ENDMDL
MODEL 9
REMARK minimizedAffinity -9.56583023
REMARK  7 active torsions:
REMARK  status: ('A' for Active; 'I' for Inactive)
REMARK    1  A    between atoms: N1_2  and  C2_3 
REMARK    2  A    between atoms: C4_5  and  N4_34 
REMARK    3  A    between atoms: C5_7  and  N2_12 
REMARK    4  A    between atoms: C7_9  and  O2_10 
REMARK    5  A    between atoms: C18_24  and  O3_25 
REMARK    6  A    between atoms: C19_26  and  C20_27 
REMARK    7  A    between atoms: C27_35  and  C28_36 
ROOT
HETATM    1  C2  UNL     1      -2.087  47.883 -18.816  1.00  0.00     0.257 C 
HETATM    2  C3  UNL     1      -0.811  48.555 -19.339  1.00  0.00     0.092 C 
HETATM    3  C4  UNL     1      -0.812  48.697 -20.866  1.00  0.00     0.234 C 
HETATM    4  O1  UNL     1      -1.882  48.022 -21.521  1.00  0.00    -0.333 OA
HETATM    5  C5  UNL     1      -3.228  48.258 -21.035  1.00  0.00     0.168 C 
HETATM    6  C6  UNL     1      -3.857  46.873 -21.320  1.00  0.00     0.074 C 
HETATM    7  C7  UNL     1      -3.301  48.554 -19.499  1.00  0.00     0.209 C 
ENDROOT
BRANCH   1   8
HETATM    8  N1  UNL     1      -2.226  47.989 -17.349  1.00  0.00     0.086 N 
HETATM    9  C1  UNL     1      -3.399  47.309 -16.820  1.00  0.00     0.307 C 
HETATM   10  H4  UNL     1      -1.381  47.609 -16.915  1.00  0.00     0.316 HD
ENDBRANCH   1   8
BRANCH   7  11
HETATM   11  O2  UNL     1      -3.197  49.965 -19.195  1.00  0.00    -0.384 OA
HETATM   12  C8  UNL     1      -4.050  50.773 -19.994  1.00  0.00     0.202 C 
ENDBRANCH   7  11
BRANCH   3  13
HETATM   13  N4  UNL     1      -0.661  50.057 -21.375  1.00  0.00    -0.316 N 
HETATM   14  C26 UNL     1      -0.478  51.179 -20.582  1.00  0.00     0.048 A 
HETATM   15  C21 UNL     1      -0.230  52.264 -21.441  1.00  0.00     0.004 A 
HETATM   16  C25 UNL     1      -0.499  51.326 -19.183  1.00  0.00     0.030 A 
HETATM   17  C20 UNL     1      -0.272  51.770 -22.783  1.00  0.00     0.021 A 
HETATM   18  C22 UNL     1      -0.003  53.529 -20.856  1.00  0.00     0.014 A 
HETATM   19  C27 UNL     1      -0.561  50.417 -22.683  1.00  0.00     0.077 A 
HETATM   20  C23 UNL     1      -0.027  53.682 -19.467  1.00  0.00     0.001 A 
HETATM   21  C24 UNL     1      -0.271  52.592 -18.642  1.00  0.00     0.002 A 
BRANCH  17  22
HETATM   22  C19 UNL     1      -0.117  52.230 -24.098  1.00  0.00     0.037 A 
HETATM   23  C16 UNL     1      -0.800  51.724 -25.232  1.00  0.00    -0.012 A 
HETATM   24  C15 UNL     1      -1.734  50.683 -25.137  1.00  0.00     0.015 A 
HETATM   25  C17 UNL     1      -0.352  52.516 -26.429  1.00  0.00     0.162 A 
HETATM   26  C14 UNL     1      -2.619  49.995 -26.010  1.00  0.00     0.004 A 
HETATM   27  C28 UNL     1      -1.936  50.151 -23.882  1.00  0.00     0.077 A 
HETATM   28  C9  UNL     1      -3.364  49.082 -25.238  1.00  0.00     0.049 A 
HETATM   29  C13 UNL     1      -2.880  50.108 -27.394  1.00  0.00     0.014 A 
HETATM   30  N2  UNL     1      -2.880  49.156 -23.932  1.00  0.00    -0.308 N 
HETATM   31  C10 UNL     1      -4.391  48.327 -25.836  1.00  0.00     0.030 A 
HETATM   32  C11 UNL     1      -4.629  48.460 -27.209  1.00  0.00     0.002 A 
HETATM   33  C12 UNL     1      -3.879  49.332 -27.983  1.00  0.00     0.001 A 
HETATM   34  N3  UNL     1       0.643  53.511 -25.931  1.00  0.00    -0.366 N 
HETATM   35  C18 UNL     1       0.703  53.279 -24.658  1.00  0.00     0.148 A 
ATOM     36  H3  UNL     1       1.156  54.211 -26.468  1.00  0.00     0.162 HD
BRANCH  35  37
HETATM   37  O3  UNL     1       1.512  53.999 -23.892  1.00  0.00    -0.346 OA
HETATM   38  H22 UNL     1       1.963  54.634 -24.472  1.00  0.00     0.219 HD
ENDBRANCH  35  37
ENDBRANCH  17  22
ENDBRANCH   3  13
TORSDOF 7
ENDMDL
