MODEL 1
REMARK minimizedAffinity -6.86879063
REMARK CNNscore 0.83362931
REMARK CNNaffinity 6.9349761
REMARK  9 active torsions:
REMARK  status: ('A' for Active; 'I' for Inactive)
REMARK    1  A    between atoms: C2_2  and  C3_3 
REMARK    2  A    between atoms: C2_2  and  C9_12 
REMARK    3  A    between atoms: C3_3  and  C4_4 
REMARK    4  A    between atoms: C4_4  and  C5_5 
REMARK    5  A    between atoms: C5_5  and  O1_6 
REMARK    6  A    between atoms: C5_5  and  C6_7 
REMARK    7  A    between atoms: C6_7  and  O2_9 
REMARK    8  A    between atoms: C6_7  and  C8_10 
REMARK    9  A    between atoms: C8_10  and  O3_11 
ROOT
HETATM    1  C9  UNL     1       4.081  56.192  -8.213  1.00  0.00    -0.002 C 
HETATM    2  C10 UNL     1       5.069  55.242  -8.930  1.00  0.00     0.007 C 
HETATM    3  C11 UNL     1       4.217  54.308  -9.824  1.00  0.00     0.015 C 
HETATM    4  C12 UNL     1       2.802  54.929  -9.843  1.00  0.00    -0.005 C 
HETATM    5  C13 UNL     1       2.809  56.027 -10.952  1.00  0.00     0.021 C 
HETATM    6  C14 UNL     1       1.568  54.091 -10.149  1.00  0.00    -0.000 C 
HETATM    7  C15 UNL     1       0.354  54.412  -9.625  1.00  0.00    -0.060 C 
HETATM    8  C16 UNL     1       0.203  55.594  -8.653  1.00  0.00     0.036 C 
HETATM    9  C17 UNL     1       1.481  56.348  -8.235  1.00  0.00     0.015 C 
HETATM   10  C18 UNL     1       2.719  55.456  -8.360  1.00  0.00    -0.028 C 
HETATM   11  C19 UNL     1       2.601  54.312  -7.306  1.00  0.00     0.016 C 
HETATM   12  C20 UNL     1      -0.927  53.581  -9.910  1.00  0.00    -0.014 C 
HETATM   13  C21 UNL     1      -1.025  52.560  -8.753  1.00  0.00     0.020 C 
HETATM   14  C22 UNL     1      -2.199  54.470  -9.924  1.00  0.00     0.021 C 
HETATM   15  C23 UNL     1      -3.459  53.721 -10.327  1.00  0.00     0.080 C 
HETATM   16  C24 UNL     1      -3.301  53.090 -11.686  1.00  0.00     0.135 C 
HETATM   17  O4  UNL     1      -4.204  53.195 -12.518  1.00  0.00    -0.297 OA
HETATM   18  C25 UNL     1      -2.052  52.230 -11.934  1.00  0.00     0.018 C 
HETATM   19  C26 UNL     1      -1.877  52.094 -13.470  1.00  0.00     0.023 C 
HETATM   20  C27 UNL     1      -2.330  50.821 -11.388  1.00  0.00     0.023 C 
HETATM   21  C28 UNL     1      -0.789  52.943 -11.334  1.00  0.00     0.020 C 
HETATM   22  C29 UNL     1       0.487  52.098 -11.409  1.00  0.00     0.090 C 
HETATM   23  C30 UNL     1       1.708  52.922 -11.077  1.00  0.00     0.157 C 
HETATM   24  O5  UNL     1       2.800  52.610 -11.551  1.00  0.00    -0.293 OA
ENDROOT
BRANCH   1  25
HETATM   25  C2  UNL     1       4.498  56.715  -6.804  1.00  0.00    -0.014 C 
HETATM   26  C1  UNL     1       5.990  57.032  -6.638  1.00  0.00     0.010 C 
BRANCH  25  27
HETATM   27  C3  UNL     1       3.662  57.978  -6.466  1.00  0.00     0.007 C 
BRANCH  27  28
HETATM   28  C4  UNL     1       3.101  58.088  -5.042  1.00  0.00     0.035 C 
BRANCH  28  29
HETATM   29  C5  UNL     1       3.534  59.260  -4.147  1.00  0.00     0.154 C 
BRANCH  29  30
HETATM   30  O1  UNL     1       4.958  59.243  -3.976  1.00  0.00    -0.392 OA
HETATM   31  H10 UNL     1       5.153  59.884  -3.264  1.00  0.00     0.210 HD
ENDBRANCH  29  30
BRANCH  29  32
HETATM   32  C6  UNL     1       2.842  59.510  -2.772  1.00  0.00     0.101 C 
HETATM   33  C7  UNL     1       2.859  60.972  -2.312  1.00  0.00     0.051 C 
BRANCH  32  34
HETATM   34  O2  UNL     1       1.432  59.215  -2.984  1.00  0.00    -0.385 OA
HETATM   35  H14 UNL     1       1.361  58.290  -3.284  1.00  0.00     0.210 HD
ENDBRANCH  32  34
BRANCH  32  36
HETATM   36  C8  UNL     1       3.352  58.574  -1.656  1.00  0.00     0.204 C 
BRANCH  36  37
HETATM   37  O3  UNL     1       4.055  59.265  -0.638  1.00  0.00    -0.398 OA
HETATM   38  H17 UNL     1       4.242  58.627   0.072  1.00  0.00     0.209 HD
ENDBRANCH  36  37
ENDBRANCH  32  36
ENDBRANCH  29  32
ENDBRANCH  28  29
ENDBRANCH  27  28
ENDBRANCH  25  27
ENDBRANCH   1  25
TORSDOF 9
ENDMDL
MODEL 2
REMARK minimizedAffinity -6.76136303
REMARK CNNscore 0.78714186
REMARK CNNaffinity 7.24103546
REMARK  9 active torsions:
REMARK  status: ('A' for Active; 'I' for Inactive)
REMARK    1  A    between atoms: C2_2  and  C3_3 
REMARK    2  A    between atoms: C2_2  and  C9_12 
REMARK    3  A    between atoms: C3_3  and  C4_4 
REMARK    4  A    between atoms: C4_4  and  C5_5 
REMARK    5  A    between atoms: C5_5  and  O1_6 
REMARK    6  A    between atoms: C5_5  and  C6_7 
REMARK    7  A    between atoms: C6_7  and  O2_9 
REMARK    8  A    between atoms: C6_7  and  C8_10 
REMARK    9  A    between atoms: C8_10  and  O3_11 
ROOT
HETATM    1  C9  UNL     1      -1.659  51.893 -10.753  1.00  0.00    -0.002 C 
HETATM    2  C10 UNL     1      -0.944  50.547 -11.018  1.00  0.00     0.007 C 
HETATM    3  C11 UNL     1       0.532  50.738 -10.591  1.00  0.00     0.015 C 
HETATM    4  C12 UNL     1       0.569  52.071  -9.810  1.00  0.00    -0.005 C 
HETATM    5  C13 UNL     1       0.159  51.742  -8.341  1.00  0.00     0.021 C 
HETATM    6  C14 UNL     1       1.854  52.878  -9.672  1.00  0.00    -0.000 C 
HETATM    7  C15 UNL     1       1.820  54.231  -9.538  1.00  0.00    -0.060 C 
HETATM    8  C16 UNL     1       0.488  54.996  -9.590  1.00  0.00     0.036 C 
HETATM    9  C17 UNL     1      -0.794  54.188  -9.876  1.00  0.00     0.015 C 
HETATM   10  C18 UNL     1      -0.480  52.900 -10.643  1.00  0.00    -0.028 C 
HETATM   11  C19 UNL     1       0.034  53.295 -12.062  1.00  0.00     0.016 C 
HETATM   12  C20 UNL     1       3.107  55.091  -9.399  1.00  0.00    -0.014 C 
HETATM   13  C21 UNL     1       3.469  55.534 -10.835  1.00  0.00     0.020 C 
HETATM   14  C22 UNL     1       2.870  56.343  -8.515  1.00  0.00     0.021 C 
HETATM   15  C23 UNL     1       4.133  57.144  -8.244  1.00  0.00     0.080 C 
HETATM   16  C24 UNL     1       5.184  56.288  -7.588  1.00  0.00     0.135 C 
HETATM   17  O4  UNL     1       5.806  56.720  -6.615  1.00  0.00    -0.297 OA
HETATM   18  C25 UNL     1       5.523  54.941  -8.245  1.00  0.00     0.018 C 
HETATM   19  C26 UNL     1       6.242  54.070  -7.181  1.00  0.00     0.023 C 
HETATM   20  C27 UNL     1       6.537  55.202  -9.369  1.00  0.00     0.023 C 
HETATM   21  C28 UNL     1       4.201  54.221  -8.689  1.00  0.00     0.020 C 
HETATM   22  C29 UNL     1       4.440  52.930  -9.481  1.00  0.00     0.090 C 
HETATM   23  C30 UNL     1       3.161  52.144  -9.643  1.00  0.00     0.157 C 
HETATM   24  O5  UNL     1       3.211  50.922  -9.773  1.00  0.00    -0.293 OA
ENDROOT
BRANCH   1  25
HETATM   25  C2  UNL     1      -2.862  52.250 -11.679  1.00  0.00    -0.014 C 
HETATM   26  C1  UNL     1      -2.947  51.446 -12.983  1.00  0.00     0.010 C 
BRANCH  25  27
HETATM   27  C3  UNL     1      -4.182  52.080 -10.882  1.00  0.00     0.007 C 
BRANCH  27  28
HETATM   28  C4  UNL     1      -4.915  50.738 -11.014  1.00  0.00     0.035 C 
BRANCH  28  29
HETATM   29  C5  UNL     1      -5.322  49.970  -9.748  1.00  0.00     0.154 C 
BRANCH  29  30
HETATM   30  O1  UNL     1      -4.156  49.649  -8.975  1.00  0.00    -0.392 OA
HETATM   31  H10 UNL     1      -4.450  49.014  -8.292  1.00  0.00     0.210 HD
ENDBRANCH  29  30
BRANCH  29  32
HETATM   32  C6  UNL     1      -6.253  48.722  -9.837  1.00  0.00     0.101 C 
HETATM   33  C7  UNL     1      -6.796  48.438 -11.242  1.00  0.00     0.051 C 
BRANCH  32  34
HETATM   34  O2  UNL     1      -5.402  47.578  -9.542  1.00  0.00    -0.385 OA
HETATM   35  H14 UNL     1      -5.023  47.708  -8.653  1.00  0.00     0.210 HD
ENDBRANCH  32  34
BRANCH  32  36
HETATM   36  C8  UNL     1      -7.392  48.737  -8.797  1.00  0.00     0.204 C 
BRANCH  36  37
HETATM   37  O3  UNL     1      -8.082  49.975  -8.756  1.00  0.00    -0.398 OA
HETATM   38  H17 UNL     1      -8.845  49.864  -8.163  1.00  0.00     0.209 HD
ENDBRANCH  36  37
ENDBRANCH  32  36
ENDBRANCH  29  32
ENDBRANCH  28  29
ENDBRANCH  27  28
ENDBRANCH  25  27
ENDBRANCH   1  25
TORSDOF 9
ENDMDL
MODEL 3
REMARK minimizedAffinity -7.35895395
REMARK CNNscore 0.781211376
REMARK CNNaffinity 7.09399176
REMARK  9 active torsions:
REMARK  status: ('A' for Active; 'I' for Inactive)
REMARK    1  A    between atoms: C2_2  and  C3_3 
REMARK    2  A    between atoms: C2_2  and  C9_12 
REMARK    3  A    between atoms: C3_3  and  C4_4 
REMARK    4  A    between atoms: C4_4  and  C5_5 
REMARK    5  A    between atoms: C5_5  and  O1_6 
REMARK    6  A    between atoms: C5_5  and  C6_7 
REMARK    7  A    between atoms: C6_7  and  O2_9 
REMARK    8  A    between atoms: C6_7  and  C8_10 
REMARK    9  A    between atoms: C8_10  and  O3_11 
ROOT
HETATM    1  C9  UNL     1       4.543  56.514  -8.230  1.00  0.00    -0.002 C 
HETATM    2  C10 UNL     1       5.555  55.611  -8.975  1.00  0.00     0.007 C 
HETATM    3  C11 UNL     1       4.723  54.625  -9.831  1.00  0.00     0.015 C 
HETATM    4  C12 UNL     1       3.277  55.171  -9.805  1.00  0.00    -0.005 C 
HETATM    5  C13 UNL     1       3.187  56.257 -10.921  1.00  0.00     0.021 C 
HETATM    6  C14 UNL     1       2.079  54.265 -10.061  1.00  0.00    -0.000 C 
HETATM    7  C15 UNL     1       0.869  54.527  -9.497  1.00  0.00    -0.060 C 
HETATM    8  C16 UNL     1       0.689  55.708  -8.529  1.00  0.00     0.036 C 
HETATM    9  C17 UNL     1       1.940  56.532  -8.161  1.00  0.00     0.015 C 
HETATM   10  C18 UNL     1       3.218  55.705  -8.324  1.00  0.00    -0.028 C 
HETATM   11  C19 UNL     1       3.197  54.567  -7.258  1.00  0.00     0.016 C 
HETATM   12  C20 UNL     1      -0.376  53.627  -9.730  1.00  0.00    -0.014 C 
HETATM   13  C21 UNL     1      -0.379  52.612  -8.564  1.00  0.00     0.020 C 
HETATM   14  C22 UNL     1      -1.692  54.447  -9.706  1.00  0.00     0.021 C 
HETATM   15  C23 UNL     1      -2.924  53.629 -10.058  1.00  0.00     0.080 C 
HETATM   16  C24 UNL     1      -2.780  52.995 -11.417  1.00  0.00     0.135 C 
HETATM   17  O4  UNL     1      -3.716  53.045 -12.218  1.00  0.00    -0.297 OA
HETATM   18  C25 UNL     1      -1.497  52.200 -11.704  1.00  0.00     0.018 C 
HETATM   19  C26 UNL     1      -1.369  52.059 -13.243  1.00  0.00     0.023 C 
HETATM   20  C27 UNL     1      -1.681  50.783 -11.138  1.00  0.00     0.023 C 
HETATM   21  C28 UNL     1      -0.254  52.984 -11.154  1.00  0.00     0.020 C 
HETATM   22  C29 UNL     1       1.062  52.207 -11.268  1.00  0.00     0.090 C 
HETATM   23  C30 UNL     1       2.249  53.097 -10.985  1.00  0.00     0.157 C 
HETATM   24  O5  UNL     1       3.338  52.839 -11.495  1.00  0.00    -0.293 OA
ENDROOT
BRANCH   1  25
HETATM   25  C2  UNL     1       4.981  57.071  -6.841  1.00  0.00    -0.014 C 
HETATM   26  C1  UNL     1       3.846  57.274  -5.828  1.00  0.00     0.010 C 
BRANCH  25  27
HETATM   27  C3  UNL     1       6.052  56.127  -6.233  1.00  0.00     0.007 C 
BRANCH  27  28
HETATM   28  C4  UNL     1       7.414  56.742  -5.887  1.00  0.00     0.035 C 
BRANCH  28  29
HETATM   29  C5  UNL     1       8.614  55.820  -5.620  1.00  0.00     0.154 C 
BRANCH  29  30
HETATM   30  O1  UNL     1       8.160  54.572  -5.076  1.00  0.00    -0.392 OA
HETATM   31  H10 UNL     1       8.960  54.108  -4.759  1.00  0.00     0.210 HD
ENDBRANCH  29  30
BRANCH  29  32
HETATM   32  C6  UNL     1       9.845  56.329  -4.810  1.00  0.00     0.101 C 
HETATM   33  C7  UNL     1      10.167  55.501  -3.561  1.00  0.00     0.051 C 
BRANCH  32  34
HETATM   34  O2  UNL     1      10.996  56.129  -5.679  1.00  0.00    -0.385 OA
HETATM   35  H14 UNL     1      10.843  56.635  -6.499  1.00  0.00     0.210 HD
ENDBRANCH  32  34
BRANCH  32  36
HETATM   36  C8  UNL     1       9.771  57.832  -4.471  1.00  0.00     0.204 C 
BRANCH  36  37
HETATM   37  O3  UNL     1      10.703  58.607  -5.205  1.00  0.00    -0.398 OA
HETATM   38  H17 UNL     1      10.517  59.544  -5.018  1.00  0.00     0.209 HD
ENDBRANCH  36  37
ENDBRANCH  32  36
ENDBRANCH  29  32
ENDBRANCH  28  29
ENDBRANCH  27  28
ENDBRANCH  25  27
ENDBRANCH   1  25
TORSDOF 9
ENDMDL
MODEL 4
REMARK minimizedAffinity -7.00876379
REMARK CNNscore 0.63546437
REMARK CNNaffinity 6.77894354
REMARK  9 active torsions:
REMARK  status: ('A' for Active; 'I' for Inactive)
REMARK    1  A    between atoms: C2_2  and  C3_3 
REMARK    2  A    between atoms: C2_2  and  C9_12 
REMARK    3  A    between atoms: C3_3  and  C4_4 
REMARK    4  A    between atoms: C4_4  and  C5_5 
REMARK    5  A    between atoms: C5_5  and  O1_6 
REMARK    6  A    between atoms: C5_5  and  C6_7 
REMARK    7  A    between atoms: C6_7  and  O2_9 
REMARK    8  A    between atoms: C6_7  and  C8_10 
REMARK    9  A    between atoms: C8_10  and  O3_11 
ROOT
HETATM    1  C9  UNL     1       4.106  56.190  -8.157  1.00  0.00    -0.002 C 
HETATM    2  C10 UNL     1       5.092  55.257  -8.899  1.00  0.00     0.007 C 
HETATM    3  C11 UNL     1       4.238  54.344  -9.812  1.00  0.00     0.015 C 
HETATM    4  C12 UNL     1       2.823  54.966  -9.813  1.00  0.00    -0.005 C 
HETATM    5  C13 UNL     1       2.826  56.090 -10.895  1.00  0.00     0.021 C 
HETATM    6  C14 UNL     1       1.588  54.135 -10.136  1.00  0.00    -0.000 C 
HETATM    7  C15 UNL     1       0.375  54.444  -9.601  1.00  0.00    -0.060 C 
HETATM    8  C16 UNL     1       0.227  55.602  -8.601  1.00  0.00     0.036 C 
HETATM    9  C17 UNL     1       1.506  56.345  -8.168  1.00  0.00     0.015 C 
HETATM   10  C18 UNL     1       2.744  55.457  -8.318  1.00  0.00    -0.028 C 
HETATM   11  C19 UNL     1       2.628  54.289  -7.291  1.00  0.00     0.016 C 
HETATM   12  C20 UNL     1      -0.907  53.619  -9.902  1.00  0.00    -0.014 C 
HETATM   13  C21 UNL     1      -1.002  52.571  -8.770  1.00  0.00     0.020 C 
HETATM   14  C22 UNL     1      -2.178  54.508  -9.892  1.00  0.00     0.021 C 
HETATM   15  C23 UNL     1      -3.439  53.769 -10.309  1.00  0.00     0.080 C 
HETATM   16  C24 UNL     1      -3.285  53.170 -11.683  1.00  0.00     0.135 C 
HETATM   17  O4  UNL     1      -4.190  53.295 -12.510  1.00  0.00    -0.297 OA
HETATM   18  C25 UNL     1      -2.037  52.316 -11.955  1.00  0.00     0.018 C 
HETATM   19  C26 UNL     1      -1.865  52.217 -13.494  1.00  0.00     0.023 C 
HETATM   20  C27 UNL     1      -2.314  50.895 -11.442  1.00  0.00     0.023 C 
HETATM   21  C28 UNL     1      -0.772  53.015 -11.342  1.00  0.00     0.020 C 
HETATM   22  C29 UNL     1       0.504  52.172 -11.440  1.00  0.00     0.090 C 
HETATM   23  C30 UNL     1       1.726  52.988 -11.092  1.00  0.00     0.157 C 
HETATM   24  O5  UNL     1       2.816  52.688 -11.576  1.00  0.00    -0.293 OA
ENDROOT
BRANCH   1  25
HETATM   25  C2  UNL     1       4.527  56.679  -6.737  1.00  0.00    -0.014 C 
HETATM   26  C1  UNL     1       5.885  57.388  -6.664  1.00  0.00     0.010 C 
BRANCH  25  27
HETATM   27  C3  UNL     1       3.424  57.618  -6.179  1.00  0.00     0.007 C 
BRANCH  27  28
HETATM   28  C4  UNL     1       2.872  57.301  -4.783  1.00  0.00     0.035 C 
BRANCH  28  29
HETATM   29  C5  UNL     1       1.416  57.658  -4.446  1.00  0.00     0.154 C 
BRANCH  29  30
HETATM   30  O1  UNL     1       1.381  58.807  -3.588  1.00  0.00    -0.392 OA
HETATM   31  H10 UNL     1       0.461  58.874  -3.263  1.00  0.00     0.210 HD
ENDBRANCH  29  30
BRANCH  29  32
HETATM   32  C6  UNL     1       0.434  56.572  -3.910  1.00  0.00     0.101 C 
HETATM   33  C7  UNL     1       0.082  55.480  -4.926  1.00  0.00     0.051 C 
BRANCH  32  34
HETATM   34  O2  UNL     1       1.162  55.868  -2.864  1.00  0.00    -0.385 OA
HETATM   35  H14 UNL     1       1.417  56.521  -2.185  1.00  0.00     0.210 HD
ENDBRANCH  32  34
BRANCH  32  36
HETATM   36  C8  UNL     1      -0.840  57.165  -3.274  1.00  0.00     0.204 C 
BRANCH  36  37
HETATM   37  O3  UNL     1      -1.530  58.046  -4.144  1.00  0.00    -0.398 OA
HETATM   38  H17 UNL     1      -2.369  58.285  -3.713  1.00  0.00     0.209 HD
ENDBRANCH  36  37
ENDBRANCH  32  36
ENDBRANCH  29  32
ENDBRANCH  28  29
ENDBRANCH  27  28
ENDBRANCH  25  27
ENDBRANCH   1  25
TORSDOF 9
ENDMDL
MODEL 5
REMARK minimizedAffinity -6.87657976
REMARK CNNscore 0.523382485
REMARK CNNaffinity 6.61817932
REMARK  9 active torsions:
REMARK  status: ('A' for Active; 'I' for Inactive)
REMARK    1  A    between atoms: C2_2  and  C3_3 
REMARK    2  A    between atoms: C2_2  and  C9_12 
REMARK    3  A    between atoms: C3_3  and  C4_4 
REMARK    4  A    between atoms: C4_4  and  C5_5 
REMARK    5  A    between atoms: C5_5  and  O1_6 
REMARK    6  A    between atoms: C5_5  and  C6_7 
REMARK    7  A    between atoms: C6_7  and  O2_9 
REMARK    8  A    between atoms: C6_7  and  C8_10 
REMARK    9  A    between atoms: C8_10  and  O3_11 
ROOT
HETATM    1  C9  UNL     1       1.946  54.916  -8.811  1.00  0.00    -0.002 C 
HETATM    2  C10 UNL     1       0.989  55.931  -8.143  1.00  0.00     0.007 C 
HETATM    3  C11 UNL     1       1.858  56.819  -7.220  1.00  0.00     0.015 C 
HETATM    4  C12 UNL     1       3.322  56.506  -7.603  1.00  0.00    -0.005 C 
HETATM    5  C13 UNL     1       3.667  57.402  -8.833  1.00  0.00     0.021 C 
HETATM    6  C14 UNL     1       4.469  56.746  -6.629  1.00  0.00    -0.000 C 
HETATM    7  C15 UNL     1       5.598  55.987  -6.674  1.00  0.00    -0.060 C 
HETATM    8  C16 UNL     1       5.723  54.819  -7.667  1.00  0.00     0.036 C 
HETATM    9  C17 UNL     1       4.502  54.492  -8.549  1.00  0.00     0.015 C 
HETATM   10  C18 UNL     1       3.201  54.963  -7.894  1.00  0.00    -0.028 C 
HETATM   11  C19 UNL     1       2.969  54.110  -6.609  1.00  0.00     0.016 C 
HETATM   12  C20 UNL     1       6.787  56.196  -5.697  1.00  0.00    -0.014 C 
HETATM   13  C21 UNL     1       6.533  55.227  -4.520  1.00  0.00     0.020 C 
HETATM   14  C22 UNL     1       8.146  55.857  -6.362  1.00  0.00     0.021 C 
HETATM   15  C23 UNL     1       9.348  56.171  -5.486  1.00  0.00     0.080 C 
HETATM   16  C24 UNL     1       9.360  57.623  -5.087  1.00  0.00     0.135 C 
HETATM   17  O4  UNL     1      10.407  58.270  -5.163  1.00  0.00    -0.297 OA
HETATM   18  C25 UNL     1       8.075  58.210  -4.482  1.00  0.00     0.018 C 
HETATM   19  C26 UNL     1       8.169  59.755  -4.595  1.00  0.00     0.023 C 
HETATM   20  C27 UNL     1       8.058  57.870  -2.984  1.00  0.00     0.023 C 
HETATM   21  C28 UNL     1       6.830  57.711  -5.297  1.00  0.00     0.020 C 
HETATM   22  C29 UNL     1       5.488  58.131  -4.687  1.00  0.00     0.090 C 
HETATM   23  C30 UNL     1       4.347  57.867  -5.641  1.00  0.00     0.157 C 
HETATM   24  O5  UNL     1       3.330  58.556  -5.578  1.00  0.00    -0.293 OA
ENDROOT
BRANCH   1  25
HETATM   25  C2  UNL     1       1.350  53.525  -9.190  1.00  0.00    -0.014 C 
HETATM   26  C1  UNL     1      -0.136  53.336  -8.858  1.00  0.00     0.010 C 
BRANCH  25  27
HETATM   27  C3  UNL     1       1.575  53.274 -10.704  1.00  0.00     0.007 C 
BRANCH  27  28
HETATM   28  C4  UNL     1       0.385  53.515 -11.641  1.00  0.00     0.035 C 
BRANCH  28  29
HETATM   29  C5  UNL     1      -0.037  52.416 -12.628  1.00  0.00     0.154 C 
BRANCH  29  30
HETATM   30  O1  UNL     1       0.363  52.776 -13.959  1.00  0.00    -0.392 OA
HETATM   31  H10 UNL     1      -0.085  52.144 -14.556  1.00  0.00     0.210 HD
ENDBRANCH  29  30
BRANCH  29  32
HETATM   32  C6  UNL     1      -1.500  51.880 -12.646  1.00  0.00     0.101 C 
HETATM   33  C7  UNL     1      -1.817  50.868 -11.539  1.00  0.00     0.051 C 
BRANCH  32  34
HETATM   34  O2  UNL     1      -2.342  53.027 -12.336  1.00  0.00    -0.385 OA
HETATM   35  H14 UNL     1      -2.177  53.711 -13.012  1.00  0.00     0.210 HD
ENDBRANCH  32  34
BRANCH  32  36
HETATM   36  C8  UNL     1      -1.935  51.343 -14.026  1.00  0.00     0.204 C 
BRANCH  36  37
HETATM   37  O3  UNL     1      -3.300  50.965 -14.063  1.00  0.00    -0.398 OA
HETATM   38  H17 UNL     1      -3.517  50.746 -14.986  1.00  0.00     0.209 HD
ENDBRANCH  36  37
ENDBRANCH  32  36
ENDBRANCH  29  32
ENDBRANCH  28  29
ENDBRANCH  27  28
ENDBRANCH  25  27
ENDBRANCH   1  25
TORSDOF 9
ENDMDL
MODEL 6
REMARK minimizedAffinity -7.17605257
REMARK CNNscore 0.489720851
REMARK CNNaffinity 6.79019547
REMARK  9 active torsions:
REMARK  status: ('A' for Active; 'I' for Inactive)
REMARK    1  A    between atoms: C2_2  and  C3_3 
REMARK    2  A    between atoms: C2_2  and  C9_12 
REMARK    3  A    between atoms: C3_3  and  C4_4 
REMARK    4  A    between atoms: C4_4  and  C5_5 
REMARK    5  A    between atoms: C5_5  and  O1_6 
REMARK    6  A    between atoms: C5_5  and  C6_7 
REMARK    7  A    between atoms: C6_7  and  O2_9 
REMARK    8  A    between atoms: C6_7  and  C8_10 
REMARK    9  A    between atoms: C8_10  and  O3_11 
ROOT
HETATM    1  C9  UNL     1      -3.023  49.244 -21.658  1.00  0.00    -0.002 C 
HETATM    2  C10 UNL     1      -2.778  50.657 -22.240  1.00  0.00     0.007 C 
HETATM    3  C11 UNL     1      -1.827  51.382 -21.257  1.00  0.00     0.015 C 
HETATM    4  C12 UNL     1      -1.302  50.285 -20.303  1.00  0.00    -0.005 C 
HETATM    5  C13 UNL     1      -0.090  49.610 -21.019  1.00  0.00     0.021 C 
HETATM    6  C14 UNL     1      -0.778  50.622 -18.913  1.00  0.00    -0.000 C 
HETATM    7  C15 UNL     1      -0.870  49.726 -17.893  1.00  0.00    -0.060 C 
HETATM    8  C16 UNL     1      -1.565  48.370 -18.095  1.00  0.00     0.036 C 
HETATM    9  C17 UNL     1      -2.220  48.095 -19.463  1.00  0.00     0.015 C 
HETATM   10  C18 UNL     1      -2.598  49.400 -20.171  1.00  0.00    -0.028 C 
HETATM   11  C19 UNL     1      -3.731  50.085 -19.348  1.00  0.00     0.016 C 
HETATM   12  C20 UNL     1      -0.352  50.033 -16.460  1.00  0.00    -0.014 C 
HETATM   13  C21 UNL     1      -1.570  50.592 -15.689  1.00  0.00     0.020 C 
HETATM   14  C22 UNL     1       0.168  48.755 -15.750  1.00  0.00     0.021 C 
HETATM   15  C23 UNL     1       0.803  49.028 -14.397  1.00  0.00     0.080 C 
HETATM   16  C24 UNL     1       1.944  50.003 -14.523  1.00  0.00     0.135 C 
HETATM   17  O4  UNL     1       3.010  49.775 -13.947  1.00  0.00    -0.297 OA
HETATM   18  C25 UNL     1       1.684  51.316 -15.278  1.00  0.00     0.018 C 
HETATM   19  C26 UNL     1       3.062  51.907 -15.675  1.00  0.00     0.023 C 
HETATM   20  C27 UNL     1       1.037  52.306 -14.298  1.00  0.00     0.023 C 
HETATM   21  C28 UNL     1       0.856  51.024 -16.579  1.00  0.00     0.020 C 
HETATM   22  C29 UNL     1       0.427  52.288 -17.331  1.00  0.00     0.090 C 
HETATM   23  C30 UNL     1      -0.120  51.952 -18.698  1.00  0.00     0.157 C 
HETATM   24  O5  UNL     1      -0.038  52.778 -19.605  1.00  0.00    -0.293 OA
ENDROOT
BRANCH   1  25
HETATM   25  C2  UNL     1      -4.397  48.576 -21.976  1.00  0.00    -0.014 C 
HETATM   26  C1  UNL     1      -4.802  48.581 -23.456  1.00  0.00     0.010 C 
BRANCH  25  27
HETATM   27  C3  UNL     1      -4.383  47.117 -21.450  1.00  0.00     0.007 C 
BRANCH  27  28
HETATM   28  C4  UNL     1      -5.718  46.528 -20.976  1.00  0.00     0.035 C 
BRANCH  28  29
HETATM   29  C5  UNL     1      -6.332  47.011 -19.653  1.00  0.00     0.154 C 
BRANCH  29  30
HETATM   30  O1  UNL     1      -6.440  45.913 -18.736  1.00  0.00    -0.392 OA
HETATM   31  H10 UNL     1      -6.995  46.232 -17.997  1.00  0.00     0.210 HD
ENDBRANCH  29  30
BRANCH  29  32
HETATM   32  C6  UNL     1      -7.654  47.837 -19.644  1.00  0.00     0.101 C 
HETATM   33  C7  UNL     1      -7.982  48.524 -20.974  1.00  0.00     0.051 C 
BRANCH  32  34
HETATM   34  O2  UNL     1      -8.723  46.863 -19.470  1.00  0.00    -0.385 OA
HETATM   35  H14 UNL     1      -8.562  46.389 -18.633  1.00  0.00     0.210 HD
ENDBRANCH  32  34
BRANCH  32  36
HETATM   36  C8  UNL     1      -7.739  48.836 -18.471  1.00  0.00     0.204 C 
BRANCH  36  37
HETATM   37  O3  UNL     1      -7.083  48.371 -17.304  1.00  0.00    -0.398 OA
HETATM   38  H17 UNL     1      -7.087  49.098 -16.657  1.00  0.00     0.209 HD
ENDBRANCH  36  37
ENDBRANCH  32  36
ENDBRANCH  29  32
ENDBRANCH  28  29
ENDBRANCH  27  28
ENDBRANCH  25  27
ENDBRANCH   1  25
TORSDOF 9
ENDMDL
MODEL 7
REMARK minimizedAffinity -7.73256731
REMARK CNNscore 0.467617273
REMARK CNNaffinity 6.87651205
REMARK  9 active torsions:
REMARK  status: ('A' for Active; 'I' for Inactive)
REMARK    1  A    between atoms: C2_2  and  C3_3 
REMARK    2  A    between atoms: C2_2  and  C9_12 
REMARK    3  A    between atoms: C3_3  and  C4_4 
REMARK    4  A    between atoms: C4_4  and  C5_5 
REMARK    5  A    between atoms: C5_5  and  O1_6 
REMARK    6  A    between atoms: C5_5  and  C6_7 
REMARK    7  A    between atoms: C6_7  and  O2_9 
REMARK    8  A    between atoms: C6_7  and  C8_10 
REMARK    9  A    between atoms: C8_10  and  O3_11 
ROOT
HETATM    1  C9  UNL     1      -1.906  50.600 -22.805  1.00  0.00    -0.002 C 
HETATM    2  C10 UNL     1      -1.503  52.069 -23.075  1.00  0.00     0.007 C 
HETATM    3  C11 UNL     1      -0.746  52.560 -21.816  1.00  0.00     0.015 C 
HETATM    4  C12 UNL     1      -0.459  51.290 -20.983  1.00  0.00    -0.005 C 
HETATM    5  C13 UNL     1       0.848  50.661 -21.557  1.00  0.00     0.021 C 
HETATM    6  C14 UNL     1      -0.216  51.361 -19.481  1.00  0.00    -0.000 C 
HETATM    7  C15 UNL     1      -0.540  50.319 -18.668  1.00  0.00    -0.060 C 
HETATM    8  C16 UNL     1      -1.225  49.063 -19.232  1.00  0.00     0.036 C 
HETATM    9  C17 UNL     1      -1.599  49.059 -20.728  1.00  0.00     0.015 C 
HETATM   10  C18 UNL     1      -1.784  50.483 -21.259  1.00  0.00    -0.028 C 
HETATM   11  C19 UNL     1      -3.037  51.099 -20.564  1.00  0.00     0.016 C 
HETATM   12  C20 UNL     1      -0.312  50.353 -17.132  1.00  0.00    -0.014 C 
HETATM   13  C21 UNL     1      -1.641  50.859 -16.526  1.00  0.00     0.020 C 
HETATM   14  C22 UNL     1       0.011  48.946 -16.566  1.00  0.00     0.021 C 
HETATM   15  C23 UNL     1       0.369  48.952 -15.089  1.00  0.00     0.080 C 
HETATM   16  C24 UNL     1       1.544  49.856 -14.823  1.00  0.00     0.135 C 
HETATM   17  O4  UNL     1       2.464  49.467 -14.100  1.00  0.00    -0.297 OA
HETATM   18  C25 UNL     1       1.485  51.288 -15.375  1.00  0.00     0.018 C 
HETATM   19  C26 UNL     1       2.933  51.843 -15.391  1.00  0.00     0.023 C 
HETATM   20  C27 UNL     1       0.686  52.147 -14.383  1.00  0.00     0.023 C 
HETATM   21  C28 UNL     1       0.927  51.268 -16.842  1.00  0.00     0.020 C 
HETATM   22  C29 UNL     1       0.699  52.663 -17.433  1.00  0.00     0.090 C 
HETATM   23  C30 UNL     1       0.429  52.591 -18.917  1.00  0.00     0.157 C 
HETATM   24  O5  UNL     1       0.719  53.547 -19.635  1.00  0.00    -0.293 OA
ENDROOT
BRANCH   1  25
HETATM   25  C2  UNL     1      -3.208  50.085 -23.492  1.00  0.00    -0.014 C 
HETATM   26  C1  UNL     1      -3.358  50.455 -24.973  1.00  0.00     0.010 C 
BRANCH  25  27
HETATM   27  C3  UNL     1      -3.287  48.544 -23.334  1.00  0.00     0.007 C 
BRANCH  27  28
HETATM   28  C4  UNL     1      -4.482  47.977 -22.556  1.00  0.00     0.035 C 
BRANCH  28  29
HETATM   29  C5  UNL     1      -5.812  47.732 -23.285  1.00  0.00     0.154 C 
BRANCH  29  30
HETATM   30  O1  UNL     1      -6.427  48.986 -23.615  1.00  0.00    -0.392 OA
HETATM   31  H10 UNL     1      -7.336  48.774 -23.904  1.00  0.00     0.210 HD
ENDBRANCH  29  30
BRANCH  29  32
HETATM   32  C6  UNL     1      -6.880  46.765 -22.689  1.00  0.00     0.101 C 
HETATM   33  C7  UNL     1      -6.309  45.679 -21.771  1.00  0.00     0.051 C 
BRANCH  32  34
HETATM   34  O2  UNL     1      -7.702  47.583 -21.809  1.00  0.00    -0.385 OA
HETATM   35  H14 UNL     1      -8.092  48.300 -22.344  1.00  0.00     0.210 HD
ENDBRANCH  32  34
BRANCH  32  36
HETATM   36  C8  UNL     1      -7.809  46.151 -23.758  1.00  0.00     0.204 C 
BRANCH  36  37
HETATM   37  O3  UNL     1      -7.565  46.663 -25.056  1.00  0.00    -0.398 OA
HETATM   38  H17 UNL     1      -8.108  46.150 -25.680  1.00  0.00     0.209 HD
ENDBRANCH  36  37
ENDBRANCH  32  36
ENDBRANCH  29  32
ENDBRANCH  28  29
ENDBRANCH  27  28
ENDBRANCH  25  27
ENDBRANCH   1  25
TORSDOF 9
ENDMDL
MODEL 8
REMARK minimizedAffinity -9.31630135
REMARK CNNscore 0.456733853
REMARK CNNaffinity 6.94923735
REMARK  9 active torsions:
REMARK  status: ('A' for Active; 'I' for Inactive)
REMARK    1  A    between atoms: C2_2  and  C3_3 
REMARK    2  A    between atoms: C2_2  and  C9_12 
REMARK    3  A    between atoms: C3_3  and  C4_4 
REMARK    4  A    between atoms: C4_4  and  C5_5 
REMARK    5  A    between atoms: C5_5  and  O1_6 
REMARK    6  A    between atoms: C5_5  and  C6_7 
REMARK    7  A    between atoms: C6_7  and  O2_9 
REMARK    8  A    between atoms: C6_7  and  C8_10 
REMARK    9  A    between atoms: C8_10  and  O3_11 
ROOT
HETATM    1  C9  UNL     1      -5.512  49.148 -24.378  1.00  0.00    -0.002 C 
HETATM    2  C10 UNL     1      -6.494  49.226 -23.185  1.00  0.00     0.007 C 
HETATM    3  C11 UNL     1      -5.750  49.964 -22.045  1.00  0.00     0.015 C 
HETATM    4  C12 UNL     1      -4.483  50.563 -22.697  1.00  0.00    -0.005 C 
HETATM    5  C13 UNL     1      -4.906  51.922 -23.336  1.00  0.00     0.021 C 
HETATM    6  C14 UNL     1      -3.248  50.902 -21.872  1.00  0.00    -0.000 C 
HETATM    7  C15 UNL     1      -2.004  50.857 -22.422  1.00  0.00    -0.060 C 
HETATM    8  C16 UNL     1      -1.800  50.397 -23.874  1.00  0.00     0.036 C 
HETATM    9  C17 UNL     1      -3.039  49.917 -24.656  1.00  0.00     0.015 C 
HETATM   10  C18 UNL     1      -4.131  49.410 -23.711  1.00  0.00    -0.028 C 
HETATM   11  C19 UNL     1      -3.607  48.116 -23.015  1.00  0.00     0.016 C 
HETATM   12  C20 UNL     1      -0.719  51.192 -21.614  1.00  0.00    -0.014 C 
HETATM   13  C21 UNL     1      -0.208  49.839 -21.067  1.00  0.00     0.020 C 
HETATM   14  C22 UNL     1       0.373  51.833 -22.509  1.00  0.00     0.021 C 
HETATM   15  C23 UNL     1       1.597  52.296 -21.737  1.00  0.00     0.080 C 
HETATM   16  C24 UNL     1       1.217  53.283 -20.664  1.00  0.00     0.135 C 
HETATM   17  O4  UNL     1       1.876  54.315 -20.521  1.00  0.00    -0.297 OA
HETATM   18  C25 UNL     1       0.082  52.895 -19.704  1.00  0.00     0.018 C 
HETATM   19  C26 UNL     1      -0.427  54.197 -19.032  1.00  0.00     0.023 C 
HETATM   20  C27 UNL     1       0.679  52.019 -18.592  1.00  0.00     0.023 C 
HETATM   21  C28 UNL     1      -1.094  52.241 -20.512  1.00  0.00     0.020 C 
HETATM   22  C29 UNL     1      -2.218  51.693 -19.626  1.00  0.00     0.090 C 
HETATM   23  C30 UNL     1      -3.433  51.329 -20.447  1.00  0.00     0.157 C 
HETATM   24  O5  UNL     1      -4.549  51.365 -19.930  1.00  0.00    -0.293 OA
ENDROOT
BRANCH   1  25
HETATM   25  C2  UNL     1      -5.658  47.926 -25.336  1.00  0.00    -0.014 C 
HETATM   26  C1  UNL     1      -7.090  47.410 -25.526  1.00  0.00     0.010 C 
BRANCH  25  27
HETATM   27  C3  UNL     1      -5.054  48.293 -26.718  1.00  0.00     0.007 C 
BRANCH  27  28
HETATM   28  C4  UNL     1      -5.761  47.739 -27.962  1.00  0.00     0.035 C 
BRANCH  28  29
HETATM   29  C5  UNL     1      -5.173  48.019 -29.353  1.00  0.00     0.154 C 
BRANCH  29  30
HETATM   30  O1  UNL     1      -4.526  49.300 -29.361  1.00  0.00    -0.392 OA
HETATM   31  H10 UNL     1      -4.337  49.502 -30.299  1.00  0.00     0.210 HD
ENDBRANCH  29  30
BRANCH  29  32
HETATM   32  C6  UNL     1      -6.048  47.865 -30.634  1.00  0.00     0.101 C 
HETATM   33  C7  UNL     1      -7.155  46.810 -30.521  1.00  0.00     0.051 C 
BRANCH  32  34
HETATM   34  O2  UNL     1      -6.765  49.124 -30.772  1.00  0.00    -0.385 OA
HETATM   35  H14 UNL     1      -6.105  49.838 -30.845  1.00  0.00     0.210 HD
ENDBRANCH  32  34
BRANCH  32  36
HETATM   36  C8  UNL     1      -5.218  47.657 -31.918  1.00  0.00     0.204 C 
BRANCH  36  37
HETATM   37  O3  UNL     1      -4.339  48.737 -32.184  1.00  0.00    -0.398 OA
HETATM   38  H17 UNL     1      -3.780  48.479 -32.937  1.00  0.00     0.209 HD
ENDBRANCH  36  37
ENDBRANCH  32  36
ENDBRANCH  29  32
ENDBRANCH  28  29
ENDBRANCH  27  28
ENDBRANCH  25  27
ENDBRANCH   1  25
TORSDOF 9
ENDMDL
MODEL 9
REMARK minimizedAffinity -7.09684134
REMARK CNNscore 0.408576638
REMARK CNNaffinity 6.47141695
REMARK  9 active torsions:
REMARK  status: ('A' for Active; 'I' for Inactive)
REMARK    1  A    between atoms: C2_2  and  C3_3 
REMARK    2  A    between atoms: C2_2  and  C9_12 
REMARK    3  A    between atoms: C3_3  and  C4_4 
REMARK    4  A    between atoms: C4_4  and  C5_5 
REMARK    5  A    between atoms: C5_5  and  O1_6 
REMARK    6  A    between atoms: C5_5  and  C6_7 
REMARK    7  A    between atoms: C6_7  and  O2_9 
REMARK    8  A    between atoms: C6_7  and  C8_10 
REMARK    9  A    between atoms: C8_10  and  O3_11 
ROOT
HETATM    1  C9  UNL     1      -3.418  50.787 -10.846  1.00  0.00    -0.002 C 
HETATM    2  C10 UNL     1      -4.237  52.097 -10.931  1.00  0.00     0.007 C 
HETATM    3  C11 UNL     1      -3.231  53.261 -10.753  1.00  0.00     0.015 C 
HETATM    4  C12 UNL     1      -1.830  52.620 -10.877  1.00  0.00    -0.005 C 
HETATM    5  C13 UNL     1      -1.506  52.539 -12.401  1.00  0.00     0.021 C 
HETATM    6  C14 UNL     1      -0.598  53.274 -10.263  1.00  0.00    -0.000 C 
HETATM    7  C15 UNL     1       0.458  52.526  -9.845  1.00  0.00    -0.060 C 
HETATM    8  C16 UNL     1       0.414  50.990  -9.916  1.00  0.00     0.036 C 
HETATM    9  C17 UNL     1      -0.893  50.331 -10.402  1.00  0.00     0.015 C 
HETATM   10  C18 UNL     1      -2.099  51.243 -10.161  1.00  0.00    -0.028 C 
HETATM   11  C19 UNL     1      -2.303  51.379  -8.620  1.00  0.00     0.016 C 
HETATM   12  C20 UNL     1       1.730  53.153  -9.211  1.00  0.00    -0.014 C 
HETATM   13  C21 UNL     1       1.487  53.134  -7.684  1.00  0.00     0.020 C 
HETATM   14  C22 UNL     1       3.004  52.332  -9.542  1.00  0.00     0.021 C 
HETATM   15  C23 UNL     1       4.289  52.978  -9.052  1.00  0.00     0.080 C 
HETATM   16  C24 UNL     1       4.449  54.362  -9.626  1.00  0.00     0.135 C 
HETATM   17  O4  UNL     1       5.537  54.709 -10.091  1.00  0.00    -0.297 OA
HETATM   18  C25 UNL     1       3.266  55.333  -9.495  1.00  0.00     0.018 C 
HETATM   19  C26 UNL     1       3.477  56.469 -10.531  1.00  0.00     0.023 C 
HETATM   20  C27 UNL     1       3.332  55.978  -8.103  1.00  0.00     0.023 C 
HETATM   21  C28 UNL     1       1.926  54.583  -9.823  1.00  0.00     0.020 C 
HETATM   22  C29 UNL     1       0.673  55.431  -9.585  1.00  0.00     0.090 C 
HETATM   23  C30 UNL     1      -0.554  54.770 -10.167  1.00  0.00     0.157 C 
HETATM   24  O5  UNL     1      -1.503  55.462 -10.531  1.00  0.00    -0.293 OA
ENDROOT
BRANCH   1  25
HETATM   25  C2  UNL     1      -4.153  49.529 -10.288  1.00  0.00    -0.014 C 
HETATM   26  C1  UNL     1      -3.738  49.100  -8.874  1.00  0.00     0.010 C 
BRANCH  25  27
HETATM   27  C3  UNL     1      -5.683  49.781 -10.322  1.00  0.00     0.007 C 
BRANCH  27  28
HETATM   28  C4  UNL     1      -6.556  48.927  -9.392  1.00  0.00     0.035 C 
BRANCH  28  29
HETATM   29  C5  UNL     1      -8.067  49.194  -9.318  1.00  0.00     0.154 C 
BRANCH  29  30
HETATM   30  O1  UNL     1      -8.378  49.910  -8.113  1.00  0.00    -0.392 OA
HETATM   31  H10 UNL     1      -9.351  49.890  -8.029  1.00  0.00     0.210 HD
ENDBRANCH  29  30
BRANCH  29  32
HETATM   32  C6  UNL     1      -9.092  48.036  -9.519  1.00  0.00     0.101 C 
HETATM   33  C7  UNL     1      -8.566  46.651  -9.128  1.00  0.00     0.051 C 
BRANCH  32  34
HETATM   34  O2  UNL     1     -10.165  48.294  -8.569  1.00  0.00    -0.385 OA
HETATM   35  H14 UNL     1     -10.538  49.172  -8.770  1.00  0.00     0.210 HD
ENDBRANCH  32  34
BRANCH  32  36
HETATM   36  C8  UNL     1      -9.714  48.013 -10.930  1.00  0.00     0.204 C 
BRANCH  36  37
HETATM   37  O3  UNL     1      -9.054  48.881 -11.836  1.00  0.00    -0.398 OA
HETATM   38  H17 UNL     1      -9.432  48.724 -12.719  1.00  0.00     0.209 HD
ENDBRANCH  36  37
ENDBRANCH  32  36
ENDBRANCH  29  32
ENDBRANCH  28  29
ENDBRANCH  27  28
ENDBRANCH  25  27
ENDBRANCH   1  25
TORSDOF 9
ENDMDL
