MODEL 1
REMARK minimizedAffinity -7.43504953
REMARK CNNscore 0.875217676
REMARK CNNaffinity 7.2326417
REMARK  8 active torsions:
REMARK  status: ('A' for Active; 'I' for Inactive)
REMARK    1  A    between atoms: C2_2  and  C30_33 
REMARK    2  A    between atoms: C3_3  and  C4_4 
REMARK    3  A    between atoms: C4_4  and  C5_5 
REMARK    4  A    between atoms: C5_5  and  C6_6 
REMARK    5  A    between atoms: C6_6  and  C8_8 
REMARK    6  A    between atoms: C21_22  and  O2_23 
REMARK    7  A    between atoms: C23_25  and  O3_26 
REMARK    8  A    between atoms: C30_33  and  O4_34 
ROOT
HETATM    1  C8  UNL     1       4.941  55.664  -8.975  1.00  0.00    -0.001 C 
HETATM    2  C9  UNL     1       4.094  56.754  -8.262  1.00  0.00     0.007 C 
HETATM    3  C10 UNL     1       2.622  56.502  -8.646  1.00  0.00     0.015 C 
HETATM    4  C11 UNL     1       2.686  55.509  -9.822  1.00  0.00    -0.012 C 
HETATM    5  C12 UNL     1       2.936  56.339 -11.122  1.00  0.00     0.021 C 
HETATM    6  C13 UNL     1       1.472  54.647 -10.136  1.00  0.00    -0.060 C 
HETATM    7  C14 UNL     1       1.613  53.460 -10.777  1.00  0.00     0.002 C 
HETATM    8  C15 UNL     1       3.017  52.993 -11.139  1.00  0.00     0.157 C 
HETATM    9  O1  UNL     1       3.179  52.068 -11.944  1.00  0.00    -0.293 OA
HETATM   10  C16 UNL     1       4.243  53.675 -10.534  1.00  0.00     0.094 C 
HETATM   11  C17 UNL     1       3.882  54.592  -9.367  1.00  0.00    -0.022 C 
HETATM   12  C18 UNL     1       3.528  53.694  -8.144  1.00  0.00     0.017 C 
HETATM   13  C19 UNL     1       0.413  52.588 -11.231  1.00  0.00     0.017 C 
HETATM   14  C20 UNL     1       0.248  52.905 -12.744  1.00  0.00     0.023 C 
HETATM   15  C21 UNL     1       0.703  51.060 -10.972  1.00  0.00     0.134 C 
HETATM   16  C22 UNL     1      -0.469  50.253 -10.399  1.00  0.00     0.065 C 
HETATM   17  C23 UNL     1      -1.810  50.648 -11.013  1.00  0.00     0.128 C 
HETATM   18  C24 UNL     1      -2.163  52.146 -10.737  1.00  0.00    -0.017 C 
HETATM   19  C25 UNL     1      -3.075  52.171  -9.477  1.00  0.00     0.018 C 
HETATM   20  C26 UNL     1      -3.005  52.751 -11.881  1.00  0.00     0.018 C 
HETATM   21  C27 UNL     1      -0.863  52.982 -10.400  1.00  0.00     0.011 C 
HETATM   22  C28 UNL     1      -1.076  54.509 -10.389  1.00  0.00     0.011 C 
HETATM   23  C29 UNL     1       0.125  55.226  -9.773  1.00  0.00     0.036 C 
ENDROOT
BRANCH   1  24
HETATM   24  C6  UNL     1       6.276  55.335  -8.245  1.00  0.00    -0.014 C 
HETATM   25  C7  UNL     1       6.920  54.064  -8.812  1.00  0.00     0.010 C 
BRANCH  24  26
HETATM   26  C5  UNL     1       6.247  55.288  -6.702  1.00  0.00     0.008 C 
BRANCH  26  27
HETATM   27  C4  UNL     1       7.654  55.308  -6.085  1.00  0.00     0.028 C 
BRANCH  27  28
HETATM   28  C3  UNL     1       8.009  56.689  -5.609  1.00  0.00    -0.022 C 
HETATM   29  C2  UNL     1       9.222  57.146  -5.236  1.00  0.00    -0.064 C 
HETATM   30  C1  UNL     1      10.494  56.342  -5.272  1.00  0.00     0.045 C 
BRANCH  29  31
HETATM   31  C30 UNL     1       9.394  58.566  -4.763  1.00  0.00     0.197 C 
BRANCH  31  32
HETATM   32  O4  UNL     1      10.619  59.076  -5.271  1.00  0.00    -0.397 OA
HETATM   33  H48 UNL     1      10.777  59.918  -4.818  1.00  0.00     0.209 HD
ENDBRANCH  31  32
ENDBRANCH  29  31
ENDBRANCH  27  28
ENDBRANCH  26  27
ENDBRANCH  24  26
ENDBRANCH   1  24
BRANCH  15  34
HETATM   34  O2  UNL     1       1.095  50.408 -12.188  1.00  0.00    -0.394 OA
HETATM   35  H30 UNL     1       2.043  50.645 -12.325  1.00  0.00     0.210 HD
ENDBRANCH  15  34
BRANCH  17  36
HETATM   36  O3  UNL     1      -1.820  50.324 -12.402  1.00  0.00    -0.395 OA
HETATM   37  H34 UNL     1      -0.898  50.263 -12.713  1.00  0.00     0.210 HD
ENDBRANCH  17  36
TORSDOF 8
ENDMDL
MODEL 2
REMARK minimizedAffinity -8.32624149
REMARK CNNscore 0.677510142
REMARK CNNaffinity 6.9702487
REMARK  8 active torsions:
REMARK  status: ('A' for Active; 'I' for Inactive)
REMARK    1  A    between atoms: C2_2  and  C30_33 
REMARK    2  A    between atoms: C3_3  and  C4_4 
REMARK    3  A    between atoms: C4_4  and  C5_5 
REMARK    4  A    between atoms: C5_5  and  C6_6 
REMARK    5  A    between atoms: C6_6  and  C8_8 
REMARK    6  A    between atoms: C21_22  and  O2_23 
REMARK    7  A    between atoms: C23_25  and  O3_26 
REMARK    8  A    between atoms: C30_33  and  O4_34 
ROOT
HETATM    1  C8  UNL     1      -0.709  52.359 -21.522  1.00  0.00    -0.001 C 
HETATM    2  C9  UNL     1       0.664  53.059 -21.722  1.00  0.00     0.007 C 
HETATM    3  C10 UNL     1       1.370  53.064 -20.352  1.00  0.00     0.015 C 
HETATM    4  C11 UNL     1       0.270  52.687 -19.340  1.00  0.00    -0.012 C 
HETATM    5  C12 UNL     1      -0.516  53.993 -18.997  1.00  0.00     0.021 C 
HETATM    6  C13 UNL     1       0.667  52.103 -17.992  1.00  0.00    -0.060 C 
HETATM    7  C14 UNL     1      -0.192  51.315 -17.300  1.00  0.00     0.002 C 
HETATM    8  C15 UNL     1      -1.546  50.995 -17.923  1.00  0.00     0.157 C 
HETATM    9  O1  UNL     1      -2.452  50.512 -17.233  1.00  0.00    -0.293 OA
HETATM   10  C16 UNL     1      -1.812  51.289 -19.398  1.00  0.00     0.094 C 
HETATM   11  C17 UNL     1      -0.532  51.614 -20.166  1.00  0.00    -0.022 C 
HETATM   12  C18 UNL     1       0.257  50.286 -20.366  1.00  0.00     0.017 C 
HETATM   13  C19 UNL     1       0.099  50.782 -15.873  1.00  0.00     0.017 C 
HETATM   14  C20 UNL     1      -0.683  51.739 -14.930  1.00  0.00     0.023 C 
HETATM   15  C21 UNL     1      -0.373  49.285 -15.727  1.00  0.00     0.134 C 
HETATM   16  C22 UNL     1       0.590  48.358 -14.973  1.00  0.00     0.065 C 
HETATM   17  C23 UNL     1       1.240  49.040 -13.771  1.00  0.00     0.128 C 
HETATM   18  C24 UNL     1       2.098  50.278 -14.191  1.00  0.00    -0.017 C 
HETATM   19  C25 UNL     1       3.568  49.784 -14.325  1.00  0.00     0.018 C 
HETATM   20  C26 UNL     1       2.113  51.359 -13.090  1.00  0.00     0.018 C 
HETATM   21  C27 UNL     1       1.650  50.824 -15.607  1.00  0.00     0.011 C 
HETATM   22  C28 UNL     1       2.244  52.198 -15.973  1.00  0.00     0.011 C 
HETATM   23  C29 UNL     1       2.013  52.520 -17.449  1.00  0.00     0.036 C 
ENDROOT
BRANCH   1  24
HETATM   24  C6  UNL     1      -1.260  51.686 -22.814  1.00  0.00    -0.014 C 
HETATM   25  C7  UNL     1      -0.283  51.852 -23.985  1.00  0.00     0.010 C 
BRANCH  24  26
HETATM   26  C5  UNL     1      -2.695  52.053 -23.247  1.00  0.00     0.008 C 
BRANCH  26  27
HETATM   27  C4  UNL     1      -2.884  51.997 -24.771  1.00  0.00     0.028 C 
BRANCH  27  28
HETATM   28  C3  UNL     1      -3.401  50.650 -25.195  1.00  0.00    -0.022 C 
HETATM   29  C2  UNL     1      -3.438  50.136 -26.441  1.00  0.00    -0.064 C 
HETATM   30  C1  UNL     1      -2.909  50.822 -27.673  1.00  0.00     0.045 C 
BRANCH  29  31
HETATM   31  C30 UNL     1      -4.012  48.766 -26.689  1.00  0.00     0.197 C 
BRANCH  31  32
HETATM   32  O4  UNL     1      -3.453  48.240 -27.884  1.00  0.00    -0.397 OA
HETATM   33  H48 UNL     1      -3.961  47.443 -28.101  1.00  0.00     0.209 HD
ENDBRANCH  31  32
ENDBRANCH  29  31
ENDBRANCH  27  28
ENDBRANCH  26  27
ENDBRANCH  24  26
ENDBRANCH   1  24
BRANCH  15  34
HETATM   34  O2  UNL     1      -1.630  49.218 -15.039  1.00  0.00    -0.394 OA
HETATM   35  H30 UNL     1      -2.315  49.451 -15.711  1.00  0.00     0.210 HD
ENDBRANCH  15  34
BRANCH  17  36
HETATM   36  O3  UNL     1       0.246  49.361 -12.800  1.00  0.00    -0.395 OA
HETATM   37  H34 UNL     1      -0.621  49.403 -13.246  1.00  0.00     0.210 HD
ENDBRANCH  17  36
TORSDOF 8
ENDMDL
MODEL 3
REMARK minimizedAffinity -8.79231071
REMARK CNNscore 0.563944519
REMARK CNNaffinity 6.9147296
REMARK  8 active torsions:
REMARK  status: ('A' for Active; 'I' for Inactive)
REMARK    1  A    between atoms: C2_2  and  C30_33 
REMARK    2  A    between atoms: C3_3  and  C4_4 
REMARK    3  A    between atoms: C4_4  and  C5_5 
REMARK    4  A    between atoms: C5_5  and  C6_6 
REMARK    5  A    between atoms: C6_6  and  C8_8 
REMARK    6  A    between atoms: C21_22  and  O2_23 
REMARK    7  A    between atoms: C23_25  and  O3_26 
REMARK    8  A    between atoms: C30_33  and  O4_34 
ROOT
HETATM    1  C8  UNL     1      -0.597  52.348 -21.703  1.00  0.00    -0.001 C 
HETATM    2  C9  UNL     1       0.864  52.875 -21.661  1.00  0.00     0.007 C 
HETATM    3  C10 UNL     1       1.354  52.721 -20.208  1.00  0.00     0.015 C 
HETATM    4  C11 UNL     1       0.080  52.438 -19.388  1.00  0.00    -0.012 C 
HETATM    5  C12 UNL     1      -0.587  53.815 -19.071  1.00  0.00     0.021 C 
HETATM    6  C13 UNL     1       0.201  51.741 -18.041  1.00  0.00    -0.060 C 
HETATM    7  C14 UNL     1      -0.839  51.035 -17.532  1.00  0.00     0.002 C 
HETATM    8  C15 UNL     1      -2.115  50.923 -18.359  1.00  0.00     0.157 C 
HETATM    9  O1  UNL     1      -3.163  50.526 -17.838  1.00  0.00    -0.293 OA
HETATM   10  C16 UNL     1      -2.122  51.323 -19.833  1.00  0.00     0.094 C 
HETATM   11  C17 UNL     1      -0.713  51.520 -20.390  1.00  0.00    -0.022 C 
HETATM   12  C18 UNL     1      -0.068  50.113 -20.567  1.00  0.00     0.017 C 
HETATM   13  C19 UNL     1      -0.828  50.399 -16.118  1.00  0.00     0.017 C 
HETATM   14  C20 UNL     1      -1.621  51.400 -15.231  1.00  0.00     0.023 C 
HETATM   15  C21 UNL     1      -1.492  48.970 -16.142  1.00  0.00     0.134 C 
HETATM   16  C22 UNL     1      -0.769  47.890 -15.325  1.00  0.00     0.065 C 
HETATM   17  C23 UNL     1      -0.227  48.422 -14.000  1.00  0.00     0.128 C 
HETATM   18  C24 UNL     1       0.826  49.559 -14.210  1.00  0.00    -0.017 C 
HETATM   19  C25 UNL     1       2.229  48.889 -14.169  1.00  0.00     0.018 C 
HETATM   20  C26 UNL     1       0.806  50.573 -13.046  1.00  0.00     0.018 C 
HETATM   21  C27 UNL     1       0.660  50.229 -15.634  1.00  0.00     0.011 C 
HETATM   22  C28 UNL     1       1.462  51.532 -15.818  1.00  0.00     0.011 C 
HETATM   23  C29 UNL     1       1.492  51.955 -17.287  1.00  0.00     0.036 C 
ENDROOT
BRANCH   1  24
HETATM   24  C6  UNL     1      -1.028  51.817 -23.103  1.00  0.00    -0.014 C 
HETATM   25  C7  UNL     1      -1.990  50.629 -22.973  1.00  0.00     0.010 C 
BRANCH  24  26
HETATM   26  C5  UNL     1       0.093  51.500 -24.116  1.00  0.00     0.008 C 
BRANCH  26  27
HETATM   27  C4  UNL     1      -0.453  51.127 -25.502  1.00  0.00     0.028 C 
BRANCH  27  28
HETATM   28  C3  UNL     1      -0.736  52.360 -26.314  1.00  0.00    -0.022 C 
HETATM   29  C2  UNL     1      -0.126  52.758 -27.450  1.00  0.00    -0.064 C 
HETATM   30  C1  UNL     1       0.957  51.990 -28.161  1.00  0.00     0.045 C 
BRANCH  29  31
HETATM   31  C30 UNL     1      -0.527  54.042 -28.126  1.00  0.00     0.197 C 
BRANCH  31  32
HETATM   32  O4  UNL     1      -1.920  54.005 -28.400  1.00  0.00    -0.397 OA
HETATM   33  H48 UNL     1      -2.110  54.761 -28.976  1.00  0.00     0.209 HD
ENDBRANCH  31  32
ENDBRANCH  29  31
ENDBRANCH  27  28
ENDBRANCH  26  27
ENDBRANCH  24  26
ENDBRANCH   1  24
BRANCH  15  34
HETATM   34  O2  UNL     1      -2.836  49.030 -15.643  1.00  0.00    -0.394 OA
HETATM   35  H30 UNL     1      -3.381  49.381 -16.387  1.00  0.00     0.210 HD
ENDBRANCH  15  34
BRANCH  17  36
HETATM   36  O3  UNL     1      -1.308  48.818 -13.159  1.00  0.00    -0.395 OA
HETATM   37  H34 UNL     1      -2.088  48.994 -13.718  1.00  0.00     0.210 HD
ENDBRANCH  17  36
TORSDOF 8
ENDMDL
MODEL 4
REMARK minimizedAffinity -7.42882252
REMARK CNNscore 0.527307749
REMARK CNNaffinity 6.65983534
REMARK  8 active torsions:
REMARK  status: ('A' for Active; 'I' for Inactive)
REMARK    1  A    between atoms: C2_2  and  C30_33 
REMARK    2  A    between atoms: C3_3  and  C4_4 
REMARK    3  A    between atoms: C4_4  and  C5_5 
REMARK    4  A    between atoms: C5_5  and  C6_6 
REMARK    5  A    between atoms: C6_6  and  C8_8 
REMARK    6  A    between atoms: C21_22  and  O2_23 
REMARK    7  A    between atoms: C23_25  and  O3_26 
REMARK    8  A    between atoms: C30_33  and  O4_34 
ROOT
HETATM    1  C8  UNL     1       0.896  55.058  -9.406  1.00  0.00    -0.001 C 
HETATM    2  C9  UNL     1       0.209  54.999  -8.013  1.00  0.00     0.007 C 
HETATM    3  C10 UNL     1      -0.939  53.976  -8.122  1.00  0.00     0.015 C 
HETATM    4  C11 UNL     1      -1.107  53.730  -9.634  1.00  0.00    -0.012 C 
HETATM    5  C12 UNL     1      -2.007  54.877 -10.197  1.00  0.00     0.021 C 
HETATM    6  C13 UNL     1      -1.767  52.444 -10.111  1.00  0.00    -0.060 C 
HETATM    7  C14 UNL     1      -1.501  51.946 -11.344  1.00  0.00     0.002 C 
HETATM    8  C15 UNL     1      -0.496  52.681 -12.222  1.00  0.00     0.157 C 
HETATM    9  O1  UNL     1      -0.419  52.426 -13.430  1.00  0.00    -0.293 OA
HETATM   10  C16 UNL     1       0.411  53.759 -11.631  1.00  0.00     0.094 C 
HETATM   11  C17 UNL     1       0.395  53.759 -10.104  1.00  0.00    -0.022 C 
HETATM   12  C18 UNL     1       1.209  52.523  -9.616  1.00  0.00     0.017 C 
HETATM   13  C19 UNL     1      -2.223  50.709 -11.938  1.00  0.00     0.017 C 
HETATM   14  C20 UNL     1      -3.311  51.303 -12.876  1.00  0.00     0.023 C 
HETATM   15  C21 UNL     1      -1.206  49.788 -12.715  1.00  0.00     0.134 C 
HETATM   16  C22 UNL     1      -1.372  48.279 -12.486  1.00  0.00     0.065 C 
HETATM   17  C23 UNL     1      -2.837  47.854 -12.416  1.00  0.00     0.128 C 
HETATM   18  C24 UNL     1      -3.591  48.540 -11.230  1.00  0.00    -0.017 C 
HETATM   19  C25 UNL     1      -3.558  47.542 -10.037  1.00  0.00     0.018 C 
HETATM   20  C26 UNL     1      -5.084  48.759 -11.558  1.00  0.00     0.018 C 
HETATM   21  C27 UNL     1      -2.846  49.857 -10.770  1.00  0.00     0.011 C 
HETATM   22  C28 UNL     1      -3.659  50.741  -9.804  1.00  0.00     0.011 C 
HETATM   23  C29 UNL     1      -2.779  51.822  -9.178  1.00  0.00     0.036 C 
ENDROOT
BRANCH   1  24
HETATM   24  C6  UNL     1       2.391  55.487  -9.345  1.00  0.00    -0.014 C 
HETATM   25  C7  UNL     1       2.652  56.426  -8.160  1.00  0.00     0.010 C 
BRANCH  24  26
HETATM   26  C5  UNL     1       3.019  56.055 -10.637  1.00  0.00     0.008 C 
BRANCH  26  27
HETATM   27  C4  UNL     1       4.502  55.685 -10.784  1.00  0.00     0.028 C 
BRANCH  27  28
HETATM   28  C3  UNL     1       4.773  54.324 -10.204  1.00  0.00    -0.022 C 
HETATM   29  C2  UNL     1       5.769  53.967  -9.368  1.00  0.00    -0.064 C 
HETATM   30  C1  UNL     1       6.803  54.908  -8.807  1.00  0.00     0.045 C 
BRANCH  29  31
HETATM   31  C30 UNL     1       5.902  52.542  -8.897  1.00  0.00     0.197 C 
BRANCH  31  32
HETATM   32  O4  UNL     1       7.165  52.037  -9.305  1.00  0.00    -0.397 OA
HETATM   33  H48 UNL     1       7.150  51.083  -9.136  1.00  0.00     0.209 HD
ENDBRANCH  31  32
ENDBRANCH  29  31
ENDBRANCH  27  28
ENDBRANCH  26  27
ENDBRANCH  24  26
ENDBRANCH   1  24
BRANCH  15  34
HETATM   34  O2  UNL     1      -1.311  50.002 -14.129  1.00  0.00    -0.394 OA
HETATM   35  H30 UNL     1      -0.815  50.836 -14.311  1.00  0.00     0.210 HD
ENDBRANCH  15  34
BRANCH  17  36
HETATM   36  O3  UNL     1      -3.467  48.079 -13.676  1.00  0.00    -0.395 OA
HETATM   37  H34 UNL     1      -2.954  48.751 -14.163  1.00  0.00     0.210 HD
ENDBRANCH  17  36
TORSDOF 8
ENDMDL
MODEL 5
REMARK minimizedAffinity -7.52237701
REMARK CNNscore 0.52342391
REMARK CNNaffinity 6.40947533
REMARK  8 active torsions:
REMARK  status: ('A' for Active; 'I' for Inactive)
REMARK    1  A    between atoms: C2_2  and  C30_33 
REMARK    2  A    between atoms: C3_3  and  C4_4 
REMARK    3  A    between atoms: C4_4  and  C5_5 
REMARK    4  A    between atoms: C5_5  and  C6_6 
REMARK    5  A    between atoms: C6_6  and  C8_8 
REMARK    6  A    between atoms: C21_22  and  O2_23 
REMARK    7  A    between atoms: C23_25  and  O3_26 
REMARK    8  A    between atoms: C30_33  and  O4_34 
ROOT
HETATM    1  C8  UNL     1      -6.998  47.763 -22.924  1.00  0.00    -0.001 C 
HETATM    2  C9  UNL     1      -6.710  46.298 -22.491  1.00  0.00     0.007 C 
HETATM    3  C10 UNL     1      -7.722  45.403 -23.232  1.00  0.00     0.015 C 
HETATM    4  C11 UNL     1      -8.773  46.379 -23.796  1.00  0.00    -0.012 C 
HETATM    5  C12 UNL     1      -9.796  46.677 -22.652  1.00  0.00     0.021 C 
HETATM    6  C13 UNL     1      -9.626  45.951 -24.981  1.00  0.00    -0.060 C 
HETATM    7  C14 UNL     1     -10.170  46.876 -25.811  1.00  0.00     0.002 C 
HETATM    8  C15 UNL     1      -9.875  48.348 -25.551  1.00  0.00     0.157 C 
HETATM    9  O1  UNL     1     -10.548  49.227 -26.103  1.00  0.00    -0.293 OA
HETATM   10  C16 UNL     1      -8.763  48.759 -24.587  1.00  0.00     0.094 C 
HETATM   11  C17 UNL     1      -7.857  47.588 -24.212  1.00  0.00    -0.022 C 
HETATM   12  C18 UNL     1      -6.951  47.271 -25.439  1.00  0.00     0.017 C 
HETATM   13  C19 UNL     1     -11.141  46.519 -26.966  1.00  0.00     0.017 C 
HETATM   14  C20 UNL     1     -12.556  46.815 -26.395  1.00  0.00     0.023 C 
HETATM   15  C21 UNL     1     -10.825  47.380 -28.249  1.00  0.00     0.134 C 
HETATM   16  C22 UNL     1     -10.865  46.621 -29.582  1.00  0.00     0.065 C 
HETATM   17  C23 UNL     1     -12.006  45.606 -29.645  1.00  0.00     0.128 C 
HETATM   18  C24 UNL     1     -11.873  44.505 -28.543  1.00  0.00    -0.017 C 
HETATM   19  C25 UNL     1     -11.158  43.290 -29.202  1.00  0.00     0.018 C 
HETATM   20  C26 UNL     1     -13.255  43.988 -28.089  1.00  0.00     0.018 C 
HETATM   21  C27 UNL     1     -10.962  45.003 -27.350  1.00  0.00     0.011 C 
HETATM   22  C28 UNL     1     -11.002  44.101 -26.101  1.00  0.00     0.011 C 
HETATM   23  C29 UNL     1      -9.891  44.471 -25.120  1.00  0.00     0.036 C 
ENDROOT
BRANCH   1  24
HETATM   24  C6  UNL     1      -5.755  48.696 -22.833  1.00  0.00    -0.014 C 
HETATM   25  C7  UNL     1      -6.004  50.025 -23.556  1.00  0.00     0.010 C 
BRANCH  24  26
HETATM   26  C5  UNL     1      -4.390  48.102 -23.244  1.00  0.00     0.008 C 
BRANCH  26  27
HETATM   27  C4  UNL     1      -3.661  48.965 -24.284  1.00  0.00     0.028 C 
BRANCH  27  28
HETATM   28  C3  UNL     1      -3.858  48.413 -25.669  1.00  0.00    -0.022 C 
HETATM   29  C2  UNL     1      -3.675  49.049 -26.844  1.00  0.00    -0.064 C 
HETATM   30  C1  UNL     1      -3.178  50.463 -26.990  1.00  0.00     0.045 C 
BRANCH  29  31
HETATM   31  C30 UNL     1      -3.941  48.343 -28.148  1.00  0.00     0.197 C 
BRANCH  31  32
HETATM   32  O4  UNL     1      -4.419  49.288 -29.095  1.00  0.00    -0.397 OA
HETATM   33  H48 UNL     1      -4.735  48.780 -29.858  1.00  0.00     0.209 HD
ENDBRANCH  31  32
ENDBRANCH  29  31
ENDBRANCH  27  28
ENDBRANCH  26  27
ENDBRANCH  24  26
ENDBRANCH   1  24
BRANCH  15  34
HETATM   34  O2  UNL     1     -11.754  48.467 -28.368  1.00  0.00    -0.394 OA
HETATM   35  H30 UNL     1     -11.442  49.155 -27.733  1.00  0.00     0.210 HD
ENDBRANCH  15  34
BRANCH  17  36
HETATM   36  O3  UNL     1     -13.259  46.284 -29.601  1.00  0.00    -0.395 OA
HETATM   37  H34 UNL     1     -13.123  47.162 -29.197  1.00  0.00     0.210 HD
ENDBRANCH  17  36
TORSDOF 8
ENDMDL
MODEL 6
REMARK minimizedAffinity -7.67741394
REMARK CNNscore 0.405586988
REMARK CNNaffinity 6.13591528
REMARK  8 active torsions:
REMARK  status: ('A' for Active; 'I' for Inactive)
REMARK    1  A    between atoms: C2_2  and  C30_33 
REMARK    2  A    between atoms: C3_3  and  C4_4 
REMARK    3  A    between atoms: C4_4  and  C5_5 
REMARK    4  A    between atoms: C5_5  and  C6_6 
REMARK    5  A    between atoms: C6_6  and  C8_8 
REMARK    6  A    between atoms: C21_22  and  O2_23 
REMARK    7  A    between atoms: C23_25  and  O3_26 
REMARK    8  A    between atoms: C30_33  and  O4_34 
ROOT
HETATM    1  C8  UNL     1     -14.603  44.994 -25.502  1.00  0.00    -0.001 C 
HETATM    2  C9  UNL     1     -14.720  43.654 -26.278  1.00  0.00     0.007 C 
HETATM    3  C10 UNL     1     -13.686  43.704 -27.420  1.00  0.00     0.015 C 
HETATM    4  C11 UNL     1     -13.245  45.179 -27.489  1.00  0.00    -0.012 C 
HETATM    5  C12 UNL     1     -14.305  45.943 -28.346  1.00  0.00     0.021 C 
HETATM    6  C13 UNL     1     -11.905  45.528 -28.120  1.00  0.00    -0.060 C 
HETATM    7  C14 UNL     1     -11.253  46.666 -27.775  1.00  0.00     0.002 C 
HETATM    8  C15 UNL     1     -11.874  47.565 -26.713  1.00  0.00     0.157 C 
HETATM    9  O1  UNL     1     -11.466  48.721 -26.557  1.00  0.00    -0.293 OA
HETATM   10  C16 UNL     1     -13.025  47.060 -25.843  1.00  0.00     0.094 C 
HETATM   11  C17 UNL     1     -13.222  45.549 -25.959  1.00  0.00    -0.022 C 
HETATM   12  C18 UNL     1     -12.064  44.854 -25.183  1.00  0.00     0.017 C 
HETATM   13  C19 UNL     1      -9.946  47.141 -28.460  1.00  0.00     0.017 C 
HETATM   14  C20 UNL     1     -10.407  48.216 -29.483  1.00  0.00     0.023 C 
HETATM   15  C21 UNL     1      -8.938  47.724 -27.397  1.00  0.00     0.134 C 
HETATM   16  C22 UNL     1      -7.470  47.314 -27.582  1.00  0.00     0.065 C 
HETATM   17  C23 UNL     1      -7.049  47.285 -29.050  1.00  0.00     0.128 C 
HETATM   18  C24 UNL     1      -7.878  46.249 -29.878  1.00  0.00    -0.017 C 
HETATM   19  C25 UNL     1      -7.044  44.937 -29.925  1.00  0.00     0.018 C 
HETATM   20  C26 UNL     1      -8.044  46.699 -31.345  1.00  0.00     0.018 C 
HETATM   21  C27 UNL     1      -9.249  45.916 -29.160  1.00  0.00     0.011 C 
HETATM   22  C28 UNL     1     -10.245  45.128 -30.032  1.00  0.00     0.011 C 
HETATM   23  C29 UNL     1     -11.403  44.590 -29.192  1.00  0.00     0.036 C 
ENDROOT
BRANCH   1  24
HETATM   24  C6  UNL     1     -15.044  44.892 -24.012  1.00  0.00    -0.014 C 
HETATM   25  C7  UNL     1     -15.923  43.657 -23.777  1.00  0.00     0.010 C 
BRANCH  24  26
HETATM   26  C5  UNL     1     -15.686  46.144 -23.375  1.00  0.00     0.008 C 
BRANCH  26  27
HETATM   27  C4  UNL     1     -16.331  47.071 -24.416  1.00  0.00     0.028 C 
BRANCH  27  28
HETATM   28  C3  UNL     1     -17.686  46.560 -24.819  1.00  0.00    -0.022 C 
HETATM   29  C2  UNL     1     -18.743  46.306 -24.020  1.00  0.00    -0.064 C 
HETATM   30  C1  UNL     1     -18.775  46.539 -22.533  1.00  0.00     0.045 C 
BRANCH  29  31
HETATM   31  C30 UNL     1     -20.029  45.775 -24.596  1.00  0.00     0.197 C 
BRANCH  31  32
HETATM   32  O4  UNL     1     -19.892  45.662 -26.005  1.00  0.00    -0.397 OA
HETATM   33  H48 UNL     1     -20.777  45.480 -26.357  1.00  0.00     0.209 HD
ENDBRANCH  31  32
ENDBRANCH  29  31
ENDBRANCH  27  28
ENDBRANCH  26  27
ENDBRANCH  24  26
ENDBRANCH   1  24
BRANCH  15  34
HETATM   34  O2  UNL     1      -8.967  49.158 -27.409  1.00  0.00    -0.394 OA
HETATM   35  H30 UNL     1      -9.773  49.413 -26.900  1.00  0.00     0.210 HD
ENDBRANCH  15  34
BRANCH  17  36
HETATM   36  O3  UNL     1      -7.106  48.602 -29.595  1.00  0.00    -0.395 OA
HETATM   37  H34 UNL     1      -7.713  49.137 -29.050  1.00  0.00     0.210 HD
ENDBRANCH  17  36
TORSDOF 8
ENDMDL
MODEL 7
REMARK minimizedAffinity -7.03767395
REMARK CNNscore 0.371159941
REMARK CNNaffinity 5.9285903
REMARK  8 active torsions:
REMARK  status: ('A' for Active; 'I' for Inactive)
REMARK    1  A    between atoms: C2_2  and  C30_33 
REMARK    2  A    between atoms: C3_3  and  C4_4 
REMARK    3  A    between atoms: C4_4  and  C5_5 
REMARK    4  A    between atoms: C5_5  and  C6_6 
REMARK    5  A    between atoms: C6_6  and  C8_8 
REMARK    6  A    between atoms: C21_22  and  O2_23 
REMARK    7  A    between atoms: C23_25  and  O3_26 
REMARK    8  A    between atoms: C30_33  and  O4_34 
ROOT
HETATM    1  C8  UNL     1      -9.803  47.005 -28.383  1.00  0.00    -0.001 C 
HETATM    2  C9  UNL     1     -10.706  47.204 -29.632  1.00  0.00     0.007 C 
HETATM    3  C10 UNL     1     -12.138  46.812 -29.217  1.00  0.00     0.015 C 
HETATM    4  C11 UNL     1     -11.973  46.082 -27.870  1.00  0.00    -0.012 C 
HETATM    5  C12 UNL     1     -11.603  44.597 -28.186  1.00  0.00     0.021 C 
HETATM    6  C13 UNL     1     -13.158  45.997 -26.919  1.00  0.00    -0.060 C 
HETATM    7  C14 UNL     1     -12.965  45.840 -25.586  1.00  0.00     0.002 C 
HETATM    8  C15 UNL     1     -11.536  45.792 -25.060  1.00  0.00     0.157 C 
HETATM    9  O1  UNL     1     -11.306  45.392 -23.913  1.00  0.00    -0.293 OA
HETATM   10  C16 UNL     1     -10.366  46.214 -25.948  1.00  0.00     0.094 C 
HETATM   11  C17 UNL     1     -10.827  46.937 -27.212  1.00  0.00    -0.022 C 
HETATM   12  C18 UNL     1     -11.293  48.366 -26.804  1.00  0.00     0.017 C 
HETATM   13  C19 UNL     1     -14.123  45.630 -24.576  1.00  0.00     0.017 C 
HETATM   14  C20 UNL     1     -14.150  44.096 -24.324  1.00  0.00     0.023 C 
HETATM   15  C21 UNL     1     -13.865  46.446 -23.252  1.00  0.00     0.134 C 
HETATM   16  C22 UNL     1     -15.087  47.169 -22.671  1.00  0.00     0.065 C 
HETATM   17  C23 UNL     1     -16.366  46.341 -22.781  1.00  0.00     0.128 C 
HETATM   18  C24 UNL     1     -16.736  46.028 -24.268  1.00  0.00    -0.017 C 
HETATM   19  C25 UNL     1     -17.757  47.112 -24.718  1.00  0.00     0.018 C 
HETATM   20  C26 UNL     1     -17.468  44.676 -24.398  1.00  0.00     0.018 C 
HETATM   21  C27 UNL     1     -15.467  46.152 -25.206  1.00  0.00     0.011 C 
HETATM   22  C28 UNL     1     -15.673  45.594 -26.628  1.00  0.00     0.011 C 
HETATM   23  C29 UNL     1     -14.530  46.010 -27.552  1.00  0.00     0.036 C 
ENDROOT
BRANCH   1  24
HETATM   24  C6  UNL     1      -8.540  47.917 -28.376  1.00  0.00    -0.014 C 
HETATM   25  C7  UNL     1      -8.440  48.737 -29.669  1.00  0.00     0.010 C 
BRANCH  24  26
HETATM   26  C5  UNL     1      -7.186  47.250 -28.050  1.00  0.00     0.008 C 
BRANCH  26  27
HETATM   27  C4  UNL     1      -6.000  47.974 -28.704  1.00  0.00     0.028 C 
BRANCH  27  28
HETATM   28  C3  UNL     1      -4.881  48.165 -27.717  1.00  0.00    -0.022 C 
HETATM   29  C2  UNL     1      -4.968  48.221 -26.373  1.00  0.00    -0.064 C 
HETATM   30  C1  UNL     1      -6.239  48.052 -25.583  1.00  0.00     0.045 C 
BRANCH  29  31
HETATM   31  C30 UNL     1      -3.737  48.439 -25.533  1.00  0.00     0.197 C 
BRANCH  31  32
HETATM   32  O4  UNL     1      -2.595  48.433 -26.378  1.00  0.00    -0.397 OA
HETATM   33  H48 UNL     1      -1.820  48.407 -25.796  1.00  0.00     0.209 HD
ENDBRANCH  31  32
ENDBRANCH  29  31
ENDBRANCH  27  28
ENDBRANCH  26  27
ENDBRANCH  24  26
ENDBRANCH   1  24
BRANCH  15  34
HETATM   34  O2  UNL     1     -13.368  45.584 -22.218  1.00  0.00    -0.394 OA
HETATM   35  H30 UNL     1     -12.410  45.453 -22.416  1.00  0.00     0.210 HD
ENDBRANCH  15  34
BRANCH  17  36
HETATM   36  O3  UNL     1     -16.253  45.166 -21.981  1.00  0.00    -0.395 OA
HETATM   37  H34 UNL     1     -15.306  44.979 -21.838  1.00  0.00     0.210 HD
ENDBRANCH  17  36
TORSDOF 8
ENDMDL
MODEL 8
REMARK minimizedAffinity -7.25036812
REMARK CNNscore 0.342276633
REMARK CNNaffinity 5.85742188
REMARK  8 active torsions:
REMARK  status: ('A' for Active; 'I' for Inactive)
REMARK    1  A    between atoms: C2_2  and  C30_33 
REMARK    2  A    between atoms: C3_3  and  C4_4 
REMARK    3  A    between atoms: C4_4  and  C5_5 
REMARK    4  A    between atoms: C5_5  and  C6_6 
REMARK    5  A    between atoms: C6_6  and  C8_8 
REMARK    6  A    between atoms: C21_22  and  O2_23 
REMARK    7  A    between atoms: C23_25  and  O3_26 
REMARK    8  A    between atoms: C30_33  and  O4_34 
ROOT
HETATM    1  C8  UNL     1     -15.172  44.871 -26.039  1.00  0.00    -0.001 C 
HETATM    2  C9  UNL     1     -15.137  43.509 -26.786  1.00  0.00     0.007 C 
HETATM    3  C10 UNL     1     -13.930  43.554 -27.745  1.00  0.00     0.015 C 
HETATM    4  C11 UNL     1     -13.510  45.037 -27.782  1.00  0.00    -0.012 C 
HETATM    5  C12 UNL     1     -14.428  45.756 -28.822  1.00  0.00     0.021 C 
HETATM    6  C13 UNL     1     -12.091  45.399 -28.195  1.00  0.00    -0.060 C 
HETATM    7  C14 UNL     1     -11.525  46.559 -27.781  1.00  0.00     0.002 C 
HETATM    8  C15 UNL     1     -12.328  47.470 -26.860  1.00  0.00     0.157 C 
HETATM    9  O1  UNL     1     -11.970  48.639 -26.672  1.00  0.00    -0.293 OA
HETATM   10  C16 UNL     1     -13.596  46.962 -26.176  1.00  0.00     0.094 C 
HETATM   11  C17 UNL     1     -13.744  45.445 -26.280  1.00  0.00    -0.022 C 
HETATM   12  C18 UNL     1     -12.717  44.795 -25.306  1.00  0.00     0.017 C 
HETATM   13  C19 UNL     1     -10.131  47.046 -28.256  1.00  0.00     0.017 C 
HETATM   14  C20 UNL     1     -10.438  48.086 -29.370  1.00  0.00     0.023 C 
HETATM   15  C21 UNL     1      -9.321  47.677 -27.060  1.00  0.00     0.134 C 
HETATM   16  C22 UNL     1      -7.837  47.295 -26.991  1.00  0.00     0.065 C 
HETATM   17  C23 UNL     1      -7.181  47.239 -28.369  1.00  0.00     0.128 C 
HETATM   18  C24 UNL     1      -7.844  46.165 -29.292  1.00  0.00    -0.017 C 
HETATM   19  C25 UNL     1      -6.990  44.871 -29.166  1.00  0.00     0.018 C 
HETATM   20  C26 UNL     1      -7.776  46.575 -30.779  1.00  0.00     0.018 C 
HETATM   21  C27 UNL     1      -9.308  45.820 -28.799  1.00  0.00     0.011 C 
HETATM   22  C28 UNL     1     -10.134  44.988 -29.799  1.00  0.00     0.011 C 
HETATM   23  C29 UNL     1     -11.404  44.447 -29.145  1.00  0.00     0.036 C 
ENDROOT
BRANCH   1  24
HETATM   24  C6  UNL     1     -15.849  44.796 -24.639  1.00  0.00    -0.014 C 
HETATM   25  C7  UNL     1     -16.127  43.343 -24.234  1.00  0.00     0.010 C 
BRANCH  24  26
HETATM   26  C5  UNL     1     -17.099  45.673 -24.408  1.00  0.00     0.008 C 
BRANCH  26  27
HETATM   27  C4  UNL     1     -17.011  46.497 -23.115  1.00  0.00     0.028 C 
BRANCH  27  28
HETATM   28  C3  UNL     1     -15.586  46.879 -22.822  1.00  0.00    -0.022 C 
HETATM   29  C2  UNL     1     -15.014  47.064 -21.614  1.00  0.00    -0.064 C 
HETATM   30  C1  UNL     1     -15.709  46.872 -20.292  1.00  0.00     0.045 C 
BRANCH  29  31
HETATM   31  C30 UNL     1     -13.566  47.467 -21.505  1.00  0.00     0.197 C 
BRANCH  31  32
HETATM   32  O4  UNL     1     -12.908  47.157 -22.725  1.00  0.00    -0.397 OA
HETATM   33  H48 UNL     1     -11.959  47.271 -22.565  1.00  0.00     0.209 HD
ENDBRANCH  31  32
ENDBRANCH  29  31
ENDBRANCH  27  28
ENDBRANCH  26  27
ENDBRANCH  24  26
ENDBRANCH   1  24
BRANCH  15  34
HETATM   34  O2  UNL     1      -9.374  49.110 -27.116  1.00  0.00    -0.394 OA
HETATM   35  H30 UNL     1     -10.257  49.359 -26.753  1.00  0.00     0.210 HD
ENDBRANCH  15  34
BRANCH  17  36
HETATM   36  O3  UNL     1      -7.171  48.540 -28.953  1.00  0.00    -0.395 OA
HETATM   37  H34 UNL     1      -7.868  49.076 -28.529  1.00  0.00     0.210 HD
ENDBRANCH  17  36
TORSDOF 8
ENDMDL
MODEL 9
REMARK minimizedAffinity -8.2312088
REMARK CNNscore 0.321603149
REMARK CNNaffinity 6.520473
REMARK  8 active torsions:
REMARK  status: ('A' for Active; 'I' for Inactive)
REMARK    1  A    between atoms: C2_2  and  C30_33 
REMARK    2  A    between atoms: C3_3  and  C4_4 
REMARK    3  A    between atoms: C4_4  and  C5_5 
REMARK    4  A    between atoms: C5_5  and  C6_6 
REMARK    5  A    between atoms: C6_6  and  C8_8 
REMARK    6  A    between atoms: C21_22  and  O2_23 
REMARK    7  A    between atoms: C23_25  and  O3_26 
REMARK    8  A    between atoms: C30_33  and  O4_34 
ROOT
HETATM    1  C8  UNL     1      -2.450  49.822 -21.031  1.00  0.00    -0.001 C 
HETATM    2  C9  UNL     1      -1.639  51.012 -21.615  1.00  0.00     0.007 C 
HETATM    3  C10 UNL     1      -0.809  51.600 -20.458  1.00  0.00     0.015 C 
HETATM    4  C11 UNL     1      -1.406  50.972 -19.184  1.00  0.00    -0.012 C 
HETATM    5  C12 UNL     1      -2.656  51.821 -18.786  1.00  0.00     0.021 C 
HETATM    6  C13 UNL     1      -0.561  50.904 -17.920  1.00  0.00    -0.060 C 
HETATM    7  C14 UNL     1      -0.806  49.963 -16.974  1.00  0.00     0.002 C 
HETATM    8  C15 UNL     1      -1.919  48.953 -17.226  1.00  0.00     0.157 C 
HETATM    9  O1  UNL     1      -2.352  48.257 -16.300  1.00  0.00    -0.293 OA
HETATM   10  C16 UNL     1      -2.533  48.803 -18.617  1.00  0.00     0.094 C 
HETATM   11  C17 UNL     1      -1.715  49.515 -19.693  1.00  0.00    -0.022 C 
HETATM   12  C18 UNL     1      -0.429  48.676 -19.951  1.00  0.00     0.017 C 
HETATM   13  C19 UNL     1      -0.063  49.907 -15.614  1.00  0.00     0.017 C 
HETATM   14  C20 UNL     1      -1.043  50.570 -14.605  1.00  0.00     0.023 C 
HETATM   15  C21 UNL     1       0.276  48.418 -15.223  1.00  0.00     0.134 C 
HETATM   16  C22 UNL     1       1.676  48.191 -14.636  1.00  0.00     0.065 C 
HETATM   17  C23 UNL     1       2.105  49.311 -13.691  1.00  0.00     0.128 C 
HETATM   18  C24 UNL     1       2.177  50.695 -14.415  1.00  0.00    -0.017 C 
HETATM   19  C25 UNL     1       3.657  50.903 -14.847  1.00  0.00     0.018 C 
HETATM   20  C26 UNL     1       1.850  51.857 -13.453  1.00  0.00     0.018 C 
HETATM   21  C27 UNL     1       1.294  50.695 -15.728  1.00  0.00     0.011 C 
HETATM   22  C28 UNL     1       1.083  52.089 -16.350  1.00  0.00     0.011 C 
HETATM   23  C29 UNL     1       0.485  51.979 -17.752  1.00  0.00     0.036 C 
ENDROOT
BRANCH   1  24
HETATM   24  C6  UNL     1      -2.812  48.737 -22.088  1.00  0.00    -0.014 C 
HETATM   25  C7  UNL     1      -1.833  47.557 -22.031  1.00  0.00     0.010 C 
BRANCH  24  26
HETATM   26  C5  UNL     1      -3.013  49.205 -23.546  1.00  0.00     0.008 C 
BRANCH  26  27
HETATM   27  C4  UNL     1      -4.203  48.515 -24.228  1.00  0.00     0.028 C 
BRANCH  27  28
HETATM   28  C3  UNL     1      -4.032  48.508 -25.722  1.00  0.00    -0.022 C 
HETATM   29  C2  UNL     1      -4.950  48.185 -26.656  1.00  0.00    -0.064 C 
HETATM   30  C1  UNL     1      -6.377  47.801 -26.366  1.00  0.00     0.045 C 
BRANCH  29  31
HETATM   31  C30 UNL     1      -4.597  48.215 -28.120  1.00  0.00     0.197 C 
BRANCH  31  32
HETATM   32  O4  UNL     1      -5.732  48.646 -28.859  1.00  0.00    -0.397 OA
HETATM   33  H48 UNL     1      -5.527  48.495 -29.794  1.00  0.00     0.209 HD
ENDBRANCH  31  32
ENDBRANCH  29  31
ENDBRANCH  27  28
ENDBRANCH  26  27
ENDBRANCH  24  26
ENDBRANCH   1  24
BRANCH  15  34
HETATM   34  O2  UNL     1      -0.660  47.926 -14.253  1.00  0.00    -0.394 OA
HETATM   35  H30 UNL     1      -1.472  47.690 -14.762  1.00  0.00     0.210 HD
ENDBRANCH  15  34
BRANCH  17  36
HETATM   36  O3  UNL     1       1.255  49.330 -12.546  1.00  0.00    -0.395 OA
HETATM   37  H34 UNL     1       0.415  48.890 -12.776  1.00  0.00     0.210 HD
ENDBRANCH  17  36
TORSDOF 8
ENDMDL
