MODEL 1
REMARK minimizedAffinity -6.77999878
REMARK CNNscore 0.514385819
REMARK CNNaffinity 6.58414698
REMARK  9 active torsions:
REMARK  status: ('A' for Active; 'I' for Inactive)
REMARK    1  A    between atoms: C12_14  and  C13_15 
REMARK    2  A    between atoms: C13_15  and  C15_17 
REMARK    3  A    between atoms: C15_17  and  C16_18 
REMARK    4  A    between atoms: C16_18  and  C17_19 
REMARK    5  A    between atoms: C18_20  and  C20_22 
REMARK    6  A    between atoms: C26_29  and  C27_30 
REMARK    7  A    between atoms: C27_30  and  C28_31 
REMARK    8  A    between atoms: C28_31  and  C29_32 
REMARK    9  A    between atoms: C29_32  and  O5_34 
ROOT
HETATM    1  C1  UNL     1       6.018  57.939  -4.170  1.00  0.00     0.025 C 
HETATM    2  C2  UNL     1       5.146  57.672  -5.149  1.00  0.00     0.015 C 
HETATM    3  C3  UNL     1       3.678  57.716  -4.945  1.00  0.00     0.289 C 
HETATM    4  O1  UNL     1       3.094  57.731  -3.878  1.00  0.00    -0.260 OA
HETATM    5  O2  UNL     1       3.095  57.735  -6.177  1.00  0.00    -0.311 OA
HETATM    6  C4  UNL     1       4.111  57.957  -7.162  1.00  0.00     0.142 C 
HETATM    7  C5  UNL     1       3.724  57.378  -8.513  1.00  0.00     0.039 C 
HETATM    8  C6  UNL     1       3.519  55.861  -8.445  1.00  0.00     0.006 C 
HETATM    9  C7  UNL     1       4.804  55.159  -7.935  1.00  0.00    -0.027 A 
HETATM   10  C8  UNL     1       5.433  54.130  -8.880  1.00  0.00     0.011 C 
HETATM   11  C9  UNL     1       4.475  53.216  -9.668  1.00  0.00     0.011 C 
HETATM   12  C10 UNL     1       3.009  53.673  -9.671  1.00  0.00    -0.032 C 
HETATM   13  C11 UNL     1       2.336  53.114  -8.387  1.00  0.00     0.016 C 
HETATM   14  C12 UNL     1       2.162  53.268 -10.922  1.00  0.00    -0.002 C 
HETATM   15  C21 UNL     1       1.064  54.366 -10.994  1.00  0.00     0.006 C 
HETATM   16  C22 UNL     1       1.493  55.499 -10.043  1.00  0.00     0.011 C 
HETATM   17  C23 UNL     1       2.989  55.243  -9.771  1.00  0.00    -0.032 C 
HETATM   18  C24 UNL     1       3.762  55.830 -10.997  1.00  0.00     0.016 C 
HETATM   19  C25 UNL     1       4.816  54.823  -6.460  1.00  0.00     0.022 A 
HETATM   20  C26 UNL     1       5.736  55.930  -6.939  1.00  0.00    -0.021 A 
HETATM   21  C30 UNL     1       5.405  57.399  -6.590  1.00  0.00     0.063 C 
ENDROOT
BRANCH  14  22
HETATM   22  C13 UNL     1       1.626  51.824 -11.162  1.00  0.00    -0.014 C 
HETATM   23  C14 UNL     1       2.431  50.672 -10.546  1.00  0.00     0.010 C 
BRANCH  22  24
HETATM   24  C15 UNL     1       1.352  51.570 -12.662  1.00  0.00     0.008 C 
BRANCH  24  25
HETATM   25  C16 UNL     1       2.314  50.558 -13.295  1.00  0.00     0.028 C 
BRANCH  25  26
HETATM   26  C17 UNL     1       3.292  51.239 -14.215  1.00  0.00    -0.017 C 
HETATM   27  C18 UNL     1       3.034  51.896 -15.361  1.00  0.00    -0.028 C 
HETATM   28  C19 UNL     1       4.107  52.569 -16.164  1.00  0.00     0.051 C 
BRANCH  27  29
HETATM   29  C20 UNL     1       1.667  51.998 -15.955  1.00  0.00     0.265 C 
HETATM   30  O3  UNL     1       1.404  51.792 -17.133  1.00  0.00    -0.302 OA
ENDBRANCH  27  29
ENDBRANCH  25  26
ENDBRANCH  24  25
ENDBRANCH  22  24
ENDBRANCH  14  22
BRANCH  20  31
HETATM   31  C27 UNL     1       7.259  55.687  -6.990  1.00  0.00     0.021 C 
BRANCH  31  32
HETATM   32  C28 UNL     1       7.934  55.161  -5.729  1.00  0.00     0.111 C 
BRANCH  32  33
HETATM   33  C29 UNL     1       9.186  55.907  -5.367  1.00  0.00     0.139 C 
HETATM   34  O4  UNL     1       9.371  57.105  -5.485  1.00  0.00    -0.650 OA
BRANCH  33  35
HETATM   35  O5  UNL     1      10.133  55.118  -4.823  1.00  0.00    -0.776 OA
HETATM   36  H41 UNL     1      10.855  55.750  -4.615  1.00  0.00     0.167 HD
ENDBRANCH  33  35
ENDBRANCH  32  33
ENDBRANCH  31  32
ENDBRANCH  20  31
TORSDOF 9
ENDMDL
MODEL 2
REMARK minimizedAffinity -7.04785538
REMARK CNNscore 0.491283566
REMARK CNNaffinity 5.85404778
REMARK  9 active torsions:
REMARK  status: ('A' for Active; 'I' for Inactive)
REMARK    1  A    between atoms: C12_14  and  C13_15 
REMARK    2  A    between atoms: C13_15  and  C15_17 
REMARK    3  A    between atoms: C15_17  and  C16_18 
REMARK    4  A    between atoms: C16_18  and  C17_19 
REMARK    5  A    between atoms: C18_20  and  C20_22 
REMARK    6  A    between atoms: C26_29  and  C27_30 
REMARK    7  A    between atoms: C27_30  and  C28_31 
REMARK    8  A    between atoms: C28_31  and  C29_32 
REMARK    9  A    between atoms: C29_32  and  O5_34 
ROOT
HETATM    1  C1  UNL     1     -18.259  43.378 -26.077  1.00  0.00     0.025 C 
HETATM    2  C2  UNL     1     -17.137  43.758 -26.698  1.00  0.00     0.015 C 
HETATM    3  C3  UNL     1     -16.411  42.880 -27.646  1.00  0.00     0.289 C 
HETATM    4  O1  UNL     1     -16.559  41.681 -27.782  1.00  0.00    -0.260 OA
HETATM    5  O2  UNL     1     -15.540  43.663 -28.343  1.00  0.00    -0.311 OA
HETATM    6  C4  UNL     1     -15.840  45.037 -28.072  1.00  0.00     0.142 C 
HETATM    7  C5  UNL     1     -14.619  45.926 -28.243  1.00  0.00     0.039 C 
HETATM    8  C6  UNL     1     -13.492  45.537 -27.281  1.00  0.00     0.006 C 
HETATM    9  C7  UNL     1     -13.979  45.612 -25.811  1.00  0.00    -0.027 A 
HETATM   10  C8  UNL     1     -13.218  46.574 -24.892  1.00  0.00     0.011 C 
HETATM   11  C9  UNL     1     -11.688  46.650 -25.064  1.00  0.00     0.011 C 
HETATM   12  C10 UNL     1     -11.154  46.013 -26.355  1.00  0.00    -0.032 C 
HETATM   13  C11 UNL     1     -10.954  44.495 -26.087  1.00  0.00     0.016 C 
HETATM   14  C12 UNL     1      -9.831  46.621 -26.928  1.00  0.00    -0.002 C 
HETATM   15  C21 UNL     1      -9.917  46.319 -28.450  1.00  0.00     0.006 C 
HETATM   16  C22 UNL     1     -11.364  45.880 -28.744  1.00  0.00     0.011 C 
HETATM   17  C23 UNL     1     -12.173  46.329 -27.511  1.00  0.00    -0.032 C 
HETATM   18  C24 UNL     1     -12.475  47.850 -27.719  1.00  0.00     0.016 C 
HETATM   19  C25 UNL     1     -14.413  44.295 -25.205  1.00  0.00     0.022 A 
HETATM   20  C26 UNL     1     -15.489  45.321 -25.504  1.00  0.00    -0.021 A 
HETATM   21  C30 UNL     1     -16.459  45.085 -26.684  1.00  0.00     0.063 C 
ENDROOT
BRANCH  14  22
HETATM   22  C13 UNL     1      -8.426  46.348 -26.310  1.00  0.00    -0.014 C 
HETATM   23  C14 UNL     1      -8.357  46.183 -24.786  1.00  0.00     0.010 C 
BRANCH  22  24
HETATM   24  C15 UNL     1      -7.386  47.379 -26.805  1.00  0.00     0.008 C 
BRANCH  24  25
HETATM   25  C16 UNL     1      -6.413  47.836 -25.713  1.00  0.00     0.028 C 
BRANCH  25  26
HETATM   26  C17 UNL     1      -5.057  48.150 -26.288  1.00  0.00    -0.017 C 
HETATM   27  C18 UNL     1      -3.928  48.466 -25.626  1.00  0.00    -0.028 C 
HETATM   28  C19 UNL     1      -2.625  48.714 -26.326  1.00  0.00     0.051 C 
BRANCH  27  29
HETATM   29  C20 UNL     1      -3.867  48.622 -24.141  1.00  0.00     0.265 C 
HETATM   30  O3  UNL     1      -2.876  48.396 -23.460  1.00  0.00    -0.302 OA
ENDBRANCH  27  29
ENDBRANCH  25  26
ENDBRANCH  24  25
ENDBRANCH  22  24
ENDBRANCH  14  22
BRANCH  20  31
HETATM   31  C27 UNL     1     -16.179  46.065 -24.342  1.00  0.00     0.021 C 
BRANCH  31  32
HETATM   32  C28 UNL     1     -17.237  47.103 -24.696  1.00  0.00     0.111 C 
BRANCH  32  33
HETATM   33  C29 UNL     1     -18.633  46.675 -24.343  1.00  0.00     0.139 C 
HETATM   34  O4  UNL     1     -19.651  46.968 -24.946  1.00  0.00    -0.650 OA
BRANCH  33  35
HETATM   35  O5  UNL     1     -18.682  45.855 -23.276  1.00  0.00    -0.776 OA
HETATM   36  H41 UNL     1     -19.638  45.644 -23.202  1.00  0.00     0.167 HD
ENDBRANCH  33  35
ENDBRANCH  32  33
ENDBRANCH  31  32
ENDBRANCH  20  31
TORSDOF 9
ENDMDL
MODEL 3
REMARK minimizedAffinity -6.62435293
REMARK CNNscore 0.351765662
REMARK CNNaffinity 6.3177743
REMARK  9 active torsions:
REMARK  status: ('A' for Active; 'I' for Inactive)
REMARK    1  A    between atoms: C12_14  and  C13_15 
REMARK    2  A    between atoms: C13_15  and  C15_17 
REMARK    3  A    between atoms: C15_17  and  C16_18 
REMARK    4  A    between atoms: C16_18  and  C17_19 
REMARK    5  A    between atoms: C18_20  and  C20_22 
REMARK    6  A    between atoms: C26_29  and  C27_30 
REMARK    7  A    between atoms: C27_30  and  C28_31 
REMARK    8  A    between atoms: C28_31  and  C29_32 
REMARK    9  A    between atoms: C29_32  and  O5_34 
ROOT
HETATM    1  C1  UNL     1      -0.976  50.526 -11.578  1.00  0.00     0.025 C 
HETATM    2  C2  UNL     1       0.254  51.013 -11.375  1.00  0.00     0.015 C 
HETATM    3  C3  UNL     1       1.401  50.155 -10.993  1.00  0.00     0.289 C 
HETATM    4  O1  UNL     1       1.345  49.015 -10.573  1.00  0.00    -0.260 OA
HETATM    5  O2  UNL     1       2.538  50.879 -11.198  1.00  0.00    -0.311 OA
HETATM    6  C4  UNL     1       2.201  52.066 -11.925  1.00  0.00     0.142 C 
HETATM    7  C5  UNL     1       3.186  53.192 -11.655  1.00  0.00     0.039 C 
HETATM    8  C6  UNL     1       3.207  53.588 -10.175  1.00  0.00     0.006 C 
HETATM    9  C7  UNL     1       1.793  54.020  -9.707  1.00  0.00    -0.027 A 
HETATM   10  C8  UNL     1       1.666  55.447  -9.163  1.00  0.00     0.011 C 
HETATM   11  C9  UNL     1       2.819  55.973  -8.286  1.00  0.00     0.011 C 
HETATM   12  C10 UNL     1       4.104  55.135  -8.344  1.00  0.00    -0.032 C 
HETATM   13  C11 UNL     1       3.967  53.984  -7.308  1.00  0.00     0.016 C 
HETATM   14  C12 UNL     1       5.443  55.905  -8.093  1.00  0.00    -0.002 C 
HETATM   15  C21 UNL     1       6.501  55.062  -8.858  1.00  0.00     0.006 C 
HETATM   16  C22 UNL     1       5.732  54.081  -9.762  1.00  0.00     0.011 C 
HETATM   17  C23 UNL     1       4.297  54.642  -9.825  1.00  0.00    -0.032 C 
HETATM   18  C24 UNL     1       4.322  55.781 -10.896  1.00  0.00     0.016 C 
HETATM   19  C25 UNL     1       0.991  52.950  -8.999  1.00  0.00     0.022 A 
HETATM   20  C26 UNL     1       0.543  53.364 -10.388  1.00  0.00    -0.021 A 
HETATM   21  C30 UNL     1       0.759  52.400 -11.576  1.00  0.00     0.063 C 
ENDROOT
BRANCH  14  22
HETATM   22  C13 UNL     1       5.910  56.373  -6.681  1.00  0.00    -0.014 C 
HETATM   23  C14 UNL     1       5.692  57.851  -6.331  1.00  0.00     0.010 C 
BRANCH  22  24
HETATM   24  C15 UNL     1       7.368  55.945  -6.403  1.00  0.00     0.008 C 
BRANCH  24  25
HETATM   25  C16 UNL     1       8.145  56.947  -5.542  1.00  0.00     0.028 C 
BRANCH  25  26
HETATM   26  C17 UNL     1       9.513  56.424  -5.196  1.00  0.00    -0.017 C 
HETATM   27  C18 UNL     1      10.620  57.130  -4.896  1.00  0.00    -0.028 C 
HETATM   28  C19 UNL     1      11.918  56.476  -4.525  1.00  0.00     0.051 C 
BRANCH  27  29
HETATM   29  C20 UNL     1      10.671  58.623  -4.925  1.00  0.00     0.265 C 
HETATM   30  O3  UNL     1       9.690  59.352  -4.860  1.00  0.00    -0.302 OA
ENDBRANCH  27  29
ENDBRANCH  25  26
ENDBRANCH  24  25
ENDBRANCH  22  24
ENDBRANCH  14  22
BRANCH  20  31
HETATM   31  C27 UNL     1      -0.745  54.195 -10.558  1.00  0.00     0.021 C 
BRANCH  31  32
HETATM   32  C28 UNL     1      -1.973  53.768  -9.762  1.00  0.00     0.111 C 
BRANCH  32  33
HETATM   33  C29 UNL     1      -3.166  53.465 -10.621  1.00  0.00     0.139 C 
HETATM   34  O4  UNL     1      -3.879  52.480 -10.545  1.00  0.00    -0.650 OA
BRANCH  33  35
HETATM   35  O5  UNL     1      -3.442  54.442 -11.507  1.00  0.00    -0.776 OA
HETATM   36  H41 UNL     1      -4.251  54.113 -11.956  1.00  0.00     0.167 HD
ENDBRANCH  33  35
ENDBRANCH  32  33
ENDBRANCH  31  32
ENDBRANCH  20  31
TORSDOF 9
ENDMDL
MODEL 4
REMARK minimizedAffinity -6.9221282
REMARK CNNscore 0.248682573
REMARK CNNaffinity 5.41113043
REMARK  9 active torsions:
REMARK  status: ('A' for Active; 'I' for Inactive)
REMARK    1  A    between atoms: C12_14  and  C13_15 
REMARK    2  A    between atoms: C13_15  and  C15_17 
REMARK    3  A    between atoms: C15_17  and  C16_18 
REMARK    4  A    between atoms: C16_18  and  C17_19 
REMARK    5  A    between atoms: C18_20  and  C20_22 
REMARK    6  A    between atoms: C26_29  and  C27_30 
REMARK    7  A    between atoms: C27_30  and  C28_31 
REMARK    8  A    between atoms: C28_31  and  C29_32 
REMARK    9  A    between atoms: C29_32  and  O5_34 
ROOT
HETATM    1  C1  UNL     1      -9.762  46.031 -35.024  1.00  0.00     0.025 C 
HETATM    2  C2  UNL     1     -10.126  45.538 -33.835  1.00  0.00     0.015 C 
HETATM    3  C3  UNL     1     -11.344  44.714 -33.651  1.00  0.00     0.289 C 
HETATM    4  O1  UNL     1     -12.268  44.600 -34.434  1.00  0.00    -0.260 OA
HETATM    5  O2  UNL     1     -11.244  44.103 -32.437  1.00  0.00    -0.311 OA
HETATM    6  C4  UNL     1      -9.915  44.292 -31.937  1.00  0.00     0.142 C 
HETATM    7  C5  UNL     1      -9.870  44.241 -30.418  1.00  0.00     0.039 C 
HETATM    8  C6  UNL     1     -10.726  45.345 -29.787  1.00  0.00     0.006 C 
HETATM    9  C7  UNL     1     -10.255  46.742 -30.268  1.00  0.00    -0.027 A 
HETATM   10  C8  UNL     1      -9.794  47.714 -29.176  1.00  0.00     0.011 C 
HETATM   11  C9  UNL     1     -10.593  47.727 -27.859  1.00  0.00     0.011 C 
HETATM   12  C10 UNL     1     -11.538  46.531 -27.669  1.00  0.00    -0.032 C 
HETATM   13  C11 UNL     1     -12.879  46.870 -28.376  1.00  0.00     0.016 C 
HETATM   14  C12 UNL     1     -11.821  46.103 -26.191  1.00  0.00    -0.002 C 
HETATM   15  C21 UNL     1     -12.165  44.592 -26.305  1.00  0.00     0.006 C 
HETATM   16  C22 UNL     1     -11.757  44.139 -27.719  1.00  0.00     0.011 C 
HETATM   17  C23 UNL     1     -10.821  45.250 -28.236  1.00  0.00    -0.032 C 
HETATM   18  C24 UNL     1      -9.415  44.959 -27.617  1.00  0.00     0.016 C 
HETATM   19  C25 UNL     1     -11.048  47.333 -31.412  1.00  0.00     0.022 A 
HETATM   20  C26 UNL     1      -9.632  46.872 -31.699  1.00  0.00    -0.021 A 
HETATM   21  C30 UNL     1      -9.402  45.592 -32.535  1.00  0.00     0.063 C 
ENDROOT
BRANCH  14  22
HETATM   22  C13 UNL     1     -12.765  46.895 -25.236  1.00  0.00    -0.014 C 
HETATM   23  C14 UNL     1     -12.765  46.482 -23.759  1.00  0.00     0.010 C 
BRANCH  22  24
HETATM   24  C15 UNL     1     -14.204  46.959 -25.797  1.00  0.00     0.008 C 
BRANCH  24  25
HETATM   25  C16 UNL     1     -15.261  46.427 -24.823  1.00  0.00     0.028 C 
BRANCH  25  26
HETATM   26  C17 UNL     1     -16.328  45.650 -25.549  1.00  0.00    -0.017 C 
HETATM   27  C18 UNL     1     -17.662  45.829 -25.501  1.00  0.00    -0.028 C 
HETATM   28  C19 UNL     1     -18.616  45.006 -26.314  1.00  0.00     0.051 C 
BRANCH  27  29
HETATM   29  C20 UNL     1     -18.320  46.842 -24.622  1.00  0.00     0.265 C 
HETATM   30  O3  UNL     1     -19.425  47.326 -24.827  1.00  0.00    -0.302 OA
ENDBRANCH  27  29
ENDBRANCH  25  26
ENDBRANCH  24  25
ENDBRANCH  22  24
ENDBRANCH  14  22
BRANCH  20  31
HETATM   31  C27 UNL     1      -8.525  47.918 -31.947  1.00  0.00     0.021 C 
BRANCH  31  32
HETATM   32  C28 UNL     1      -7.097  47.411 -32.110  1.00  0.00     0.111 C 
BRANCH  32  33
HETATM   33  C29 UNL     1      -6.098  48.166 -31.282  1.00  0.00     0.139 C 
HETATM   34  O4  UNL     1      -4.884  48.088 -31.367  1.00  0.00    -0.650 OA
BRANCH  33  35
HETATM   35  O5  UNL     1      -6.669  49.028 -30.419  1.00  0.00    -0.776 OA
HETATM   36  H41 UNL     1      -5.897  49.457 -29.989  1.00  0.00     0.167 HD
ENDBRANCH  33  35
ENDBRANCH  32  33
ENDBRANCH  31  32
ENDBRANCH  20  31
TORSDOF 9
ENDMDL
MODEL 5
REMARK minimizedAffinity -6.92592287
REMARK CNNscore 0.24842678
REMARK CNNaffinity 5.37740755
REMARK  9 active torsions:
REMARK  status: ('A' for Active; 'I' for Inactive)
REMARK    1  A    between atoms: C12_14  and  C13_15 
REMARK    2  A    between atoms: C13_15  and  C15_17 
REMARK    3  A    between atoms: C15_17  and  C16_18 
REMARK    4  A    between atoms: C16_18  and  C17_19 
REMARK    5  A    between atoms: C18_20  and  C20_22 
REMARK    6  A    between atoms: C26_29  and  C27_30 
REMARK    7  A    between atoms: C27_30  and  C28_31 
REMARK    8  A    between atoms: C28_31  and  C29_32 
REMARK    9  A    between atoms: C29_32  and  O5_34 
ROOT
HETATM    1  C1  UNL     1      -5.932  47.654 -33.771  1.00  0.00     0.025 C 
HETATM    2  C2  UNL     1      -6.662  47.833 -32.663  1.00  0.00     0.015 C 
HETATM    3  C3  UNL     1      -6.052  48.057 -31.331  1.00  0.00     0.289 C 
HETATM    4  O1  UNL     1      -4.893  47.854 -31.021  1.00  0.00    -0.260 OA
HETATM    5  O2  UNL     1      -7.029  48.532 -30.509  1.00  0.00    -0.311 OA
HETATM    6  C4  UNL     1      -8.175  48.863 -31.302  1.00  0.00     0.142 C 
HETATM    7  C5  UNL     1      -9.462  48.778 -30.498  1.00  0.00     0.039 C 
HETATM    8  C6  UNL     1      -9.706  47.364 -29.962  1.00  0.00     0.006 C 
HETATM    9  C7  UNL     1      -9.761  46.342 -31.126  1.00  0.00    -0.027 A 
HETATM   10  C8  UNL     1     -11.064  45.546 -31.269  1.00  0.00     0.011 C 
HETATM   11  C9  UNL     1     -11.748  45.075 -29.971  1.00  0.00     0.011 C 
HETATM   12  C10 UNL     1     -11.231  45.747 -28.691  1.00  0.00    -0.032 C 
HETATM   13  C11 UNL     1      -9.984  44.954 -28.210  1.00  0.00     0.016 C 
HETATM   14  C12 UNL     1     -12.255  45.872 -27.515  1.00  0.00    -0.002 C 
HETATM   15  C21 UNL     1     -11.750  47.109 -26.718  1.00  0.00     0.006 C 
HETATM   16  C22 UNL     1     -10.713  47.826 -27.603  1.00  0.00     0.011 C 
HETATM   17  C23 UNL     1     -10.940  47.258 -29.018  1.00  0.00    -0.032 C 
HETATM   18  C24 UNL     1     -12.154  48.044 -29.613  1.00  0.00     0.016 C 
HETATM   19  C25 UNL     1      -8.475  45.590 -31.388  1.00  0.00     0.022 A 
HETATM   20  C26 UNL     1      -8.911  46.622 -32.412  1.00  0.00    -0.021 A 
HETATM   21  C30 UNL     1      -8.140  47.957 -32.523  1.00  0.00     0.063 C 
ENDROOT
BRANCH  14  22
HETATM   22  C13 UNL     1     -12.676  44.672 -26.615  1.00  0.00    -0.014 C 
HETATM   23  C14 UNL     1     -13.037  43.362 -27.328  1.00  0.00     0.010 C 
BRANCH  22  24
HETATM   24  C15 UNL     1     -13.779  45.082 -25.613  1.00  0.00     0.008 C 
BRANCH  24  25
HETATM   25  C16 UNL     1     -15.028  45.662 -26.285  1.00  0.00     0.028 C 
BRANCH  25  26
HETATM   26  C17 UNL     1     -15.985  46.221 -25.265  1.00  0.00    -0.017 C 
HETATM   27  C18 UNL     1     -17.312  46.015 -25.173  1.00  0.00    -0.028 C 
HETATM   28  C19 UNL     1     -18.146  46.602 -24.074  1.00  0.00     0.051 C 
BRANCH  27  29
HETATM   29  C20 UNL     1     -18.085  45.203 -26.162  1.00  0.00     0.265 C 
HETATM   30  O3  UNL     1     -19.076  45.599 -26.761  1.00  0.00    -0.302 OA
ENDBRANCH  27  29
ENDBRANCH  25  26
ENDBRANCH  24  25
ENDBRANCH  22  24
ENDBRANCH  14  22
BRANCH  20  31
HETATM   31  C27 UNL     1      -9.442  46.158 -33.784  1.00  0.00     0.021 C 
BRANCH  31  32
HETATM   32  C28 UNL     1      -8.835  46.793 -35.029  1.00  0.00     0.111 C 
BRANCH  32  33
HETATM   33  C29 UNL     1      -9.365  46.218 -36.311  1.00  0.00     0.139 C 
HETATM   34  O4  UNL     1     -10.292  45.436 -36.422  1.00  0.00    -0.650 OA
BRANCH  33  35
HETATM   35  O5  UNL     1      -8.738  46.694 -37.404  1.00  0.00    -0.776 OA
HETATM   36  H41 UNL     1      -9.215  46.257 -38.142  1.00  0.00     0.167 HD
ENDBRANCH  33  35
ENDBRANCH  32  33
ENDBRANCH  31  32
ENDBRANCH  20  31
TORSDOF 9
ENDMDL
MODEL 6
REMARK minimizedAffinity -8.51246262
REMARK CNNscore 0.234519988
REMARK CNNaffinity 6.62612963
REMARK  9 active torsions:
REMARK  status: ('A' for Active; 'I' for Inactive)
REMARK    1  A    between atoms: C12_14  and  C13_15 
REMARK    2  A    between atoms: C13_15  and  C15_17 
REMARK    3  A    between atoms: C15_17  and  C16_18 
REMARK    4  A    between atoms: C16_18  and  C17_19 
REMARK    5  A    between atoms: C18_20  and  C20_22 
REMARK    6  A    between atoms: C26_29  and  C27_30 
REMARK    7  A    between atoms: C27_30  and  C28_31 
REMARK    8  A    between atoms: C28_31  and  C29_32 
REMARK    9  A    between atoms: C29_32  and  O5_34 
ROOT
HETATM    1  C1  UNL     1      -7.479  47.772 -25.585  1.00  0.00     0.025 C 
HETATM    2  C2  UNL     1      -6.814  48.092 -24.469  1.00  0.00     0.015 C 
HETATM    3  C3  UNL     1      -7.451  48.799 -23.333  1.00  0.00     0.289 C 
HETATM    4  O1  UNL     1      -8.513  49.392 -23.352  1.00  0.00    -0.260 OA
HETATM    5  O2  UNL     1      -6.628  48.667 -22.255  1.00  0.00    -0.311 OA
HETATM    6  C4  UNL     1      -5.616  47.703 -22.567  1.00  0.00     0.142 C 
HETATM    7  C5  UNL     1      -4.346  47.938 -21.765  1.00  0.00     0.039 C 
HETATM    8  C6  UNL     1      -3.733  49.311 -22.058  1.00  0.00     0.006 C 
HETATM    9  C7  UNL     1      -3.419  49.457 -23.570  1.00  0.00    -0.027 A 
HETATM   10  C8  UNL     1      -1.954  49.721 -23.936  1.00  0.00     0.011 C 
HETATM   11  C9  UNL     1      -1.160  50.675 -23.023  1.00  0.00     0.011 C 
HETATM   12  C10 UNL     1      -1.827  50.976 -21.672  1.00  0.00    -0.032 C 
HETATM   13  C11 UNL     1      -2.817  52.154 -21.885  1.00  0.00     0.016 C 
HETATM   14  C12 UNL     1      -0.863  51.311 -20.486  1.00  0.00    -0.002 C 
HETATM   15  C21 UNL     1      -1.670  50.888 -19.227  1.00  0.00     0.006 C 
HETATM   16  C22 UNL     1      -2.866  50.049 -19.715  1.00  0.00     0.011 C 
HETATM   17  C23 UNL     1      -2.508  49.653 -21.161  1.00  0.00    -0.032 C 
HETATM   18  C24 UNL     1      -1.548  48.423 -21.051  1.00  0.00     0.016 C 
HETATM   19  C25 UNL     1      -4.464  50.192 -24.379  1.00  0.00     0.022 A 
HETATM   20  C26 UNL     1      -4.324  48.698 -24.601  1.00  0.00    -0.021 A 
HETATM   21  C30 UNL     1      -5.420  47.744 -24.074  1.00  0.00     0.063 C 
ENDROOT
BRANCH  14  22
HETATM   22  C13 UNL     1      -0.134  52.680 -20.337  1.00  0.00    -0.014 C 
HETATM   23  C14 UNL     1       1.254  52.803 -20.981  1.00  0.00     0.010 C 
BRANCH  22  24
HETATM   24  C15 UNL     1      -0.105  53.143 -18.863  1.00  0.00     0.008 C 
BRANCH  24  25
HETATM   25  C16 UNL     1       0.540  52.125 -17.916  1.00  0.00     0.028 C 
BRANCH  25  26
HETATM   26  C17 UNL     1       1.932  52.547 -17.529  1.00  0.00    -0.017 C 
HETATM   27  C18 UNL     1       2.546  52.390 -16.341  1.00  0.00    -0.028 C 
HETATM   28  C19 UNL     1       3.962  52.822 -16.101  1.00  0.00     0.051 C 
BRANCH  27  29
HETATM   29  C20 UNL     1       1.875  51.794 -15.146  1.00  0.00     0.265 C 
HETATM   30  O3  UNL     1       0.966  52.327 -14.523  1.00  0.00    -0.302 OA
ENDBRANCH  27  29
ENDBRANCH  25  26
ENDBRANCH  24  25
ENDBRANCH  22  24
ENDBRANCH  14  22
BRANCH  20  31
HETATM   31  C27 UNL     1      -3.698  48.177 -25.911  1.00  0.00     0.021 C 
BRANCH  31  32
HETATM   32  C28 UNL     1      -2.737  49.099 -26.652  1.00  0.00     0.111 C 
BRANCH  32  33
HETATM   33  C29 UNL     1      -3.390  49.883 -27.753  1.00  0.00     0.139 C 
HETATM   34  O4  UNL     1      -3.017  50.955 -28.195  1.00  0.00    -0.650 OA
BRANCH  33  35
HETATM   35  O5  UNL     1      -4.457  49.257 -28.287  1.00  0.00    -0.776 OA
HETATM   36  H41 UNL     1      -4.741  49.871 -28.999  1.00  0.00     0.167 HD
ENDBRANCH  33  35
ENDBRANCH  32  33
ENDBRANCH  31  32
ENDBRANCH  20  31
TORSDOF 9
ENDMDL
MODEL 7
REMARK minimizedAffinity -6.8155756
REMARK CNNscore 0.231148422
REMARK CNNaffinity 5.67444468
REMARK  9 active torsions:
REMARK  status: ('A' for Active; 'I' for Inactive)
REMARK    1  A    between atoms: C12_14  and  C13_15 
REMARK    2  A    between atoms: C13_15  and  C15_17 
REMARK    3  A    between atoms: C15_17  and  C16_18 
REMARK    4  A    between atoms: C16_18  and  C17_19 
REMARK    5  A    between atoms: C18_20  and  C20_22 
REMARK    6  A    between atoms: C26_29  and  C27_30 
REMARK    7  A    between atoms: C27_30  and  C28_31 
REMARK    8  A    between atoms: C28_31  and  C29_32 
REMARK    9  A    between atoms: C29_32  and  O5_34 
ROOT
HETATM    1  C1  UNL     1      -6.347  47.611 -33.416  1.00  0.00     0.025 C 
HETATM    2  C2  UNL     1      -7.329  46.903 -32.847  1.00  0.00     0.015 C 
HETATM    3  C3  UNL     1      -8.463  46.344 -33.620  1.00  0.00     0.289 C 
HETATM    4  O1  UNL     1      -8.791  46.650 -34.751  1.00  0.00    -0.260 OA
HETATM    5  O2  UNL     1      -9.079  45.418 -32.831  1.00  0.00    -0.311 OA
HETATM    6  C4  UNL     1      -8.255  45.171 -31.686  1.00  0.00     0.142 C 
HETATM    7  C5  UNL     1      -9.071  44.700 -30.494  1.00  0.00     0.039 C 
HETATM    8  C6  UNL     1     -10.102  45.748 -30.061  1.00  0.00     0.006 C 
HETATM    9  C7  UNL     1      -9.404  47.086 -29.708  1.00  0.00    -0.027 A 
HETATM   10  C8  UNL     1      -9.607  47.601 -28.278  1.00  0.00     0.011 C 
HETATM   11  C9  UNL     1     -11.007  47.426 -27.658  1.00  0.00     0.011 C 
HETATM   12  C10 UNL     1     -11.929  46.458 -28.414  1.00  0.00    -0.032 C 
HETATM   13  C11 UNL     1     -12.632  47.259 -29.545  1.00  0.00     0.016 C 
HETATM   14  C12 UNL     1     -13.004  45.716 -27.554  1.00  0.00    -0.002 C 
HETATM   15  C21 UNL     1     -13.267  44.405 -28.347  1.00  0.00     0.006 C 
HETATM   16  C22 UNL     1     -12.149  44.278 -29.398  1.00  0.00     0.011 C 
HETATM   17  C23 UNL     1     -11.054  45.257 -28.931  1.00  0.00    -0.032 C 
HETATM   18  C24 UNL     1     -10.246  44.511 -27.819  1.00  0.00     0.016 C 
HETATM   19  C25 UNL     1      -9.401  48.124 -30.808  1.00  0.00     0.022 A 
HETATM   20  C26 UNL     1      -8.081  47.464 -30.458  1.00  0.00    -0.021 A 
HETATM   21  C30 UNL     1      -7.458  46.442 -31.436  1.00  0.00     0.063 C 
ENDROOT
BRANCH  14  22
HETATM   22  C13 UNL     1     -14.299  46.402 -27.023  1.00  0.00    -0.014 C 
HETATM   23  C14 UNL     1     -14.261  46.939 -25.586  1.00  0.00     0.010 C 
BRANCH  22  24
HETATM   24  C15 UNL     1     -15.540  45.511 -27.251  1.00  0.00     0.008 C 
BRANCH  24  25
HETATM   25  C16 UNL     1     -16.212  45.056 -25.951  1.00  0.00     0.028 C 
BRANCH  25  26
HETATM   26  C17 UNL     1     -17.686  45.363 -25.962  1.00  0.00    -0.017 C 
HETATM   27  C18 UNL     1     -18.462  45.743 -24.930  1.00  0.00    -0.028 C 
HETATM   28  C19 UNL     1     -19.918  46.061 -25.089  1.00  0.00     0.051 C 
BRANCH  27  29
HETATM   29  C20 UNL     1     -17.958  45.862 -23.528  1.00  0.00     0.265 C 
HETATM   30  O3  UNL     1     -18.545  46.445 -22.626  1.00  0.00    -0.302 OA
ENDBRANCH  27  29
ENDBRANCH  25  26
ENDBRANCH  24  25
ENDBRANCH  22  24
ENDBRANCH  14  22
BRANCH  20  31
HETATM   31  C27 UNL     1      -6.997  48.273 -29.715  1.00  0.00     0.021 C 
BRANCH  31  32
HETATM   32  C28 UNL     1      -5.731  47.537 -29.293  1.00  0.00     0.111 C 
BRANCH  32  33
HETATM   33  C29 UNL     1      -4.795  48.380 -28.478  1.00  0.00     0.139 C 
HETATM   34  O4  UNL     1      -4.438  48.161 -27.333  1.00  0.00    -0.650 OA
BRANCH  33  35
HETATM   35  O5  UNL     1      -4.305  49.436 -29.156  1.00  0.00    -0.776 OA
HETATM   36  H41 UNL     1      -3.697  49.854 -28.508  1.00  0.00     0.167 HD
ENDBRANCH  33  35
ENDBRANCH  32  33
ENDBRANCH  31  32
ENDBRANCH  20  31
TORSDOF 9
ENDMDL
MODEL 8
REMARK minimizedAffinity -8.78934956
REMARK CNNscore 0.215072438
REMARK CNNaffinity 6.07217026
REMARK  9 active torsions:
REMARK  status: ('A' for Active; 'I' for Inactive)
REMARK    1  A    between atoms: C12_14  and  C13_15 
REMARK    2  A    between atoms: C13_15  and  C15_17 
REMARK    3  A    between atoms: C15_17  and  C16_18 
REMARK    4  A    between atoms: C16_18  and  C17_19 
REMARK    5  A    between atoms: C18_20  and  C20_22 
REMARK    6  A    between atoms: C26_29  and  C27_30 
REMARK    7  A    between atoms: C27_30  and  C28_31 
REMARK    8  A    between atoms: C28_31  and  C29_32 
REMARK    9  A    between atoms: C29_32  and  O5_34 
ROOT
HETATM    1  C1  UNL     1      -9.128  47.752 -20.834  1.00  0.00     0.025 C 
HETATM    2  C2  UNL     1      -7.863  48.006 -20.480  1.00  0.00     0.015 C 
HETATM    3  C3  UNL     1      -7.512  48.818 -19.291  1.00  0.00     0.289 C 
HETATM    4  O1  UNL     1      -8.259  49.546 -18.665  1.00  0.00    -0.260 OA
HETATM    5  O2  UNL     1      -6.194  48.602 -19.023  1.00  0.00    -0.311 OA
HETATM    6  C4  UNL     1      -5.737  47.505 -19.822  1.00  0.00     0.142 C 
HETATM    7  C5  UNL     1      -4.243  47.587 -20.093  1.00  0.00     0.039 C 
HETATM    8  C6  UNL     1      -3.873  48.860 -20.862  1.00  0.00     0.006 C 
HETATM    9  C7  UNL     1      -4.643  48.928 -22.206  1.00  0.00    -0.027 A 
HETATM   10  C8  UNL     1      -3.786  48.986 -23.476  1.00  0.00     0.011 C 
HETATM   11  C9  UNL     1      -2.509  49.846 -23.426  1.00  0.00     0.011 C 
HETATM   12  C10 UNL     1      -2.071  50.265 -22.015  1.00  0.00    -0.032 C 
HETATM   13  C11 UNL     1      -2.845  51.559 -21.641  1.00  0.00     0.016 C 
HETATM   14  C12 UNL     1      -0.537  50.496 -21.809  1.00  0.00    -0.002 C 
HETATM   15  C21 UNL     1      -0.323  50.213 -20.295  1.00  0.00     0.006 C 
HETATM   16  C22 UNL     1      -1.602  49.530 -19.776  1.00  0.00     0.011 C 
HETATM   17  C23 UNL     1      -2.340  49.056 -21.043  1.00  0.00    -0.032 C 
HETATM   18  C24 UNL     1      -1.661  47.713 -21.468  1.00  0.00     0.016 C 
HETATM   19  C25 UNL     1      -5.895  49.777 -22.193  1.00  0.00     0.022 A 
HETATM   20  C26 UNL     1      -6.064  48.273 -22.292  1.00  0.00    -0.021 A 
HETATM   21  C30 UNL     1      -6.599  47.485 -21.074  1.00  0.00     0.063 C 
ENDROOT
BRANCH  14  22
HETATM   22  C13 UNL     1       0.215  51.759 -22.327  1.00  0.00    -0.014 C 
HETATM   23  C14 UNL     1       0.498  52.868 -21.305  1.00  0.00     0.010 C 
BRANCH  22  24
HETATM   24  C15 UNL     1      -0.457  52.331 -23.596  1.00  0.00     0.008 C 
BRANCH  24  25
HETATM   25  C16 UNL     1       0.528  53.005 -24.557  1.00  0.00     0.028 C 
BRANCH  25  26
HETATM   26  C17 UNL     1       0.226  52.645 -25.988  1.00  0.00    -0.017 C 
HETATM   27  C18 UNL     1       1.054  52.099 -26.898  1.00  0.00    -0.028 C 
HETATM   28  C19 UNL     1       0.608  51.749 -28.286  1.00  0.00     0.051 C 
BRANCH  27  29
HETATM   29  C20 UNL     1       2.494  51.810 -26.625  1.00  0.00     0.265 C 
HETATM   30  O3  UNL     1       2.925  50.731 -26.240  1.00  0.00    -0.302 OA
ENDBRANCH  27  29
ENDBRANCH  25  26
ENDBRANCH  24  25
ENDBRANCH  22  24
ENDBRANCH  14  22
BRANCH  20  31
HETATM   31  C27 UNL     1      -6.525  47.642 -23.622  1.00  0.00     0.021 C 
BRANCH  31  32
HETATM   32  C28 UNL     1      -7.077  48.576 -24.693  1.00  0.00     0.111 C 
BRANCH  32  33
HETATM   33  C29 UNL     1      -8.577  48.647 -24.708  1.00  0.00     0.139 C 
HETATM   34  O4  UNL     1      -9.344  47.777 -24.332  1.00  0.00    -0.650 OA
BRANCH  33  35
HETATM   35  O5  UNL     1      -9.047  49.831 -25.146  1.00  0.00    -0.776 OA
HETATM   36  H41 UNL     1     -10.020  49.728 -25.062  1.00  0.00     0.167 HD
ENDBRANCH  33  35
ENDBRANCH  32  33
ENDBRANCH  31  32
ENDBRANCH  20  31
TORSDOF 9
ENDMDL
MODEL 9
REMARK minimizedAffinity -7.76692343
REMARK CNNscore 0.201978624
REMARK CNNaffinity 6.28335953
REMARK  9 active torsions:
REMARK  status: ('A' for Active; 'I' for Inactive)
REMARK    1  A    between atoms: C12_14  and  C13_15 
REMARK    2  A    between atoms: C13_15  and  C15_17 
REMARK    3  A    between atoms: C15_17  and  C16_18 
REMARK    4  A    between atoms: C16_18  and  C17_19 
REMARK    5  A    between atoms: C18_20  and  C20_22 
REMARK    6  A    between atoms: C26_29  and  C27_30 
REMARK    7  A    between atoms: C27_30  and  C28_31 
REMARK    8  A    between atoms: C28_31  and  C29_32 
REMARK    9  A    between atoms: C29_32  and  O5_34 
ROOT
HETATM    1  C1  UNL     1      -7.228  45.606 -19.812  1.00  0.00     0.025 C 
HETATM    2  C2  UNL     1      -6.965  46.669 -20.581  1.00  0.00     0.015 C 
HETATM    3  C3  UNL     1      -7.599  46.875 -21.905  1.00  0.00     0.289 C 
HETATM    4  O1  UNL     1      -8.196  46.042 -22.560  1.00  0.00    -0.260 OA
HETATM    5  O2  UNL     1      -7.391  48.174 -22.260  1.00  0.00    -0.311 OA
HETATM    6  C4  UNL     1      -6.874  48.882 -21.127  1.00  0.00     0.142 C 
HETATM    7  C5  UNL     1      -6.037  50.080 -21.544  1.00  0.00     0.039 C 
HETATM    8  C6  UNL     1      -4.822  49.663 -22.379  1.00  0.00     0.006 C 
HETATM    9  C7  UNL     1      -3.934  48.667 -21.590  1.00  0.00    -0.027 A 
HETATM   10  C8  UNL     1      -2.486  49.102 -21.338  1.00  0.00     0.011 C 
HETATM   11  C9  UNL     1      -1.761  49.837 -22.482  1.00  0.00     0.011 C 
HETATM   12  C10 UNL     1      -2.679  50.344 -23.604  1.00  0.00    -0.032 C 
HETATM   13  C11 UNL     1      -2.888  49.179 -24.610  1.00  0.00     0.016 C 
HETATM   14  C12 UNL     1      -2.192  51.616 -24.373  1.00  0.00    -0.002 C 
HETATM   15  C21 UNL     1      -3.509  52.265 -24.883  1.00  0.00     0.006 C 
HETATM   16  C22 UNL     1      -4.670  51.576 -24.142  1.00  0.00     0.011 C 
HETATM   17  C23 UNL     1      -4.010  50.865 -22.945  1.00  0.00    -0.032 C 
HETATM   18  C24 UNL     1      -3.810  51.958 -21.844  1.00  0.00     0.016 C 
HETATM   19  C25 UNL     1      -4.157  47.206 -21.912  1.00  0.00     0.022 A 
HETATM   20  C26 UNL     1      -4.618  47.707 -20.557  1.00  0.00    -0.021 A 
HETATM   21  C30 UNL     1      -6.129  47.865 -20.277  1.00  0.00     0.063 C 
ENDROOT
BRANCH  14  22
HETATM   22  C13 UNL     1      -1.050  51.591 -25.433  1.00  0.00    -0.014 C 
HETATM   23  C14 UNL     1      -1.049  50.421 -26.426  1.00  0.00     0.010 C 
BRANCH  22  24
HETATM   24  C15 UNL     1       0.336  51.756 -24.768  1.00  0.00     0.008 C 
BRANCH  24  25
HETATM   25  C16 UNL     1       0.411  52.943 -23.801  1.00  0.00     0.028 C 
BRANCH  25  26
HETATM   26  C17 UNL     1       0.120  52.514 -22.388  1.00  0.00    -0.017 C 
HETATM   27  C18 UNL     1       0.630  53.014 -21.247  1.00  0.00    -0.028 C 
HETATM   28  C19 UNL     1       0.218  52.519 -19.893  1.00  0.00     0.051 C 
BRANCH  27  29
HETATM   29  C20 UNL     1       1.667  54.090 -21.218  1.00  0.00     0.265 C 
HETATM   30  O3  UNL     1       1.811  54.939 -22.087  1.00  0.00    -0.302 OA
ENDBRANCH  27  29
ENDBRANCH  25  26
ENDBRANCH  24  25
ENDBRANCH  22  24
ENDBRANCH  14  22
BRANCH  20  31
HETATM   31  C27 UNL     1      -3.845  47.292 -19.287  1.00  0.00     0.021 C 
BRANCH  31  32
HETATM   32  C28 UNL     1      -3.944  48.204 -18.070  1.00  0.00     0.111 C 
BRANCH  32  33
HETATM   33  C29 UNL     1      -2.638  48.386 -17.352  1.00  0.00     0.139 C 
HETATM   34  O4  UNL     1      -2.486  48.860 -16.240  1.00  0.00    -0.650 OA
BRANCH  33  35
HETATM   35  O5  UNL     1      -1.584  47.914 -18.045  1.00  0.00    -0.776 OA
HETATM   36  H41 UNL     1      -0.829  48.073 -17.438  1.00  0.00     0.167 HD
ENDBRANCH  33  35
ENDBRANCH  32  33
ENDBRANCH  31  32
ENDBRANCH  20  31
TORSDOF 9
ENDMDL
