MODEL 1
REMARK minimizedAffinity -8.97404194
REMARK CNNscore 0.829260588
REMARK CNNaffinity 7.44721937
REMARK  9 active torsions:
REMARK  status: ('A' for Active; 'I' for Inactive)
REMARK    1  A    between atoms: C2_2  and  C17_19 
REMARK    2  A    between atoms: C3_3  and  C4_4 
REMARK    3  A    between atoms: C4_4  and  C5_5 
REMARK    4  A    between atoms: C5_5  and  C6_6 
REMARK    5  A    between atoms: C12_12  and  O1_13 
REMARK    6  A    between atoms: C17_19  and  C18_20 
REMARK    7  A    between atoms: C18_20  and  C19_21 
REMARK    8  A    between atoms: C23_25  and  C24_26 
REMARK    9  A    between atoms: C24_26  and  O3_29 
ROOT
HETATM    1  C1  UNL     1      -5.730  50.021 -21.430  1.00  0.00     0.043 C 
HETATM    2  C2  UNL     1      -5.026  48.691 -21.362  1.00  0.00    -0.087 C 
HETATM    3  C3  UNL     1      -4.188  48.323 -20.371  1.00  0.00    -0.024 C 
ENDROOT
BRANCH   2   4
HETATM    4  C17 UNL     1      -5.261  47.762 -22.543  1.00  0.00     0.037 C 
BRANCH   4   5
HETATM    5  C18 UNL     1      -5.839  48.448 -23.791  1.00  0.00     0.032 C 
BRANCH   5   6
HETATM    6  C19 UNL     1      -5.000  48.291 -25.034  1.00  0.00    -0.013 C 
HETATM    7  C20 UNL     1      -4.260  49.220 -25.676  1.00  0.00     0.013 C 
HETATM    8  C21 UNL     1      -3.444  48.841 -26.873  1.00  0.00     0.047 C 
HETATM    9  C27 UNL     1      -4.207  50.638 -25.234  1.00  0.00     0.289 C 
HETATM   10  C22 UNL     1      -2.072  49.480 -26.788  1.00  0.00     0.040 C 
HETATM   11  C23 UNL     1      -2.252  50.991 -26.726  1.00  0.00     0.166 C 
HETATM   12  O4  UNL     1      -3.126  51.355 -25.624  1.00  0.00    -0.309 OA
HETATM   13  O5  UNL     1      -5.065  51.151 -24.527  1.00  0.00    -0.260 OA
BRANCH  11  14
HETATM   14  C24 UNL     1      -0.922  51.774 -26.540  1.00  0.00     0.077 C 
HETATM   15  C25 UNL     1      -0.112  51.806 -27.844  1.00  0.00     0.048 C 
HETATM   16  C26 UNL     1      -0.056  51.191 -25.420  1.00  0.00     0.048 C 
BRANCH  14  17
HETATM   17  O3  UNL     1      -1.219  53.131 -26.186  1.00  0.00    -0.388 OA
HETATM   18  H36 UNL     1      -1.770  53.492 -26.907  1.00  0.00     0.210 HD
ENDBRANCH  14  17
ENDBRANCH  11  14
ENDBRANCH   5   6
ENDBRANCH   4   5
ENDBRANCH   2   4
BRANCH   3  19
HETATM   19  C4  UNL     1      -3.824  49.095 -19.130  1.00  0.00     0.030 C 
BRANCH  19  20
HETATM   20  C5  UNL     1      -2.911  50.281 -19.474  1.00  0.00     0.046 C 
BRANCH  20  21
HETATM   21  C6  UNL     1      -1.499  49.879 -19.965  1.00  0.00     0.082 C 
HETATM   22  C7  UNL     1      -1.136  48.452 -19.527  1.00  0.00     0.051 C 
HETATM   23  C8  UNL     1      -1.482  49.921 -21.480  1.00  0.00     0.012 C 
HETATM   24  C9  UNL     1      -0.807  50.839 -22.177  1.00  0.00     0.013 C 
HETATM   25  C10 UNL     1      -0.064  51.847 -21.436  1.00  0.00     0.000 A 
HETATM   26  C11 UNL     1       0.566  52.899 -22.112  1.00  0.00     0.050 A 
HETATM   27  C16 UNL     1       0.036  51.754 -20.042  1.00  0.00     0.086 A 
HETATM   28  C12 UNL     1       1.286  53.845 -21.387  1.00  0.00     0.067 A 
HETATM   29  C13 UNL     1       1.393  53.756 -20.003  1.00  0.00     0.046 A 
HETATM   30  C14 UNL     1       0.772  52.705 -19.315  1.00  0.00    -0.025 A 
HETATM   31  C15 UNL     1       0.890  52.610 -17.821  1.00  0.00     0.051 C 
HETATM   32  O2  UNL     1      -0.536  50.739 -19.324  1.00  0.00    -0.335 OA
BRANCH  28  33
HETATM   33  O1  UNL     1       1.914  54.886 -22.005  1.00  0.00    -0.361 OA
HETATM   34  H15 UNL     1       1.755  54.825 -22.962  1.00  0.00     0.217 HD
ENDBRANCH  28  33
ENDBRANCH  20  21
ENDBRANCH  19  20
ENDBRANCH   3  19
TORSDOF 9
ENDMDL
MODEL 2
REMARK minimizedAffinity -9.45926571
REMARK CNNscore 0.797903776
REMARK CNNaffinity 6.98894691
REMARK  9 active torsions:
REMARK  status: ('A' for Active; 'I' for Inactive)
REMARK    1  A    between atoms: C2_2  and  C17_19 
REMARK    2  A    between atoms: C3_3  and  C4_4 
REMARK    3  A    between atoms: C4_4  and  C5_5 
REMARK    4  A    between atoms: C5_5  and  C6_6 
REMARK    5  A    between atoms: C12_12  and  O1_13 
REMARK    6  A    between atoms: C17_19  and  C18_20 
REMARK    7  A    between atoms: C18_20  and  C19_21 
REMARK    8  A    between atoms: C23_25  and  C24_26 
REMARK    9  A    between atoms: C24_26  and  O3_29 
ROOT
HETATM    1  C1  UNL     1      -5.061  51.449 -23.390  1.00  0.00     0.043 C 
HETATM    2  C2  UNL     1      -4.379  50.155 -23.745  1.00  0.00    -0.087 C 
HETATM    3  C3  UNL     1      -3.918  49.264 -22.842  1.00  0.00    -0.024 C 
ENDROOT
BRANCH   2   4
HETATM    4  C17 UNL     1      -4.167  49.909 -25.231  1.00  0.00     0.037 C 
BRANCH   4   5
HETATM    5  C18 UNL     1      -4.377  48.453 -25.674  1.00  0.00     0.032 C 
BRANCH   5   6
HETATM    6  C19 UNL     1      -4.316  48.239 -27.165  1.00  0.00    -0.013 C 
HETATM    7  C20 UNL     1      -5.318  47.931 -28.017  1.00  0.00     0.013 C 
HETATM    8  C21 UNL     1      -5.053  47.820 -29.486  1.00  0.00     0.047 C 
HETATM    9  C27 UNL     1      -6.711  47.700 -27.553  1.00  0.00     0.289 C 
HETATM   10  C22 UNL     1      -6.156  48.510 -30.265  1.00  0.00     0.040 C 
HETATM   11  C23 UNL     1      -7.479  47.844 -29.911  1.00  0.00     0.166 C 
HETATM   12  O4  UNL     1      -7.690  47.862 -28.475  1.00  0.00    -0.309 OA
HETATM   13  O5  UNL     1      -6.993  47.411 -26.398  1.00  0.00    -0.260 OA
BRANCH  11  14
HETATM   14  C24 UNL     1      -8.715  48.518 -30.570  1.00  0.00     0.077 C 
HETATM   15  C25 UNL     1     -10.019  47.844 -30.119  1.00  0.00     0.048 C 
HETATM   16  C26 UNL     1      -8.639  48.502 -32.100  1.00  0.00     0.048 C 
BRANCH  14  17
HETATM   17  O3  UNL     1      -8.778  49.891 -30.161  1.00  0.00    -0.388 OA
HETATM   18  H36 UNL     1      -8.826  49.889 -29.187  1.00  0.00     0.210 HD
ENDBRANCH  14  17
ENDBRANCH  11  14
ENDBRANCH   5   6
ENDBRANCH   4   5
ENDBRANCH   2   4
BRANCH   3  19
HETATM   19  C4  UNL     1      -4.024  49.326 -21.341  1.00  0.00     0.030 C 
BRANCH  19  20
HETATM   20  C5  UNL     1      -3.013  50.328 -20.765  1.00  0.00     0.046 C 
BRANCH  20  21
HETATM   21  C6  UNL     1      -1.531  49.973 -21.043  1.00  0.00     0.082 C 
HETATM   22  C7  UNL     1      -1.225  48.512 -20.678  1.00  0.00     0.051 C 
HETATM   23  C8  UNL     1      -1.261  50.151 -22.523  1.00  0.00     0.012 C 
HETATM   24  C9  UNL     1      -0.492  51.128 -23.013  1.00  0.00     0.013 C 
HETATM   25  C10 UNL     1       0.100  52.066 -22.070  1.00  0.00     0.000 A 
HETATM   26  C11 UNL     1       0.818  53.174 -22.533  1.00  0.00     0.050 A 
HETATM   27  C16 UNL     1      -0.035  51.848 -20.693  1.00  0.00     0.086 A 
HETATM   28  C12 UNL     1       1.391  54.051 -21.616  1.00  0.00     0.067 A 
HETATM   29  C13 UNL     1       1.264  53.838 -20.248  1.00  0.00     0.046 A 
HETATM   30  C14 UNL     1       0.554  52.729 -19.770  1.00  0.00    -0.025 A 
HETATM   31  C15 UNL     1       0.419  52.500 -18.292  1.00  0.00     0.051 C 
HETATM   32  O2  UNL     1      -0.703  50.772 -20.174  1.00  0.00    -0.335 OA
BRANCH  28  33
HETATM   33  O1  UNL     1       2.097  55.145 -22.025  1.00  0.00    -0.361 OA
HETATM   34  H15 UNL     1       2.103  55.170 -22.996  1.00  0.00     0.217 HD
ENDBRANCH  28  33
ENDBRANCH  20  21
ENDBRANCH  19  20
ENDBRANCH   3  19
TORSDOF 9
ENDMDL
MODEL 3
REMARK minimizedAffinity -9.65542507
REMARK CNNscore 0.572197497
REMARK CNNaffinity 6.34961319
REMARK  9 active torsions:
REMARK  status: ('A' for Active; 'I' for Inactive)
REMARK    1  A    between atoms: C2_2  and  C17_19 
REMARK    2  A    between atoms: C3_3  and  C4_4 
REMARK    3  A    between atoms: C4_4  and  C5_5 
REMARK    4  A    between atoms: C5_5  and  C6_6 
REMARK    5  A    between atoms: C12_12  and  O1_13 
REMARK    6  A    between atoms: C17_19  and  C18_20 
REMARK    7  A    between atoms: C18_20  and  C19_21 
REMARK    8  A    between atoms: C23_25  and  C24_26 
REMARK    9  A    between atoms: C24_26  and  O3_29 
ROOT
HETATM    1  C1  UNL     1      -5.638  48.208 -25.012  1.00  0.00     0.043 C 
HETATM    2  C2  UNL     1      -4.192  48.625 -24.951  1.00  0.00    -0.087 C 
HETATM    3  C3  UNL     1      -3.617  49.230 -23.891  1.00  0.00    -0.024 C 
ENDROOT
BRANCH   2   4
HETATM    4  C17 UNL     1      -3.383  48.379 -26.216  1.00  0.00     0.037 C 
BRANCH   4   5
HETATM    5  C18 UNL     1      -4.104  48.758 -27.519  1.00  0.00     0.032 C 
BRANCH   5   6
HETATM    6  C19 UNL     1      -5.362  47.971 -27.788  1.00  0.00    -0.013 C 
HETATM    7  C20 UNL     1      -5.951  47.698 -28.971  1.00  0.00     0.013 C 
HETATM    8  C21 UNL     1      -7.176  46.839 -29.025  1.00  0.00     0.047 C 
HETATM    9  C27 UNL     1      -5.422  48.216 -30.260  1.00  0.00     0.289 C 
HETATM   10  C22 UNL     1      -7.064  45.847 -30.166  1.00  0.00     0.040 C 
HETATM   11  C23 UNL     1      -6.905  46.628 -31.464  1.00  0.00     0.166 C 
HETATM   12  O4  UNL     1      -5.776  47.536 -31.377  1.00  0.00    -0.309 OA
HETATM   13  O5  UNL     1      -4.676  49.184 -30.337  1.00  0.00    -0.260 OA
BRANCH  11  14
HETATM   14  C24 UNL     1      -6.682  45.729 -32.713  1.00  0.00     0.077 C 
HETATM   15  C25 UNL     1      -7.981  45.022 -33.125  1.00  0.00     0.048 C 
HETATM   16  C26 UNL     1      -5.585  44.685 -32.489  1.00  0.00     0.048 C 
BRANCH  14  17
HETATM   17  O3  UNL     1      -6.272  46.548 -33.816  1.00  0.00    -0.388 OA
HETATM   18  H36 UNL     1      -6.978  47.209 -33.949  1.00  0.00     0.210 HD
ENDBRANCH  14  17
ENDBRANCH  11  14
ENDBRANCH   5   6
ENDBRANCH   4   5
ENDBRANCH   2   4
BRANCH   3  19
HETATM   19  C4  UNL     1      -4.242  49.562 -22.562  1.00  0.00     0.030 C 
BRANCH  19  20
HETATM   20  C5  UNL     1      -3.299  50.434 -21.720  1.00  0.00     0.046 C 
BRANCH  20  21
HETATM   21  C6  UNL     1      -1.804  50.047 -21.826  1.00  0.00     0.082 C 
HETATM   22  C7  UNL     1      -1.585  48.557 -21.524  1.00  0.00     0.051 C 
HETATM   23  C8  UNL     1      -1.336  50.310 -23.243  1.00  0.00     0.012 C 
HETATM   24  C9  UNL     1      -0.485  51.290 -23.562  1.00  0.00     0.013 C 
HETATM   25  C10 UNL     1       0.001  52.145 -22.489  1.00  0.00     0.000 A 
HETATM   26  C11 UNL     1       0.802  53.256 -22.779  1.00  0.00     0.050 A 
HETATM   27  C16 UNL     1      -0.320  51.845 -21.159  1.00  0.00     0.086 A 
HETATM   28  C12 UNL     1       1.271  54.053 -21.739  1.00  0.00     0.067 A 
HETATM   29  C13 UNL     1       0.959  53.758 -20.416  1.00  0.00     0.046 A 
HETATM   30  C14 UNL     1       0.164  52.646 -20.110  1.00  0.00    -0.025 A 
HETATM   31  C15 UNL     1      -0.170  52.328 -18.681  1.00  0.00     0.051 C 
HETATM   32  O2  UNL     1      -1.078  50.762 -20.806  1.00  0.00    -0.335 OA
BRANCH  28  33
HETATM   33  O1  UNL     1       2.052  55.145 -21.977  1.00  0.00    -0.361 OA
HETATM   34  H15 UNL     1       2.187  55.232 -22.936  1.00  0.00     0.217 HD
ENDBRANCH  28  33
ENDBRANCH  20  21
ENDBRANCH  19  20
ENDBRANCH   3  19
TORSDOF 9
ENDMDL
MODEL 4
REMARK minimizedAffinity -8.30884933
REMARK CNNscore 0.530333102
REMARK CNNaffinity 6.3145752
REMARK  9 active torsions:
REMARK  status: ('A' for Active; 'I' for Inactive)
REMARK    1  A    between atoms: C2_2  and  C17_19 
REMARK    2  A    between atoms: C3_3  and  C4_4 
REMARK    3  A    between atoms: C4_4  and  C5_5 
REMARK    4  A    between atoms: C5_5  and  C6_6 
REMARK    5  A    between atoms: C12_12  and  O1_13 
REMARK    6  A    between atoms: C17_19  and  C18_20 
REMARK    7  A    between atoms: C18_20  and  C19_21 
REMARK    8  A    between atoms: C23_25  and  C24_26 
REMARK    9  A    between atoms: C24_26  and  O3_29 
ROOT
HETATM    1  C1  UNL     1      -7.365  49.134 -20.049  1.00  0.00     0.043 C 
HETATM    2  C2  UNL     1      -6.788  49.008 -21.434  1.00  0.00    -0.087 C 
HETATM    3  C3  UNL     1      -5.474  49.109 -21.724  1.00  0.00    -0.024 C 
ENDROOT
BRANCH   2   4
HETATM    4  C17 UNL     1      -7.800  48.813 -22.553  1.00  0.00     0.037 C 
BRANCH   4   5
HETATM    5  C18 UNL     1      -7.257  49.097 -23.961  1.00  0.00     0.032 C 
BRANCH   5   6
HETATM    6  C19 UNL     1      -7.190  47.888 -24.860  1.00  0.00    -0.013 C 
HETATM    7  C20 UNL     1      -7.953  47.588 -25.932  1.00  0.00     0.013 C 
HETATM    8  C21 UNL     1      -7.680  46.352 -26.732  1.00  0.00     0.047 C 
HETATM    9  C27 UNL     1      -9.076  48.455 -26.376  1.00  0.00     0.289 C 
HETATM   10  C22 UNL     1      -7.759  46.664 -28.213  1.00  0.00     0.040 C 
HETATM   11  C23 UNL     1      -9.153  47.196 -28.515  1.00  0.00     0.166 C 
HETATM   12  O4  UNL     1      -9.459  48.335 -27.669  1.00  0.00    -0.309 OA
HETATM   13  O5  UNL     1      -9.623  49.269 -25.642  1.00  0.00    -0.260 OA
BRANCH  11  14
HETATM   14  C24 UNL     1      -9.345  47.649 -29.990  1.00  0.00     0.077 C 
HETATM   15  C25 UNL     1      -8.703  49.022 -30.236  1.00  0.00     0.048 C 
HETATM   16  C26 UNL     1     -10.821  47.700 -30.395  1.00  0.00     0.048 C 
BRANCH  14  17
HETATM   17  O3  UNL     1      -8.696  46.711 -30.860  1.00  0.00    -0.388 OA
HETATM   18  H36 UNL     1      -7.758  46.687 -30.593  1.00  0.00     0.210 HD
ENDBRANCH  14  17
ENDBRANCH  11  14
ENDBRANCH   5   6
ENDBRANCH   4   5
ENDBRANCH   2   4
BRANCH   3  19
HETATM   19  C4  UNL     1      -4.326  49.304 -20.769  1.00  0.00     0.030 C 
BRANCH  19  20
HETATM   20  C5  UNL     1      -3.409  50.440 -21.245  1.00  0.00     0.046 C 
BRANCH  20  21
HETATM   21  C6  UNL     1      -1.948  50.008 -21.525  1.00  0.00     0.082 C 
HETATM   22  C7  UNL     1      -1.753  48.502 -21.296  1.00  0.00     0.051 C 
HETATM   23  C8  UNL     1      -1.625  50.305 -22.975  1.00  0.00     0.012 C 
HETATM   24  C9  UNL     1      -0.778  51.267 -23.353  1.00  0.00     0.013 C 
HETATM   25  C10 UNL     1      -0.149  52.068 -22.313  1.00  0.00     0.000 A 
HETATM   26  C11 UNL     1       0.656  53.161 -22.652  1.00  0.00     0.050 A 
HETATM   27  C16 UNL     1      -0.337  51.731 -20.966  1.00  0.00     0.086 A 
HETATM   28  C12 UNL     1       1.262  53.905 -21.644  1.00  0.00     0.067 A 
HETATM   29  C13 UNL     1       1.083  53.574 -20.305  1.00  0.00     0.046 A 
HETATM   30  C14 UNL     1       0.285  52.478 -19.951  1.00  0.00    -0.025 A 
HETATM   31  C15 UNL     1       0.095  52.122 -18.505  1.00  0.00     0.051 C 
HETATM   32  O2  UNL     1      -1.092  50.662 -20.567  1.00  0.00    -0.335 OA
BRANCH  28  33
HETATM   33  O1  UNL     1       2.053  54.979 -21.931  1.00  0.00    -0.361 OA
HETATM   34  H15 UNL     1       2.087  55.095 -22.895  1.00  0.00     0.217 HD
ENDBRANCH  28  33
ENDBRANCH  20  21
ENDBRANCH  19  20
ENDBRANCH   3  19
TORSDOF 9
ENDMDL
MODEL 5
REMARK minimizedAffinity -9.29651356
REMARK CNNscore 0.493472368
REMARK CNNaffinity 6.52190971
REMARK  9 active torsions:
REMARK  status: ('A' for Active; 'I' for Inactive)
REMARK    1  A    between atoms: C2_2  and  C17_19 
REMARK    2  A    between atoms: C3_3  and  C4_4 
REMARK    3  A    between atoms: C4_4  and  C5_5 
REMARK    4  A    between atoms: C5_5  and  C6_6 
REMARK    5  A    between atoms: C12_12  and  O1_13 
REMARK    6  A    between atoms: C17_19  and  C18_20 
REMARK    7  A    between atoms: C18_20  and  C19_21 
REMARK    8  A    between atoms: C23_25  and  C24_26 
REMARK    9  A    between atoms: C24_26  and  O3_29 
ROOT
HETATM    1  C1  UNL     1      -4.037  51.294 -23.896  1.00  0.00     0.043 C 
HETATM    2  C2  UNL     1      -3.715  50.230 -24.913  1.00  0.00    -0.087 C 
HETATM    3  C3  UNL     1      -3.130  50.469 -26.106  1.00  0.00    -0.024 C 
ENDROOT
BRANCH   2   4
HETATM    4  C17 UNL     1      -4.153  48.819 -24.550  1.00  0.00     0.037 C 
BRANCH   4   5
HETATM    5  C18 UNL     1      -5.289  48.260 -25.419  1.00  0.00     0.032 C 
BRANCH   5   6
HETATM    6  C19 UNL     1      -4.939  48.100 -26.877  1.00  0.00    -0.013 C 
HETATM    7  C20 UNL     1      -5.749  47.793 -27.912  1.00  0.00     0.013 C 
HETATM    8  C21 UNL     1      -5.207  47.741 -29.307  1.00  0.00     0.047 C 
HETATM    9  C27 UNL     1      -7.196  47.504 -27.730  1.00  0.00     0.289 C 
HETATM   10  C22 UNL     1      -6.166  48.425 -30.261  1.00  0.00     0.040 C 
HETATM   11  C23 UNL     1      -7.507  47.707 -30.185  1.00  0.00     0.166 C 
HETATM   12  O4  UNL     1      -7.988  47.668 -28.816  1.00  0.00    -0.309 OA
HETATM   13  O5  UNL     1      -7.681  47.166 -26.658  1.00  0.00    -0.260 OA
BRANCH  11  14
HETATM   14  C24 UNL     1      -8.620  48.367 -31.049  1.00  0.00     0.077 C 
HETATM   15  C25 UNL     1      -8.409  48.073 -32.541  1.00  0.00     0.048 C 
HETATM   16  C26 UNL     1      -8.700  49.881 -30.836  1.00  0.00     0.048 C 
BRANCH  14  17
HETATM   17  O3  UNL     1      -9.891  47.816 -30.679  1.00  0.00    -0.388 OA
HETATM   18  H36 UNL     1      -9.828  46.853 -30.819  1.00  0.00     0.210 HD
ENDBRANCH  14  17
ENDBRANCH  11  14
ENDBRANCH   5   6
ENDBRANCH   4   5
ENDBRANCH   2   4
BRANCH   3  19
HETATM   19  C4  UNL     1      -2.632  51.783 -26.648  1.00  0.00     0.030 C 
BRANCH  19  20
HETATM   20  C5  UNL     1      -1.957  52.607 -25.542  1.00  0.00     0.046 C 
BRANCH  20  21
HETATM   21  C6  UNL     1      -0.482  52.225 -25.269  1.00  0.00     0.082 C 
HETATM   22  C7  UNL     1       0.038  51.214 -26.302  1.00  0.00     0.051 C 
HETATM   23  C8  UNL     1       0.369  53.475 -25.369  1.00  0.00     0.012 C 
HETATM   24  C9  UNL     1       0.950  54.049 -24.312  1.00  0.00     0.013 C 
HETATM   25  C10 UNL     1       0.742  53.442 -23.006  1.00  0.00     0.000 A 
HETATM   26  C11 UNL     1       1.231  54.064 -21.852  1.00  0.00     0.050 A 
HETATM   27  C16 UNL     1       0.064  52.221 -22.907  1.00  0.00     0.086 A 
HETATM   28  C12 UNL     1       1.035  53.460 -20.613  1.00  0.00     0.067 A 
HETATM   29  C13 UNL     1       0.367  52.245 -20.507  1.00  0.00     0.046 A 
HETATM   30  C14 UNL     1      -0.122  51.608 -21.655  1.00  0.00    -0.025 A 
HETATM   31  C15 UNL     1      -0.842  50.296 -21.539  1.00  0.00     0.051 C 
HETATM   32  O2  UNL     1      -0.418  51.549 -23.997  1.00  0.00    -0.335 OA
BRANCH  28  33
HETATM   33  O1  UNL     1       1.494  54.033 -19.463  1.00  0.00    -0.361 OA
HETATM   34  H15 UNL     1       1.934  54.871 -19.684  1.00  0.00     0.217 HD
ENDBRANCH  28  33
ENDBRANCH  20  21
ENDBRANCH  19  20
ENDBRANCH   3  19
TORSDOF 9
ENDMDL
MODEL 6
REMARK minimizedAffinity -8.42289829
REMARK CNNscore 0.479396254
REMARK CNNaffinity 6.78228712
REMARK  9 active torsions:
REMARK  status: ('A' for Active; 'I' for Inactive)
REMARK    1  A    between atoms: C2_2  and  C17_19 
REMARK    2  A    between atoms: C3_3  and  C4_4 
REMARK    3  A    between atoms: C4_4  and  C5_5 
REMARK    4  A    between atoms: C5_5  and  C6_6 
REMARK    5  A    between atoms: C12_12  and  O1_13 
REMARK    6  A    between atoms: C17_19  and  C18_20 
REMARK    7  A    between atoms: C18_20  and  C19_21 
REMARK    8  A    between atoms: C23_25  and  C24_26 
REMARK    9  A    between atoms: C24_26  and  O3_29 
ROOT
HETATM    1  C1  UNL     1      -3.413  50.710 -21.787  1.00  0.00     0.043 C 
HETATM    2  C2  UNL     1      -2.272  49.849 -22.260  1.00  0.00    -0.087 C 
HETATM    3  C3  UNL     1      -2.328  49.032 -23.333  1.00  0.00    -0.024 C 
ENDROOT
BRANCH   2   4
HETATM    4  C17 UNL     1      -1.015  49.893 -21.403  1.00  0.00     0.037 C 
BRANCH   4   5
HETATM    5  C18 UNL     1      -0.713  51.266 -20.784  1.00  0.00     0.032 C 
BRANCH   5   6
HETATM    6  C19 UNL     1       0.026  51.209 -19.471  1.00  0.00    -0.013 C 
HETATM    7  C20 UNL     1      -0.475  51.224 -18.217  1.00  0.00     0.013 C 
HETATM    8  C21 UNL     1       0.438  51.097 -17.037  1.00  0.00     0.047 C 
HETATM    9  C27 UNL     1      -1.930  51.353 -17.945  1.00  0.00     0.289 C 
HETATM   10  C22 UNL     1      -0.156  50.139 -16.023  1.00  0.00     0.040 C 
HETATM   11  C23 UNL     1      -1.511  50.682 -15.591  1.00  0.00     0.166 C 
HETATM   12  O4  UNL     1      -2.365  50.901 -16.744  1.00  0.00    -0.309 OA
HETATM   13  O5  UNL     1      -2.725  51.810 -18.757  1.00  0.00    -0.260 OA
BRANCH  11  14
HETATM   14  C24 UNL     1      -2.280  49.745 -14.617  1.00  0.00     0.077 C 
HETATM   15  C25 UNL     1      -2.900  50.539 -13.458  1.00  0.00     0.048 C 
HETATM   16  C26 UNL     1      -1.387  48.637 -14.051  1.00  0.00     0.048 C 
BRANCH  14  17
HETATM   17  O3  UNL     1      -3.353  49.108 -15.323  1.00  0.00    -0.388 OA
HETATM   18  H36 UNL     1      -3.914  49.823 -15.679  1.00  0.00     0.210 HD
ENDBRANCH  14  17
ENDBRANCH  11  14
ENDBRANCH   5   6
ENDBRANCH   4   5
ENDBRANCH   2   4
BRANCH   3  19
HETATM   19  C4  UNL     1      -3.470  48.844 -24.296  1.00  0.00     0.030 C 
BRANCH  19  20
HETATM   20  C5  UNL     1      -2.954  48.740 -25.739  1.00  0.00     0.046 C 
BRANCH  20  21
HETATM   21  C6  UNL     1      -2.850  50.096 -26.479  1.00  0.00     0.082 C 
HETATM   22  C7  UNL     1      -3.417  50.004 -27.904  1.00  0.00     0.051 C 
HETATM   23  C8  UNL     1      -3.661  51.126 -25.719  1.00  0.00     0.012 C 
HETATM   24  C9  UNL     1      -3.107  52.137 -25.043  1.00  0.00     0.013 C 
HETATM   25  C10 UNL     1      -1.655  52.237 -25.035  1.00  0.00     0.000 A 
HETATM   26  C11 UNL     1      -1.019  53.206 -24.251  1.00  0.00     0.050 A 
HETATM   27  C16 UNL     1      -0.893  51.372 -25.830  1.00  0.00     0.086 A 
HETATM   28  C12 UNL     1       0.371  53.297 -24.269  1.00  0.00     0.067 A 
HETATM   29  C13 UNL     1       1.133  52.444 -25.059  1.00  0.00     0.046 A 
HETATM   30  C14 UNL     1       0.508  51.474 -25.854  1.00  0.00    -0.025 A 
HETATM   31  C15 UNL     1       1.333  50.554 -26.707  1.00  0.00     0.051 C 
HETATM   32  O2  UNL     1      -1.454  50.419 -26.637  1.00  0.00    -0.335 OA
BRANCH  28  33
HETATM   33  O1  UNL     1       1.031  54.225 -23.518  1.00  0.00    -0.361 OA
HETATM   34  H15 UNL     1       0.380  54.746 -23.019  1.00  0.00     0.217 HD
ENDBRANCH  28  33
ENDBRANCH  20  21
ENDBRANCH  19  20
ENDBRANCH   3  19
TORSDOF 9
ENDMDL
MODEL 7
REMARK minimizedAffinity -9.6352396
REMARK CNNscore 0.436484486
REMARK CNNaffinity 6.67957687
REMARK  9 active torsions:
REMARK  status: ('A' for Active; 'I' for Inactive)
REMARK    1  A    between atoms: C2_2  and  C17_19 
REMARK    2  A    between atoms: C3_3  and  C4_4 
REMARK    3  A    between atoms: C4_4  and  C5_5 
REMARK    4  A    between atoms: C5_5  and  C6_6 
REMARK    5  A    between atoms: C12_12  and  O1_13 
REMARK    6  A    between atoms: C17_19  and  C18_20 
REMARK    7  A    between atoms: C18_20  and  C19_21 
REMARK    8  A    between atoms: C23_25  and  C24_26 
REMARK    9  A    between atoms: C24_26  and  O3_29 
ROOT
HETATM    1  C1  UNL     1      -5.251  47.756 -22.830  1.00  0.00     0.043 C 
HETATM    2  C2  UNL     1      -4.142  48.415 -23.606  1.00  0.00    -0.087 C 
HETATM    3  C3  UNL     1      -2.854  48.464 -23.204  1.00  0.00    -0.024 C 
ENDROOT
BRANCH   2   4
HETATM    4  C17 UNL     1      -4.562  49.109 -24.893  1.00  0.00     0.037 C 
BRANCH   4   5
HETATM    5  C18 UNL     1      -4.111  48.398 -26.178  1.00  0.00     0.032 C 
BRANCH   5   6
HETATM    6  C19 UNL     1      -5.239  47.853 -27.018  1.00  0.00    -0.013 C 
HETATM    7  C20 UNL     1      -5.470  48.026 -28.337  1.00  0.00     0.013 C 
HETATM    8  C21 UNL     1      -6.627  47.342 -28.998  1.00  0.00     0.047 C 
HETATM    9  C27 UNL     1      -4.602  48.878 -29.191  1.00  0.00     0.289 C 
HETATM   10  C22 UNL     1      -6.194  46.760 -30.329  1.00  0.00     0.040 C 
HETATM   11  C23 UNL     1      -5.679  47.897 -31.202  1.00  0.00     0.166 C 
HETATM   12  O4  UNL     1      -4.624  48.625 -30.521  1.00  0.00    -0.309 OA
HETATM   13  O5  UNL     1      -3.869  49.749 -28.741  1.00  0.00    -0.260 OA
BRANCH  11  14
HETATM   14  C24 UNL     1      -5.110  47.427 -32.571  1.00  0.00     0.077 C 
HETATM   15  C25 UNL     1      -6.119  47.672 -33.703  1.00  0.00     0.048 C 
HETATM   16  C26 UNL     1      -4.711  45.949 -32.558  1.00  0.00     0.048 C 
BRANCH  14  17
HETATM   17  O3  UNL     1      -3.931  48.184 -32.876  1.00  0.00    -0.388 OA
HETATM   18  H36 UNL     1      -4.197  49.123 -32.881  1.00  0.00     0.210 HD
ENDBRANCH  14  17
ENDBRANCH  11  14
ENDBRANCH   5   6
ENDBRANCH   4   5
ENDBRANCH   2   4
BRANCH   3  19
HETATM   19  C4  UNL     1      -2.245  47.849 -21.971  1.00  0.00     0.030 C 
BRANCH  19  20
HETATM   20  C5  UNL     1      -1.134  48.748 -21.408  1.00  0.00     0.046 C 
BRANCH  20  21
HETATM   21  C6  UNL     1      -1.601  50.168 -21.008  1.00  0.00     0.082 C 
HETATM   22  C7  UNL     1      -2.934  50.128 -20.246  1.00  0.00     0.051 C 
HETATM   23  C8  UNL     1      -0.559  50.782 -20.094  1.00  0.00     0.012 C 
HETATM   24  C9  UNL     1       0.228  51.797 -20.462  1.00  0.00     0.013 C 
HETATM   25  C10 UNL     1       0.075  52.324 -21.810  1.00  0.00     0.000 A 
HETATM   26  C11 UNL     1       0.948  53.308 -22.287  1.00  0.00     0.050 A 
HETATM   27  C16 UNL     1      -0.963  51.857 -22.626  1.00  0.00     0.086 A 
HETATM   28  C12 UNL     1       0.776  53.812 -23.573  1.00  0.00     0.067 A 
HETATM   29  C13 UNL     1      -0.255  53.355 -24.388  1.00  0.00     0.046 A 
HETATM   30  C14 UNL     1      -1.140  52.375 -23.921  1.00  0.00    -0.025 A 
HETATM   31  C15 UNL     1      -2.253  51.885 -24.801  1.00  0.00     0.051 C 
HETATM   32  O2  UNL     1      -1.865  50.914 -22.213  1.00  0.00    -0.335 OA
BRANCH  28  33
HETATM   33  O1  UNL     1       1.605  54.770 -24.078  1.00  0.00    -0.361 OA
HETATM   34  H15 UNL     1       2.274  54.991 -23.408  1.00  0.00     0.217 HD
ENDBRANCH  28  33
ENDBRANCH  20  21
ENDBRANCH  19  20
ENDBRANCH   3  19
TORSDOF 9
ENDMDL
MODEL 8
REMARK minimizedAffinity -8.53688622
REMARK CNNscore 0.383732051
REMARK CNNaffinity 6.73324156
REMARK  9 active torsions:
REMARK  status: ('A' for Active; 'I' for Inactive)
REMARK    1  A    between atoms: C2_2  and  C17_19 
REMARK    2  A    between atoms: C3_3  and  C4_4 
REMARK    3  A    between atoms: C4_4  and  C5_5 
REMARK    4  A    between atoms: C5_5  and  C6_6 
REMARK    5  A    between atoms: C12_12  and  O1_13 
REMARK    6  A    between atoms: C17_19  and  C18_20 
REMARK    7  A    between atoms: C18_20  and  C19_21 
REMARK    8  A    between atoms: C23_25  and  C24_26 
REMARK    9  A    between atoms: C24_26  and  O3_29 
ROOT
HETATM    1  C1  UNL     1      -2.034  51.006 -20.072  1.00  0.00     0.043 C 
HETATM    2  C2  UNL     1      -0.583  51.398 -19.974  1.00  0.00    -0.087 C 
HETATM    3  C3  UNL     1       0.146  51.884 -21.000  1.00  0.00    -0.024 C 
ENDROOT
BRANCH   2   4
HETATM    4  C17 UNL     1       0.073  51.155 -18.623  1.00  0.00     0.037 C 
BRANCH   4   5
HETATM    5  C18 UNL     1       0.304  52.424 -17.788  1.00  0.00     0.032 C 
BRANCH   5   6
HETATM    6  C19 UNL     1       1.712  52.586 -17.275  1.00  0.00    -0.013 C 
HETATM    7  C20 UNL     1       2.210  52.275 -16.060  1.00  0.00     0.013 C 
HETATM    8  C21 UNL     1       3.667  52.462 -15.769  1.00  0.00     0.047 C 
HETATM    9  C27 UNL     1       1.360  51.733 -14.968  1.00  0.00     0.289 C 
HETATM   10  C22 UNL     1       4.204  51.260 -15.018  1.00  0.00     0.040 C 
HETATM   11  C23 UNL     1       3.418  51.118 -13.721  1.00  0.00     0.166 C 
HETATM   12  O4  UNL     1       1.994  51.037 -13.994  1.00  0.00    -0.309 OA
HETATM   13  O5  UNL     1       0.143  51.863 -14.940  1.00  0.00    -0.260 OA
BRANCH  11  14
HETATM   14  C24 UNL     1       3.802  49.861 -12.890  1.00  0.00     0.077 C 
HETATM   15  C25 UNL     1       2.993  48.634 -13.335  1.00  0.00     0.048 C 
HETATM   16  C26 UNL     1       3.609  50.077 -11.387  1.00  0.00     0.048 C 
BRANCH  14  17
HETATM   17  O3  UNL     1       5.188  49.561 -13.103  1.00  0.00    -0.388 OA
HETATM   18  H36 UNL     1       5.299  49.425 -14.062  1.00  0.00     0.210 HD
ENDBRANCH  14  17
ENDBRANCH  11  14
ENDBRANCH   5   6
ENDBRANCH   4   5
ENDBRANCH   2   4
BRANCH   3  19
HETATM   19  C4  UNL     1      -0.314  52.188 -22.402  1.00  0.00     0.030 C 
BRANCH  19  20
HETATM   20  C5  UNL     1      -1.792  51.811 -22.583  1.00  0.00     0.046 C 
BRANCH  20  21
HETATM   21  C6  UNL     1      -2.080  50.933 -23.826  1.00  0.00     0.082 C 
HETATM   22  C7  UNL     1      -2.393  49.483 -23.429  1.00  0.00     0.051 C 
HETATM   23  C8  UNL     1      -3.291  51.493 -24.544  1.00  0.00     0.012 C 
HETATM   24  C9  UNL     1      -3.220  52.098 -25.734  1.00  0.00     0.013 C 
HETATM   25  C10 UNL     1      -1.911  52.227 -26.355  1.00  0.00     0.000 A 
HETATM   26  C11 UNL     1      -1.761  52.950 -27.544  1.00  0.00     0.050 A 
HETATM   27  C16 UNL     1      -0.798  51.609 -25.770  1.00  0.00     0.086 A 
HETATM   28  C12 UNL     1      -0.503  53.049 -28.132  1.00  0.00     0.067 A 
HETATM   29  C13 UNL     1       0.605  52.435 -27.558  1.00  0.00     0.046 A 
HETATM   30  C14 UNL     1       0.468  51.702 -26.372  1.00  0.00    -0.025 A 
HETATM   31  C15 UNL     1       1.666  51.038 -25.755  1.00  0.00     0.051 C 
HETATM   32  O2  UNL     1      -0.879  50.868 -24.622  1.00  0.00    -0.335 OA
BRANCH  28  33
HETATM   33  O1  UNL     1      -0.313  53.746 -29.289  1.00  0.00    -0.361 OA
HETATM   34  H15 UNL     1      -1.163  54.120 -29.574  1.00  0.00     0.217 HD
ENDBRANCH  28  33
ENDBRANCH  20  21
ENDBRANCH  19  20
ENDBRANCH   3  19
TORSDOF 9
ENDMDL
MODEL 9
REMARK minimizedAffinity -9.03505516
REMARK CNNscore 0.377408862
REMARK CNNaffinity 6.86748171
REMARK  9 active torsions:
REMARK  status: ('A' for Active; 'I' for Inactive)
REMARK    1  A    between atoms: C2_2  and  C17_19 
REMARK    2  A    between atoms: C3_3  and  C4_4 
REMARK    3  A    between atoms: C4_4  and  C5_5 
REMARK    4  A    between atoms: C5_5  and  C6_6 
REMARK    5  A    between atoms: C12_12  and  O1_13 
REMARK    6  A    between atoms: C17_19  and  C18_20 
REMARK    7  A    between atoms: C18_20  and  C19_21 
REMARK    8  A    between atoms: C23_25  and  C24_26 
REMARK    9  A    between atoms: C24_26  and  O3_29 
ROOT
HETATM    1  C1  UNL     1      -4.322  48.541 -22.936  1.00  0.00     0.043 C 
HETATM    2  C2  UNL     1      -4.828  49.745 -22.187  1.00  0.00    -0.087 C 
HETATM    3  C3  UNL     1      -4.777  49.885 -20.845  1.00  0.00    -0.024 C 
ENDROOT
BRANCH   2   4
HETATM    4  C17 UNL     1      -5.485  50.821 -23.038  1.00  0.00     0.037 C 
BRANCH   4   5
HETATM    5  C18 UNL     1      -4.623  52.072 -23.264  1.00  0.00     0.032 C 
BRANCH   5   6
HETATM    6  C19 UNL     1      -3.154  51.876 -22.984  1.00  0.00    -0.013 C 
HETATM    7  C20 UNL     1      -2.166  51.553 -23.845  1.00  0.00     0.013 C 
HETATM    8  C21 UNL     1      -0.749  51.465 -23.371  1.00  0.00     0.047 C 
HETATM    9  C27 UNL     1      -2.423  51.284 -25.285  1.00  0.00     0.289 C 
HETATM   10  C22 UNL     1       0.175  52.136 -24.368  1.00  0.00     0.040 C 
HETATM   11  C23 UNL     1       0.019  51.434 -25.710  1.00  0.00     0.166 C 
HETATM   12  O4  UNL     1      -1.372  51.431 -26.126  1.00  0.00    -0.309 OA
HETATM   13  O5  UNL     1      -3.524  50.975 -25.721  1.00  0.00    -0.260 OA
BRANCH  11  14
HETATM   14  C24 UNL     1       0.844  52.084 -26.857  1.00  0.00     0.077 C 
HETATM   15  C25 UNL     1       0.257  51.730 -28.231  1.00  0.00     0.048 C 
HETATM   16  C26 UNL     1       2.320  51.677 -26.815  1.00  0.00     0.048 C 
BRANCH  14  17
HETATM   17  O3  UNL     1       0.793  53.511 -26.724  1.00  0.00    -0.388 OA
HETATM   18  H36 UNL     1      -0.151  53.759 -26.752  1.00  0.00     0.210 HD
ENDBRANCH  14  17
ENDBRANCH  11  14
ENDBRANCH   5   6
ENDBRANCH   4   5
ENDBRANCH   2   4
BRANCH   3  19
HETATM   19  C4  UNL     1      -4.177  48.940 -19.837  1.00  0.00     0.030 C 
BRANCH  19  20
HETATM   20  C5  UNL     1      -3.166  49.671 -18.941  1.00  0.00     0.046 C 
BRANCH  20  21
HETATM   21  C6  UNL     1      -1.692  49.527 -19.392  1.00  0.00     0.082 C 
HETATM   22  C7  UNL     1      -1.497  48.305 -20.301  1.00  0.00     0.051 C 
HETATM   23  C8  UNL     1      -1.304  50.762 -20.181  1.00  0.00     0.012 C 
HETATM   24  C9  UNL     1      -0.447  51.681 -19.726  1.00  0.00     0.013 C 
HETATM   25  C10 UNL     1       0.128  51.480 -18.405  1.00  0.00     0.000 A 
HETATM   26  C11 UNL     1       0.940  52.465 -17.831  1.00  0.00     0.050 A 
HETATM   27  C16 UNL     1      -0.119  50.289 -17.711  1.00  0.00     0.086 A 
HETATM   28  C12 UNL     1       1.495  52.249 -16.573  1.00  0.00     0.067 A 
HETATM   29  C13 UNL     1       1.258  51.066 -15.881  1.00  0.00     0.046 A 
HETATM   30  C14 UNL     1       0.451  50.069 -16.445  1.00  0.00    -0.025 A 
HETATM   31  C15 UNL     1       0.198  48.793 -15.697  1.00  0.00     0.051 C 
HETATM   32  O2  UNL     1      -0.884  49.277 -18.224  1.00  0.00    -0.335 OA
BRANCH  28  33
HETATM   33  O1  UNL     1       2.291  53.183 -15.977  1.00  0.00    -0.361 OA
HETATM   34  H15 UNL     1       2.368  53.952 -16.567  1.00  0.00     0.217 HD
ENDBRANCH  28  33
ENDBRANCH  20  21
ENDBRANCH  19  20
ENDBRANCH   3  19
TORSDOF 9
ENDMDL
