MODEL 1
REMARK minimizedAffinity -7.32527637
REMARK CNNscore 0.791419744
REMARK CNNaffinity 7.16732454
REMARK  7 active torsions:
REMARK  status: ('A' for Active; 'I' for Inactive)
REMARK    1  A    between atoms: C2_2  and  C30_32 
REMARK    2  A    between atoms: C3_3  and  C4_4 
REMARK    3  A    between atoms: C4_4  and  O1_5 
REMARK    4  A    between atoms: C4_4  and  C5_6 
REMARK    5  A    between atoms: C5_6  and  C6_7 
REMARK    6  A    between atoms: C6_7  and  C8_9 
REMARK    7  A    between atoms: C30_32  and  O3_33 
ROOT
HETATM    1  C8  UNL     1      -1.901  52.487 -10.808  1.00  0.00    -0.002 C 
HETATM    2  C9  UNL     1      -1.147  51.139 -11.026  1.00  0.00     0.007 C 
HETATM    3  C10 UNL     1       0.324  51.358 -10.621  1.00  0.00     0.015 C 
HETATM    4  C11 UNL     1       0.468  52.885 -10.487  1.00  0.00    -0.013 C 
HETATM    5  C12 UNL     1       0.708  53.422 -11.936  1.00  0.00     0.021 C 
HETATM    6  C13 UNL     1       1.616  53.427  -9.641  1.00  0.00    -0.070 C 
HETATM    7  C14 UNL     1       2.801  52.797  -9.553  1.00  0.00    -0.022 C 
HETATM    8  C15 UNL     1       4.003  53.342  -8.847  1.00  0.00     0.034 C 
HETATM    9  C16 UNL     1       3.736  54.590  -7.975  1.00  0.00     0.013 C 
HETATM   10  C17 UNL     1       5.060  55.250  -7.437  1.00  0.00     0.018 C 
HETATM   11  C18 UNL     1       6.244  55.225  -8.424  1.00  0.00     0.023 C 
HETATM   12  C19 UNL     1       5.518  54.514  -6.160  1.00  0.00     0.023 C 
HETATM   13  C20 UNL     1       4.784  56.701  -7.032  1.00  0.00     0.135 C 
HETATM   14  O2  UNL     1       5.663  57.563  -6.998  1.00  0.00    -0.297 OA
HETATM   15  C21 UNL     1       3.385  57.017  -6.583  1.00  0.00     0.080 C 
HETATM   16  C22 UNL     1       2.379  56.764  -7.695  1.00  0.00     0.017 C 
HETATM   17  C23 UNL     1       2.712  55.576  -8.655  1.00  0.00    -0.031 C 
HETATM   18  C24 UNL     1       3.282  56.165  -9.970  1.00  0.00     0.016 C 
HETATM   19  C25 UNL     1       1.381  54.762  -8.933  1.00  0.00     0.024 C 
HETATM   20  C26 UNL     1       0.247  55.582  -9.596  1.00  0.00     0.010 C 
HETATM   21  C27 UNL     1      -1.068  54.805  -9.848  1.00  0.00     0.011 C 
HETATM   22  C28 UNL     1      -0.924  53.267  -9.863  1.00  0.00    -0.029 C 
HETATM   23  C29 UNL     1      -1.125  52.727  -8.410  1.00  0.00     0.016 C 
ENDROOT
BRANCH   1  24
HETATM   24  C6  UNL     1      -3.396  52.266 -10.404  1.00  0.00    -0.011 C 
HETATM   25  C7  UNL     1      -4.247  53.515 -10.648  1.00  0.00     0.010 C 
BRANCH  24  26
HETATM   26  C5  UNL     1      -3.962  51.029 -11.167  1.00  0.00     0.040 C 
BRANCH  26  27
HETATM   27  C4  UNL     1      -4.537  49.903 -10.286  1.00  0.00     0.141 C 
BRANCH  27  28
HETATM   28  C3  UNL     1      -6.042  49.983 -10.188  1.00  0.00     0.009 C 
HETATM   29  C2  UNL     1      -6.930  49.068 -10.637  1.00  0.00    -0.062 C 
HETATM   30  C1  UNL     1      -6.546  47.809 -11.368  1.00  0.00     0.045 C 
BRANCH  29  31
HETATM   31  C30 UNL     1      -8.410  49.256 -10.435  1.00  0.00     0.198 C 
BRANCH  31  32
HETATM   32  O3  UNL     1      -9.034  49.288 -11.709  1.00  0.00    -0.397 OA
HETATM   33  H48 UNL     1      -9.983  49.430 -11.551  1.00  0.00     0.209 HD
ENDBRANCH  31  32
ENDBRANCH  29  31
ENDBRANCH  27  28
BRANCH  27  34
HETATM   34  O1  UNL     1      -3.992  50.021  -8.974  1.00  0.00    -0.392 OA
HETATM   35  H6  UNL     1      -4.637  50.505  -8.429  1.00  0.00     0.210 HD
ENDBRANCH  27  34
ENDBRANCH  26  27
ENDBRANCH  24  26
ENDBRANCH   1  24
TORSDOF 7
ENDMDL
MODEL 2
REMARK minimizedAffinity -7.6072917
REMARK CNNscore 0.448020428
REMARK CNNaffinity 5.79996157
REMARK  7 active torsions:
REMARK  status: ('A' for Active; 'I' for Inactive)
REMARK    1  A    between atoms: C2_2  and  C30_32 
REMARK    2  A    between atoms: C3_3  and  C4_4 
REMARK    3  A    between atoms: C4_4  and  O1_5 
REMARK    4  A    between atoms: C4_4  and  C5_6 
REMARK    5  A    between atoms: C5_6  and  C6_7 
REMARK    6  A    between atoms: C6_7  and  C8_9 
REMARK    7  A    between atoms: C30_32  and  O3_33 
ROOT
HETATM    1  C8  UNL     1     -12.560  45.970 -27.124  1.00  0.00    -0.002 C 
HETATM    2  C9  UNL     1     -13.122  47.339 -27.617  1.00  0.00     0.007 C 
HETATM    3  C10 UNL     1     -12.032  48.008 -28.476  1.00  0.00     0.015 C 
HETATM    4  C11 UNL     1     -10.762  47.181 -28.205  1.00  0.00    -0.013 C 
HETATM    5  C12 UNL     1     -10.162  47.741 -26.873  1.00  0.00     0.021 C 
HETATM    6  C13 UNL     1      -9.635  47.239 -29.232  1.00  0.00    -0.070 C 
HETATM    7  C14 UNL     1      -9.375  48.346 -29.950  1.00  0.00    -0.022 C 
HETATM    8  C15 UNL     1      -8.209  48.504 -30.875  1.00  0.00     0.034 C 
HETATM    9  C16 UNL     1      -7.430  47.202 -31.172  1.00  0.00     0.013 C 
HETATM   10  C17 UNL     1      -6.094  47.460 -31.963  1.00  0.00     0.018 C 
HETATM   11  C18 UNL     1      -5.342  48.746 -31.564  1.00  0.00     0.023 C 
HETATM   12  C19 UNL     1      -6.403  47.564 -33.472  1.00  0.00     0.023 C 
HETATM   13  C20 UNL     1      -5.154  46.263 -31.789  1.00  0.00     0.135 C 
HETATM   14  O2  UNL     1      -3.932  46.352 -31.908  1.00  0.00    -0.297 OA
HETATM   15  C21 UNL     1      -5.804  44.930 -31.548  1.00  0.00     0.080 C 
HETATM   16  C22 UNL     1      -6.612  44.934 -30.259  1.00  0.00     0.017 C 
HETATM   17  C23 UNL     1      -7.299  46.290 -29.894  1.00  0.00    -0.031 C 
HETATM   18  C24 UNL     1      -6.454  46.977 -28.793  1.00  0.00     0.016 C 
HETATM   19  C25 UNL     1      -8.765  45.988 -29.373  1.00  0.00     0.024 C 
HETATM   20  C26 UNL     1      -8.833  45.086 -28.115  1.00  0.00     0.010 C 
HETATM   21  C27 UNL     1     -10.261  44.763 -27.612  1.00  0.00     0.011 C 
HETATM   22  C28 UNL     1     -11.360  45.731 -28.102  1.00  0.00    -0.029 C 
HETATM   23  C29 UNL     1     -11.938  45.197 -29.452  1.00  0.00     0.016 C 
ENDROOT
BRANCH   1  24
HETATM   24  C6  UNL     1     -13.686  44.896 -26.964  1.00  0.00    -0.011 C 
HETATM   25  C7  UNL     1     -13.185  43.643 -26.240  1.00  0.00     0.010 C 
BRANCH  24  26
HETATM   26  C5  UNL     1     -14.908  45.531 -26.231  1.00  0.00     0.040 C 
BRANCH  26  27
HETATM   27  C4  UNL     1     -16.292  45.003 -26.657  1.00  0.00     0.141 C 
BRANCH  27  28
HETATM   28  C3  UNL     1     -17.402  45.619 -25.837  1.00  0.00     0.009 C 
HETATM   29  C2  UNL     1     -18.726  45.373 -25.955  1.00  0.00    -0.062 C 
HETATM   30  C1  UNL     1     -19.323  44.451 -26.985  1.00  0.00     0.045 C 
BRANCH  29  31
HETATM   31  C30 UNL     1     -19.724  46.030 -25.040  1.00  0.00     0.198 C 
BRANCH  31  32
HETATM   32  O3  UNL     1     -19.307  47.367 -24.809  1.00  0.00    -0.397 OA
HETATM   33  H48 UNL     1     -19.956  47.760 -24.201  1.00  0.00     0.209 HD
ENDBRANCH  31  32
ENDBRANCH  29  31
ENDBRANCH  27  28
BRANCH  27  34
HETATM   34  O1  UNL     1     -16.324  43.591 -26.471  1.00  0.00    -0.392 OA
HETATM   35  H6  UNL     1     -16.744  43.416 -25.610  1.00  0.00     0.210 HD
ENDBRANCH  27  34
ENDBRANCH  26  27
ENDBRANCH  24  26
ENDBRANCH   1  24
TORSDOF 7
ENDMDL
MODEL 3
REMARK minimizedAffinity -7.65341187
REMARK CNNscore 0.411124587
REMARK CNNaffinity 5.62406778
REMARK  7 active torsions:
REMARK  status: ('A' for Active; 'I' for Inactive)
REMARK    1  A    between atoms: C2_2  and  C30_32 
REMARK    2  A    between atoms: C3_3  and  C4_4 
REMARK    3  A    between atoms: C4_4  and  O1_5 
REMARK    4  A    between atoms: C4_4  and  C5_6 
REMARK    5  A    between atoms: C5_6  and  C6_7 
REMARK    6  A    between atoms: C6_7  and  C8_9 
REMARK    7  A    between atoms: C30_32  and  O3_33 
ROOT
HETATM    1  C8  UNL     1       6.728  66.408 -36.361  1.00  0.00    -0.002 C 
HETATM    2  C9  UNL     1       6.112  66.979 -35.047  1.00  0.00     0.007 C 
HETATM    3  C10 UNL     1       5.026  67.996 -35.446  1.00  0.00     0.015 C 
HETATM    4  C11 UNL     1       5.249  68.234 -36.950  1.00  0.00    -0.013 C 
HETATM    5  C12 UNL     1       6.390  69.299 -37.051  1.00  0.00     0.021 C 
HETATM    6  C13 UNL     1       4.087  68.783 -37.772  1.00  0.00    -0.070 C 
HETATM    7  C14 UNL     1       3.181  69.632 -37.253  1.00  0.00    -0.022 C 
HETATM    8  C15 UNL     1       2.098  70.302 -38.040  1.00  0.00     0.034 C 
HETATM    9  C16 UNL     1       1.901  69.760 -39.474  1.00  0.00     0.013 C 
HETATM   10  C17 UNL     1       0.912  70.638 -40.326  1.00  0.00     0.018 C 
HETATM   11  C18 UNL     1       1.009  72.156 -40.072  1.00  0.00     0.023 C 
HETATM   12  C19 UNL     1      -0.542  70.219 -40.019  1.00  0.00     0.023 C 
HETATM   13  C20 UNL     1       1.140  70.371 -41.817  1.00  0.00     0.135 C 
HETATM   14  O2  UNL     1       0.849  71.186 -42.693  1.00  0.00    -0.297 OA
HETATM   15  C21 UNL     1       1.663  69.010 -42.181  1.00  0.00     0.080 C 
HETATM   16  C22 UNL     1       3.031  68.761 -41.565  1.00  0.00     0.017 C 
HETATM   17  C23 UNL     1       3.274  69.415 -40.167  1.00  0.00    -0.031 C 
HETATM   18  C24 UNL     1       4.138  70.684 -40.372  1.00  0.00     0.016 C 
HETATM   19  C25 UNL     1       4.023  68.368 -39.242  1.00  0.00     0.024 C 
HETATM   20  C26 UNL     1       5.400  67.902 -39.776  1.00  0.00     0.010 C 
HETATM   21  C27 UNL     1       6.130  66.858 -38.896  1.00  0.00     0.011 C 
HETATM   22  C28 UNL     1       5.648  66.790 -37.430  1.00  0.00    -0.029 C 
HETATM   23  C29 UNL     1       4.482  65.755 -37.329  1.00  0.00     0.016 C 
ENDROOT
BRANCH   1  24
HETATM   24  C6  UNL     1       7.196  64.924 -36.195  1.00  0.00    -0.011 C 
HETATM   25  C7  UNL     1       8.722  64.799 -36.196  1.00  0.00     0.010 C 
BRANCH  24  26
HETATM   26  C5  UNL     1       6.573  64.326 -34.895  1.00  0.00     0.040 C 
BRANCH  26  27
HETATM   27  C4  UNL     1       5.674  63.090 -35.090  1.00  0.00     0.141 C 
BRANCH  27  28
HETATM   28  C3  UNL     1       4.843  62.804 -33.862  1.00  0.00     0.009 C 
HETATM   29  C2  UNL     1       4.462  63.694 -32.918  1.00  0.00    -0.062 C 
HETATM   30  C1  UNL     1       4.859  65.147 -32.922  1.00  0.00     0.045 C 
BRANCH  29  31
HETATM   31  C30 UNL     1       3.594  63.278 -31.761  1.00  0.00     0.198 C 
BRANCH  31  32
HETATM   32  O3  UNL     1       2.846  62.137 -32.151  1.00  0.00    -0.397 OA
HETATM   33  H48 UNL     1       2.281  61.903 -31.395  1.00  0.00     0.209 HD
ENDBRANCH  31  32
ENDBRANCH  29  31
ENDBRANCH  27  28
BRANCH  27  34
HETATM   34  O1  UNL     1       6.498  61.958 -35.351  1.00  0.00    -0.392 OA
HETATM   35  H6  UNL     1       6.625  61.485 -34.510  1.00  0.00     0.210 HD
ENDBRANCH  27  34
ENDBRANCH  26  27
ENDBRANCH  24  26
ENDBRANCH   1  24
TORSDOF 7
ENDMDL
MODEL 4
REMARK minimizedAffinity -7.41144848
REMARK CNNscore 0.377538323
REMARK CNNaffinity 5.76408052
REMARK  7 active torsions:
REMARK  status: ('A' for Active; 'I' for Inactive)
REMARK    1  A    between atoms: C2_2  and  C30_32 
REMARK    2  A    between atoms: C3_3  and  C4_4 
REMARK    3  A    between atoms: C4_4  and  O1_5 
REMARK    4  A    between atoms: C4_4  and  C5_6 
REMARK    5  A    between atoms: C5_6  and  C6_7 
REMARK    6  A    between atoms: C6_7  and  C8_9 
REMARK    7  A    between atoms: C30_32  and  O3_33 
ROOT
HETATM    1  C8  UNL     1     -14.995  45.145 -25.292  1.00  0.00    -0.002 C 
HETATM    2  C9  UNL     1     -14.215  44.087 -24.452  1.00  0.00     0.007 C 
HETATM    3  C10 UNL     1     -12.834  43.897 -25.109  1.00  0.00     0.015 C 
HETATM    4  C11 UNL     1     -12.955  44.592 -26.477  1.00  0.00    -0.013 C 
HETATM    5  C12 UNL     1     -13.634  43.552 -27.428  1.00  0.00     0.021 C 
HETATM    6  C13 UNL     1     -11.672  45.029 -27.177  1.00  0.00    -0.070 C 
HETATM    7  C14 UNL     1     -10.521  44.343 -27.058  1.00  0.00    -0.022 C 
HETATM    8  C15 UNL     1      -9.268  44.646 -27.818  1.00  0.00     0.034 C 
HETATM    9  C16 UNL     1      -9.280  45.988 -28.586  1.00  0.00     0.013 C 
HETATM   10  C17 UNL     1      -8.039  46.154 -29.540  1.00  0.00     0.018 C 
HETATM   11  C18 UNL     1      -7.582  44.857 -30.239  1.00  0.00     0.023 C 
HETATM   12  C19 UNL     1      -6.836  46.681 -28.730  1.00  0.00     0.023 C 
HETATM   13  C20 UNL     1      -8.347  47.208 -30.607  1.00  0.00     0.135 C 
HETATM   14  O2  UNL     1      -7.781  47.237 -31.700  1.00  0.00    -0.297 OA
HETATM   15  C21 UNL     1      -9.326  48.282 -30.224  1.00  0.00     0.080 C 
HETATM   16  C22 UNL     1     -10.692  47.695 -29.905  1.00  0.00     0.017 C 
HETATM   17  C23 UNL     1     -10.684  46.280 -29.240  1.00  0.00    -0.031 C 
HETATM   18  C24 UNL     1     -11.030  45.235 -30.328  1.00  0.00     0.016 C 
HETATM   19  C25 UNL     1     -11.762  46.262 -28.078  1.00  0.00     0.024 C 
HETATM   20  C26 UNL     1     -13.214  46.544 -28.537  1.00  0.00     0.010 C 
HETATM   21  C27 UNL     1     -14.272  46.556 -27.407  1.00  0.00     0.011 C 
HETATM   22  C28 UNL     1     -13.848  45.833 -26.109  1.00  0.00    -0.029 C 
HETATM   23  C29 UNL     1     -13.135  46.859 -25.170  1.00  0.00     0.016 C 
ENDROOT
BRANCH   1  24
HETATM   24  C6  UNL     1     -15.967  45.996 -24.410  1.00  0.00    -0.011 C 
HETATM   25  C7  UNL     1     -15.356  47.343 -24.017  1.00  0.00     0.010 C 
BRANCH  24  26
HETATM   26  C5  UNL     1     -17.323  46.178 -25.160  1.00  0.00     0.040 C 
BRANCH  26  27
HETATM   27  C4  UNL     1     -18.514  46.628 -24.292  1.00  0.00     0.141 C 
BRANCH  27  28
HETATM   28  C3  UNL     1     -19.016  45.510 -23.409  1.00  0.00     0.009 C 
HETATM   29  C2  UNL     1     -19.044  45.498 -22.058  1.00  0.00    -0.062 C 
HETATM   30  C1  UNL     1     -18.519  46.614 -21.194  1.00  0.00     0.045 C 
BRANCH  29  31
HETATM   31  C30 UNL     1     -19.614  44.328 -21.301  1.00  0.00     0.198 C 
BRANCH  31  32
HETATM   32  O3  UNL     1     -19.909  44.751 -19.979  1.00  0.00    -0.397 OA
HETATM   33  H48 UNL     1     -20.255  43.974 -19.509  1.00  0.00     0.209 HD
ENDBRANCH  31  32
ENDBRANCH  29  31
ENDBRANCH  27  28
BRANCH  27  34
HETATM   34  O1  UNL     1     -19.576  47.042 -25.146  1.00  0.00    -0.392 OA
HETATM   35  H6  UNL     1     -20.187  46.291 -25.242  1.00  0.00     0.210 HD
ENDBRANCH  27  34
ENDBRANCH  26  27
ENDBRANCH  24  26
ENDBRANCH   1  24
TORSDOF 7
ENDMDL
MODEL 5
REMARK minimizedAffinity -7.68234062
REMARK CNNscore 0.371552885
REMARK CNNaffinity 6.21424246
REMARK  7 active torsions:
REMARK  status: ('A' for Active; 'I' for Inactive)
REMARK    1  A    between atoms: C2_2  and  C30_32 
REMARK    2  A    between atoms: C3_3  and  C4_4 
REMARK    3  A    between atoms: C4_4  and  O1_5 
REMARK    4  A    between atoms: C4_4  and  C5_6 
REMARK    5  A    between atoms: C5_6  and  C6_7 
REMARK    6  A    between atoms: C6_7  and  C8_9 
REMARK    7  A    between atoms: C30_32  and  O3_33 
ROOT
HETATM    1  C8  UNL     1      -6.106  48.378 -23.518  1.00  0.00    -0.002 C 
HETATM    2  C9  UNL     1      -6.934  48.559 -22.209  1.00  0.00     0.007 C 
HETATM    3  C10 UNL     1      -6.016  49.224 -21.166  1.00  0.00     0.015 C 
HETATM    4  C11 UNL     1      -4.604  49.123 -21.769  1.00  0.00    -0.013 C 
HETATM    5  C12 UNL     1      -4.089  47.688 -21.418  1.00  0.00     0.021 C 
HETATM    6  C13 UNL     1      -3.536  50.089 -21.265  1.00  0.00    -0.070 C 
HETATM    7  C14 UNL     1      -3.514  50.533 -19.996  1.00  0.00    -0.022 C 
HETATM    8  C15 UNL     1      -2.424  51.376 -19.409  1.00  0.00     0.034 C 
HETATM    9  C16 UNL     1      -1.416  51.945 -20.434  1.00  0.00     0.013 C 
HETATM   10  C17 UNL     1      -0.176  52.632 -19.751  1.00  0.00     0.018 C 
HETATM   11  C18 UNL     1       0.323  51.938 -18.467  1.00  0.00     0.023 C 
HETATM   12  C19 UNL     1      -0.538  54.083 -19.371  1.00  0.00     0.023 C 
HETATM   13  C20 UNL     1       0.982  52.715 -20.750  1.00  0.00     0.135 C 
HETATM   14  O2  UNL     1       2.160  52.787 -20.401  1.00  0.00    -0.297 OA
HETATM   15  C21 UNL     1       0.608  52.794 -22.204  1.00  0.00     0.080 C 
HETATM   16  C22 UNL     1      -0.152  51.553 -22.646  1.00  0.00     0.017 C 
HETATM   17  C23 UNL     1      -1.078  50.904 -21.568  1.00  0.00    -0.031 C 
HETATM   18  C24 UNL     1      -0.354  49.660 -20.996  1.00  0.00     0.016 C 
HETATM   19  C25 UNL     1      -2.445  50.492 -22.258  1.00  0.00     0.024 C 
HETATM   20  C26 UNL     1      -2.304  49.473 -23.415  1.00  0.00     0.010 C 
HETATM   21  C27 UNL     1      -3.630  49.083 -24.115  1.00  0.00     0.011 C 
HETATM   22  C28 UNL     1      -4.907  49.362 -23.294  1.00  0.00    -0.029 C 
HETATM   23  C29 UNL     1      -5.406  50.809 -23.611  1.00  0.00     0.016 C 
ENDROOT
BRANCH   1  24
HETATM   24  C6  UNL     1      -6.998  48.486 -24.799  1.00  0.00    -0.011 C 
HETATM   25  C7  UNL     1      -6.370  47.772 -25.998  1.00  0.00     0.010 C 
BRANCH  24  26
HETATM   26  C5  UNL     1      -8.423  47.934 -24.486  1.00  0.00     0.040 C 
BRANCH  26  27
HETATM   27  C4  UNL     1      -9.586  48.623 -25.226  1.00  0.00     0.141 C 
BRANCH  27  28
HETATM   28  C3  UNL     1      -9.911  47.927 -26.527  1.00  0.00     0.009 C 
HETATM   29  C2  UNL     1     -11.025  47.215 -26.807  1.00  0.00    -0.062 C 
HETATM   30  C1  UNL     1     -12.131  46.959 -25.817  1.00  0.00     0.045 C 
BRANCH  29  31
HETATM   31  C30 UNL     1     -11.240  46.607 -28.166  1.00  0.00     0.198 C 
BRANCH  31  32
HETATM   32  O3  UNL     1     -10.142  45.754 -28.453  1.00  0.00    -0.397 OA
HETATM   33  H48 UNL     1     -10.295  45.392 -29.342  1.00  0.00     0.209 HD
ENDBRANCH  31  32
ENDBRANCH  29  31
ENDBRANCH  27  28
BRANCH  27  34
HETATM   34  O1  UNL     1      -9.216  49.969 -25.514  1.00  0.00    -0.392 OA
HETATM   35  H6  UNL     1      -8.883  49.994 -26.427  1.00  0.00     0.210 HD
ENDBRANCH  27  34
ENDBRANCH  26  27
ENDBRANCH  24  26
ENDBRANCH   1  24
TORSDOF 7
ENDMDL
MODEL 6
REMARK minimizedAffinity -7.53673553
REMARK CNNscore 0.352447122
REMARK CNNaffinity 5.5677228
REMARK  7 active torsions:
REMARK  status: ('A' for Active; 'I' for Inactive)
REMARK    1  A    between atoms: C2_2  and  C30_32 
REMARK    2  A    between atoms: C3_3  and  C4_4 
REMARK    3  A    between atoms: C4_4  and  O1_5 
REMARK    4  A    between atoms: C4_4  and  C5_6 
REMARK    5  A    between atoms: C5_6  and  C6_7 
REMARK    6  A    between atoms: C6_7  and  C8_9 
REMARK    7  A    between atoms: C30_32  and  O3_33 
ROOT
HETATM    1  C8  UNL     1       5.801  67.935 -36.316  1.00  0.00    -0.002 C 
HETATM    2  C9  UNL     1       5.354  69.070 -35.344  1.00  0.00     0.007 C 
HETATM    3  C10 UNL     1       4.173  69.809 -36.004  1.00  0.00     0.015 C 
HETATM    4  C11 UNL     1       4.166  69.309 -37.460  1.00  0.00    -0.013 C 
HETATM    5  C12 UNL     1       5.227  70.175 -38.216  1.00  0.00     0.021 C 
HETATM    6  C13 UNL     1       2.872  69.439 -38.257  1.00  0.00    -0.070 C 
HETATM    7  C14 UNL     1       2.011  70.454 -38.066  1.00  0.00    -0.022 C 
HETATM    8  C15 UNL     1       0.794  70.705 -38.901  1.00  0.00     0.034 C 
HETATM    9  C16 UNL     1       0.419  69.559 -39.869  1.00  0.00     0.013 C 
HETATM   10  C17 UNL     1      -0.724  69.960 -40.873  1.00  0.00     0.018 C 
HETATM   11  C18 UNL     1      -0.665  71.418 -41.374  1.00  0.00     0.023 C 
HETATM   12  C19 UNL     1      -2.096  69.771 -40.192  1.00  0.00     0.023 C 
HETATM   13  C20 UNL     1      -0.700  69.021 -42.082  1.00  0.00     0.135 C 
HETATM   14  O2  UNL     1      -1.153  69.338 -43.183  1.00  0.00    -0.297 OA
HETATM   15  C21 UNL     1      -0.170  67.635 -41.844  1.00  0.00     0.080 C 
HETATM   16  C22 UNL     1       1.283  67.670 -41.396  1.00  0.00     0.017 C 
HETATM   17  C23 UNL     1       1.693  68.896 -40.518  1.00  0.00    -0.031 C 
HETATM   18  C24 UNL     1       2.456  69.899 -41.419  1.00  0.00     0.016 C 
HETATM   19  C25 UNL     1       2.618  68.385 -39.336  1.00  0.00     0.024 C 
HETATM   20  C26 UNL     1       3.924  67.689 -39.791  1.00  0.00     0.010 C 
HETATM   21  C27 UNL     1       4.823  67.162 -38.646  1.00  0.00     0.011 C 
HETATM   22  C28 UNL     1       4.561  67.800 -37.264  1.00  0.00    -0.029 C 
HETATM   23  C29 UNL     1       3.473  66.962 -36.518  1.00  0.00     0.016 C 
ENDROOT
BRANCH   1  24
HETATM   24  C6  UNL     1       6.359  66.691 -35.549  1.00  0.00    -0.011 C 
HETATM   25  C7  UNL     1       7.573  66.080 -36.253  1.00  0.00     0.010 C 
BRANCH  24  26
HETATM   26  C5  UNL     1       6.691  67.094 -34.079  1.00  0.00     0.040 C 
BRANCH  26  27
HETATM   27  C4  UNL     1       6.379  66.033 -33.007  1.00  0.00     0.141 C 
BRANCH  27  28
HETATM   28  C3  UNL     1       5.663  64.838 -33.593  1.00  0.00     0.009 C 
HETATM   29  C2  UNL     1       4.636  64.158 -33.037  1.00  0.00    -0.062 C 
HETATM   30  C1  UNL     1       4.057  64.467 -31.681  1.00  0.00     0.045 C 
BRANCH  29  31
HETATM   31  C30 UNL     1       3.986  63.006 -33.754  1.00  0.00     0.198 C 
BRANCH  31  32
HETATM   32  O3  UNL     1       3.702  61.991 -32.804  1.00  0.00    -0.397 OA
HETATM   33  H48 UNL     1       3.303  61.253 -33.296  1.00  0.00     0.209 HD
ENDBRANCH  31  32
ENDBRANCH  29  31
ENDBRANCH  27  28
BRANCH  27  34
HETATM   34  O1  UNL     1       5.542  66.616 -32.011  1.00  0.00    -0.392 OA
HETATM   35  H6  UNL     1       4.622  66.383 -32.225  1.00  0.00     0.210 HD
ENDBRANCH  27  34
ENDBRANCH  26  27
ENDBRANCH  24  26
ENDBRANCH   1  24
TORSDOF 7
ENDMDL
MODEL 7
REMARK minimizedAffinity -7.65970421
REMARK CNNscore 0.349193305
REMARK CNNaffinity 6.52948809
REMARK  7 active torsions:
REMARK  status: ('A' for Active; 'I' for Inactive)
REMARK    1  A    between atoms: C2_2  and  C30_32 
REMARK    2  A    between atoms: C3_3  and  C4_4 
REMARK    3  A    between atoms: C4_4  and  O1_5 
REMARK    4  A    between atoms: C4_4  and  C5_6 
REMARK    5  A    between atoms: C5_6  and  C6_7 
REMARK    6  A    between atoms: C6_7  and  C8_9 
REMARK    7  A    between atoms: C30_32  and  O3_33 
ROOT
HETATM    1  C8  UNL     1      -2.895  49.159 -20.047  1.00  0.00    -0.002 C 
HETATM    2  C9  UNL     1      -3.484  48.289 -18.894  1.00  0.00     0.007 C 
HETATM    3  C10 UNL     1      -4.767  47.621 -19.423  1.00  0.00     0.015 C 
HETATM    4  C11 UNL     1      -5.072  48.354 -20.742  1.00  0.00    -0.013 C 
HETATM    5  C12 UNL     1      -5.830  49.662 -20.340  1.00  0.00     0.021 C 
HETATM    6  C13 UNL     1      -5.958  47.652 -21.766  1.00  0.00    -0.070 C 
HETATM    7  C14 UNL     1      -6.955  46.825 -21.404  1.00  0.00    -0.022 C 
HETATM    8  C15 UNL     1      -7.936  46.210 -22.353  1.00  0.00     0.034 C 
HETATM    9  C16 UNL     1      -7.585  46.371 -23.850  1.00  0.00     0.013 C 
HETATM   10  C17 UNL     1      -8.749  45.908 -24.802  1.00  0.00     0.018 C 
HETATM   11  C18 UNL     1     -10.169  46.231 -24.294  1.00  0.00     0.023 C 
HETATM   12  C19 UNL     1      -8.674  44.378 -24.997  1.00  0.00     0.023 C 
HETATM   13  C20 UNL     1      -8.564  46.536 -26.186  1.00  0.00     0.135 C 
HETATM   14  O2  UNL     1      -9.498  46.714 -26.969  1.00  0.00    -0.297 OA
HETATM   15  C21 UNL     1      -7.153  46.854 -26.594  1.00  0.00     0.080 C 
HETATM   16  C22 UNL     1      -6.524  47.874 -25.657  1.00  0.00     0.017 C 
HETATM   17  C23 UNL     1      -6.975  47.791 -24.163  1.00  0.00    -0.031 C 
HETATM   18  C24 UNL     1      -8.006  48.918 -23.908  1.00  0.00     0.016 C 
HETATM   19  C25 UNL     1      -5.700  47.974 -23.239  1.00  0.00     0.024 C 
HETATM   20  C26 UNL     1      -4.958  49.322 -23.420  1.00  0.00     0.010 C 
HETATM   21  C27 UNL     1      -3.696  49.502 -22.542  1.00  0.00     0.011 C 
HETATM   22  C28 UNL     1      -3.622  48.577 -21.308  1.00  0.00    -0.029 C 
HETATM   23  C29 UNL     1      -2.899  47.252 -21.712  1.00  0.00     0.016 C 
ENDROOT
BRANCH   1  24
HETATM   24  C6  UNL     1      -1.333  49.232 -19.989  1.00  0.00    -0.011 C 
HETATM   25  C7  UNL     1      -0.678  48.387 -21.085  1.00  0.00     0.010 C 
BRANCH  24  26
HETATM   26  C5  UNL     1      -0.881  50.723 -20.067  1.00  0.00     0.040 C 
BRANCH  26  27
HETATM   27  C4  UNL     1      -0.733  51.305 -21.486  1.00  0.00     0.141 C 
BRANCH  27  28
HETATM   28  C3  UNL     1       0.450  52.240 -21.587  1.00  0.00     0.009 C 
HETATM   29  C2  UNL     1       0.802  53.195 -20.698  1.00  0.00    -0.062 C 
HETATM   30  C1  UNL     1       0.020  53.516 -19.452  1.00  0.00     0.045 C 
BRANCH  29  31
HETATM   31  C30 UNL     1       2.036  54.032 -20.904  1.00  0.00     0.198 C 
BRANCH  31  32
HETATM   32  O3  UNL     1       1.830  54.861 -22.038  1.00  0.00    -0.397 OA
HETATM   33  H48 UNL     1       2.647  55.374 -22.160  1.00  0.00     0.209 HD
ENDBRANCH  31  32
ENDBRANCH  29  31
ENDBRANCH  27  28
BRANCH  27  34
HETATM   34  O1  UNL     1      -1.913  52.034 -21.811  1.00  0.00    -0.392 OA
HETATM   35  H6  UNL     1      -1.741  52.973 -21.623  1.00  0.00     0.210 HD
ENDBRANCH  27  34
ENDBRANCH  26  27
ENDBRANCH  24  26
ENDBRANCH   1  24
TORSDOF 7
ENDMDL
MODEL 8
REMARK minimizedAffinity -7.79771614
REMARK CNNscore 0.330915362
REMARK CNNaffinity 6.4018693
REMARK  7 active torsions:
REMARK  status: ('A' for Active; 'I' for Inactive)
REMARK    1  A    between atoms: C2_2  and  C30_32 
REMARK    2  A    between atoms: C3_3  and  C4_4 
REMARK    3  A    between atoms: C4_4  and  O1_5 
REMARK    4  A    between atoms: C4_4  and  C5_6 
REMARK    5  A    between atoms: C5_6  and  C6_7 
REMARK    6  A    between atoms: C6_7  and  C8_9 
REMARK    7  A    between atoms: C30_32  and  O3_33 
ROOT
HETATM    1  C8  UNL     1      -3.227  50.491 -24.898  1.00  0.00    -0.002 C 
HETATM    2  C9  UNL     1      -2.584  51.432 -23.833  1.00  0.00     0.007 C 
HETATM    3  C10 UNL     1      -3.232  51.107 -22.473  1.00  0.00     0.015 C 
HETATM    4  C11 UNL     1      -4.446  50.228 -22.821  1.00  0.00    -0.013 C 
HETATM    5  C12 UNL     1      -5.592  51.216 -23.216  1.00  0.00     0.021 C 
HETATM    6  C13 UNL     1      -5.021  49.331 -21.729  1.00  0.00    -0.070 C 
HETATM    7  C14 UNL     1      -5.006  49.684 -20.431  1.00  0.00    -0.022 C 
HETATM    8  C15 UNL     1      -5.666  48.910 -19.332  1.00  0.00     0.034 C 
HETATM    9  C16 UNL     1      -6.167  47.504 -19.735  1.00  0.00     0.013 C 
HETATM   10  C17 UNL     1      -7.043  46.827 -18.617  1.00  0.00     0.018 C 
HETATM   11  C18 UNL     1      -7.963  47.792 -17.842  1.00  0.00     0.023 C 
HETATM   12  C19 UNL     1      -6.120  46.151 -17.581  1.00  0.00     0.023 C 
HETATM   13  C20 UNL     1      -7.898  45.717 -19.234  1.00  0.00     0.135 C 
HETATM   14  O2  UNL     1      -8.953  45.328 -18.730  1.00  0.00    -0.297 OA
HETATM   15  C21 UNL     1      -7.343  45.046 -20.459  1.00  0.00     0.080 C 
HETATM   16  C22 UNL     1      -7.172  46.036 -21.601  1.00  0.00     0.017 C 
HETATM   17  C23 UNL     1      -6.786  47.492 -21.184  1.00  0.00    -0.031 C 
HETATM   18  C24 UNL     1      -8.060  48.369 -21.262  1.00  0.00     0.016 C 
HETATM   19  C25 UNL     1      -5.674  48.024 -22.180  1.00  0.00     0.024 C 
HETATM   20  C26 UNL     1      -6.106  48.072 -23.667  1.00  0.00     0.010 C 
HETATM   21  C27 UNL     1      -5.019  48.565 -24.654  1.00  0.00     0.011 C 
HETATM   22  C28 UNL     1      -3.872  49.373 -24.010  1.00  0.00    -0.029 C 
HETATM   23  C29 UNL     1      -2.739  48.387 -23.578  1.00  0.00     0.016 C 
ENDROOT
BRANCH   1  24
HETATM   24  C6  UNL     1      -2.223  50.123 -26.040  1.00  0.00    -0.011 C 
HETATM   25  C7  UNL     1      -2.631  50.733 -27.383  1.00  0.00     0.010 C 
BRANCH  24  26
HETATM   26  C5  UNL     1      -0.783  50.559 -25.626  1.00  0.00     0.040 C 
BRANCH  26  27
HETATM   27  C4  UNL     1      -0.644  52.004 -25.109  1.00  0.00     0.141 C 
BRANCH  27  28
HETATM   28  C3  UNL     1      -0.819  53.014 -26.219  1.00  0.00     0.009 C 
HETATM   29  C2  UNL     1      -0.141  53.057 -27.387  1.00  0.00    -0.062 C 
HETATM   30  C1  UNL     1       0.962  52.101 -27.757  1.00  0.00     0.045 C 
BRANCH  29  31
HETATM   31  C30 UNL     1      -0.449  54.100 -28.428  1.00  0.00     0.198 C 
BRANCH  31  32
HETATM   32  O3  UNL     1      -1.858  54.228 -28.530  1.00  0.00    -0.397 OA
HETATM   33  H48 UNL     1      -2.029  54.891 -29.221  1.00  0.00     0.209 HD
ENDBRANCH  31  32
ENDBRANCH  29  31
ENDBRANCH  27  28
BRANCH  27  34
HETATM   34  O1  UNL     1       0.656  52.170 -24.549  1.00  0.00    -0.392 OA
HETATM   35  H6  UNL     1       1.222  52.571 -25.232  1.00  0.00     0.210 HD
ENDBRANCH  27  34
ENDBRANCH  26  27
ENDBRANCH  24  26
ENDBRANCH   1  24
TORSDOF 7
ENDMDL
MODEL 9
REMARK minimizedAffinity -7.52939844
REMARK CNNscore 0.319286257
REMARK CNNaffinity 5.77255201
REMARK  7 active torsions:
REMARK  status: ('A' for Active; 'I' for Inactive)
REMARK    1  A    between atoms: C2_2  and  C30_32 
REMARK    2  A    between atoms: C3_3  and  C4_4 
REMARK    3  A    between atoms: C4_4  and  O1_5 
REMARK    4  A    between atoms: C4_4  and  C5_6 
REMARK    5  A    between atoms: C5_6  and  C6_7 
REMARK    6  A    between atoms: C6_7  and  C8_9 
REMARK    7  A    between atoms: C30_32  and  O3_33 
ROOT
HETATM    1  C8  UNL     1       6.792  65.358 -35.280  1.00  0.00    -0.002 C 
HETATM    2  C9  UNL     1       5.687  64.740 -34.369  1.00  0.00     0.007 C 
HETATM    3  C10 UNL     1       4.323  65.213 -34.906  1.00  0.00     0.015 C 
HETATM    4  C11 UNL     1       4.665  66.337 -35.901  1.00  0.00    -0.013 C 
HETATM    5  C12 UNL     1       4.858  67.628 -35.040  1.00  0.00     0.021 C 
HETATM    6  C13 UNL     1       3.632  66.692 -36.967  1.00  0.00    -0.070 C 
HETATM    7  C14 UNL     1       2.310  66.600 -36.742  1.00  0.00    -0.022 C 
HETATM    8  C15 UNL     1       1.251  67.054 -37.698  1.00  0.00     0.034 C 
HETATM    9  C16 UNL     1       1.761  67.413 -39.113  1.00  0.00     0.013 C 
HETATM   10  C17 UNL     1       0.655  68.090 -40.005  1.00  0.00     0.018 C 
HETATM   11  C18 UNL     1      -0.290  69.046 -39.249  1.00  0.00     0.023 C 
HETATM   12  C19 UNL     1      -0.225  66.998 -40.649  1.00  0.00     0.023 C 
HETATM   13  C20 UNL     1       1.318  68.855 -41.154  1.00  0.00     0.135 C 
HETATM   14  O2  UNL     1       0.776  69.802 -41.725  1.00  0.00    -0.297 OA
HETATM   15  C21 UNL     1       2.648  68.337 -41.624  1.00  0.00     0.080 C 
HETATM   16  C22 UNL     1       3.687  68.398 -40.515  1.00  0.00     0.017 C 
HETATM   17  C23 UNL     1       3.149  68.158 -39.068  1.00  0.00    -0.031 C 
HETATM   18  C24 UNL     1       3.030  69.532 -38.364  1.00  0.00     0.016 C 
HETATM   19  C25 UNL     1       4.168  67.218 -38.299  1.00  0.00     0.024 C 
HETATM   20  C26 UNL     1       5.602  67.789 -38.167  1.00  0.00     0.010 C 
HETATM   21  C27 UNL     1       6.614  66.868 -37.441  1.00  0.00     0.011 C 
HETATM   22  C28 UNL     1       5.980  65.774 -36.554  1.00  0.00    -0.029 C 
HETATM   23  C29 UNL     1       5.749  64.493 -37.418  1.00  0.00     0.016 C 
ENDROOT
BRANCH   1  24
HETATM   24  C6  UNL     1       8.044  64.427 -35.401  1.00  0.00    -0.011 C 
HETATM   25  C7  UNL     1       9.125  65.032 -36.300  1.00  0.00     0.010 C 
BRANCH  24  26
HETATM   26  C5  UNL     1       8.595  64.111 -33.975  1.00  0.00     0.040 C 
BRANCH  26  27
HETATM   27  C4  UNL     1       9.246  62.726 -33.801  1.00  0.00     0.141 C 
BRANCH  27  28
HETATM   28  C3  UNL     1       9.901  62.251 -35.077  1.00  0.00     0.009 C 
HETATM   29  C2  UNL     1      11.155  62.530 -35.494  1.00  0.00    -0.062 C 
HETATM   30  C1  UNL     1      12.111  63.426 -34.750  1.00  0.00     0.045 C 
BRANCH  29  31
HETATM   31  C30 UNL     1      11.696  61.953 -36.775  1.00  0.00     0.198 C 
BRANCH  31  32
HETATM   32  O3  UNL     1      10.606  61.467 -37.542  1.00  0.00    -0.397 OA
HETATM   33  H48 UNL     1      10.984  61.083 -38.351  1.00  0.00     0.209 HD
ENDBRANCH  31  32
ENDBRANCH  29  31
ENDBRANCH  27  28
BRANCH  27  34
HETATM   34  O1  UNL     1       8.241  61.787 -33.432  1.00  0.00    -0.392 OA
HETATM   35  H6  UNL     1       7.954  61.328 -34.241  1.00  0.00     0.210 HD
ENDBRANCH  27  34
ENDBRANCH  26  27
ENDBRANCH  24  26
ENDBRANCH   1  24
TORSDOF 7
ENDMDL
