MODEL 1
REMARK minimizedAffinity -6.34970522
REMARK CNNscore 0.382018745
REMARK CNNaffinity 6.34291601
REMARK  21 active torsions:
REMARK  status: ('A' for Active; 'I' for Inactive)
REMARK    1  A    between atoms: C2_2  and  C3_3 
REMARK    2  A    between atoms: C2_2  and  C29_36 
REMARK    3  A    between atoms: C4_4  and  C5_5 
REMARK    4  A    between atoms: C6_6  and  C7_7 
REMARK    5  A    between atoms: C6_6  and  C10_12 
REMARK    6  A    between atoms: C7_7  and  O1_8 
REMARK    7  A    between atoms: O1_8  and  C8_9 
REMARK    8  A    between atoms: C8_9  and  C9_10 
REMARK    9  A    between atoms: C9_10  and  O2_11 
REMARK   10  A    between atoms: C14_16  and  O3_17 
REMARK   11  A    between atoms: C15_18  and  C16_19 
REMARK   12  A    between atoms: C16_19  and  C17_20 
REMARK   13  A    between atoms: C17_20  and  C18_21 
REMARK   14  A    between atoms: C18_21  and  O4_22 
REMARK   15  A    between atoms: C20_24  and  C22_26 
REMARK   16  A    between atoms: C25_30  and  O6_31 
REMARK   17  A    between atoms: C25_30  and  C26_32 
REMARK   18  A    between atoms: C26_32  and  C27_33 
REMARK   19  A    between atoms: C27_33  and  N1_34 
REMARK   20  A    between atoms: C29_36  and  C30_37 
REMARK   21  A    between atoms: C30_37  and  C31_38 
ROOT
HETATM    1  C10 UNL     1       0.121  49.722 -16.325  1.00  0.00     0.046 C 
HETATM    2  C11 UNL     1      -1.161  48.890 -16.168  1.00  0.00     0.013 C 
HETATM    3  C12 UNL     1      -1.173  48.361 -14.726  1.00  0.00     0.017 C 
HETATM    4  C13 UNL     1      -0.160  49.217 -13.895  1.00  0.00     0.025 C 
HETATM    5  C14 UNL     1       0.209  50.348 -14.917  1.00  0.00     0.138 C 
HETATM    6  C15 UNL     1       1.098  48.289 -13.516  1.00  0.00     0.029 C 
HETATM    7  C19 UNL     1       1.907  48.949 -12.394  1.00  0.00    -0.066 C 
HETATM    8  C20 UNL     1       3.081  49.632 -12.428  1.00  0.00    -0.021 C 
HETATM    9  C21 UNL     1       3.823  50.107 -11.198  1.00  0.00     0.052 C 
HETATM   10  C23 UNL     1       1.133  48.803 -11.086  1.00  0.00     0.038 C 
HETATM   11  C24 UNL     1      -0.384  48.961 -11.286  1.00  0.00     0.043 C 
HETATM   12  C25 UNL     1      -0.782  49.820 -12.514  1.00  0.00     0.070 C 
ENDROOT
BRANCH   5  13
HETATM   13  O3  UNL     1      -0.743  51.412 -14.848  1.00  0.00    -0.394 OA
HETATM   14  H19 UNL     1      -0.657  51.793 -13.948  1.00  0.00     0.210 HD
ENDBRANCH   5  13
BRANCH   6  15
HETATM   15  C16 UNL     1       1.874  47.558 -14.647  1.00  0.00     0.012 C 
BRANCH  15  16
HETATM   16  C17 UNL     1       1.826  46.016 -14.586  1.00  0.00     0.027 C 
BRANCH  16  17
HETATM   17  C18 UNL     1       2.083  45.394 -13.220  1.00  0.00     0.164 C 
BRANCH  17  18
HETATM   18  O4  UNL     1       3.392  45.728 -12.785  1.00  0.00    -0.401 OA
HETATM   19  H27 UNL     1       3.454  45.515 -11.836  1.00  0.00     0.209 HD
ENDBRANCH  17  18
ENDBRANCH  16  17
ENDBRANCH  15  16
ENDBRANCH   6  15
BRANCH  12  20
HETATM   20  O6  UNL     1      -0.241  51.153 -12.330  1.00  0.00    -0.389 OA
HETATM   21  H36 UNL     1       0.639  51.093 -11.924  1.00  0.00     0.210 HD
ENDBRANCH  12  20
BRANCH  12  22
HETATM   22  C26 UNL     1      -2.330  50.010 -12.536  1.00  0.00     0.068 C 
BRANCH  22  23
HETATM   23  C27 UNL     1      -2.982  50.588 -11.261  1.00  0.00     0.272 C 
BRANCH  23  24
HETATM   24  N1  UNL     1      -2.800  52.033 -11.067  1.00  0.00     0.079 N 
HETATM   25  C28 UNL     1      -3.661  52.827 -11.933  1.00  0.00     0.306 C 
HETATM   26  H41 UNL     1      -1.826  52.260 -11.286  1.00  0.00     0.315 HD
ENDBRANCH  23  24
ENDBRANCH  22  23
ENDBRANCH  12  22
BRANCH   1  27
HETATM   27  C6  UNL     1       0.181  50.556 -17.618  1.00  0.00    -0.050 C 
HETATM   28  C5  UNL     1      -0.410  50.308 -18.810  1.00  0.00     0.005 C 
BRANCH  28  29
HETATM   29  C4  UNL     1      -1.260  49.214 -19.232  1.00  0.00     0.001 C 
HETATM   30  C3  UNL     1      -1.479  48.913 -20.523  1.00  0.00     0.006 C 
BRANCH  30  31
HETATM   31  C2  UNL     1      -2.308  47.815 -21.021  1.00  0.00    -0.067 C 
HETATM   32  C1  UNL     1      -2.762  46.912 -20.136  1.00  0.00     0.019 C 
BRANCH  31  33
HETATM   33  C29 UNL     1      -2.613  47.767 -22.514  1.00  0.00     0.041 C 
BRANCH  33  34
HETATM   34  C30 UNL     1      -2.790  49.110 -23.237  1.00  0.00     0.032 C 
BRANCH  34  35
HETATM   35  C31 UNL     1      -2.724  48.943 -24.734  1.00  0.00    -0.024 C 
HETATM   36  C32 UNL     1      -3.729  48.601 -25.564  1.00  0.00    -0.091 C 
HETATM   37  C33 UNL     1      -3.477  48.439 -27.041  1.00  0.00     0.042 C 
HETATM   38  C34 UNL     1      -5.154  48.363 -25.145  1.00  0.00     0.042 C 
ENDBRANCH  34  35
ENDBRANCH  33  34
ENDBRANCH  31  33
ENDBRANCH  30  31
ENDBRANCH  28  29
BRANCH  27  39
HETATM   39  C7  UNL     1       0.942  51.874 -17.423  1.00  0.00     0.202 C 
BRANCH  39  40
HETATM   40  O1  UNL     1       0.467  52.913 -18.283  1.00  0.00    -0.385 OA
BRANCH  40  41
HETATM   41  C8  UNL     1       1.408  53.281 -19.288  1.00  0.00     0.194 C 
BRANCH  41  42
HETATM   42  C9  UNL     1       0.746  54.048 -20.431  1.00  0.00     0.190 C 
BRANCH  42  43
HETATM   43  O2  UNL     1       1.562  54.030 -21.598  1.00  0.00    -0.399 OA
HETATM   44  H12 UNL     1       2.393  54.490 -21.387  1.00  0.00     0.209 HD
ENDBRANCH  42  43
ENDBRANCH  41  42
ENDBRANCH  40  41
ENDBRANCH  39  40
ENDBRANCH  27  39
ENDBRANCH   1  27
BRANCH   8  45
HETATM   45  C22 UNL     1       3.804  50.011 -13.686  1.00  0.00     0.265 C 
HETATM   46  O5  UNL     1       4.884  49.519 -13.999  1.00  0.00    -0.302 OA
ENDBRANCH   8  45
TORSDOF 21
ENDMDL
MODEL 2
REMARK minimizedAffinity -6.53719616
REMARK CNNscore 0.368457854
REMARK CNNaffinity 6.8962779
REMARK  21 active torsions:
REMARK  status: ('A' for Active; 'I' for Inactive)
REMARK    1  A    between atoms: C2_2  and  C3_3 
REMARK    2  A    between atoms: C2_2  and  C29_36 
REMARK    3  A    between atoms: C4_4  and  C5_5 
REMARK    4  A    between atoms: C6_6  and  C7_7 
REMARK    5  A    between atoms: C6_6  and  C10_12 
REMARK    6  A    between atoms: C7_7  and  O1_8 
REMARK    7  A    between atoms: O1_8  and  C8_9 
REMARK    8  A    between atoms: C8_9  and  C9_10 
REMARK    9  A    between atoms: C9_10  and  O2_11 
REMARK   10  A    between atoms: C14_16  and  O3_17 
REMARK   11  A    between atoms: C15_18  and  C16_19 
REMARK   12  A    between atoms: C16_19  and  C17_20 
REMARK   13  A    between atoms: C17_20  and  C18_21 
REMARK   14  A    between atoms: C18_21  and  O4_22 
REMARK   15  A    between atoms: C20_24  and  C22_26 
REMARK   16  A    between atoms: C25_30  and  O6_31 
REMARK   17  A    between atoms: C25_30  and  C26_32 
REMARK   18  A    between atoms: C26_32  and  C27_33 
REMARK   19  A    between atoms: C27_33  and  N1_34 
REMARK   20  A    between atoms: C29_36  and  C30_37 
REMARK   21  A    between atoms: C30_37  and  C31_38 
ROOT
HETATM    1  C10 UNL     1       0.168  50.747 -17.200  1.00  0.00     0.046 C 
HETATM    2  C11 UNL     1      -0.231  49.825 -18.363  1.00  0.00     0.013 C 
HETATM    3  C12 UNL     1      -1.073  48.691 -17.760  1.00  0.00     0.017 C 
HETATM    4  C13 UNL     1      -1.552  49.152 -16.344  1.00  0.00     0.025 C 
HETATM    5  C14 UNL     1      -1.106  50.656 -16.334  1.00  0.00     0.138 C 
HETATM    6  C15 UNL     1      -0.787  48.272 -15.236  1.00  0.00     0.029 C 
HETATM    7  C19 UNL     1      -1.499  48.408 -13.885  1.00  0.00    -0.066 C 
HETATM    8  C20 UNL     1      -1.180  49.132 -12.781  1.00  0.00    -0.021 C 
HETATM    9  C21 UNL     1      -1.924  49.049 -11.466  1.00  0.00     0.052 C 
HETATM   10  C23 UNL     1      -2.796  47.605 -13.937  1.00  0.00     0.038 C 
HETATM   11  C24 UNL     1      -3.487  47.700 -15.308  1.00  0.00     0.043 C 
HETATM   12  C25 UNL     1      -3.156  48.990 -16.103  1.00  0.00     0.070 C 
ENDROOT
BRANCH   5  13
HETATM   13  O3  UNL     1      -2.109  51.477 -16.939  1.00  0.00    -0.394 OA
HETATM   14  H19 UNL     1      -2.900  51.405 -16.363  1.00  0.00     0.210 HD
ENDBRANCH   5  13
BRANCH   6  15
HETATM   15  C16 UNL     1       0.766  48.220 -15.243  1.00  0.00     0.012 C 
BRANCH  15  16
HETATM   16  C17 UNL     1       1.387  47.020 -14.497  1.00  0.00     0.027 C 
BRANCH  16  17
HETATM   17  C18 UNL     1       2.886  47.100 -14.236  1.00  0.00     0.164 C 
BRANCH  17  18
HETATM   18  O4  UNL     1       3.116  47.724 -12.983  1.00  0.00    -0.401 OA
HETATM   19  H27 UNL     1       4.047  47.567 -12.739  1.00  0.00     0.209 HD
ENDBRANCH  17  18
ENDBRANCH  16  17
ENDBRANCH  15  16
ENDBRANCH   6  15
BRANCH  12  20
HETATM   20  O6  UNL     1      -3.605  50.129 -15.326  1.00  0.00    -0.389 OA
HETATM   21  H36 UNL     1      -3.434  49.967 -14.384  1.00  0.00     0.210 HD
ENDBRANCH  12  20
BRANCH  12  22
HETATM   22  C26 UNL     1      -4.009  49.028 -17.409  1.00  0.00     0.068 C 
BRANCH  22  23
HETATM   23  C27 UNL     1      -4.250  47.682 -18.127  1.00  0.00     0.272 C 
BRANCH  23  24
HETATM   24  N1  UNL     1      -4.573  47.787 -19.557  1.00  0.00     0.079 N 
HETATM   25  C28 UNL     1      -4.062  49.013 -20.156  1.00  0.00     0.306 C 
HETATM   26  H41 UNL     1      -5.592  47.783 -19.651  1.00  0.00     0.315 HD
ENDBRANCH  23  24
ENDBRANCH  22  23
ENDBRANCH  12  22
BRANCH   1  27
HETATM   27  C6  UNL     1       0.790  52.086 -17.638  1.00  0.00    -0.050 C 
HETATM   28  C5  UNL     1       0.587  52.775 -18.785  1.00  0.00     0.005 C 
BRANCH  28  29
HETATM   29  C4  UNL     1      -0.253  52.480 -19.927  1.00  0.00     0.001 C 
HETATM   30  C3  UNL     1       0.225  51.971 -21.075  1.00  0.00     0.006 C 
BRANCH  30  31
HETATM   31  C2  UNL     1      -0.566  51.633 -22.260  1.00  0.00    -0.067 C 
HETATM   32  C1  UNL     1      -1.271  50.490 -22.246  1.00  0.00     0.019 C 
BRANCH  31  33
HETATM   33  C29 UNL     1      -0.544  52.604 -23.435  1.00  0.00     0.041 C 
BRANCH  33  34
HETATM   34  C30 UNL     1       0.688  52.570 -24.351  1.00  0.00     0.032 C 
BRANCH  34  35
HETATM   35  C31 UNL     1       0.304  52.279 -25.779  1.00  0.00    -0.024 C 
HETATM   36  C32 UNL     1       1.106  51.840 -26.770  1.00  0.00    -0.091 C 
HETATM   37  C33 UNL     1       0.561  51.638 -28.160  1.00  0.00     0.042 C 
HETATM   38  C34 UNL     1       2.564  51.505 -26.617  1.00  0.00     0.042 C 
ENDBRANCH  34  35
ENDBRANCH  33  34
ENDBRANCH  31  33
ENDBRANCH  30  31
ENDBRANCH  28  29
BRANCH  27  39
HETATM   39  C7  UNL     1       1.659  52.709 -16.539  1.00  0.00     0.202 C 
BRANCH  39  40
HETATM   40  O1  UNL     1       3.014  52.254 -16.587  1.00  0.00    -0.385 OA
BRANCH  40  41
HETATM   41  C8  UNL     1       3.675  52.332 -15.326  1.00  0.00     0.194 C 
BRANCH  41  42
HETATM   42  C9  UNL     1       3.060  51.378 -14.304  1.00  0.00     0.190 C 
BRANCH  42  43
HETATM   43  O2  UNL     1       4.034  50.464 -13.808  1.00  0.00    -0.399 OA
HETATM   44  H12 UNL     1       4.342  49.923 -14.556  1.00  0.00     0.209 HD
ENDBRANCH  42  43
ENDBRANCH  41  42
ENDBRANCH  40  41
ENDBRANCH  39  40
ENDBRANCH  27  39
ENDBRANCH   1  27
BRANCH   8  45
HETATM   45  C22 UNL     1      -0.047  50.113 -12.710  1.00  0.00     0.265 C 
HETATM   46  O5  UNL     1      -0.182  51.297 -13.006  1.00  0.00    -0.302 OA
ENDBRANCH   8  45
TORSDOF 21
ENDMDL
MODEL 3
REMARK minimizedAffinity -7.30154133
REMARK CNNscore 0.35243094
REMARK CNNaffinity 7.08170319
REMARK  21 active torsions:
REMARK  status: ('A' for Active; 'I' for Inactive)
REMARK    1  A    between atoms: C2_2  and  C3_3 
REMARK    2  A    between atoms: C2_2  and  C29_36 
REMARK    3  A    between atoms: C4_4  and  C5_5 
REMARK    4  A    between atoms: C6_6  and  C7_7 
REMARK    5  A    between atoms: C6_6  and  C10_12 
REMARK    6  A    between atoms: C7_7  and  O1_8 
REMARK    7  A    between atoms: O1_8  and  C8_9 
REMARK    8  A    between atoms: C8_9  and  C9_10 
REMARK    9  A    between atoms: C9_10  and  O2_11 
REMARK   10  A    between atoms: C14_16  and  O3_17 
REMARK   11  A    between atoms: C15_18  and  C16_19 
REMARK   12  A    between atoms: C16_19  and  C17_20 
REMARK   13  A    between atoms: C17_20  and  C18_21 
REMARK   14  A    between atoms: C18_21  and  O4_22 
REMARK   15  A    between atoms: C20_24  and  C22_26 
REMARK   16  A    between atoms: C25_30  and  O6_31 
REMARK   17  A    between atoms: C25_30  and  C26_32 
REMARK   18  A    between atoms: C26_32  and  C27_33 
REMARK   19  A    between atoms: C27_33  and  N1_34 
REMARK   20  A    between atoms: C29_36  and  C30_37 
REMARK   21  A    between atoms: C30_37  and  C31_38 
ROOT
HETATM    1  C10 UNL     1      -2.058  48.772 -19.949  1.00  0.00     0.046 C 
HETATM    2  C11 UNL     1      -1.174  48.135 -21.033  1.00  0.00     0.013 C 
HETATM    3  C12 UNL     1      -2.120  47.597 -22.117  1.00  0.00     0.017 C 
HETATM    4  C13 UNL     1      -3.511  48.285 -21.921  1.00  0.00     0.025 C 
HETATM    5  C14 UNL     1      -3.180  49.362 -20.830  1.00  0.00     0.138 C 
HETATM    6  C15 UNL     1      -4.557  47.178 -21.401  1.00  0.00     0.029 C 
HETATM    7  C19 UNL     1      -5.989  47.699 -21.574  1.00  0.00    -0.066 C 
HETATM    8  C20 UNL     1      -6.866  48.203 -20.667  1.00  0.00    -0.021 C 
HETATM    9  C21 UNL     1      -8.305  48.549 -20.979  1.00  0.00     0.052 C 
HETATM   10  C23 UNL     1      -6.348  47.653 -23.056  1.00  0.00     0.038 C 
HETATM   11  C24 UNL     1      -5.160  48.033 -23.956  1.00  0.00     0.043 C 
HETATM   12  C25 UNL     1      -4.114  48.956 -23.279  1.00  0.00     0.070 C 
ENDROOT
BRANCH   5  13
HETATM   13  O3  UNL     1      -2.679  50.553 -21.442  1.00  0.00    -0.394 OA
HETATM   14  H19 UNL     1      -3.415  50.907 -21.985  1.00  0.00     0.210 HD
ENDBRANCH   5  13
BRANCH   6  15
HETATM   15  C16 UNL     1      -4.225  46.355 -20.126  1.00  0.00     0.012 C 
BRANCH  15  16
HETATM   16  C17 UNL     1      -5.119  45.118 -19.891  1.00  0.00     0.027 C 
BRANCH  16  17
HETATM   17  C18 UNL     1      -5.618  44.408 -21.143  1.00  0.00     0.164 C 
BRANCH  17  18
HETATM   18  O4  UNL     1      -5.631  43.007 -20.921  1.00  0.00    -0.401 OA
HETATM   19  H27 UNL     1      -6.151  42.596 -21.635  1.00  0.00     0.209 HD
ENDBRANCH  17  18
ENDBRANCH  16  17
ENDBRANCH  15  16
ENDBRANCH   6  15
BRANCH  12  20
HETATM   20  O6  UNL     1      -4.773  50.193 -22.906  1.00  0.00    -0.389 OA
HETATM   21  H36 UNL     1      -5.670  50.000 -22.588  1.00  0.00     0.210 HD
ENDBRANCH  12  20
BRANCH  12  22
HETATM   22  C26 UNL     1      -3.033  49.372 -24.324  1.00  0.00     0.068 C 
BRANCH  22  23
HETATM   23  C27 UNL     1      -3.166  48.776 -25.743  1.00  0.00     0.272 C 
BRANCH  23  24
HETATM   24  N1  UNL     1      -3.975  49.570 -26.679  1.00  0.00     0.079 N 
HETATM   25  C28 UNL     1      -3.169  50.486 -27.476  1.00  0.00     0.306 C 
HETATM   26  H41 UNL     1      -4.640  50.122 -26.131  1.00  0.00     0.315 HD
ENDBRANCH  23  24
ENDBRANCH  22  23
ENDBRANCH  12  22
BRANCH   1  27
HETATM   27  C6  UNL     1      -1.285  49.603 -18.909  1.00  0.00    -0.050 C 
HETATM   28  C5  UNL     1      -0.386  50.593 -19.119  1.00  0.00     0.005 C 
BRANCH  28  29
HETATM   29  C4  UNL     1       0.118  51.164 -20.350  1.00  0.00     0.001 C 
HETATM   30  C3  UNL     1       0.247  52.487 -20.545  1.00  0.00     0.006 C 
BRANCH  30  31
HETATM   31  C2  UNL     1       0.763  53.131 -21.754  1.00  0.00    -0.067 C 
HETATM   32  C1  UNL     1       1.550  54.210 -21.610  1.00  0.00     0.019 C 
BRANCH  31  33
HETATM   33  C29 UNL     1       0.381  52.532 -23.103  1.00  0.00     0.041 C 
BRANCH  33  34
HETATM   34  C30 UNL     1       0.885  53.256 -24.360  1.00  0.00     0.032 C 
BRANCH  34  35
HETATM   35  C31 UNL     1       0.330  52.632 -25.615  1.00  0.00    -0.024 C 
HETATM   36  C32 UNL     1       0.993  51.889 -26.522  1.00  0.00    -0.091 C 
HETATM   37  C33 UNL     1       0.286  51.371 -27.748  1.00  0.00     0.042 C 
HETATM   38  C34 UNL     1       2.441  51.493 -26.424  1.00  0.00     0.042 C 
ENDBRANCH  34  35
ENDBRANCH  33  34
ENDBRANCH  31  33
ENDBRANCH  30  31
ENDBRANCH  28  29
BRANCH  27  39
HETATM   39  C7  UNL     1      -1.719  49.284 -17.473  1.00  0.00     0.202 C 
BRANCH  39  40
HETATM   40  O1  UNL     1      -2.143  50.446 -16.756  1.00  0.00    -0.385 OA
BRANCH  40  41
HETATM   41  C8  UNL     1      -1.470  50.611 -15.510  1.00  0.00     0.194 C 
BRANCH  41  42
HETATM   42  C9  UNL     1      -1.920  49.575 -14.481  1.00  0.00     0.190 C 
BRANCH  42  43
HETATM   43  O2  UNL     1      -3.305  49.719 -14.184  1.00  0.00    -0.399 OA
HETATM   44  H12 UNL     1      -3.434  50.596 -13.784  1.00  0.00     0.209 HD
ENDBRANCH  42  43
ENDBRANCH  41  42
ENDBRANCH  40  41
ENDBRANCH  39  40
ENDBRANCH  27  39
ENDBRANCH   1  27
BRANCH   8  45
HETATM   45  C22 UNL     1      -6.531  48.487 -19.232  1.00  0.00     0.265 C 
HETATM   46  O5  UNL     1      -7.062  47.888 -18.301  1.00  0.00    -0.302 OA
ENDBRANCH   8  45
TORSDOF 21
ENDMDL
MODEL 4
REMARK minimizedAffinity -6.67965126
REMARK CNNscore 0.342196465
REMARK CNNaffinity 6.95975065
REMARK  21 active torsions:
REMARK  status: ('A' for Active; 'I' for Inactive)
REMARK    1  A    between atoms: C2_2  and  C3_3 
REMARK    2  A    between atoms: C2_2  and  C29_36 
REMARK    3  A    between atoms: C4_4  and  C5_5 
REMARK    4  A    between atoms: C6_6  and  C7_7 
REMARK    5  A    between atoms: C6_6  and  C10_12 
REMARK    6  A    between atoms: C7_7  and  O1_8 
REMARK    7  A    between atoms: O1_8  and  C8_9 
REMARK    8  A    between atoms: C8_9  and  C9_10 
REMARK    9  A    between atoms: C9_10  and  O2_11 
REMARK   10  A    between atoms: C14_16  and  O3_17 
REMARK   11  A    between atoms: C15_18  and  C16_19 
REMARK   12  A    between atoms: C16_19  and  C17_20 
REMARK   13  A    between atoms: C17_20  and  C18_21 
REMARK   14  A    between atoms: C18_21  and  O4_22 
REMARK   15  A    between atoms: C20_24  and  C22_26 
REMARK   16  A    between atoms: C25_30  and  O6_31 
REMARK   17  A    between atoms: C25_30  and  C26_32 
REMARK   18  A    between atoms: C26_32  and  C27_33 
REMARK   19  A    between atoms: C27_33  and  N1_34 
REMARK   20  A    between atoms: C29_36  and  C30_37 
REMARK   21  A    between atoms: C30_37  and  C31_38 
ROOT
HETATM    1  C10 UNL     1       2.812  53.343 -10.253  1.00  0.00     0.046 C 
HETATM    2  C11 UNL     1       3.415  54.544 -10.999  1.00  0.00     0.013 C 
HETATM    3  C12 UNL     1       2.915  55.807 -10.281  1.00  0.00     0.017 C 
HETATM    4  C13 UNL     1       2.393  55.379  -8.869  1.00  0.00     0.025 C 
HETATM    5  C14 UNL     1       2.848  53.878  -8.806  1.00  0.00     0.138 C 
HETATM    6  C15 UNL     1       0.793  55.543  -8.847  1.00  0.00     0.029 C 
HETATM    7  C19 UNL     1       0.291  55.518  -7.399  1.00  0.00    -0.066 C 
HETATM    8  C20 UNL     1      -0.319  54.536  -6.686  1.00  0.00    -0.021 C 
HETATM    9  C21 UNL     1      -0.881  54.720  -5.294  1.00  0.00     0.052 C 
HETATM   10  C23 UNL     1       0.650  56.846  -6.738  1.00  0.00     0.038 C 
HETATM   11  C24 UNL     1       2.029  57.364  -7.181  1.00  0.00     0.043 C 
HETATM   12  C25 UNL     1       3.011  56.255  -7.642  1.00  0.00     0.070 C 
ENDROOT
BRANCH   5  13
HETATM   13  O3  UNL     1       4.194  53.785  -8.335  1.00  0.00    -0.394 OA
HETATM   14  H19 UNL     1       4.182  54.124  -7.414  1.00  0.00     0.210 HD
ENDBRANCH   5  13
BRANCH   6  15
HETATM   15  C16 UNL     1      -0.061  54.829  -9.931  1.00  0.00     0.012 C 
BRANCH  15  16
HETATM   16  C17 UNL     1      -1.473  55.415 -10.147  1.00  0.00     0.027 C 
BRANCH  16  17
HETATM   17  C18 UNL     1      -2.578  54.405 -10.431  1.00  0.00     0.164 C 
BRANCH  17  18
HETATM   18  O4  UNL     1      -2.033  53.095 -10.439  1.00  0.00    -0.401 OA
HETATM   19  H27 UNL     1      -2.774  52.464 -10.401  1.00  0.00     0.209 HD
ENDBRANCH  17  18
ENDBRANCH  16  17
ENDBRANCH  15  16
ENDBRANCH   6  15
BRANCH  12  20
HETATM   20  O6  UNL     1       3.238  55.358  -6.526  1.00  0.00    -0.389 OA
HETATM   21  H36 UNL     1       2.409  55.232  -6.036  1.00  0.00     0.210 HD
ENDBRANCH  12  20
BRANCH  12  22
HETATM   22  C26 UNL     1       4.405  56.888  -7.943  1.00  0.00     0.068 C 
BRANCH  22  23
HETATM   23  C27 UNL     1       5.545  56.577  -6.948  1.00  0.00     0.272 C 
BRANCH  23  24
HETATM   24  N1  UNL     1       6.005  57.722  -6.149  1.00  0.00     0.079 N 
HETATM   25  C28 UNL     1       5.100  58.036  -5.050  1.00  0.00     0.306 C 
HETATM   26  H41 UNL     1       6.056  58.537  -6.766  1.00  0.00     0.315 HD
ENDBRANCH  23  24
ENDBRANCH  22  23
ENDBRANCH  12  22
BRANCH   1  27
HETATM   27  C6  UNL     1       3.410  51.982 -10.658  1.00  0.00    -0.050 C 
HETATM   28  C5  UNL     1       3.349  51.357 -11.857  1.00  0.00     0.005 C 
BRANCH  28  29
HETATM   29  C4  UNL     1       2.722  51.757 -13.099  1.00  0.00     0.001 C 
HETATM   30  C3  UNL     1       3.346  51.696 -14.287  1.00  0.00     0.006 C 
BRANCH  30  31
HETATM   31  C2  UNL     1       2.769  52.066 -15.581  1.00  0.00    -0.067 C 
HETATM   32  C1  UNL     1       3.594  52.524 -16.535  1.00  0.00     0.019 C 
BRANCH  31  33
HETATM   33  C29 UNL     1       1.264  51.903 -15.766  1.00  0.00     0.041 C 
BRANCH  33  34
HETATM   34  C30 UNL     1       0.769  51.496 -17.161  1.00  0.00     0.032 C 
BRANCH  34  35
HETATM   35  C31 UNL     1       0.812  52.657 -18.121  1.00  0.00    -0.024 C 
HETATM   36  C32 UNL     1       0.462  52.658 -19.422  1.00  0.00    -0.091 C 
HETATM   37  C33 UNL     1       0.606  53.908 -20.250  1.00  0.00     0.042 C 
HETATM   38  C34 UNL     1      -0.098  51.477 -20.168  1.00  0.00     0.042 C 
ENDBRANCH  34  35
ENDBRANCH  33  34
ENDBRANCH  31  33
ENDBRANCH  30  31
ENDBRANCH  28  29
BRANCH  27  39
HETATM   39  C7  UNL     1       4.256  51.364  -9.537  1.00  0.00     0.202 C 
BRANCH  39  40
HETATM   40  O1  UNL     1       5.630  51.753  -9.608  1.00  0.00    -0.385 OA
BRANCH  40  41
HETATM   41  C8  UNL     1       6.525  50.722  -9.201  1.00  0.00     0.194 C 
BRANCH  41  42
HETATM   42  C9  UNL     1       7.071  49.941 -10.395  1.00  0.00     0.190 C 
BRANCH  42  43
HETATM   43  O2  UNL     1       7.223  48.561 -10.076  1.00  0.00    -0.399 OA
HETATM   44  H12 UNL     1       7.880  48.491  -9.362  1.00  0.00     0.209 HD
ENDBRANCH  42  43
ENDBRANCH  41  42
ENDBRANCH  40  41
ENDBRANCH  39  40
ENDBRANCH  27  39
ENDBRANCH   1  27
BRANCH   8  45
HETATM   45  C22 UNL     1      -0.521  53.133  -7.179  1.00  0.00     0.265 C 
HETATM   46  O5  UNL     1      -1.618  52.710  -7.531  1.00  0.00    -0.302 OA
ENDBRANCH   8  45
TORSDOF 21
ENDMDL
MODEL 5
REMARK minimizedAffinity -7.6525383
REMARK CNNscore 0.282701731
REMARK CNNaffinity 6.66734838
REMARK  21 active torsions:
REMARK  status: ('A' for Active; 'I' for Inactive)
REMARK    1  A    between atoms: C2_2  and  C3_3 
REMARK    2  A    between atoms: C2_2  and  C29_36 
REMARK    3  A    between atoms: C4_4  and  C5_5 
REMARK    4  A    between atoms: C6_6  and  C7_7 
REMARK    5  A    between atoms: C6_6  and  C10_12 
REMARK    6  A    between atoms: C7_7  and  O1_8 
REMARK    7  A    between atoms: O1_8  and  C8_9 
REMARK    8  A    between atoms: C8_9  and  C9_10 
REMARK    9  A    between atoms: C9_10  and  O2_11 
REMARK   10  A    between atoms: C14_16  and  O3_17 
REMARK   11  A    between atoms: C15_18  and  C16_19 
REMARK   12  A    between atoms: C16_19  and  C17_20 
REMARK   13  A    between atoms: C17_20  and  C18_21 
REMARK   14  A    between atoms: C18_21  and  O4_22 
REMARK   15  A    between atoms: C20_24  and  C22_26 
REMARK   16  A    between atoms: C25_30  and  O6_31 
REMARK   17  A    between atoms: C25_30  and  C26_32 
REMARK   18  A    between atoms: C26_32  and  C27_33 
REMARK   19  A    between atoms: C27_33  and  N1_34 
REMARK   20  A    between atoms: C29_36  and  C30_37 
REMARK   21  A    between atoms: C30_37  and  C31_38 
ROOT
HETATM    1  C10 UNL     1      -3.598  50.374 -24.287  1.00  0.00     0.046 C 
HETATM    2  C11 UNL     1      -3.777  49.384 -25.448  1.00  0.00     0.013 C 
HETATM    3  C12 UNL     1      -4.659  48.241 -24.924  1.00  0.00     0.017 C 
HETATM    4  C13 UNL     1      -5.370  48.744 -23.624  1.00  0.00     0.025 C 
HETATM    5  C14 UNL     1      -4.988  50.265 -23.623  1.00  0.00     0.138 C 
HETATM    6  C15 UNL     1      -4.753  47.950 -22.367  1.00  0.00     0.029 C 
HETATM    7  C19 UNL     1      -5.671  48.114 -21.151  1.00  0.00    -0.066 C 
HETATM    8  C20 UNL     1      -5.555  48.901 -20.050  1.00  0.00    -0.021 C 
HETATM    9  C21 UNL     1      -6.490  48.844 -18.862  1.00  0.00     0.052 C 
HETATM   10  C23 UNL     1      -6.913  47.252 -21.359  1.00  0.00     0.038 C 
HETATM   11  C24 UNL     1      -7.385  47.253 -22.823  1.00  0.00     0.043 C 
HETATM   12  C25 UNL     1      -6.984  48.520 -23.624  1.00  0.00     0.070 C 
ENDROOT
BRANCH   5  13
HETATM   13  O3  UNL     1      -5.914  51.012 -24.416  1.00  0.00    -0.394 OA
HETATM   14  H19 UNL     1      -6.782  50.930 -23.966  1.00  0.00     0.210 HD
ENDBRANCH   5  13
BRANCH   6  15
HETATM   15  C16 UNL     1      -3.217  47.968 -22.134  1.00  0.00     0.012 C 
BRANCH  15  16
HETATM   16  C17 UNL     1      -2.647  46.730 -21.409  1.00  0.00     0.027 C 
BRANCH  16  17
HETATM   17  C18 UNL     1      -3.605  46.008 -20.470  1.00  0.00     0.164 C 
BRANCH  17  18
HETATM   18  O4  UNL     1      -3.918  44.730 -21.002  1.00  0.00    -0.401 OA
HETATM   19  H27 UNL     1      -4.342  44.209 -20.296  1.00  0.00     0.209 HD
ENDBRANCH  17  18
ENDBRANCH  16  17
ENDBRANCH  15  16
ENDBRANCH   6  15
BRANCH  12  20
HETATM   20  O6  UNL     1      -7.591  49.672 -22.985  1.00  0.00    -0.389 OA
HETATM   21  H36 UNL     1      -7.562  49.561 -22.020  1.00  0.00     0.210 HD
ENDBRANCH  12  20
BRANCH  12  22
HETATM   22  C26 UNL     1      -7.624  48.461 -25.045  1.00  0.00     0.068 C 
BRANCH  22  23
HETATM   23  C27 UNL     1      -8.497  47.228 -25.369  1.00  0.00     0.272 C 
BRANCH  23  24
HETATM   24  N1  UNL     1      -9.908  47.522 -25.659  1.00  0.00     0.079 N 
HETATM   25  C28 UNL     1     -10.134  47.846 -27.062  1.00  0.00     0.306 C 
HETATM   26  H41 UNL     1     -10.185  48.330 -25.094  1.00  0.00     0.315 HD
ENDBRANCH  23  24
ENDBRANCH  22  23
ENDBRANCH  12  22
BRANCH   1  27
HETATM   27  C6  UNL     1      -2.967  51.719 -24.693  1.00  0.00    -0.050 C 
HETATM   28  C5  UNL     1      -2.157  52.524 -23.967  1.00  0.00     0.005 C 
BRANCH  28  29
HETATM   29  C4  UNL     1      -1.644  52.380 -22.620  1.00  0.00     0.001 C 
HETATM   30  C3  UNL     1      -0.823  51.383 -22.252  1.00  0.00     0.006 C 
BRANCH  30  31
HETATM   31  C2  UNL     1      -0.254  51.186 -20.918  1.00  0.00    -0.067 C 
HETATM   32  C1  UNL     1      -0.307  49.957 -20.381  1.00  0.00     0.019 C 
BRANCH  31  33
HETATM   33  C29 UNL     1       0.370  52.391 -20.221  1.00  0.00     0.041 C 
BRANCH  33  34
HETATM   34  C30 UNL     1       0.215  52.477 -18.696  1.00  0.00     0.032 C 
BRANCH  34  35
HETATM   35  C31 UNL     1       1.539  52.736 -18.023  1.00  0.00    -0.024 C 
HETATM   36  C32 UNL     1       1.945  52.293 -16.816  1.00  0.00    -0.091 C 
HETATM   37  C33 UNL     1       3.296  52.683 -16.276  1.00  0.00     0.042 C 
HETATM   38  C34 UNL     1       1.148  51.392 -15.913  1.00  0.00     0.042 C 
ENDBRANCH  34  35
ENDBRANCH  33  34
ENDBRANCH  31  33
ENDBRANCH  30  31
ENDBRANCH  28  29
BRANCH  27  39
HETATM   39  C7  UNL     1      -3.254  52.076 -26.157  1.00  0.00     0.202 C 
BRANCH  39  40
HETATM   40  O1  UNL     1      -2.354  53.062 -26.668  1.00  0.00    -0.385 OA
BRANCH  40  41
HETATM   41  C8  UNL     1      -1.274  52.502 -27.412  1.00  0.00     0.194 C 
BRANCH  41  42
HETATM   42  C9  UNL     1      -0.441  53.582 -28.101  1.00  0.00     0.190 C 
BRANCH  42  43
HETATM   43  O2  UNL     1      -0.299  54.727 -27.267  1.00  0.00    -0.399 OA
HETATM   44  H12 UNL     1      -1.186  55.100 -27.120  1.00  0.00     0.209 HD
ENDBRANCH  42  43
ENDBRANCH  41  42
ENDBRANCH  40  41
ENDBRANCH  39  40
ENDBRANCH  27  39
ENDBRANCH   1  27
BRANCH   8  45
HETATM   45  C22 UNL     1      -4.485  49.935 -19.857  1.00  0.00     0.265 C 
HETATM   46  O5  UNL     1      -3.562  49.787 -19.061  1.00  0.00    -0.302 OA
ENDBRANCH   8  45
TORSDOF 21
ENDMDL
MODEL 6
REMARK minimizedAffinity -6.4279561
REMARK CNNscore 0.240433887
REMARK CNNaffinity 6.45900393
REMARK  21 active torsions:
REMARK  status: ('A' for Active; 'I' for Inactive)
REMARK    1  A    between atoms: C2_2  and  C3_3 
REMARK    2  A    between atoms: C2_2  and  C29_36 
REMARK    3  A    between atoms: C4_4  and  C5_5 
REMARK    4  A    between atoms: C6_6  and  C7_7 
REMARK    5  A    between atoms: C6_6  and  C10_12 
REMARK    6  A    between atoms: C7_7  and  O1_8 
REMARK    7  A    between atoms: O1_8  and  C8_9 
REMARK    8  A    between atoms: C8_9  and  C9_10 
REMARK    9  A    between atoms: C9_10  and  O2_11 
REMARK   10  A    between atoms: C14_16  and  O3_17 
REMARK   11  A    between atoms: C15_18  and  C16_19 
REMARK   12  A    between atoms: C16_19  and  C17_20 
REMARK   13  A    between atoms: C17_20  and  C18_21 
REMARK   14  A    between atoms: C18_21  and  O4_22 
REMARK   15  A    between atoms: C20_24  and  C22_26 
REMARK   16  A    between atoms: C25_30  and  O6_31 
REMARK   17  A    between atoms: C25_30  and  C26_32 
REMARK   18  A    between atoms: C26_32  and  C27_33 
REMARK   19  A    between atoms: C27_33  and  N1_34 
REMARK   20  A    between atoms: C29_36  and  C30_37 
REMARK   21  A    between atoms: C30_37  and  C31_38 
ROOT
HETATM    1  C10 UNL     1      -8.242  47.278 -26.305  1.00  0.00     0.046 C 
HETATM    2  C11 UNL     1      -9.151  48.516 -26.324  1.00  0.00     0.013 C 
HETATM    3  C12 UNL     1      -9.953  48.457 -27.633  1.00  0.00     0.017 C 
HETATM    4  C13 UNL     1      -9.866  46.994 -28.180  1.00  0.00     0.025 C 
HETATM    5  C14 UNL     1      -9.171  46.251 -26.986  1.00  0.00     0.138 C 
HETATM    6  C15 UNL     1      -8.966  47.002 -29.513  1.00  0.00     0.029 C 
HETATM    7  C19 UNL     1      -9.177  45.696 -30.287  1.00  0.00    -0.066 C 
HETATM    8  C20 UNL     1      -8.397  44.588 -30.390  1.00  0.00    -0.021 C 
HETATM    9  C21 UNL     1      -8.690  43.427 -31.315  1.00  0.00     0.052 C 
HETATM   10  C23 UNL     1     -10.548  45.743 -30.955  1.00  0.00     0.038 C 
HETATM   11  C24 UNL     1     -11.607  46.420 -30.068  1.00  0.00     0.043 C 
HETATM   12  C25 UNL     1     -11.313  46.339 -28.547  1.00  0.00     0.070 C 
ENDROOT
BRANCH   5  13
HETATM   13  O3  UNL     1     -10.143  45.832 -26.025  1.00  0.00    -0.394 OA
HETATM   14  H19 UNL     1     -10.711  45.177 -26.485  1.00  0.00     0.210 HD
ENDBRANCH   5  13
BRANCH   6  15
HETATM   15  C16 UNL     1      -7.532  47.599 -29.461  1.00  0.00     0.012 C 
BRANCH  15  16
HETATM   16  C17 UNL     1      -7.241  48.700 -30.504  1.00  0.00     0.027 C 
BRANCH  16  17
HETATM   17  C18 UNL     1      -8.456  49.301 -31.196  1.00  0.00     0.164 C 
BRANCH  17  18
HETATM   18  O4  UNL     1      -8.874  50.463 -30.496  1.00  0.00    -0.401 OA
HETATM   19  H27 UNL     1      -9.498  50.947 -31.067  1.00  0.00     0.209 HD
ENDBRANCH  17  18
ENDBRANCH  16  17
ENDBRANCH  15  16
ENDBRANCH   6  15
BRANCH  12  20
HETATM   20  O6  UNL     1     -11.275  44.940 -28.166  1.00  0.00    -0.389 OA
HETATM   21  H36 UNL     1     -10.848  44.423 -28.868  1.00  0.00     0.210 HD
ENDBRANCH  12  20
BRANCH  12  22
HETATM   22  C26 UNL     1     -12.512  46.943 -27.753  1.00  0.00     0.068 C 
BRANCH  22  23
HETATM   23  C27 UNL     1     -13.646  45.974 -27.352  1.00  0.00     0.272 C 
BRANCH  23  24
HETATM   24  N1  UNL     1     -14.252  45.229 -28.464  1.00  0.00     0.079 N 
HETATM   25  C28 UNL     1     -15.673  44.979 -28.260  1.00  0.00     0.306 C 
HETATM   26  H41 UNL     1     -13.773  44.327 -28.538  1.00  0.00     0.315 HD
ENDBRANCH  23  24
ENDBRANCH  22  23
ENDBRANCH  12  22
BRANCH   1  27
HETATM   27  C6  UNL     1      -7.554  47.017 -24.951  1.00  0.00    -0.050 C 
HETATM   28  C5  UNL     1      -6.420  47.568 -24.461  1.00  0.00     0.005 C 
BRANCH  28  29
HETATM   29  C4  UNL     1      -5.520  48.546 -25.037  1.00  0.00     0.001 C 
HETATM   30  C3  UNL     1      -4.670  48.259 -26.037  1.00  0.00     0.006 C 
BRANCH  30  31
HETATM   31  C2  UNL     1      -3.748  49.199 -26.677  1.00  0.00    -0.067 C 
HETATM   32  C1  UNL     1      -3.823  49.353 -28.009  1.00  0.00     0.019 C 
BRANCH  31  33
HETATM   33  C29 UNL     1      -2.763  49.952 -25.789  1.00  0.00     0.041 C 
BRANCH  33  34
HETATM   34  C30 UNL     1      -1.395  50.296 -26.395  1.00  0.00     0.032 C 
BRANCH  34  35
HETATM   35  C31 UNL     1      -1.341  51.731 -26.854  1.00  0.00    -0.024 C 
HETATM   36  C32 UNL     1      -0.370  52.325 -27.576  1.00  0.00    -0.091 C 
HETATM   37  C33 UNL     1      -0.460  53.790 -27.916  1.00  0.00     0.042 C 
HETATM   38  C34 UNL     1       0.852  51.633 -28.114  1.00  0.00     0.042 C 
ENDBRANCH  34  35
ENDBRANCH  33  34
ENDBRANCH  31  33
ENDBRANCH  30  31
ENDBRANCH  28  29
BRANCH  27  39
HETATM   39  C7  UNL     1      -8.375  46.081 -24.055  1.00  0.00     0.202 C 
BRANCH  39  40
HETATM   40  O1  UNL     1      -8.051  44.703 -24.259  1.00  0.00    -0.385 OA
BRANCH  40  41
HETATM   41  C8  UNL     1      -7.912  43.975 -23.041  1.00  0.00     0.194 C 
BRANCH  41  42
HETATM   42  C9  UNL     1      -7.317  42.587 -23.275  1.00  0.00     0.190 C 
BRANCH  42  43
HETATM   43  O2  UNL     1      -7.497  42.176 -24.627  1.00  0.00    -0.399 OA
HETATM   44  H12 UNL     1      -8.453  42.110 -24.794  1.00  0.00     0.209 HD
ENDBRANCH  42  43
ENDBRANCH  41  42
ENDBRANCH  40  41
ENDBRANCH  39  40
ENDBRANCH  27  39
ENDBRANCH   1  27
BRANCH   8  45
HETATM   45  C22 UNL     1      -7.140  44.361 -29.604  1.00  0.00     0.265 C 
HETATM   46  O5  UNL     1      -7.154  44.013 -28.427  1.00  0.00    -0.302 OA
ENDBRANCH   8  45
TORSDOF 21
ENDMDL
MODEL 7
REMARK minimizedAffinity -7.42146683
REMARK CNNscore 0.232812315
REMARK CNNaffinity 5.79173231
REMARK  21 active torsions:
REMARK  status: ('A' for Active; 'I' for Inactive)
REMARK    1  A    between atoms: C2_2  and  C3_3 
REMARK    2  A    between atoms: C2_2  and  C29_36 
REMARK    3  A    between atoms: C4_4  and  C5_5 
REMARK    4  A    between atoms: C6_6  and  C7_7 
REMARK    5  A    between atoms: C6_6  and  C10_12 
REMARK    6  A    between atoms: C7_7  and  O1_8 
REMARK    7  A    between atoms: O1_8  and  C8_9 
REMARK    8  A    between atoms: C8_9  and  C9_10 
REMARK    9  A    between atoms: C9_10  and  O2_11 
REMARK   10  A    between atoms: C14_16  and  O3_17 
REMARK   11  A    between atoms: C15_18  and  C16_19 
REMARK   12  A    between atoms: C16_19  and  C17_20 
REMARK   13  A    between atoms: C17_20  and  C18_21 
REMARK   14  A    between atoms: C18_21  and  O4_22 
REMARK   15  A    between atoms: C20_24  and  C22_26 
REMARK   16  A    between atoms: C25_30  and  O6_31 
REMARK   17  A    between atoms: C25_30  and  C26_32 
REMARK   18  A    between atoms: C26_32  and  C27_33 
REMARK   19  A    between atoms: C27_33  and  N1_34 
REMARK   20  A    between atoms: C29_36  and  C30_37 
REMARK   21  A    between atoms: C30_37  and  C31_38 
ROOT
HETATM    1  C10 UNL     1      -7.455  46.413 -29.412  1.00  0.00     0.046 C 
HETATM    2  C11 UNL     1      -6.914  44.988 -29.606  1.00  0.00     0.013 C 
HETATM    3  C12 UNL     1      -8.069  44.028 -29.282  1.00  0.00     0.017 C 
HETATM    4  C13 UNL     1      -9.400  44.850 -29.328  1.00  0.00     0.025 C 
HETATM    5  C14 UNL     1      -8.904  46.222 -29.905  1.00  0.00     0.138 C 
HETATM    6  C15 UNL     1      -9.971  44.978 -27.830  1.00  0.00     0.029 C 
HETATM    7  C19 UNL     1     -11.439  45.417 -27.872  1.00  0.00    -0.066 C 
HETATM    8  C20 UNL     1     -12.011  46.627 -27.639  1.00  0.00    -0.021 C 
HETATM    9  C21 UNL     1     -13.504  46.864 -27.588  1.00  0.00     0.052 C 
HETATM   10  C23 UNL     1     -12.288  44.232 -28.323  1.00  0.00     0.038 C 
HETATM   11  C24 UNL     1     -11.590  43.394 -29.408  1.00  0.00     0.043 C 
HETATM   12  C25 UNL     1     -10.559  44.179 -30.258  1.00  0.00     0.070 C 
ENDROOT
BRANCH   5  13
HETATM   13  O3  UNL     1      -8.881  46.182 -31.334  1.00  0.00    -0.394 OA
HETATM   14  H19 UNL     1      -9.814  46.068 -31.616  1.00  0.00     0.210 HD
ENDBRANCH   5  13
BRANCH   6  15
HETATM   15  C16 UNL     1      -9.061  45.566 -26.715  1.00  0.00     0.012 C 
BRANCH  15  16
HETATM   16  C17 UNL     1      -8.615  47.027 -26.934  1.00  0.00     0.027 C 
BRANCH  16  17
HETATM   17  C18 UNL     1      -8.020  47.732 -25.722  1.00  0.00     0.164 C 
BRANCH  17  18
HETATM   18  O4  UNL     1      -8.551  49.044 -25.628  1.00  0.00    -0.401 OA
HETATM   19  H27 UNL     1      -8.335  49.390 -24.743  1.00  0.00     0.209 HD
ENDBRANCH  17  18
ENDBRANCH  16  17
ENDBRANCH  15  16
ENDBRANCH   6  15
BRANCH  12  20
HETATM   20  O6  UNL     1     -11.256  45.253 -30.940  1.00  0.00    -0.389 OA
HETATM   21  H36 UNL     1     -11.929  45.629 -30.350  1.00  0.00     0.210 HD
ENDBRANCH  12  20
BRANCH  12  22
HETATM   22  C26 UNL     1     -10.017  43.261 -31.397  1.00  0.00     0.068 C 
BRANCH  22  23
HETATM   23  C27 UNL     1     -10.646  43.435 -32.797  1.00  0.00     0.272 C 
BRANCH  23  24
HETATM   24  N1  UNL     1      -9.774  43.072 -33.922  1.00  0.00     0.079 N 
HETATM   25  C28 UNL     1      -8.789  44.104 -34.221  1.00  0.00     0.306 C 
HETATM   26  H41 UNL     1     -10.364  42.942 -34.749  1.00  0.00     0.315 HD
ENDBRANCH  23  24
ENDBRANCH  22  23
ENDBRANCH  12  22
BRANCH   1  27
HETATM   27  C6  UNL     1      -6.527  47.521 -29.946  1.00  0.00    -0.050 C 
HETATM   28  C5  UNL     1      -5.547  48.188 -29.293  1.00  0.00     0.005 C 
BRANCH  28  29
HETATM   29  C4  UNL     1      -5.076  48.076 -27.928  1.00  0.00     0.001 C 
HETATM   30  C3  UNL     1      -4.103  48.852 -27.423  1.00  0.00     0.006 C 
BRANCH  30  31
HETATM   31  C2  UNL     1      -3.592  48.805 -26.052  1.00  0.00    -0.067 C 
HETATM   32  C1  UNL     1      -4.432  48.428 -25.075  1.00  0.00     0.019 C 
BRANCH  31  33
HETATM   33  C29 UNL     1      -2.133  49.183 -25.820  1.00  0.00     0.041 C 
BRANCH  33  34
HETATM   34  C30 UNL     1      -1.571  50.352 -26.642  1.00  0.00     0.032 C 
BRANCH  34  35
HETATM   35  C31 UNL     1      -0.135  50.636 -26.285  1.00  0.00    -0.024 C 
HETATM   36  C32 UNL     1       0.775  51.305 -27.020  1.00  0.00    -0.091 C 
HETATM   37  C33 UNL     1       2.189  51.465 -26.524  1.00  0.00     0.042 C 
HETATM   38  C34 UNL     1       0.504  51.954 -28.350  1.00  0.00     0.042 C 
ENDBRANCH  34  35
ENDBRANCH  33  34
ENDBRANCH  31  33
ENDBRANCH  30  31
ENDBRANCH  28  29
BRANCH  27  39
HETATM   39  C7  UNL     1      -6.729  47.773 -31.445  1.00  0.00     0.202 C 
BRANCH  39  40
HETATM   40  O1  UNL     1      -5.947  46.894 -32.259  1.00  0.00    -0.385 OA
BRANCH  40  41
HETATM   41  C8  UNL     1      -4.686  47.447 -32.628  1.00  0.00     0.194 C 
BRANCH  41  42
HETATM   42  C9  UNL     1      -4.708  48.012 -34.048  1.00  0.00     0.190 C 
BRANCH  42  43
HETATM   43  O2  UNL     1      -3.601  48.879 -34.269  1.00  0.00    -0.399 OA
HETATM   44  H12 UNL     1      -3.686  49.632 -33.659  1.00  0.00     0.209 HD
ENDBRANCH  42  43
ENDBRANCH  41  42
ENDBRANCH  40  41
ENDBRANCH  39  40
ENDBRANCH  27  39
ENDBRANCH   1  27
BRANCH   8  45
HETATM   45  C22 UNL     1     -11.245  47.894 -27.401  1.00  0.00     0.265 C 
HETATM   46  O5  UNL     1     -11.511  48.662 -26.481  1.00  0.00    -0.302 OA
ENDBRANCH   8  45
TORSDOF 21
ENDMDL
MODEL 8
REMARK minimizedAffinity -7.78850031
REMARK CNNscore 0.227157265
REMARK CNNaffinity 6.65544271
REMARK  21 active torsions:
REMARK  status: ('A' for Active; 'I' for Inactive)
REMARK    1  A    between atoms: C2_2  and  C3_3 
REMARK    2  A    between atoms: C2_2  and  C29_36 
REMARK    3  A    between atoms: C4_4  and  C5_5 
REMARK    4  A    between atoms: C6_6  and  C7_7 
REMARK    5  A    between atoms: C6_6  and  C10_12 
REMARK    6  A    between atoms: C7_7  and  O1_8 
REMARK    7  A    between atoms: O1_8  and  C8_9 
REMARK    8  A    between atoms: C8_9  and  C9_10 
REMARK    9  A    between atoms: C9_10  and  O2_11 
REMARK   10  A    between atoms: C14_16  and  O3_17 
REMARK   11  A    between atoms: C15_18  and  C16_19 
REMARK   12  A    between atoms: C16_19  and  C17_20 
REMARK   13  A    between atoms: C17_20  and  C18_21 
REMARK   14  A    between atoms: C18_21  and  O4_22 
REMARK   15  A    between atoms: C20_24  and  C22_26 
REMARK   16  A    between atoms: C25_30  and  O6_31 
REMARK   17  A    between atoms: C25_30  and  C26_32 
REMARK   18  A    between atoms: C26_32  and  C27_33 
REMARK   19  A    between atoms: C27_33  and  N1_34 
REMARK   20  A    between atoms: C29_36  and  C30_37 
REMARK   21  A    between atoms: C30_37  and  C31_38 
ROOT
HETATM    1  C10 UNL     1      -4.215  49.947 -24.878  1.00  0.00     0.046 C 
HETATM    2  C11 UNL     1      -3.964  51.428 -24.556  1.00  0.00     0.013 C 
HETATM    3  C12 UNL     1      -4.364  51.637 -23.088  1.00  0.00     0.017 C 
HETATM    4  C13 UNL     1      -4.429  50.231 -22.406  1.00  0.00     0.025 C 
HETATM    5  C14 UNL     1      -3.832  49.309 -23.525  1.00  0.00     0.138 C 
HETATM    6  C15 UNL     1      -5.969  49.893 -22.082  1.00  0.00     0.029 C 
HETATM    7  C19 UNL     1      -6.044  48.736 -21.079  1.00  0.00    -0.066 C 
HETATM    8  C20 UNL     1      -6.334  47.421 -21.260  1.00  0.00    -0.021 C 
HETATM    9  C21 UNL     1      -6.502  46.426 -20.134  1.00  0.00     0.052 C 
HETATM   10  C23 UNL     1      -5.646  49.260 -19.702  1.00  0.00     0.038 C 
HETATM   11  C24 UNL     1      -4.502  50.285 -19.776  1.00  0.00     0.043 C 
HETATM   12  C25 UNL     1      -3.583  50.130 -21.016  1.00  0.00     0.070 C 
ENDROOT
BRANCH   5  13
HETATM   13  O3  UNL     1      -2.405  49.282 -23.440  1.00  0.00    -0.394 OA
HETATM   14  H19 UNL     1      -2.194  48.866 -22.577  1.00  0.00     0.210 HD
ENDBRANCH   5  13
BRANCH   6  15
HETATM   15  C16 UNL     1      -7.017  49.940 -23.228  1.00  0.00     0.012 C 
BRANCH  15  16
HETATM   16  C17 UNL     1      -6.985  48.738 -24.197  1.00  0.00     0.027 C 
BRANCH  16  17
HETATM   17  C18 UNL     1      -8.205  48.570 -25.092  1.00  0.00     0.164 C 
BRANCH  17  18
HETATM   18  O4  UNL     1      -8.952  49.777 -25.107  1.00  0.00    -0.401 OA
HETATM   19  H27 UNL     1      -9.589  49.724 -25.842  1.00  0.00     0.209 HD
ENDBRANCH  17  18
ENDBRANCH  16  17
ENDBRANCH  15  16
ENDBRANCH   6  15
BRANCH  12  20
HETATM   20  O6  UNL     1      -2.969  48.818 -20.966  1.00  0.00    -0.389 OA
HETATM   21  H36 UNL     1      -3.614  48.170 -20.636  1.00  0.00     0.210 HD
ENDBRANCH  12  20
BRANCH  12  22
HETATM   22  C26 UNL     1      -2.396  51.137 -20.913  1.00  0.00     0.068 C 
BRANCH  22  23
HETATM   23  C27 UNL     1      -1.635  51.186 -19.570  1.00  0.00     0.272 C 
BRANCH  23  24
HETATM   24  N1  UNL     1      -0.748  50.043 -19.314  1.00  0.00     0.079 N 
HETATM   25  C28 UNL     1      -1.009  49.411 -18.026  1.00  0.00     0.306 C 
HETATM   26  H41 UNL     1       0.216  50.385 -19.315  1.00  0.00     0.315 HD
ENDBRANCH  23  24
ENDBRANCH  22  23
ENDBRANCH  12  22
BRANCH   1  27
HETATM   27  C6  UNL     1      -3.624  49.481 -26.222  1.00  0.00    -0.050 C 
HETATM   28  C5  UNL     1      -2.495  49.901 -26.837  1.00  0.00     0.005 C 
BRANCH  28  29
HETATM   29  C4  UNL     1      -1.516  50.892 -26.440  1.00  0.00     0.001 C 
HETATM   30  C3  UNL     1      -0.193  50.718 -26.595  1.00  0.00     0.006 C 
BRANCH  30  31
HETATM   31  C2  UNL     1       0.849  51.681 -26.233  1.00  0.00    -0.067 C 
HETATM   32  C1  UNL     1       2.126  51.268 -26.250  1.00  0.00     0.019 C 
BRANCH  31  33
HETATM   33  C29 UNL     1       0.418  53.097 -25.865  1.00  0.00     0.041 C 
BRANCH  33  34
HETATM   34  C30 UNL     1      -0.537  53.252 -24.673  1.00  0.00     0.032 C 
BRANCH  34  35
HETATM   35  C31 UNL     1       0.009  52.579 -23.440  1.00  0.00    -0.024 C 
HETATM   36  C32 UNL     1       0.841  53.106 -22.520  1.00  0.00    -0.091 C 
HETATM   37  C33 UNL     1       1.323  52.274 -21.360  1.00  0.00     0.042 C 
HETATM   38  C34 UNL     1       1.357  54.520 -22.530  1.00  0.00     0.042 C 
ENDBRANCH  34  35
ENDBRANCH  33  34
ENDBRANCH  31  33
ENDBRANCH  30  31
ENDBRANCH  28  29
BRANCH  27  39
HETATM   39  C7  UNL     1      -4.416  48.317 -26.831  1.00  0.00     0.202 C 
BRANCH  39  40
HETATM   40  O1  UNL     1      -4.146  48.139 -28.223  1.00  0.00    -0.385 OA
BRANCH  40  41
HETATM   41  C8  UNL     1      -5.326  48.107 -29.022  1.00  0.00     0.194 C 
BRANCH  41  42
HETATM   42  C9  UNL     1      -5.140  48.862 -30.338  1.00  0.00     0.190 C 
BRANCH  42  43
HETATM   43  O2  UNL     1      -4.285  49.987 -30.164  1.00  0.00    -0.399 OA
HETATM   44  H12 UNL     1      -4.719  50.597 -29.543  1.00  0.00     0.209 HD
ENDBRANCH  42  43
ENDBRANCH  41  42
ENDBRANCH  40  41
ENDBRANCH  39  40
ENDBRANCH  27  39
ENDBRANCH   1  27
BRANCH   8  45
HETATM   45  C22 UNL     1      -6.527  46.773 -22.599  1.00  0.00     0.265 C 
HETATM   46  O5  UNL     1      -6.937  45.623 -22.721  1.00  0.00    -0.302 OA
ENDBRANCH   8  45
TORSDOF 21
ENDMDL
MODEL 9
REMARK minimizedAffinity -6.17864323
REMARK CNNscore 0.213405147
REMARK CNNaffinity 6.34277964
REMARK  21 active torsions:
REMARK  status: ('A' for Active; 'I' for Inactive)
REMARK    1  A    between atoms: C2_2  and  C3_3 
REMARK    2  A    between atoms: C2_2  and  C29_36 
REMARK    3  A    between atoms: C4_4  and  C5_5 
REMARK    4  A    between atoms: C6_6  and  C7_7 
REMARK    5  A    between atoms: C6_6  and  C10_12 
REMARK    6  A    between atoms: C7_7  and  O1_8 
REMARK    7  A    between atoms: O1_8  and  C8_9 
REMARK    8  A    between atoms: C8_9  and  C9_10 
REMARK    9  A    between atoms: C9_10  and  O2_11 
REMARK   10  A    between atoms: C14_16  and  O3_17 
REMARK   11  A    between atoms: C15_18  and  C16_19 
REMARK   12  A    between atoms: C16_19  and  C17_20 
REMARK   13  A    between atoms: C17_20  and  C18_21 
REMARK   14  A    between atoms: C18_21  and  O4_22 
REMARK   15  A    between atoms: C20_24  and  C22_26 
REMARK   16  A    between atoms: C25_30  and  O6_31 
REMARK   17  A    between atoms: C25_30  and  C26_32 
REMARK   18  A    between atoms: C26_32  and  C27_33 
REMARK   19  A    between atoms: C27_33  and  N1_34 
REMARK   20  A    between atoms: C29_36  and  C30_37 
REMARK   21  A    between atoms: C30_37  and  C31_38 
ROOT
HETATM    1  C10 UNL     1       2.614  53.024 -10.425  1.00  0.00     0.046 C 
HETATM    2  C11 UNL     1       3.288  54.166 -11.201  1.00  0.00     0.013 C 
HETATM    3  C12 UNL     1       2.943  55.468 -10.463  1.00  0.00     0.017 C 
HETATM    4  C13 UNL     1       2.453  55.087  -9.027  1.00  0.00     0.025 C 
HETATM    5  C14 UNL     1       2.769  53.551  -8.982  1.00  0.00     0.138 C 
HETATM    6  C15 UNL     1       0.877  55.398  -8.928  1.00  0.00     0.029 C 
HETATM    7  C19 UNL     1       0.446  55.418  -7.457  1.00  0.00    -0.066 C 
HETATM    8  C20 UNL     1      -0.218  54.494  -6.714  1.00  0.00    -0.021 C 
HETATM    9  C21 UNL     1      -0.692  54.727  -5.296  1.00  0.00     0.052 C 
HETATM   10  C23 UNL     1       0.958  56.705  -6.817  1.00  0.00     0.038 C 
HETATM   11  C24 UNL     1       2.356  57.094  -7.328  1.00  0.00     0.043 C 
HETATM   12  C25 UNL     1       3.208  55.900  -7.833  1.00  0.00     0.070 C 
ENDROOT
BRANCH   5  13
HETATM   13  O3  UNL     1       4.122  53.332  -8.576  1.00  0.00    -0.394 OA
HETATM   14  H19 UNL     1       4.185  53.668  -7.657  1.00  0.00     0.210 HD
ENDBRANCH   5  13
BRANCH   6  15
HETATM   15  C16 UNL     1      -0.090  54.769  -9.968  1.00  0.00     0.012 C 
BRANCH  15  16
HETATM   16  C17 UNL     1      -1.517  55.360  -9.980  1.00  0.00     0.027 C 
BRANCH  16  17
HETATM   17  C18 UNL     1      -2.603  54.467 -10.564  1.00  0.00     0.164 C 
BRANCH  17  18
HETATM   18  O4  UNL     1      -2.967  53.477  -9.614  1.00  0.00    -0.401 OA
HETATM   19  H27 UNL     1      -3.798  53.067  -9.914  1.00  0.00     0.209 HD
ENDBRANCH  17  18
ENDBRANCH  16  17
ENDBRANCH  15  16
ENDBRANCH   6  15
BRANCH  12  20
HETATM   20  O6  UNL     1       3.404  54.982  -6.727  1.00  0.00    -0.389 OA
HETATM   21  H36 UNL     1       2.591  54.933  -6.198  1.00  0.00     0.210 HD
ENDBRANCH  12  20
BRANCH  12  22
HETATM   22  C26 UNL     1       4.638  56.401  -8.202  1.00  0.00     0.068 C 
BRANCH  22  23
HETATM   23  C27 UNL     1       5.802  55.917  -7.309  1.00  0.00     0.272 C 
BRANCH  23  24
HETATM   24  N1  UNL     1       7.021  55.525  -8.031  1.00  0.00     0.079 N 
HETATM   25  C28 UNL     1       6.738  54.997  -9.359  1.00  0.00     0.306 C 
HETATM   26  H41 UNL     1       7.488  54.795  -7.487  1.00  0.00     0.315 HD
ENDBRANCH  23  24
ENDBRANCH  22  23
ENDBRANCH  12  22
BRANCH   1  27
HETATM   27  C6  UNL     1       3.063  51.614 -10.854  1.00  0.00    -0.050 C 
HETATM   28  C5  UNL     1       3.109  51.087 -12.100  1.00  0.00     0.005 C 
BRANCH  28  29
HETATM   29  C4  UNL     1       2.762  51.663 -13.382  1.00  0.00     0.001 C 
HETATM   30  C3  UNL     1       3.571  51.609 -14.453  1.00  0.00     0.006 C 
BRANCH  30  31
HETATM   31  C2  UNL     1       3.278  52.152 -15.780  1.00  0.00    -0.067 C 
HETATM   32  C1  UNL     1       4.307  52.389 -16.610  1.00  0.00     0.019 C 
BRANCH  31  33
HETATM   33  C29 UNL     1       1.819  52.411 -16.141  1.00  0.00     0.041 C 
BRANCH  33  34
HETATM   34  C30 UNL     1       1.014  51.229 -16.699  1.00  0.00     0.032 C 
BRANCH  34  35
HETATM   35  C31 UNL     1      -0.031  50.763 -15.718  1.00  0.00    -0.024 C 
HETATM   36  C32 UNL     1       0.008  49.664 -14.940  1.00  0.00    -0.091 C 
HETATM   37  C33 UNL     1      -1.150  49.326 -14.037  1.00  0.00     0.042 C 
HETATM   38  C34 UNL     1       1.158  48.696 -14.868  1.00  0.00     0.042 C 
ENDBRANCH  34  35
ENDBRANCH  33  34
ENDBRANCH  31  33
ENDBRANCH  30  31
ENDBRANCH  28  29
BRANCH  27  39
HETATM   39  C7  UNL     1       3.611  50.797  -9.678  1.00  0.00     0.202 C 
BRANCH  39  40
HETATM   40  O1  UNL     1       5.025  50.944  -9.519  1.00  0.00    -0.385 OA
BRANCH  40  41
HETATM   41  C8  UNL     1       5.764  49.845 -10.047  1.00  0.00     0.194 C 
BRANCH  41  42
HETATM   42  C9  UNL     1       7.257  50.159 -10.139  1.00  0.00     0.190 C 
BRANCH  42  43
HETATM   43  O2  UNL     1       7.897  49.318 -11.094  1.00  0.00    -0.399 OA
HETATM   44  H12 UNL     1       7.815  48.400 -10.784  1.00  0.00     0.209 HD
ENDBRANCH  42  43
ENDBRANCH  41  42
ENDBRANCH  40  41
ENDBRANCH  39  40
ENDBRANCH  27  39
ENDBRANCH   1  27
BRANCH   8  45
HETATM   45  C22 UNL     1      -0.572  53.117  -7.193  1.00  0.00     0.265 C 
HETATM   46  O5  UNL     1      -1.209  52.325  -6.506  1.00  0.00    -0.302 OA
ENDBRANCH   8  45
TORSDOF 21
ENDMDL
