MODEL 1
REMARK minimizedAffinity -9.54679012
REMARK  13 active torsions:
REMARK  status: ('A' for Active; 'I' for Inactive)
REMARK    1  A    between atoms: C2_2  and  C3_3 
REMARK    2  A    between atoms: C2_2  and  C9_11 
REMARK    3  A    between atoms: C3_3  and  C4_4 
REMARK    4  A    between atoms: C4_4  and  C5_5 
REMARK    5  A    between atoms: C5_5  and  C6_6 
REMARK    6  A    between atoms: C6_6  and  O1_8 
REMARK    7  A    between atoms: C6_6  and  C8_9 
REMARK    8  A    between atoms: C8_9  and  O2_10 
REMARK    9  A    between atoms: C10_12  and  O3_13 
REMARK   10  A    between atoms: C11_14  and  O4_15 
REMARK   11  A    between atoms: C13_17  and  O5_18 
REMARK   12  A    between atoms: C15_20  and  O6_21 
REMARK   13  A    between atoms: C18_24  and  O7_25 
ROOT
HETATM    1  C9  UNL     1      -6.373   6.987  13.993  1.00  0.00     0.029 C 
HETATM    2  C10 UNL     1      -6.780   8.272  14.771  1.00  0.00     0.152 C 
HETATM    3  C11 UNL     1      -5.508   8.774  15.490  1.00  0.00     0.155 C 
HETATM    4  C12 UNL     1      -4.378   8.171  14.649  1.00  0.00     0.060 C 
HETATM    5  C13 UNL     1      -2.913   8.278  15.163  1.00  0.00     0.071 C 
HETATM    6  C14 UNL     1      -2.358   9.703  14.931  1.00  0.00     0.071 C 
HETATM    7  C15 UNL     1      -1.536   9.839  13.657  1.00  0.00     0.126 C 
HETATM    8  C16 UNL     1      -0.276   8.954  13.676  1.00  0.00     0.025 C 
HETATM    9  C17 UNL     1       0.250   8.753  12.237  1.00  0.00     0.039 C 
HETATM   10  C18 UNL     1       1.614   8.057  12.219  1.00  0.00     0.118 C 
HETATM   11  C19 UNL     1       1.763   6.984  13.299  1.00  0.00     0.032 C 
HETATM   12  C20 UNL     1       0.403   6.467  13.764  1.00  0.00     0.012 C 
HETATM   13  C21 UNL     1      -0.473   7.587  14.418  1.00  0.00    -0.031 C 
HETATM   14  C22 UNL     1       0.074   7.738  15.874  1.00  0.00     0.016 C 
HETATM   15  C23 UNL     1      -1.999   7.167  14.505  1.00  0.00     0.029 C 
HETATM   16  C24 UNL     1      -2.616   6.682  13.169  1.00  0.00     0.009 C 
HETATM   17  C25 UNL     1      -4.026   6.080  13.307  1.00  0.00     0.011 C 
HETATM   18  C26 UNL     1      -4.884   6.714  14.421  1.00  0.00    -0.029 C 
HETATM   19  C27 UNL     1      -4.812   5.828  15.683  1.00  0.00     0.016 C 
ENDROOT
BRANCH   1  20
HETATM   20  C2  UNL     1      -7.448   5.861  13.916  1.00  0.00    -0.011 C 
HETATM   21  C1  UNL     1      -7.560   4.914  15.116  1.00  0.00     0.010 C 
BRANCH  20  22
HETATM   22  C3  UNL     1      -7.315   5.055  12.601  1.00  0.00     0.005 C 
BRANCH  22  23
HETATM   23  C4  UNL     1      -6.975   3.563  12.746  1.00  0.00     0.003 C 
BRANCH  23  24
HETATM   24  C5  UNL     1      -5.495   3.244  12.499  1.00  0.00     0.040 C 
BRANCH  24  25
HETATM   25  C6  UNL     1      -5.187   2.384  11.251  1.00  0.00     0.075 C 
HETATM   26  C7  UNL     1      -6.156   1.197  11.215  1.00  0.00     0.048 C 
BRANCH  25  27
HETATM   27  O1  UNL     1      -3.862   1.846  11.372  1.00  0.00    -0.388 OA
HETATM   28  H14 UNL     1      -3.273   2.553  11.039  1.00  0.00     0.210 HD
ENDBRANCH  25  27
BRANCH  25  29
HETATM   29  C8  UNL     1      -5.273   3.157   9.919  1.00  0.00     0.201 C 
BRANCH  29  30
HETATM   30  O2  UNL     1      -3.968   3.560   9.497  1.00  0.00    -0.398 OA
HETATM   31  H17 UNL     1      -4.079   4.024   8.648  1.00  0.00     0.209 HD
ENDBRANCH  29  30
ENDBRANCH  25  29
ENDBRANCH  24  25
ENDBRANCH  23  24
ENDBRANCH  22  23
ENDBRANCH  20  22
ENDBRANCH   1  20
BRANCH   2  32
HETATM   32  O3  UNL     1      -7.839   8.105  15.699  1.00  0.00    -0.393 OA
HETATM   33  H20 UNL     1      -7.996   8.984  16.091  1.00  0.00     0.210 HD
ENDBRANCH   2  32
BRANCH   3  34
HETATM   34  O4  UNL     1      -5.522  10.194  15.506  1.00  0.00    -0.392 OA
HETATM   35  H22 UNL     1      -4.919  10.493  16.207  1.00  0.00     0.210 HD
ENDBRANCH   3  34
BRANCH   5  36
HETATM   36  O5  UNL     1      -2.916   8.036  16.577  1.00  0.00    -0.389 OA
HETATM   37  H24 UNL     1      -3.114   8.864  17.046  1.00  0.00     0.210 HD
ENDBRANCH   5  36
BRANCH   7  38
HETATM   38  O6  UNL     1      -1.165  11.217  13.548  1.00  0.00    -0.395 OA
HETATM   39  H28 UNL     1      -0.521  11.307  12.825  1.00  0.00     0.210 HD
ENDBRANCH   7  38
BRANCH  10  40
HETATM   40  O7  UNL     1       2.627   9.043  12.399  1.00  0.00    -0.396 OA
HETATM   41  H33 UNL     1       3.487   8.593  12.343  1.00  0.00     0.210 HD
ENDBRANCH  10  40
TORSDOF 13
ENDMDL
MODEL 2
REMARK minimizedAffinity -9.48716927
REMARK  13 active torsions:
REMARK  status: ('A' for Active; 'I' for Inactive)
REMARK    1  A    between atoms: C2_2  and  C3_3 
REMARK    2  A    between atoms: C2_2  and  C9_11 
REMARK    3  A    between atoms: C3_3  and  C4_4 
REMARK    4  A    between atoms: C4_4  and  C5_5 
REMARK    5  A    between atoms: C5_5  and  C6_6 
REMARK    6  A    between atoms: C6_6  and  O1_8 
REMARK    7  A    between atoms: C6_6  and  C8_9 
REMARK    8  A    between atoms: C8_9  and  O2_10 
REMARK    9  A    between atoms: C10_12  and  O3_13 
REMARK   10  A    between atoms: C11_14  and  O4_15 
REMARK   11  A    between atoms: C13_17  and  O5_18 
REMARK   12  A    between atoms: C15_20  and  O6_21 
REMARK   13  A    between atoms: C18_24  and  O7_25 
ROOT
HETATM    1  C9  UNL     1      -2.848   8.585  14.247  1.00  0.00     0.029 C 
HETATM    2  C10 UNL     1      -2.499   7.848  15.573  1.00  0.00     0.152 C 
HETATM    3  C11 UNL     1      -1.414   6.806  15.225  1.00  0.00     0.155 C 
HETATM    4  C12 UNL     1      -0.781   7.379  13.953  1.00  0.00     0.060 C 
HETATM    5  C13 UNL     1       0.239   6.513  13.158  1.00  0.00     0.071 C 
HETATM    6  C14 UNL     1       1.614   6.506  13.867  1.00  0.00     0.071 C 
HETATM    7  C15 UNL     1       2.596   7.525  13.308  1.00  0.00     0.126 C 
HETATM    8  C16 UNL     1       2.942   7.254  11.832  1.00  0.00     0.025 C 
HETATM    9  C17 UNL     1       3.530   8.528  11.185  1.00  0.00     0.039 C 
HETATM   10  C18 UNL     1       4.083   8.256   9.783  1.00  0.00     0.118 C 
HETATM   11  C19 UNL     1       3.254   7.246   8.988  1.00  0.00     0.032 C 
HETATM   12  C20 UNL     1       1.821   7.167   9.511  1.00  0.00     0.012 C 
HETATM   13  C21 UNL     1       1.749   6.676  10.996  1.00  0.00    -0.031 C 
HETATM   14  C22 UNL     1       1.909   5.124  10.923  1.00  0.00     0.016 C 
HETATM   15  C23 UNL     1       0.344   6.997  11.656  1.00  0.00     0.029 C 
HETATM   16  C24 UNL     1      -0.110   8.474  11.532  1.00  0.00     0.009 C 
HETATM   17  C25 UNL     1      -1.559   8.728  11.985  1.00  0.00     0.011 C 
HETATM   18  C26 UNL     1      -2.036   7.821  13.138  1.00  0.00    -0.029 C 
HETATM   19  C27 UNL     1      -2.843   6.642  12.555  1.00  0.00     0.016 C 
ENDROOT
BRANCH   1  20
HETATM   20  C2  UNL     1      -4.340   9.000  14.063  1.00  0.00    -0.011 C 
HETATM   21  C1  UNL     1      -5.115   9.406  15.322  1.00  0.00     0.010 C 
BRANCH  20  22
HETATM   22  C3  UNL     1      -5.122   7.926  13.270  1.00  0.00     0.005 C 
BRANCH  22  23
HETATM   23  C4  UNL     1      -6.247   7.201  14.025  1.00  0.00     0.003 C 
BRANCH  23  24
HETATM   24  C5  UNL     1      -6.241   5.681  13.825  1.00  0.00     0.040 C 
BRANCH  24  25
HETATM   25  C6  UNL     1      -7.613   4.976  13.947  1.00  0.00     0.075 C 
HETATM   26  C7  UNL     1      -8.581   5.599  12.935  1.00  0.00     0.048 C 
BRANCH  25  27
HETATM   27  O1  UNL     1      -8.148   5.224  15.254  1.00  0.00    -0.388 OA
HETATM   28  H14 UNL     1      -7.739   4.542  15.826  1.00  0.00     0.210 HD
ENDBRANCH  25  27
BRANCH  25  29
HETATM   29  C8  UNL     1      -7.555   3.450  13.730  1.00  0.00     0.201 C 
BRANCH  29  30
HETATM   30  O2  UNL     1      -8.687   3.017  12.971  1.00  0.00    -0.398 OA
HETATM   31  H17 UNL     1      -8.590   2.055  12.849  1.00  0.00     0.209 HD
ENDBRANCH  29  30
ENDBRANCH  25  29
ENDBRANCH  24  25
ENDBRANCH  23  24
ENDBRANCH  22  23
ENDBRANCH  20  22
ENDBRANCH   1  20
BRANCH   2  32
HETATM   32  O3  UNL     1      -3.594   7.224  16.222  1.00  0.00    -0.393 OA
HETATM   33  H20 UNL     1      -3.235   6.824  17.035  1.00  0.00     0.210 HD
ENDBRANCH   2  32
BRANCH   3  34
HETATM   34  O4  UNL     1      -0.515   6.699  16.319  1.00  0.00    -0.392 OA
HETATM   35  H22 UNL     1      -0.044   5.852  16.241  1.00  0.00     0.210 HD
ENDBRANCH   3  34
BRANCH   5  36
HETATM   36  O5  UNL     1      -0.246   5.163  13.131  1.00  0.00    -0.389 OA
HETATM   37  H24 UNL     1       0.034   4.704  13.941  1.00  0.00     0.210 HD
ENDBRANCH   5  36
BRANCH   7  38
HETATM   38  O6  UNL     1       3.777   7.447  14.110  1.00  0.00    -0.395 OA
HETATM   39  H28 UNL     1       4.473   7.981  13.689  1.00  0.00     0.210 HD
ENDBRANCH   7  38
BRANCH  10  40
HETATM   40  O7  UNL     1       5.416   7.766   9.910  1.00  0.00    -0.396 OA
HETATM   41  H33 UNL     1       5.767   7.638   9.013  1.00  0.00     0.210 HD
ENDBRANCH  10  40
TORSDOF 13
ENDMDL
MODEL 3
REMARK minimizedAffinity -9.47714806
REMARK  13 active torsions:
REMARK  status: ('A' for Active; 'I' for Inactive)
REMARK    1  A    between atoms: C2_2  and  C3_3 
REMARK    2  A    between atoms: C2_2  and  C9_11 
REMARK    3  A    between atoms: C3_3  and  C4_4 
REMARK    4  A    between atoms: C4_4  and  C5_5 
REMARK    5  A    between atoms: C5_5  and  C6_6 
REMARK    6  A    between atoms: C6_6  and  O1_8 
REMARK    7  A    between atoms: C6_6  and  C8_9 
REMARK    8  A    between atoms: C8_9  and  O2_10 
REMARK    9  A    between atoms: C10_12  and  O3_13 
REMARK   10  A    between atoms: C11_14  and  O4_15 
REMARK   11  A    between atoms: C13_17  and  O5_18 
REMARK   12  A    between atoms: C15_20  and  O6_21 
REMARK   13  A    between atoms: C18_24  and  O7_25 
ROOT
HETATM    1  C9  UNL     1      -1.856   7.312  12.237  1.00  0.00     0.029 C 
HETATM    2  C10 UNL     1      -1.436   5.813  12.204  1.00  0.00     0.152 C 
HETATM    3  C11 UNL     1      -2.389   5.068  13.164  1.00  0.00     0.155 C 
HETATM    4  C12 UNL     1      -3.616   5.983  13.211  1.00  0.00     0.060 C 
HETATM    5  C13 UNL     1      -4.745   5.684  14.240  1.00  0.00     0.071 C 
HETATM    6  C14 UNL     1      -5.617   4.500  13.761  1.00  0.00     0.071 C 
HETATM    7  C15 UNL     1      -6.887   4.928  13.040  1.00  0.00     0.126 C 
HETATM    8  C16 UNL     1      -7.832   5.735  13.950  1.00  0.00     0.025 C 
HETATM    9  C17 UNL     1      -8.837   6.536  13.091  1.00  0.00     0.039 C 
HETATM   10  C18 UNL     1      -9.927   7.189  13.945  1.00  0.00     0.118 C 
HETATM   11  C19 UNL     1      -9.418   7.701  15.293  1.00  0.00     0.032 C 
HETATM   12  C20 UNL     1      -7.912   7.955  15.261  1.00  0.00     0.012 C 
HETATM   13  C21 UNL     1      -7.090   6.653  14.981  1.00  0.00    -0.031 C 
HETATM   14  C22 UNL     1      -7.029   5.903  16.350  1.00  0.00     0.016 C 
HETATM   15  C23 UNL     1      -5.605   6.980  14.531  1.00  0.00     0.029 C 
HETATM   16  C24 UNL     1      -5.488   7.981  13.354  1.00  0.00     0.009 C 
HETATM   17  C25 UNL     1      -4.050   8.451  13.066  1.00  0.00     0.011 C 
HETATM   18  C26 UNL     1      -2.964   7.394  13.350  1.00  0.00    -0.029 C 
HETATM   19  C27 UNL     1      -2.351   7.658  14.742  1.00  0.00     0.016 C 
ENDROOT
BRANCH   1  20
HETATM   20  C2  UNL     1      -0.700   8.352  12.120  1.00  0.00    -0.011 C 
HETATM   21  C1  UNL     1      -0.799   9.611  12.989  1.00  0.00     0.010 C 
BRANCH  20  22
HETATM   22  C3  UNL     1      -0.443   8.733  10.643  1.00  0.00     0.005 C 
BRANCH  22  23
HETATM   23  C4  UNL     1       0.483   7.799   9.847  1.00  0.00     0.003 C 
BRANCH  23  24
HETATM   24  C5  UNL     1       0.797   8.305   8.434  1.00  0.00     0.040 C 
BRANCH  24  25
HETATM   25  C6  UNL     1       2.116   7.793   7.809  1.00  0.00     0.075 C 
HETATM   26  C7  UNL     1       2.846   6.921   8.837  1.00  0.00     0.048 C 
BRANCH  25  27
HETATM   27  O1  UNL     1       2.964   8.915   7.527  1.00  0.00    -0.388 OA
HETATM   28  H14 UNL     1       2.667   9.239   6.652  1.00  0.00     0.210 HD
ENDBRANCH  25  27
BRANCH  25  29
HETATM   29  C8  UNL     1       1.923   6.994   6.504  1.00  0.00     0.201 C 
BRANCH  29  30
HETATM   30  O2  UNL     1       2.388   5.653   6.673  1.00  0.00    -0.398 OA
HETATM   31  H17 UNL     1       2.226   5.192   5.830  1.00  0.00     0.209 HD
ENDBRANCH  29  30
ENDBRANCH  25  29
ENDBRANCH  24  25
ENDBRANCH  23  24
ENDBRANCH  22  23
ENDBRANCH  20  22
ENDBRANCH   1  20
BRANCH   2  32
HETATM   32  O3  UNL     1      -0.086   5.557  12.549  1.00  0.00    -0.393 OA
HETATM   33  H20 UNL     1       0.037   4.594  12.467  1.00  0.00     0.210 HD
ENDBRANCH   2  32
BRANCH   3  34
HETATM   34  O4  UNL     1      -2.652   3.776  12.636  1.00  0.00    -0.392 OA
HETATM   35  H22 UNL     1      -2.972   3.214  13.361  1.00  0.00     0.210 HD
ENDBRANCH   3  34
BRANCH   5  36
HETATM   36  O5  UNL     1      -4.131   5.301  15.479  1.00  0.00    -0.389 OA
HETATM   37  H24 UNL     1      -3.931   4.350  15.459  1.00  0.00     0.210 HD
ENDBRANCH   5  36
BRANCH   7  38
HETATM   38  O6  UNL     1      -7.536   3.733  12.598  1.00  0.00    -0.395 OA
HETATM   39  H28 UNL     1      -8.419   3.966  12.263  1.00  0.00     0.210 HD
ENDBRANCH   7  38
BRANCH  10  40
HETATM   40  O7  UNL     1     -10.959   6.231  14.170  1.00  0.00    -0.396 OA
HETATM   41  H33 UNL     1     -11.662   6.672  14.677  1.00  0.00     0.210 HD
ENDBRANCH  10  40
TORSDOF 13
ENDMDL
MODEL 4
REMARK minimizedAffinity -9.09092903
REMARK  13 active torsions:
REMARK  status: ('A' for Active; 'I' for Inactive)
REMARK    1  A    between atoms: C2_2  and  C3_3 
REMARK    2  A    between atoms: C2_2  and  C9_11 
REMARK    3  A    between atoms: C3_3  and  C4_4 
REMARK    4  A    between atoms: C4_4  and  C5_5 
REMARK    5  A    between atoms: C5_5  and  C6_6 
REMARK    6  A    between atoms: C6_6  and  O1_8 
REMARK    7  A    between atoms: C6_6  and  C8_9 
REMARK    8  A    between atoms: C8_9  and  O2_10 
REMARK    9  A    between atoms: C10_12  and  O3_13 
REMARK   10  A    between atoms: C11_14  and  O4_15 
REMARK   11  A    between atoms: C13_17  and  O5_18 
REMARK   12  A    between atoms: C15_20  and  O6_21 
REMARK   13  A    between atoms: C18_24  and  O7_25 
ROOT
HETATM    1  C9  UNL     1       1.369   7.174  10.007  1.00  0.00     0.029 C 
HETATM    2  C10 UNL     1       1.674   5.659  10.193  1.00  0.00     0.152 C 
HETATM    3  C11 UNL     1       1.075   5.253  11.557  1.00  0.00     0.155 C 
HETATM    4  C12 UNL     1      -0.012   6.308  11.783  1.00  0.00     0.060 C 
HETATM    5  C13 UNL     1      -0.729   6.373  13.162  1.00  0.00     0.071 C 
HETATM    6  C14 UNL     1      -1.773   5.237  13.286  1.00  0.00     0.071 C 
HETATM    7  C15 UNL     1      -3.190   5.669  12.938  1.00  0.00     0.126 C 
HETATM    8  C16 UNL     1      -3.720   6.759  13.888  1.00  0.00     0.025 C 
HETATM    9  C17 UNL     1      -4.917   7.489  13.239  1.00  0.00     0.039 C 
HETATM   10  C18 UNL     1      -5.610   8.437  14.222  1.00  0.00     0.118 C 
HETATM   11  C19 UNL     1      -4.642   9.144  15.171  1.00  0.00     0.032 C 
HETATM   12  C20 UNL     1      -3.229   9.191  14.592  1.00  0.00     0.012 C 
HETATM   13  C21 UNL     1      -2.621   7.765  14.375  1.00  0.00    -0.031 C 
HETATM   14  C22 UNL     1      -2.130   7.308  15.786  1.00  0.00     0.016 C 
HETATM   15  C23 UNL     1      -1.368   7.800  13.404  1.00  0.00     0.029 C 
HETATM   16  C24 UNL     1      -1.614   8.516  12.052  1.00  0.00     0.009 C 
HETATM   17  C25 UNL     1      -0.343   8.730  11.210  1.00  0.00     0.011 C 
HETATM   18  C26 UNL     1       0.719   7.622  11.367  1.00  0.00    -0.029 C 
HETATM   19  C27 UNL     1       1.788   8.084  12.380  1.00  0.00     0.016 C 
ENDROOT
BRANCH   1  20
HETATM   20  C2  UNL     1       2.465   8.011   9.280  1.00  0.00    -0.011 C 
HETATM   21  C1  UNL     1       2.375   8.110   7.753  1.00  0.00     0.010 C 
BRANCH  20  22
HETATM   22  C3  UNL     1       3.882   7.564   9.710  1.00  0.00     0.005 C 
BRANCH  22  23
HETATM   23  C4  UNL     1       4.853   8.679  10.131  1.00  0.00     0.003 C 
BRANCH  23  24
HETATM   24  C5  UNL     1       5.246   8.624  11.613  1.00  0.00     0.040 C 
BRANCH  24  25
HETATM   25  C6  UNL     1       5.985   7.344  12.070  1.00  0.00     0.075 C 
HETATM   26  C7  UNL     1       6.960   6.914  10.968  1.00  0.00     0.048 C 
BRANCH  25  27
HETATM   27  O1  UNL     1       5.029   6.286  12.227  1.00  0.00    -0.388 OA
HETATM   28  H14 UNL     1       4.667   6.407  13.128  1.00  0.00     0.210 HD
ENDBRANCH  25  27
BRANCH  25  29
HETATM   29  C8  UNL     1       6.751   7.503  13.399  1.00  0.00     0.201 C 
BRANCH  29  30
HETATM   30  O2  UNL     1       6.326   6.509  14.335  1.00  0.00    -0.398 OA
HETATM   31  H17 UNL     1       6.852   6.644  15.144  1.00  0.00     0.209 HD
ENDBRANCH  29  30
ENDBRANCH  25  29
ENDBRANCH  24  25
ENDBRANCH  23  24
ENDBRANCH  22  23
ENDBRANCH  20  22
ENDBRANCH   1  20
BRANCH   2  32
HETATM   32  O3  UNL     1       3.046   5.308  10.131  1.00  0.00    -0.393 OA
HETATM   33  H20 UNL     1       3.083   4.340  10.243  1.00  0.00     0.210 HD
ENDBRANCH   2  32
BRANCH   3  34
HETATM   34  O4  UNL     1       0.580   3.925  11.463  1.00  0.00    -0.392 OA
HETATM   35  H22 UNL     1       0.502   3.569  12.363  1.00  0.00     0.210 HD
ENDBRANCH   3  34
BRANCH   5  36
HETATM   36  O5  UNL     1       0.254   6.175  14.189  1.00  0.00    -0.389 OA
HETATM   37  H24 UNL     1       0.386   5.222  14.330  1.00  0.00     0.210 HD
ENDBRANCH   5  36
BRANCH   7  38
HETATM   38  O6  UNL     1      -4.012   4.501  13.025  1.00  0.00    -0.395 OA
HETATM   39  H28 UNL     1      -4.943   4.773  12.950  1.00  0.00     0.210 HD
ENDBRANCH   7  38
BRANCH  10  40
HETATM   40  O7  UNL     1      -6.548   7.685  14.989  1.00  0.00    -0.396 OA
HETATM   41  H33 UNL     1      -7.009   8.307  15.577  1.00  0.00     0.210 HD
ENDBRANCH  10  40
TORSDOF 13
ENDMDL
MODEL 5
REMARK minimizedAffinity -9.08992386
REMARK  13 active torsions:
REMARK  status: ('A' for Active; 'I' for Inactive)
REMARK    1  A    between atoms: C2_2  and  C3_3 
REMARK    2  A    between atoms: C2_2  and  C9_11 
REMARK    3  A    between atoms: C3_3  and  C4_4 
REMARK    4  A    between atoms: C4_4  and  C5_5 
REMARK    5  A    between atoms: C5_5  and  C6_6 
REMARK    6  A    between atoms: C6_6  and  O1_8 
REMARK    7  A    between atoms: C6_6  and  C8_9 
REMARK    8  A    between atoms: C8_9  and  O2_10 
REMARK    9  A    between atoms: C10_12  and  O3_13 
REMARK   10  A    between atoms: C11_14  and  O4_15 
REMARK   11  A    between atoms: C13_17  and  O5_18 
REMARK   12  A    between atoms: C15_20  and  O6_21 
REMARK   13  A    between atoms: C18_24  and  O7_25 
ROOT
HETATM    1  C9  UNL     1      -6.792   6.910  14.006  1.00  0.00     0.029 C 
HETATM    2  C10 UNL     1      -7.050   8.249  14.756  1.00  0.00     0.152 C 
HETATM    3  C11 UNL     1      -5.708   8.658  15.403  1.00  0.00     0.155 C 
HETATM    4  C12 UNL     1      -4.674   7.933  14.536  1.00  0.00     0.060 C 
HETATM    5  C13 UNL     1      -3.183   7.925  14.982  1.00  0.00     0.071 C 
HETATM    6  C14 UNL     1      -2.517   9.288  14.679  1.00  0.00     0.071 C 
HETATM    7  C15 UNL     1      -1.746   9.312  13.367  1.00  0.00     0.126 C 
HETATM    8  C16 UNL     1      -0.568   8.320  13.363  1.00  0.00     0.025 C 
HETATM    9  C17 UNL     1      -0.127   8.030  11.911  1.00  0.00     0.039 C 
HETATM   10  C18 UNL     1       1.169   7.216  11.858  1.00  0.00     0.118 C 
HETATM   11  C19 UNL     1       1.273   6.167  12.966  1.00  0.00     0.032 C 
HETATM   12  C20 UNL     1      -0.104   5.787  13.506  1.00  0.00     0.012 C 
HETATM   13  C21 UNL     1      -0.849   6.999  14.159  1.00  0.00    -0.031 C 
HETATM   14  C22 UNL     1      -0.226   7.145  15.584  1.00  0.00     0.016 C 
HETATM   15  C23 UNL     1      -2.400   6.718  14.325  1.00  0.00     0.029 C 
HETATM   16  C24 UNL     1      -3.117   6.249  13.033  1.00  0.00     0.009 C 
HETATM   17  C25 UNL     1      -4.567   5.779  13.252  1.00  0.00     0.011 C 
HETATM   18  C26 UNL     1      -5.315   6.519  14.379  1.00  0.00    -0.029 C 
HETATM   19  C27 UNL     1      -5.262   5.669  15.667  1.00  0.00     0.016 C 
ENDROOT
BRANCH   1  20
HETATM   20  C2  UNL     1      -7.963   5.882  14.013  1.00  0.00    -0.011 C 
HETATM   21  C1  UNL     1      -7.600   4.403  13.832  1.00  0.00     0.010 C 
BRANCH  20  22
HETATM   22  C3  UNL     1      -9.069   6.293  13.011  1.00  0.00     0.005 C 
BRANCH  22  23
HETATM   23  C4  UNL     1     -10.381   6.817  13.618  1.00  0.00     0.003 C 
BRANCH  23  24
HETATM   24  C5  UNL     1     -11.369   7.352  12.575  1.00  0.00     0.040 C 
BRANCH  24  25
HETATM   25  C6  UNL     1     -11.851   8.807  12.782  1.00  0.00     0.075 C 
HETATM   26  C7  UNL     1     -13.348   8.791  13.113  1.00  0.00     0.048 C 
BRANCH  25  27
HETATM   27  O1  UNL     1     -11.697   9.528  11.552  1.00  0.00    -0.388 OA
HETATM   28  H14 UNL     1     -10.765   9.829  11.553  1.00  0.00     0.210 HD
ENDBRANCH  25  27
BRANCH  25  29
HETATM   29  C8  UNL     1     -11.090   9.568  13.886  1.00  0.00     0.201 C 
BRANCH  29  30
HETATM   30  O2  UNL     1     -11.977   9.902  14.957  1.00  0.00    -0.398 OA
HETATM   31  H17 UNL     1     -11.443  10.362  15.629  1.00  0.00     0.209 HD
ENDBRANCH  29  30
ENDBRANCH  25  29
ENDBRANCH  24  25
ENDBRANCH  23  24
ENDBRANCH  22  23
ENDBRANCH  20  22
ENDBRANCH   1  20
BRANCH   2  32
HETATM   32  O3  UNL     1      -8.076   8.205  15.733  1.00  0.00    -0.393 OA
HETATM   33  H20 UNL     1      -8.138   9.105  16.102  1.00  0.00     0.210 HD
ENDBRANCH   2  32
BRANCH   3  34
HETATM   34  O4  UNL     1      -5.597  10.073  15.371  1.00  0.00    -0.392 OA
HETATM   35  H22 UNL     1      -4.939  10.339  16.035  1.00  0.00     0.210 HD
ENDBRANCH   3  34
BRANCH   5  36
HETATM   36  O5  UNL     1      -3.143   7.726  16.403  1.00  0.00    -0.389 OA
HETATM   37  H24 UNL     1      -3.246   8.583  16.851  1.00  0.00     0.210 HD
ENDBRANCH   5  36
BRANCH   7  38
HETATM   38  O6  UNL     1      -1.261  10.647  13.196  1.00  0.00    -0.395 OA
HETATM   39  H28 UNL     1      -0.645  10.658  12.444  1.00  0.00     0.210 HD
ENDBRANCH   7  38
BRANCH  10  40
HETATM   40  O7  UNL     1       2.271   8.113  11.961  1.00  0.00    -0.396 OA
HETATM   41  H33 UNL     1       3.085   7.587  11.883  1.00  0.00     0.210 HD
ENDBRANCH  10  40
TORSDOF 13
ENDMDL
MODEL 6
REMARK minimizedAffinity -8.88616085
REMARK  13 active torsions:
REMARK  status: ('A' for Active; 'I' for Inactive)
REMARK    1  A    between atoms: C2_2  and  C3_3 
REMARK    2  A    between atoms: C2_2  and  C9_11 
REMARK    3  A    between atoms: C3_3  and  C4_4 
REMARK    4  A    between atoms: C4_4  and  C5_5 
REMARK    5  A    between atoms: C5_5  and  C6_6 
REMARK    6  A    between atoms: C6_6  and  O1_8 
REMARK    7  A    between atoms: C6_6  and  C8_9 
REMARK    8  A    between atoms: C8_9  and  O2_10 
REMARK    9  A    between atoms: C10_12  and  O3_13 
REMARK   10  A    between atoms: C11_14  and  O4_15 
REMARK   11  A    between atoms: C13_17  and  O5_18 
REMARK   12  A    between atoms: C15_20  and  O6_21 
REMARK   13  A    between atoms: C18_24  and  O7_25 
ROOT
HETATM    1  C9  UNL     1      -3.416   7.380  13.908  1.00  0.00     0.029 C 
HETATM    2  C10 UNL     1      -3.812   7.736  15.371  1.00  0.00     0.152 C 
HETATM    3  C11 UNL     1      -2.503   7.747  16.191  1.00  0.00     0.155 C 
HETATM    4  C12 UNL     1      -1.432   8.006  15.127  1.00  0.00     0.060 C 
HETATM    5  C13 UNL     1       0.069   7.892  15.520  1.00  0.00     0.071 C 
HETATM    6  C14 UNL     1       0.521   9.142  16.312  1.00  0.00     0.071 C 
HETATM    7  C15 UNL     1       1.202  10.197  15.453  1.00  0.00     0.126 C 
HETATM    8  C16 UNL     1       2.503   9.679  14.812  1.00  0.00     0.025 C 
HETATM    9  C17 UNL     1       2.893  10.571  13.612  1.00  0.00     0.039 C 
HETATM   10  C18 UNL     1       4.283  10.227  13.070  1.00  0.00     0.118 C 
HETATM   11  C19 UNL     1       4.597   8.731  13.110  1.00  0.00     0.032 C 
HETATM   12  C20 UNL     1       3.321   7.893  13.141  1.00  0.00     0.012 C 
HETATM   13  C21 UNL     1       2.456   8.163  14.417  1.00  0.00    -0.031 C 
HETATM   14  C22 UNL     1       3.137   7.339  15.556  1.00  0.00     0.016 C 
HETATM   15  C23 UNL     1       0.971   7.634  14.246  1.00  0.00     0.029 C 
HETATM   16  C24 UNL     1       0.250   8.127  12.966  1.00  0.00     0.009 C 
HETATM   17  C25 UNL     1      -1.105   7.445  12.702  1.00  0.00     0.011 C 
HETATM   18  C26 UNL     1      -1.879   7.052  13.977  1.00  0.00    -0.029 C 
HETATM   19  C27 UNL     1      -1.633   5.558  14.280  1.00  0.00     0.016 C 
ENDROOT
BRANCH   1  20
HETATM   20  C2  UNL     1      -4.431   6.502  13.116  1.00  0.00    -0.011 C 
HETATM   21  C1  UNL     1      -5.919   6.838  13.269  1.00  0.00     0.010 C 
BRANCH  20  22
HETATM   22  C3  UNL     1      -4.187   4.997  13.381  1.00  0.00     0.005 C 
BRANCH  22  23
HETATM   23  C4  UNL     1      -4.249   4.068  12.157  1.00  0.00     0.003 C 
BRANCH  23  24
HETATM   24  C5  UNL     1      -3.227   2.926  12.201  1.00  0.00     0.040 C 
BRANCH  24  25
HETATM   25  C6  UNL     1      -2.241   2.854  11.011  1.00  0.00     0.075 C 
HETATM   26  C7  UNL     1      -1.225   3.995  11.139  1.00  0.00     0.048 C 
BRANCH  25  27
HETATM   27  O1  UNL     1      -2.966   3.067   9.792  1.00  0.00    -0.388 OA
HETATM   28  H14 UNL     1      -3.326   2.188   9.557  1.00  0.00     0.210 HD
ENDBRANCH  25  27
BRANCH  25  29
HETATM   29  C8  UNL     1      -1.492   1.510  10.898  1.00  0.00     0.201 C 
BRANCH  29  30
HETATM   30  O2  UNL     1      -1.101   1.277   9.543  1.00  0.00    -0.398 OA
HETATM   31  H17 UNL     1      -0.620   0.430   9.532  1.00  0.00     0.209 HD
ENDBRANCH  29  30
ENDBRANCH  25  29
ENDBRANCH  24  25
ENDBRANCH  23  24
ENDBRANCH  22  23
ENDBRANCH  20  22
ENDBRANCH   1  20
BRANCH   2  32
HETATM   32  O3  UNL     1      -4.761   6.869  15.967  1.00  0.00    -0.393 OA
HETATM   33  H20 UNL     1      -4.925   7.220  16.862  1.00  0.00     0.210 HD
ENDBRANCH   2  32
BRANCH   3  34
HETATM   34  O4  UNL     1      -2.591   8.763  17.180  1.00  0.00    -0.392 OA
HETATM   35  H22 UNL     1      -1.938   8.566  17.872  1.00  0.00     0.210 HD
ENDBRANCH   3  34
BRANCH   5  36
HETATM   36  O5  UNL     1       0.222   6.752  16.379  1.00  0.00    -0.389 OA
HETATM   37  H24 UNL     1       0.028   7.011  17.295  1.00  0.00     0.210 HD
ENDBRANCH   5  36
BRANCH   7  38
HETATM   38  O6  UNL     1       1.486  11.308  16.308  1.00  0.00    -0.395 OA
HETATM   39  H28 UNL     1       2.048  11.936  15.822  1.00  0.00     0.210 HD
ENDBRANCH   7  38
BRANCH  10  40
HETATM   40  O7  UNL     1       5.255  10.928  13.843  1.00  0.00    -0.396 OA
HETATM   41  H33 UNL     1       6.127  10.734  13.461  1.00  0.00     0.210 HD
ENDBRANCH  10  40
TORSDOF 13
ENDMDL
MODEL 7
REMARK minimizedAffinity -8.82970333
REMARK  13 active torsions:
REMARK  status: ('A' for Active; 'I' for Inactive)
REMARK    1  A    between atoms: C2_2  and  C3_3 
REMARK    2  A    between atoms: C2_2  and  C9_11 
REMARK    3  A    between atoms: C3_3  and  C4_4 
REMARK    4  A    between atoms: C4_4  and  C5_5 
REMARK    5  A    between atoms: C5_5  and  C6_6 
REMARK    6  A    between atoms: C6_6  and  O1_8 
REMARK    7  A    between atoms: C6_6  and  C8_9 
REMARK    8  A    between atoms: C8_9  and  O2_10 
REMARK    9  A    between atoms: C10_12  and  O3_13 
REMARK   10  A    between atoms: C11_14  and  O4_15 
REMARK   11  A    between atoms: C13_17  and  O5_18 
REMARK   12  A    between atoms: C15_20  and  O6_21 
REMARK   13  A    between atoms: C18_24  and  O7_25 
ROOT
HETATM    1  C9  UNL     1       0.583   6.009  12.577  1.00  0.00     0.029 C 
HETATM    2  C10 UNL     1       0.699   5.101  11.317  1.00  0.00     0.152 C 
HETATM    3  C11 UNL     1       1.850   5.676  10.464  1.00  0.00     0.155 C 
HETATM    4  C12 UNL     1       2.693   6.439  11.492  1.00  0.00     0.060 C 
HETATM    5  C13 UNL     1       3.857   7.343  10.995  1.00  0.00     0.071 C 
HETATM    6  C14 UNL     1       5.081   6.483  10.596  1.00  0.00     0.071 C 
HETATM    7  C15 UNL     1       6.127   6.362  11.694  1.00  0.00     0.126 C 
HETATM    8  C16 UNL     1       6.742   7.723  12.069  1.00  0.00     0.025 C 
HETATM    9  C17 UNL     1       7.412   7.635  13.459  1.00  0.00     0.039 C 
HETATM   10  C18 UNL     1       8.217   8.896  13.787  1.00  0.00     0.118 C 
HETATM   11  C19 UNL     1       7.567  10.182  13.276  1.00  0.00     0.032 C 
HETATM   12  C20 UNL     1       6.064  10.003  13.066  1.00  0.00     0.012 C 
HETATM   13  C21 UNL     1       5.734   8.919  11.986  1.00  0.00    -0.031 C 
HETATM   14  C22 UNL     1       5.935   9.635  10.612  1.00  0.00     0.016 C 
HETATM   15  C23 UNL     1       4.225   8.439  12.075  1.00  0.00     0.029 C 
HETATM   16  C24 UNL     1       3.772   7.981  13.484  1.00  0.00     0.009 C 
HETATM   17  C25 UNL     1       2.259   7.720  13.606  1.00  0.00     0.011 C 
HETATM   18  C26 UNL     1       1.599   7.181  12.321  1.00  0.00    -0.029 C 
HETATM   19  C27 UNL     1       0.936   8.351  11.563  1.00  0.00     0.016 C 
ENDROOT
BRANCH   1  20
HETATM   20  C2  UNL     1      -0.858   6.247  13.122  1.00  0.00    -0.011 C 
HETATM   21  C1  UNL     1      -0.990   6.978  14.462  1.00  0.00     0.010 C 
BRANCH  20  22
HETATM   22  C3  UNL     1      -1.669   4.928  13.143  1.00  0.00     0.005 C 
BRANCH  22  23
HETATM   23  C4  UNL     1      -3.089   4.989  12.557  1.00  0.00     0.003 C 
BRANCH  23  24
HETATM   24  C5  UNL     1      -3.904   3.711  12.793  1.00  0.00     0.040 C 
BRANCH  24  25
HETATM   25  C6  UNL     1      -4.121   2.809  11.555  1.00  0.00     0.075 C 
HETATM   26  C7  UNL     1      -3.298   1.527  11.725  1.00  0.00     0.048 C 
BRANCH  25  27
HETATM   27  O1  UNL     1      -3.620   3.484  10.393  1.00  0.00    -0.388 OA
HETATM   28  H14 UNL     1      -4.352   4.067  10.106  1.00  0.00     0.210 HD
ENDBRANCH  25  27
BRANCH  25  29
HETATM   29  C8  UNL     1      -5.598   2.441  11.299  1.00  0.00     0.201 C 
BRANCH  29  30
HETATM   30  O2  UNL     1      -5.702   1.072  10.901  1.00  0.00    -0.398 OA
HETATM   31  H17 UNL     1      -6.651   0.890  10.771  1.00  0.00     0.209 HD
ENDBRANCH  29  30
ENDBRANCH  25  29
ENDBRANCH  24  25
ENDBRANCH  23  24
ENDBRANCH  22  23
ENDBRANCH  20  22
ENDBRANCH   1  20
BRANCH   2  32
HETATM   32  O3  UNL     1      -0.483   4.990  10.543  1.00  0.00    -0.393 OA
HETATM   33  H20 UNL     1      -0.270   4.385   9.809  1.00  0.00     0.210 HD
ENDBRANCH   2  32
BRANCH   3  34
HETATM   34  O4  UNL     1       2.537   4.602   9.838  1.00  0.00    -0.392 OA
HETATM   35  H22 UNL     1       3.031   4.960   9.082  1.00  0.00     0.210 HD
ENDBRANCH   3  34
BRANCH   5  36
HETATM   36  O5  UNL     1       3.414   8.041   9.823  1.00  0.00    -0.389 OA
HETATM   37  H24 UNL     1       3.550   7.479   9.042  1.00  0.00     0.210 HD
ENDBRANCH   5  36
BRANCH   7  38
HETATM   38  O6  UNL     1       7.144   5.483  11.203  1.00  0.00    -0.395 OA
HETATM   39  H28 UNL     1       7.893   5.501  11.822  1.00  0.00     0.210 HD
ENDBRANCH   7  38
BRANCH  10  40
HETATM   40  O7  UNL     1       9.513   8.768  13.209  1.00  0.00    -0.396 OA
HETATM   41  H33 UNL     1      10.025   9.555  13.461  1.00  0.00     0.210 HD
ENDBRANCH  10  40
TORSDOF 13
ENDMDL
MODEL 8
REMARK minimizedAffinity -8.79295254
REMARK  13 active torsions:
REMARK  status: ('A' for Active; 'I' for Inactive)
REMARK    1  A    between atoms: C2_2  and  C3_3 
REMARK    2  A    between atoms: C2_2  and  C9_11 
REMARK    3  A    between atoms: C3_3  and  C4_4 
REMARK    4  A    between atoms: C4_4  and  C5_5 
REMARK    5  A    between atoms: C5_5  and  C6_6 
REMARK    6  A    between atoms: C6_6  and  O1_8 
REMARK    7  A    between atoms: C6_6  and  C8_9 
REMARK    8  A    between atoms: C8_9  and  O2_10 
REMARK    9  A    between atoms: C10_12  and  O3_13 
REMARK   10  A    between atoms: C11_14  and  O4_15 
REMARK   11  A    between atoms: C13_17  and  O5_18 
REMARK   12  A    between atoms: C15_20  and  O6_21 
REMARK   13  A    between atoms: C18_24  and  O7_25 
ROOT
HETATM    1  C9  UNL     1      -2.459   4.772  11.149  1.00  0.00     0.029 C 
HETATM    2  C10 UNL     1      -3.140   3.826  10.117  1.00  0.00     0.152 C 
HETATM    3  C11 UNL     1      -4.439   3.315  10.778  1.00  0.00     0.155 C 
HETATM    4  C12 UNL     1      -4.745   4.397  11.817  1.00  0.00     0.060 C 
HETATM    5  C13 UNL     1      -5.885   4.156  12.848  1.00  0.00     0.071 C 
HETATM    6  C14 UNL     1      -7.269   4.364  12.188  1.00  0.00     0.071 C 
HETATM    7  C15 UNL     1      -7.852   5.752  12.416  1.00  0.00     0.126 C 
HETATM    8  C16 UNL     1      -8.110   6.040  13.907  1.00  0.00     0.025 C 
HETATM    9  C17 UNL     1      -8.235   7.564  14.136  1.00  0.00     0.039 C 
HETATM   10  C18 UNL     1      -8.697   7.892  15.558  1.00  0.00     0.118 C 
HETATM   11  C19 UNL     1      -8.118   6.954  16.617  1.00  0.00     0.032 C 
HETATM   12  C20 UNL     1      -6.830   6.291  16.132  1.00  0.00     0.012 C 
HETATM   13  C21 UNL     1      -7.056   5.393  14.869  1.00  0.00    -0.031 C 
HETATM   14  C22 UNL     1      -7.649   4.056  15.417  1.00  0.00     0.016 C 
HETATM   15  C23 UNL     1      -5.693   5.062  14.131  1.00  0.00     0.029 C 
HETATM   16  C24 UNL     1      -4.821   6.298  13.791  1.00  0.00     0.009 C 
HETATM   17  C25 UNL     1      -3.414   5.954  13.269  1.00  0.00     0.011 C 
HETATM   18  C26 UNL     1      -3.341   4.651  12.446  1.00  0.00    -0.029 C 
HETATM   19  C27 UNL     1      -2.853   3.503  13.357  1.00  0.00     0.016 C 
ENDROOT
BRANCH   1  20
HETATM   20  C2  UNL     1      -0.901   4.745  11.183  1.00  0.00    -0.011 C 
HETATM   21  C1  UNL     1      -0.238   3.871  12.254  1.00  0.00     0.010 C 
BRANCH  20  22
HETATM   22  C3  UNL     1      -0.321   6.179  11.221  1.00  0.00     0.005 C 
BRANCH  22  23
HETATM   23  C4  UNL     1       0.804   6.488  10.220  1.00  0.00     0.003 C 
BRANCH  23  24
HETATM   24  C5  UNL     1       2.133   5.801  10.560  1.00  0.00     0.040 C 
BRANCH  24  25
HETATM   25  C6  UNL     1       3.359   6.252   9.731  1.00  0.00     0.075 C 
HETATM   26  C7  UNL     1       2.888   7.202   8.624  1.00  0.00     0.048 C 
BRANCH  25  27
HETATM   27  O1  UNL     1       3.934   5.105   9.090  1.00  0.00    -0.388 OA
HETATM   28  H14 UNL     1       4.525   4.710   9.763  1.00  0.00     0.210 HD
ENDBRANCH  25  27
BRANCH  25  29
HETATM   29  C8  UNL     1       4.459   6.940  10.565  1.00  0.00     0.201 C 
BRANCH  29  30
HETATM   30  O2  UNL     1       5.112   5.985  11.405  1.00  0.00    -0.398 OA
HETATM   31  H17 UNL     1       5.805   6.468  11.891  1.00  0.00     0.209 HD
ENDBRANCH  29  30
ENDBRANCH  25  29
ENDBRANCH  24  25
ENDBRANCH  23  24
ENDBRANCH  22  23
ENDBRANCH  20  22
ENDBRANCH   1  20
BRANCH   2  32
HETATM   32  O3  UNL     1      -2.344   2.737   9.682  1.00  0.00    -0.393 OA
HETATM   33  H20 UNL     1      -2.885   2.249   9.034  1.00  0.00     0.210 HD
ENDBRANCH   2  32
BRANCH   3  34
HETATM   34  O4  UNL     1      -5.437   3.176   9.777  1.00  0.00    -0.392 OA
HETATM   35  H22 UNL     1      -6.122   2.575  10.116  1.00  0.00     0.210 HD
ENDBRANCH   3  34
BRANCH   5  36
HETATM   36  O5  UNL     1      -5.812   2.791  13.286  1.00  0.00    -0.389 OA
HETATM   37  H24 UNL     1      -6.293   2.225  12.658  1.00  0.00     0.210 HD
ENDBRANCH   5  36
BRANCH   7  38
HETATM   38  O6  UNL     1      -9.081   5.810  11.686  1.00  0.00    -0.395 OA
HETATM   39  H28 UNL     1      -9.546   6.629  11.929  1.00  0.00     0.210 HD
ENDBRANCH   7  38
BRANCH  10  40
HETATM   40  O7  UNL     1     -10.120   7.819  15.599  1.00  0.00    -0.396 OA
HETATM   41  H33 UNL     1     -10.400   8.071  16.495  1.00  0.00     0.210 HD
ENDBRANCH  10  40
TORSDOF 13
ENDMDL
MODEL 9
REMARK minimizedAffinity -8.78637314
REMARK  13 active torsions:
REMARK  status: ('A' for Active; 'I' for Inactive)
REMARK    1  A    between atoms: C2_2  and  C3_3 
REMARK    2  A    between atoms: C2_2  and  C9_11 
REMARK    3  A    between atoms: C3_3  and  C4_4 
REMARK    4  A    between atoms: C4_4  and  C5_5 
REMARK    5  A    between atoms: C5_5  and  C6_6 
REMARK    6  A    between atoms: C6_6  and  O1_8 
REMARK    7  A    between atoms: C6_6  and  C8_9 
REMARK    8  A    between atoms: C8_9  and  O2_10 
REMARK    9  A    between atoms: C10_12  and  O3_13 
REMARK   10  A    between atoms: C11_14  and  O4_15 
REMARK   11  A    between atoms: C13_17  and  O5_18 
REMARK   12  A    between atoms: C15_20  and  O6_21 
REMARK   13  A    between atoms: C18_24  and  O7_25 
ROOT
HETATM    1  C9  UNL     1      -6.848   6.510  13.713  1.00  0.00     0.029 C 
HETATM    2  C10 UNL     1      -7.591   5.656  12.643  1.00  0.00     0.152 C 
HETATM    3  C11 UNL     1      -9.101   5.817  12.922  1.00  0.00     0.155 C 
HETATM    4  C12 UNL     1      -9.173   7.151  13.673  1.00  0.00     0.060 C 
HETATM    5  C13 UNL     1     -10.520   7.585  14.317  1.00  0.00     0.071 C 
HETATM    6  C14 UNL     1     -11.494   8.115  13.237  1.00  0.00     0.071 C 
HETATM    7  C15 UNL     1     -11.489   9.630  13.099  1.00  0.00     0.126 C 
HETATM    8  C16 UNL     1     -11.952  10.336  14.388  1.00  0.00     0.025 C 
HETATM    9  C17 UNL     1     -11.489  11.810  14.378  1.00  0.00     0.039 C 
HETATM   10  C18 UNL     1     -12.099  12.609  15.533  1.00  0.00     0.118 C 
HETATM   11  C19 UNL     1     -12.230  11.804  16.827  1.00  0.00     0.032 C 
HETATM   12  C20 UNL     1     -11.255  10.629  16.853  1.00  0.00     0.012 C 
HETATM   13  C21 UNL     1     -11.522   9.601  15.703  1.00  0.00    -0.031 C 
HETATM   14  C22 UNL     1     -12.725   8.736  16.197  1.00  0.00     0.016 C 
HETATM   15  C23 UNL     1     -10.283   8.638  15.474  1.00  0.00     0.029 C 
HETATM   16  C24 UNL     1      -8.927   9.360  15.276  1.00  0.00     0.009 C 
HETATM   17  C25 UNL     1      -7.707   8.421  15.266  1.00  0.00     0.011 C 
HETATM   18  C26 UNL     1      -7.983   7.024  14.674  1.00  0.00    -0.029 C 
HETATM   19  C27 UNL     1      -8.244   6.028  15.824  1.00  0.00     0.016 C 
ENDROOT
BRANCH   1  20
HETATM   20  C2  UNL     1      -5.498   5.934  14.236  1.00  0.00    -0.011 C 
HETATM   21  C1  UNL     1      -4.963   6.491  15.560  1.00  0.00     0.010 C 
BRANCH  20  22
HETATM   22  C3  UNL     1      -4.405   5.999  13.142  1.00  0.00     0.005 C 
BRANCH  22  23
HETATM   23  C4  UNL     1      -3.376   4.858  13.134  1.00  0.00     0.003 C 
BRANCH  23  24
HETATM   24  C5  UNL     1      -3.982   3.487  12.809  1.00  0.00     0.040 C 
BRANCH  24  25
HETATM   25  C6  UNL     1      -3.665   2.922  11.405  1.00  0.00     0.075 C 
HETATM   26  C7  UNL     1      -4.813   3.282  10.455  1.00  0.00     0.048 C 
BRANCH  25  27
HETATM   27  O1  UNL     1      -3.609   1.491  11.480  1.00  0.00    -0.388 OA
HETATM   28  H14 UNL     1      -2.698   1.290  11.774  1.00  0.00     0.210 HD
ENDBRANCH  25  27
BRANCH  25  29
HETATM   29  C8  UNL     1      -2.332   3.426  10.813  1.00  0.00     0.201 C 
BRANCH  29  30
HETATM   30  O2  UNL     1      -1.783   2.445   9.930  1.00  0.00    -0.398 OA
HETATM   31  H17 UNL     1      -0.958   2.820   9.573  1.00  0.00     0.209 HD
ENDBRANCH  29  30
ENDBRANCH  25  29
ENDBRANCH  24  25
ENDBRANCH  23  24
ENDBRANCH  22  23
ENDBRANCH  20  22
ENDBRANCH   1  20
BRANCH   2  32
HETATM   32  O3  UNL     1      -7.236   4.284  12.616  1.00  0.00    -0.393 OA
HETATM   33  H20 UNL     1      -7.758   3.885  11.896  1.00  0.00     0.210 HD
ENDBRANCH   2  32
BRANCH   3  34
HETATM   34  O4  UNL     1      -9.798   5.814  11.684  1.00  0.00    -0.392 OA
HETATM   35  H22 UNL     1     -10.728   5.598  11.862  1.00  0.00     0.210 HD
ENDBRANCH   3  34
BRANCH   5  36
HETATM   36  O5  UNL     1     -11.123   6.430  14.918  1.00  0.00    -0.389 OA
HETATM   37  H24 UNL     1     -11.630   5.944  14.246  1.00  0.00     0.210 HD
ENDBRANCH   5  36
BRANCH   7  38
HETATM   38  O6  UNL     1     -12.371   9.952  12.021  1.00  0.00    -0.395 OA
HETATM   39  H28 UNL     1     -12.500  10.916  12.004  1.00  0.00     0.210 HD
ENDBRANCH   7  38
BRANCH  10  40
HETATM   40  O7  UNL     1     -13.390  13.064  15.135  1.00  0.00    -0.396 OA
HETATM   41  H33 UNL     1     -13.747  13.604  15.861  1.00  0.00     0.210 HD
ENDBRANCH  10  40
TORSDOF 13
ENDMDL
