MODEL 1
REMARK minimizedAffinity -8.70194244
REMARK CNNscore 0.518007636
REMARK CNNaffinity 6.76255274
REMARK  5 active torsions:
REMARK  status: ('A' for Active; 'I' for Inactive)
REMARK    1  A    between atoms: C2_2  and  C3_3 
REMARK    2  A    between atoms: C2_2  and  C9_12 
REMARK    3  A    between atoms: C3_3  and  C4_4 
REMARK    4  A    between atoms: C6_6  and  C7_7 
REMARK    5  A    between atoms: C7_7  and  O1_8 
ROOT
HETATM    1  C9  UNL     1      -3.006   8.568  15.024  1.00  0.00    -0.002 C 
HETATM    2  C10 UNL     1      -3.959   8.866  13.828  1.00  0.00     0.007 C 
HETATM    3  C11 UNL     1      -3.146   8.683  12.533  1.00  0.00     0.015 C 
HETATM    4  C12 UNL     1      -1.848   7.980  12.977  1.00  0.00    -0.013 C 
HETATM    5  C13 UNL     1      -2.185   6.456  13.048  1.00  0.00     0.021 C 
HETATM    6  C14 UNL     1      -0.620   8.095  12.081  1.00  0.00    -0.070 C 
HETATM    7  C15 UNL     1      -0.720   8.222  10.751  1.00  0.00    -0.022 C 
HETATM    8  C16 UNL     1       0.437   8.217   9.813  1.00  0.00     0.034 C 
HETATM    9  C17 UNL     1       1.871   8.178  10.429  1.00  0.00     0.013 C 
HETATM   10  C18 UNL     1       2.890   7.648   9.341  1.00  0.00     0.018 C 
HETATM   11  C19 UNL     1       4.364   7.966   9.662  1.00  0.00     0.023 C 
HETATM   12  C20 UNL     1       2.617   8.299   7.959  1.00  0.00     0.023 C 
HETATM   13  C21 UNL     1       2.728   6.124   9.227  1.00  0.00     0.135 C 
HETATM   14  O4  UNL     1       2.766   5.547   8.139  1.00  0.00    -0.297 OA
HETATM   15  C22 UNL     1       2.638   5.317  10.510  1.00  0.00     0.080 C 
HETATM   16  C23 UNL     1       1.655   5.900  11.523  1.00  0.00     0.017 C 
HETATM   17  C24 UNL     1       1.881   7.405  11.808  1.00  0.00    -0.031 C 
HETATM   18  C25 UNL     1       3.226   7.585  12.556  1.00  0.00     0.016 C 
HETATM   19  C26 UNL     1       0.750   8.022  12.746  1.00  0.00     0.024 C 
HETATM   20  C27 UNL     1       0.678   7.410  14.173  1.00  0.00     0.010 C 
HETATM   21  C28 UNL     1      -0.461   7.919  15.089  1.00  0.00     0.011 C 
HETATM   22  C29 UNL     1      -1.591   8.669  14.362  1.00  0.00    -0.029 C 
HETATM   23  C30 UNL     1      -1.207  10.177  14.242  1.00  0.00     0.016 C 
ENDROOT
BRANCH   1  24
HETATM   24  C2  UNL     1      -3.341   9.431  16.274  1.00  0.00    -0.011 C 
HETATM   25  C1  UNL     1      -4.276  10.601  15.957  1.00  0.00     0.010 C 
BRANCH  24  26
HETATM   26  C3  UNL     1      -2.066   9.929  17.018  1.00  0.00     0.041 C 
BRANCH  26  27
HETATM   27  C4  UNL     1      -2.276  10.423  18.457  1.00  0.00     0.156 A 
HETATM   28  C5  UNL     1      -3.640  10.957  18.674  1.00  0.00     0.021 A 
HETATM   29  C6  UNL     1      -3.610  12.250  18.994  1.00  0.00     0.039 A 
HETATM   30  C8  UNL     1      -2.199  12.639  19.010  1.00  0.00     0.291 A 
HETATM   31  O2  UNL     1      -1.780  13.756  19.253  1.00  0.00    -0.260 OA
HETATM   32  O3  UNL     1      -1.435  11.551  18.719  1.00  0.00    -0.308 OA
BRANCH  29  33
HETATM   33  C7  UNL     1      -4.669  13.224  19.322  1.00  0.00     0.208 C 
BRANCH  33  34
HETATM   34  O1  UNL     1      -5.483  13.462  18.177  1.00  0.00    -0.396 OA
HETATM   35  H11 UNL     1      -6.193  14.061  18.462  1.00  0.00     0.209 HD
ENDBRANCH  33  34
ENDBRANCH  29  33
ENDBRANCH  26  27
ENDBRANCH  24  26
ENDBRANCH   1  24
TORSDOF 5
ENDMDL
MODEL 2
REMARK minimizedAffinity -10.2576847
REMARK CNNscore 0.453083813
REMARK CNNaffinity 7.0833106
REMARK  5 active torsions:
REMARK  status: ('A' for Active; 'I' for Inactive)
REMARK    1  A    between atoms: C2_2  and  C3_3 
REMARK    2  A    between atoms: C2_2  and  C9_12 
REMARK    3  A    between atoms: C3_3  and  C4_4 
REMARK    4  A    between atoms: C6_6  and  C7_7 
REMARK    5  A    between atoms: C7_7  and  O1_8 
ROOT
HETATM    1  C9  UNL     1      -4.377   7.237  15.102  1.00  0.00    -0.002 C 
HETATM    2  C10 UNL     1      -3.894   5.946  15.828  1.00  0.00     0.007 C 
HETATM    3  C11 UNL     1      -2.561   5.525  15.181  1.00  0.00     0.015 C 
HETATM    4  C12 UNL     1      -2.137   6.736  14.327  1.00  0.00    -0.013 C 
HETATM    5  C13 UNL     1      -1.417   7.722  15.303  1.00  0.00     0.021 C 
HETATM    6  C14 UNL     1      -1.165   6.504  13.176  1.00  0.00    -0.070 C 
HETATM    7  C15 UNL     1      -0.238   5.536  13.211  1.00  0.00    -0.022 C 
HETATM    8  C16 UNL     1       0.814   5.335  12.177  1.00  0.00     0.034 C 
HETATM    9  C17 UNL     1       0.766   6.242  10.907  1.00  0.00     0.013 C 
HETATM   10  C18 UNL     1       2.195   6.263  10.229  1.00  0.00     0.018 C 
HETATM   11  C19 UNL     1       2.182   6.749   8.766  1.00  0.00     0.023 C 
HETATM   12  C20 UNL     1       2.813   4.840  10.188  1.00  0.00     0.023 C 
HETATM   13  C21 UNL     1       3.107   7.191  11.048  1.00  0.00     0.135 C 
HETATM   14  O4  UNL     1       4.286   6.911  11.271  1.00  0.00    -0.297 OA
HETATM   15  C22 UNL     1       2.551   8.536  11.483  1.00  0.00     0.080 C 
HETATM   16  C23 UNL     1       1.160   8.443  12.106  1.00  0.00     0.017 C 
HETATM   17  C24 UNL     1       0.146   7.659  11.238  1.00  0.00    -0.031 C 
HETATM   18  C25 UNL     1      -0.154   8.467   9.950  1.00  0.00     0.016 C 
HETATM   19  C26 UNL     1      -1.249   7.443  11.977  1.00  0.00     0.024 C 
HETATM   20  C27 UNL     1      -2.021   8.751  12.311  1.00  0.00     0.010 C 
HETATM   21  C28 UNL     1      -3.340   8.594  13.106  1.00  0.00     0.011 C 
HETATM   22  C29 UNL     1      -3.526   7.228  13.790  1.00  0.00    -0.029 C 
HETATM   23  C30 UNL     1      -4.184   6.238  12.779  1.00  0.00     0.016 C 
ENDROOT
BRANCH   1  24
HETATM   24  C2  UNL     1      -5.929   7.322  15.020  1.00  0.00    -0.011 C 
HETATM   25  C1  UNL     1      -6.459   8.744  15.220  1.00  0.00     0.010 C 
BRANCH  24  26
HETATM   26  C3  UNL     1      -6.636   6.327  15.988  1.00  0.00     0.041 C 
BRANCH  26  27
HETATM   27  C4  UNL     1      -7.754   5.471  15.376  1.00  0.00     0.156 A 
HETATM   28  C5  UNL     1      -7.258   4.161  14.894  1.00  0.00     0.021 A 
HETATM   29  C6  UNL     1      -7.420   4.036  13.577  1.00  0.00     0.039 A 
HETATM   30  C8  UNL     1      -8.046   5.277  13.118  1.00  0.00     0.291 A 
HETATM   31  O2  UNL     1      -8.337   5.533  11.964  1.00  0.00    -0.260 OA
HETATM   32  O3  UNL     1      -8.256   6.091  14.188  1.00  0.00    -0.308 OA
BRANCH  29  33
HETATM   33  C7  UNL     1      -7.117   2.944  12.632  1.00  0.00     0.208 C 
BRANCH  33  34
HETATM   34  O1  UNL     1      -8.158   1.971  12.663  1.00  0.00    -0.396 OA
HETATM   35  H11 UNL     1      -7.939   1.309  11.986  1.00  0.00     0.209 HD
ENDBRANCH  33  34
ENDBRANCH  29  33
ENDBRANCH  26  27
ENDBRANCH  24  26
ENDBRANCH   1  24
TORSDOF 5
ENDMDL
MODEL 3
REMARK minimizedAffinity -6.96525526
REMARK CNNscore 0.390451193
REMARK CNNaffinity 5.61467743
REMARK  5 active torsions:
REMARK  status: ('A' for Active; 'I' for Inactive)
REMARK    1  A    between atoms: C2_2  and  C3_3 
REMARK    2  A    between atoms: C2_2  and  C9_12 
REMARK    3  A    between atoms: C3_3  and  C4_4 
REMARK    4  A    between atoms: C6_6  and  C7_7 
REMARK    5  A    between atoms: C7_7  and  O1_8 
ROOT
HETATM    1  C9  UNL     1      -4.412  -9.934   5.956  1.00  0.00    -0.002 C 
HETATM    2  C10 UNL     1      -3.155 -10.847   6.079  1.00  0.00     0.007 C 
HETATM    3  C11 UNL     1      -2.973 -11.566   4.729  1.00  0.00     0.015 C 
HETATM    4  C12 UNL     1      -3.916 -10.828   3.758  1.00  0.00    -0.013 C 
HETATM    5  C13 UNL     1      -3.129  -9.573   3.261  1.00  0.00     0.021 C 
HETATM    6  C14 UNL     1      -4.375 -11.559   2.501  1.00  0.00    -0.070 C 
HETATM    7  C15 UNL     1      -3.612 -12.479   1.895  1.00  0.00    -0.022 C 
HETATM    8  C16 UNL     1      -3.950 -13.138   0.603  1.00  0.00     0.034 C 
HETATM    9  C17 UNL     1      -5.340 -12.820  -0.032  1.00  0.00     0.013 C 
HETATM   10  C18 UNL     1      -5.294 -13.153  -1.578  1.00  0.00     0.018 C 
HETATM   11  C19 UNL     1      -6.686 -13.300  -2.225  1.00  0.00     0.023 C 
HETATM   12  C20 UNL     1      -4.573 -14.503  -1.836  1.00  0.00     0.023 C 
HETATM   13  C21 UNL     1      -4.534 -12.024  -2.294  1.00  0.00     0.135 C 
HETATM   14  O4  UNL     1      -3.742 -12.255  -3.210  1.00  0.00    -0.297 OA
HETATM   15  C22 UNL     1      -4.873 -10.591  -1.928  1.00  0.00     0.080 C 
HETATM   16  C23 UNL     1      -4.925 -10.348  -0.421  1.00  0.00     0.017 C 
HETATM   17  C24 UNL     1      -5.819 -11.359   0.337  1.00  0.00    -0.031 C 
HETATM   18  C25 UNL     1      -7.299 -11.125  -0.056  1.00  0.00     0.016 C 
HETATM   19  C26 UNL     1      -5.732 -11.180   1.919  1.00  0.00     0.024 C 
HETATM   20  C27 UNL     1      -6.237  -9.809   2.450  1.00  0.00     0.010 C 
HETATM   21  C28 UNL     1      -6.092  -9.559   3.971  1.00  0.00     0.011 C 
HETATM   22  C29 UNL     1      -5.134 -10.520   4.697  1.00  0.00    -0.029 C 
HETATM   23  C30 UNL     1      -5.923 -11.796   5.127  1.00  0.00     0.016 C 
ENDROOT
BRANCH   1  24
HETATM   24  C2  UNL     1      -5.182  -9.806   7.302  1.00  0.00    -0.011 C 
HETATM   25  C1  UNL     1      -6.095  -8.578   7.350  1.00  0.00     0.010 C 
BRANCH  24  26
HETATM   26  C3  UNL     1      -4.235  -9.840   8.539  1.00  0.00     0.041 C 
BRANCH  26  27
HETATM   27  C4  UNL     1      -4.881 -10.257   9.869  1.00  0.00     0.156 A 
HETATM   28  C5  UNL     1      -6.342 -10.459   9.744  1.00  0.00     0.021 A 
HETATM   29  C6  UNL     1      -7.017  -9.602  10.509  1.00  0.00     0.039 A 
HETATM   30  C8  UNL     1      -6.017  -8.780  11.191  1.00  0.00     0.291 A 
HETATM   31  O2  UNL     1      -6.261  -7.875  11.968  1.00  0.00    -0.260 OA
HETATM   32  O3  UNL     1      -4.775  -9.196  10.824  1.00  0.00    -0.308 OA
BRANCH  29  33
HETATM   33  C7  UNL     1      -8.459  -9.403  10.756  1.00  0.00     0.208 C 
BRANCH  33  34
HETATM   34  O1  UNL     1      -8.963  -8.383   9.899  1.00  0.00    -0.396 OA
HETATM   35  H11 UNL     1      -9.921  -8.333  10.060  1.00  0.00     0.209 HD
ENDBRANCH  33  34
ENDBRANCH  29  33
ENDBRANCH  26  27
ENDBRANCH  24  26
ENDBRANCH   1  24
TORSDOF 5
ENDMDL
MODEL 4
REMARK minimizedAffinity -7.79819536
REMARK CNNscore 0.348524988
REMARK CNNaffinity 5.75525808
REMARK  5 active torsions:
REMARK  status: ('A' for Active; 'I' for Inactive)
REMARK    1  A    between atoms: C2_2  and  C3_3 
REMARK    2  A    between atoms: C2_2  and  C9_12 
REMARK    3  A    between atoms: C3_3  and  C4_4 
REMARK    4  A    between atoms: C6_6  and  C7_7 
REMARK    5  A    between atoms: C7_7  and  O1_8 
ROOT
HETATM    1  C9  UNL     1       7.035  13.504  20.366  1.00  0.00    -0.002 C 
HETATM    2  C10 UNL     1       8.121  14.613  20.229  1.00  0.00     0.007 C 
HETATM    3  C11 UNL     1       9.021  14.232  19.038  1.00  0.00     0.015 C 
HETATM    4  C12 UNL     1       8.261  13.102  18.315  1.00  0.00    -0.013 C 
HETATM    5  C13 UNL     1       7.226  13.805  17.381  1.00  0.00     0.021 C 
HETATM    6  C14 UNL     1       9.054  12.154  17.421  1.00  0.00    -0.070 C 
HETATM    7  C15 UNL     1      10.157  12.549  16.768  1.00  0.00    -0.022 C 
HETATM    8  C16 UNL     1      10.904  11.711  15.789  1.00  0.00     0.034 C 
HETATM    9  C17 UNL     1      10.440  10.233  15.597  1.00  0.00     0.013 C 
HETATM   10  C18 UNL     1      10.964   9.702  14.201  1.00  0.00     0.018 C 
HETATM   11  C19 UNL     1      10.956   8.165  14.078  1.00  0.00     0.023 C 
HETATM   12  C20 UNL     1      12.436  10.129  13.960  1.00  0.00     0.023 C 
HETATM   13  C21 UNL     1      10.074  10.290  13.094  1.00  0.00     0.135 C 
HETATM   14  O4  UNL     1      10.544  10.683  12.025  1.00  0.00    -0.297 OA
HETATM   15  C22 UNL     1       8.570  10.265  13.299  1.00  0.00     0.080 C 
HETATM   16  C23 UNL     1       8.138  10.768  14.675  1.00  0.00     0.017 C 
HETATM   17  C24 UNL     1       8.885  10.083  15.845  1.00  0.00    -0.031 C 
HETATM   18  C25 UNL     1       8.459   8.595  15.920  1.00  0.00     0.016 C 
HETATM   19  C26 UNL     1       8.530  10.732  17.256  1.00  0.00     0.024 C 
HETATM   20  C27 UNL     1       7.040  10.604  17.679  1.00  0.00     0.010 C 
HETATM   21  C28 UNL     1       6.632  11.295  19.002  1.00  0.00     0.011 C 
HETATM   22  C29 UNL     1       7.643  12.329  19.531  1.00  0.00    -0.029 C 
HETATM   23  C30 UNL     1       8.707  11.598  20.407  1.00  0.00     0.016 C 
ENDROOT
BRANCH   1  24
HETATM   24  C2  UNL     1       6.615  13.270  21.846  1.00  0.00    -0.011 C 
HETATM   25  C1  UNL     1       7.728  13.610  22.841  1.00  0.00     0.010 C 
BRANCH  24  26
HETATM   26  C3  UNL     1       6.073  11.830  22.094  1.00  0.00     0.041 C 
BRANCH  26  27
HETATM   27  C4  UNL     1       4.553  11.705  22.271  1.00  0.00     0.156 A 
HETATM   28  C5  UNL     1       4.183  10.589  23.171  1.00  0.00     0.021 A 
HETATM   29  C6  UNL     1       3.465   9.667  22.531  1.00  0.00     0.039 A 
HETATM   30  C8  UNL     1       3.319  10.140  21.154  1.00  0.00     0.291 A 
HETATM   31  O2  UNL     1       2.729   9.551  20.267  1.00  0.00    -0.260 OA
HETATM   32  O3  UNL     1       3.939  11.344  21.030  1.00  0.00    -0.308 OA
BRANCH  29  33
HETATM   33  C7  UNL     1       2.847   8.400  22.968  1.00  0.00     0.208 C 
BRANCH  33  34
HETATM   34  O1  UNL     1       1.683   8.133  22.191  1.00  0.00    -0.396 OA
HETATM   35  H11 UNL     1       1.351   7.266  22.478  1.00  0.00     0.209 HD
ENDBRANCH  33  34
ENDBRANCH  29  33
ENDBRANCH  26  27
ENDBRANCH  24  26
ENDBRANCH   1  24
TORSDOF 5
ENDMDL
MODEL 5
REMARK minimizedAffinity -8.91090107
REMARK CNNscore 0.317335606
REMARK CNNaffinity 6.84906197
REMARK  5 active torsions:
REMARK  status: ('A' for Active; 'I' for Inactive)
REMARK    1  A    between atoms: C2_2  and  C3_3 
REMARK    2  A    between atoms: C2_2  and  C9_12 
REMARK    3  A    between atoms: C3_3  and  C4_4 
REMARK    4  A    between atoms: C6_6  and  C7_7 
REMARK    5  A    between atoms: C7_7  and  O1_8 
ROOT
HETATM    1  C9  UNL     1      -6.015   7.263  13.884  1.00  0.00    -0.002 C 
HETATM    2  C10 UNL     1      -6.320   8.456  14.839  1.00  0.00     0.007 C 
HETATM    3  C11 UNL     1      -4.969   9.030  15.306  1.00  0.00     0.015 C 
HETATM    4  C12 UNL     1      -3.923   8.382  14.377  1.00  0.00    -0.013 C 
HETATM    5  C13 UNL     1      -3.905   9.246  13.076  1.00  0.00     0.021 C 
HETATM    6  C14 UNL     1      -2.476   8.316  14.854  1.00  0.00    -0.070 C 
HETATM    7  C15 UNL     1      -1.953   9.242  15.671  1.00  0.00    -0.022 C 
HETATM    8  C16 UNL     1      -0.520   9.299  16.074  1.00  0.00     0.034 C 
HETATM    9  C17 UNL     1       0.412   8.139  15.608  1.00  0.00     0.013 C 
HETATM   10  C18 UNL     1       1.916   8.628  15.655  1.00  0.00     0.018 C 
HETATM   11  C19 UNL     1       2.945   7.480  15.643  1.00  0.00     0.023 C 
HETATM   12  C20 UNL     1       2.200   9.426  16.955  1.00  0.00     0.023 C 
HETATM   13  C21 UNL     1       2.171   9.531  14.437  1.00  0.00     0.135 C 
HETATM   14  O4  UNL     1       2.851  10.555  14.520  1.00  0.00    -0.297 OA
HETATM   15  C22 UNL     1       1.660   9.067  13.085  1.00  0.00     0.080 C 
HETATM   16  C23 UNL     1       0.211   8.585  13.119  1.00  0.00     0.017 C 
HETATM   17  C24 UNL     1      -0.067   7.538  14.225  1.00  0.00    -0.031 C 
HETATM   18  C25 UNL     1       0.680   6.224  13.882  1.00  0.00     0.016 C 
HETATM   19  C26 UNL     1      -1.613   7.169  14.339  1.00  0.00     0.024 C 
HETATM   20  C27 UNL     1      -2.220   6.501  13.073  1.00  0.00     0.010 C 
HETATM   21  C28 UNL     1      -3.739   6.204  13.108  1.00  0.00     0.011 C 
HETATM   22  C29 UNL     1      -4.519   6.941  14.211  1.00  0.00    -0.029 C 
HETATM   23  C30 UNL     1      -4.468   6.095  15.522  1.00  0.00     0.016 C 
ENDROOT
BRANCH   1  24
HETATM   24  C2  UNL     1      -7.089   6.141  13.981  1.00  0.00    -0.011 C 
HETATM   25  C1  UNL     1      -7.077   5.421  15.332  1.00  0.00     0.010 C 
BRANCH  24  26
HETATM   26  C3  UNL     1      -6.994   5.119  12.809  1.00  0.00     0.041 C 
BRANCH  26  27
HETATM   27  C4  UNL     1      -6.410   3.743  13.162  1.00  0.00     0.156 A 
HETATM   28  C5  UNL     1      -4.960   3.658  12.876  1.00  0.00     0.021 A 
HETATM   29  C6  UNL     1      -4.701   2.735  11.951  1.00  0.00     0.039 A 
HETATM   30  C8  UNL     1      -5.989   2.152  11.576  1.00  0.00     0.291 A 
HETATM   31  O2  UNL     1      -6.151   1.279  10.744  1.00  0.00    -0.260 OA
HETATM   32  O3  UNL     1      -6.972   2.735  12.314  1.00  0.00    -0.308 OA
BRANCH  29  33
HETATM   33  C7  UNL     1      -3.445   2.257  11.340  1.00  0.00     0.208 C 
BRANCH  33  34
HETATM   34  O1  UNL     1      -3.330   0.846  11.507  1.00  0.00    -0.396 OA
HETATM   35  H11 UNL     1      -2.521   0.577  11.040  1.00  0.00     0.209 HD
ENDBRANCH  33  34
ENDBRANCH  29  33
ENDBRANCH  26  27
ENDBRANCH  24  26
ENDBRANCH   1  24
TORSDOF 5
ENDMDL
MODEL 6
REMARK minimizedAffinity -9.79966545
REMARK CNNscore 0.272889674
REMARK CNNaffinity 6.62343407
REMARK  5 active torsions:
REMARK  status: ('A' for Active; 'I' for Inactive)
REMARK    1  A    between atoms: C2_2  and  C3_3 
REMARK    2  A    between atoms: C2_2  and  C9_12 
REMARK    3  A    between atoms: C3_3  and  C4_4 
REMARK    4  A    between atoms: C6_6  and  C7_7 
REMARK    5  A    between atoms: C7_7  and  O1_8 
ROOT
HETATM    1  C9  UNL     1      -3.254   7.401  14.864  1.00  0.00    -0.002 C 
HETATM    2  C10 UNL     1      -2.742   6.118  15.584  1.00  0.00     0.007 C 
HETATM    3  C11 UNL     1      -1.500   5.624  14.819  1.00  0.00     0.015 C 
HETATM    4  C12 UNL     1      -1.126   6.788  13.880  1.00  0.00    -0.013 C 
HETATM    5  C13 UNL     1      -0.275   7.779  14.737  1.00  0.00     0.021 C 
HETATM    6  C14 UNL     1      -0.289   6.479  12.643  1.00  0.00    -0.070 C 
HETATM    7  C15 UNL     1       0.602   5.478  12.620  1.00  0.00    -0.022 C 
HETATM    8  C16 UNL     1       1.532   5.202  11.490  1.00  0.00     0.034 C 
HETATM    9  C17 UNL     1       1.382   6.065  10.199  1.00  0.00     0.013 C 
HETATM   10  C18 UNL     1       2.732   6.008   9.375  1.00  0.00     0.018 C 
HETATM   11  C19 UNL     1       2.582   6.443   7.904  1.00  0.00     0.023 C 
HETATM   12  C20 UNL     1       3.293   4.562   9.325  1.00  0.00     0.023 C 
HETATM   13  C21 UNL     1       3.756   6.928  10.059  1.00  0.00     0.135 C 
HETATM   14  O4  UNL     1       4.941   6.611  10.169  1.00  0.00    -0.297 OA
HETATM   15  C22 UNL     1       3.296   8.307  10.497  1.00  0.00     0.080 C 
HETATM   16  C23 UNL     1       1.975   8.289  11.264  1.00  0.00     0.017 C 
HETATM   17  C24 UNL     1       0.849   7.515  10.537  1.00  0.00    -0.031 C 
HETATM   18  C25 UNL     1       0.444   8.289   9.257  1.00  0.00     0.016 C 
HETATM   19  C26 UNL     1      -0.467   7.379  11.425  1.00  0.00     0.024 C 
HETATM   20  C27 UNL     1      -1.154   8.726  11.787  1.00  0.00     0.010 C 
HETATM   21  C28 UNL     1      -2.386   8.647  12.719  1.00  0.00     0.011 C 
HETATM   22  C29 UNL     1      -2.546   7.313  13.471  1.00  0.00    -0.029 C 
HETATM   23  C30 UNL     1      -3.341   6.315  12.573  1.00  0.00     0.016 C 
ENDROOT
BRANCH   1  24
HETATM   24  C2  UNL     1      -4.802   7.542  14.939  1.00  0.00    -0.011 C 
HETATM   25  C1  UNL     1      -5.250   8.794  15.698  1.00  0.00     0.010 C 
BRANCH  24  26
HETATM   26  C3  UNL     1      -5.492   6.270  15.517  1.00  0.00     0.041 C 
BRANCH  26  27
HETATM   27  C4  UNL     1      -6.933   6.453  16.015  1.00  0.00     0.156 A 
HETATM   28  C5  UNL     1      -7.925   5.837  15.104  1.00  0.00     0.021 A 
HETATM   29  C6  UNL     1      -8.745   6.753  14.590  1.00  0.00     0.039 A 
HETATM   30  C8  UNL     1      -8.332   8.040  15.150  1.00  0.00     0.291 A 
HETATM   31  O2  UNL     1      -8.846   9.114  14.899  1.00  0.00    -0.260 OA
HETATM   32  O3  UNL     1      -7.288   7.839  16.000  1.00  0.00    -0.308 OA
BRANCH  29  33
HETATM   33  C7  UNL     1      -9.892   6.661  13.666  1.00  0.00     0.208 C 
BRANCH  33  34
HETATM   34  O1  UNL     1     -11.048   6.213  14.368  1.00  0.00    -0.396 OA
HETATM   35  H11 UNL     1     -11.782   6.226  13.731  1.00  0.00     0.209 HD
ENDBRANCH  33  34
ENDBRANCH  29  33
ENDBRANCH  26  27
ENDBRANCH  24  26
ENDBRANCH   1  24
TORSDOF 5
ENDMDL
MODEL 7
REMARK minimizedAffinity -8.74237061
REMARK CNNscore 0.254754007
REMARK CNNaffinity 6.68622065
REMARK  5 active torsions:
REMARK  status: ('A' for Active; 'I' for Inactive)
REMARK    1  A    between atoms: C2_2  and  C3_3 
REMARK    2  A    between atoms: C2_2  and  C9_12 
REMARK    3  A    between atoms: C3_3  and  C4_4 
REMARK    4  A    between atoms: C6_6  and  C7_7 
REMARK    5  A    between atoms: C7_7  and  O1_8 
ROOT
HETATM    1  C9  UNL     1      -5.695   6.433  15.002  1.00  0.00    -0.002 C 
HETATM    2  C10 UNL     1      -5.991   5.282  13.996  1.00  0.00     0.007 C 
HETATM    3  C11 UNL     1      -4.753   5.130  13.091  1.00  0.00     0.015 C 
HETATM    4  C12 UNL     1      -3.654   5.960  13.784  1.00  0.00    -0.013 C 
HETATM    5  C13 UNL     1      -3.038   5.032  14.880  1.00  0.00     0.021 C 
HETATM    6  C14 UNL     1      -2.480   6.450  12.944  1.00  0.00    -0.070 C 
HETATM    7  C15 UNL     1      -2.032   5.766  11.881  1.00  0.00    -0.022 C 
HETATM    8  C16 UNL     1      -0.820   6.128  11.096  1.00  0.00     0.034 C 
HETATM    9  C17 UNL     1      -0.086   7.456  11.461  1.00  0.00     0.013 C 
HETATM   10  C18 UNL     1       1.401   7.393  10.926  1.00  0.00     0.018 C 
HETATM   11  C19 UNL     1       2.087   8.771  10.832  1.00  0.00     0.023 C 
HETATM   12  C20 UNL     1       1.451   6.806   9.490  1.00  0.00     0.023 C 
HETATM   13  C21 UNL     1       2.219   6.498  11.871  1.00  0.00     0.135 C 
HETATM   14  O4  UNL     1       3.060   5.705  11.446  1.00  0.00    -0.297 OA
HETATM   15  C22 UNL     1       2.053   6.700  13.366  1.00  0.00     0.080 C 
HETATM   16  C23 UNL     1       0.594   6.776  13.808  1.00  0.00     0.017 C 
HETATM   17  C24 UNL     1      -0.245   7.794  12.998  1.00  0.00    -0.031 C 
HETATM   18  C25 UNL     1       0.243   9.228  13.322  1.00  0.00     0.016 C 
HETATM   19  C26 UNL     1      -1.793   7.742  13.373  1.00  0.00     0.024 C 
HETATM   20  C27 UNL     1      -2.122   8.120  14.845  1.00  0.00     0.010 C 
HETATM   21  C28 UNL     1      -3.603   8.000  15.277  1.00  0.00     0.011 C 
HETATM   22  C29 UNL     1      -4.490   7.170  14.330  1.00  0.00    -0.029 C 
HETATM   23  C30 UNL     1      -5.041   8.099  13.204  1.00  0.00     0.016 C 
ENDROOT
BRANCH   1  24
HETATM   24  C2  UNL     1      -6.977   7.230  15.381  1.00  0.00    -0.011 C 
HETATM   25  C1  UNL     1      -7.418   6.995  16.828  1.00  0.00     0.010 C 
BRANCH  24  26
HETATM   26  C3  UNL     1      -8.156   6.971  14.395  1.00  0.00     0.041 C 
BRANCH  26  27
HETATM   27  C4  UNL     1      -9.552   7.366  14.898  1.00  0.00     0.156 A 
HETATM   28  C5  UNL     1     -10.598   7.163  13.869  1.00  0.00     0.021 A 
HETATM   29  C6  UNL     1     -11.177   8.315  13.533  1.00  0.00     0.039 A 
HETATM   30  C8  UNL     1     -10.535   9.353  14.341  1.00  0.00     0.291 A 
HETATM   31  O2  UNL     1     -10.797  10.540  14.299  1.00  0.00    -0.260 OA
HETATM   32  O3  UNL     1      -9.607   8.773  15.151  1.00  0.00    -0.308 OA
BRANCH  29  33
HETATM   33  C7  UNL     1     -12.263   8.651  12.591  1.00  0.00     0.208 C 
BRANCH  33  34
HETATM   34  O1  UNL     1     -11.792   9.576  11.615  1.00  0.00    -0.396 OA
HETATM   35  H11 UNL     1     -12.524   9.717  10.991  1.00  0.00     0.209 HD
ENDBRANCH  33  34
ENDBRANCH  29  33
ENDBRANCH  26  27
ENDBRANCH  24  26
ENDBRANCH   1  24
TORSDOF 5
ENDMDL
MODEL 8
REMARK minimizedAffinity -9.76754189
REMARK CNNscore 0.253773808
REMARK CNNaffinity 6.76943636
REMARK  5 active torsions:
REMARK  status: ('A' for Active; 'I' for Inactive)
REMARK    1  A    between atoms: C2_2  and  C3_3 
REMARK    2  A    between atoms: C2_2  and  C9_12 
REMARK    3  A    between atoms: C3_3  and  C4_4 
REMARK    4  A    between atoms: C6_6  and  C7_7 
REMARK    5  A    between atoms: C7_7  and  O1_8 
ROOT
HETATM    1  C9  UNL     1       0.047   8.159  13.397  1.00  0.00    -0.002 C 
HETATM    2  C10 UNL     1       0.013   9.553  14.092  1.00  0.00     0.007 C 
HETATM    3  C11 UNL     1      -1.418   9.770  14.620  1.00  0.00     0.015 C 
HETATM    4  C12 UNL     1      -2.093   8.388  14.511  1.00  0.00    -0.013 C 
HETATM    5  C13 UNL     1      -1.677   7.602  15.796  1.00  0.00     0.021 C 
HETATM    6  C14 UNL     1      -3.615   8.329  14.460  1.00  0.00    -0.070 C 
HETATM    7  C15 UNL     1      -4.383   9.243  15.070  1.00  0.00    -0.022 C 
HETATM    8  C16 UNL     1      -5.868   9.174  15.159  1.00  0.00     0.034 C 
HETATM    9  C17 UNL     1      -6.589   8.023  14.392  1.00  0.00     0.013 C 
HETATM   10  C18 UNL     1      -8.023   7.797  15.019  1.00  0.00     0.018 C 
HETATM   11  C19 UNL     1      -8.987   7.013  14.105  1.00  0.00     0.023 C 
HETATM   12  C20 UNL     1      -8.728   9.151  15.299  1.00  0.00     0.023 C 
HETATM   13  C21 UNL     1      -7.859   7.025  16.339  1.00  0.00     0.135 C 
HETATM   14  O4  UNL     1      -8.531   7.296  17.336  1.00  0.00    -0.297 OA
HETATM   15  C22 UNL     1      -6.925   5.829  16.355  1.00  0.00     0.080 C 
HETATM   16  C23 UNL     1      -5.569   6.111  15.711  1.00  0.00     0.017 C 
HETATM   17  C24 UNL     1      -5.674   6.735  14.299  1.00  0.00    -0.031 C 
HETATM   18  C25 UNL     1      -6.260   5.687  13.320  1.00  0.00     0.016 C 
HETATM   19  C26 UNL     1      -4.254   7.162  13.715  1.00  0.00     0.024 C 
HETATM   20  C27 UNL     1      -3.257   5.989  13.499  1.00  0.00     0.010 C 
HETATM   21  C28 UNL     1      -1.836   6.367  13.015  1.00  0.00     0.011 C 
HETATM   22  C29 UNL     1      -1.471   7.854  13.174  1.00  0.00    -0.029 C 
HETATM   23  C30 UNL     1      -1.954   8.634  11.912  1.00  0.00     0.016 C 
ENDROOT
BRANCH   1  24
HETATM   24  C2  UNL     1       1.030   8.125  12.191  1.00  0.00    -0.011 C 
HETATM   25  C1  UNL     1       0.323   8.283  10.842  1.00  0.00     0.010 C 
BRANCH  24  26
HETATM   26  C3  UNL     1       1.939   6.860  12.193  1.00  0.00     0.041 C 
BRANCH  26  27
HETATM   27  C4  UNL     1       3.117   6.876  11.209  1.00  0.00     0.156 A 
HETATM   28  C5  UNL     1       3.031   7.999  10.248  1.00  0.00     0.021 A 
HETATM   29  C6  UNL     1       2.919   7.558   8.995  1.00  0.00     0.039 A 
HETATM   30  C8  UNL     1       2.932   6.096   9.069  1.00  0.00     0.291 A 
HETATM   31  O2  UNL     1       2.837   5.343   8.118  1.00  0.00    -0.260 OA
HETATM   32  O3  UNL     1       3.075   5.718  10.368  1.00  0.00    -0.308 OA
BRANCH  29  33
HETATM   33  C7  UNL     1       2.822   8.251   7.696  1.00  0.00     0.208 C 
BRANCH  33  34
HETATM   34  O1  UNL     1       3.551   9.475   7.742  1.00  0.00    -0.396 OA
HETATM   35  H11 UNL     1       3.503   9.860   6.851  1.00  0.00     0.209 HD
ENDBRANCH  33  34
ENDBRANCH  29  33
ENDBRANCH  26  27
ENDBRANCH  24  26
ENDBRANCH   1  24
TORSDOF 5
ENDMDL
MODEL 9
REMARK minimizedAffinity -9.00104427
REMARK CNNscore 0.237635985
REMARK CNNaffinity 6.54831362
REMARK  5 active torsions:
REMARK  status: ('A' for Active; 'I' for Inactive)
REMARK    1  A    between atoms: C2_2  and  C3_3 
REMARK    2  A    between atoms: C2_2  and  C9_12 
REMARK    3  A    between atoms: C3_3  and  C4_4 
REMARK    4  A    between atoms: C6_6  and  C7_7 
REMARK    5  A    between atoms: C7_7  and  O1_8 
ROOT
HETATM    1  C9  UNL     1      -3.017   8.594  15.011  1.00  0.00    -0.002 C 
HETATM    2  C10 UNL     1      -3.981   8.863  13.817  1.00  0.00     0.007 C 
HETATM    3  C11 UNL     1      -3.174   8.670  12.520  1.00  0.00     0.015 C 
HETATM    4  C12 UNL     1      -1.865   7.989  12.967  1.00  0.00    -0.013 C 
HETATM    5  C13 UNL     1      -2.184   6.462  13.063  1.00  0.00     0.021 C 
HETATM    6  C14 UNL     1      -0.644   8.105  12.062  1.00  0.00    -0.070 C 
HETATM    7  C15 UNL     1      -0.753   8.210  10.730  1.00  0.00    -0.022 C 
HETATM    8  C16 UNL     1       0.398   8.205   9.785  1.00  0.00     0.034 C 
HETATM    9  C17 UNL     1       1.835   8.192  10.392  1.00  0.00     0.013 C 
HETATM   10  C18 UNL     1       2.854   7.657   9.306  1.00  0.00     0.018 C 
HETATM   11  C19 UNL     1       4.326   7.997   9.613  1.00  0.00     0.023 C 
HETATM   12  C20 UNL     1       2.565   8.284   7.916  1.00  0.00     0.023 C 
HETATM   13  C21 UNL     1       2.709   6.129   9.216  1.00  0.00     0.135 C 
HETATM   14  O4  UNL     1       2.747   5.537   8.136  1.00  0.00    -0.297 OA
HETATM   15  C22 UNL     1       2.637   5.342  10.512  1.00  0.00     0.080 C 
HETATM   16  C23 UNL     1       1.653   5.928  11.522  1.00  0.00     0.017 C 
HETATM   17  C24 UNL     1       1.863   7.439  11.783  1.00  0.00    -0.031 C 
HETATM   18  C25 UNL     1       3.211   7.647  12.519  1.00  0.00     0.016 C 
HETATM   19  C26 UNL     1       0.731   8.058  12.719  1.00  0.00     0.024 C 
HETATM   20  C27 UNL     1       0.675   7.466  14.155  1.00  0.00     0.010 C 
HETATM   21  C28 UNL     1      -0.464   7.976  15.071  1.00  0.00     0.011 C 
HETATM   22  C29 UNL     1      -1.608   8.702  14.340  1.00  0.00    -0.029 C 
HETATM   23  C30 UNL     1      -1.242  10.212  14.194  1.00  0.00     0.016 C 
ENDROOT
BRANCH   1  24
HETATM   24  C2  UNL     1      -3.355   9.472  16.251  1.00  0.00    -0.011 C 
HETATM   25  C1  UNL     1      -3.646  10.930  15.886  1.00  0.00     0.010 C 
BRANCH  24  26
HETATM   26  C3  UNL     1      -2.264   9.388  17.360  1.00  0.00     0.041 C 
BRANCH  26  27
HETATM   27  C4  UNL     1      -1.496  10.686  17.649  1.00  0.00     0.156 A 
HETATM   28  C5  UNL     1      -0.101  10.634  17.157  1.00  0.00     0.021 A 
HETATM   29  C6  UNL     1       0.772  10.738  18.159  1.00  0.00     0.039 A 
HETATM   30  C8  UNL     1      -0.019  10.870  19.383  1.00  0.00     0.291 A 
HETATM   31  O2  UNL     1       0.436  10.977  20.507  1.00  0.00    -0.260 OA
HETATM   32  O3  UNL     1      -1.341  10.864  19.061  1.00  0.00    -0.308 OA
BRANCH  29  33
HETATM   33  C7  UNL     1       2.247  10.762  18.202  1.00  0.00     0.208 C 
BRANCH  33  34
HETATM   34  O1  UNL     1       2.721   9.809  19.149  1.00  0.00    -0.396 OA
HETATM   35  H11 UNL     1       3.691   9.824  19.096  1.00  0.00     0.209 HD
ENDBRANCH  33  34
ENDBRANCH  29  33
ENDBRANCH  26  27
ENDBRANCH  24  26
ENDBRANCH   1  24
TORSDOF 5
ENDMDL
