MODEL 1
REMARK minimizedAffinity -9.45907593
REMARK CNNscore 0.71060431
REMARK CNNaffinity 6.89942122
REMARK  10 active torsions:
REMARK  status: ('A' for Active; 'I' for Inactive)
REMARK    1  A    between atoms: O1_2  and  C2_3 
REMARK    2  A    between atoms: C2_3  and  C3_5 
REMARK    3  A    between atoms: C3_5  and  C4_6 
REMARK    4  A    between atoms: C3_5  and  N1_13 
REMARK    5  A    between atoms: C4_6  and  C5_7 
REMARK       I    between atoms: N1_13  and  C11_14 
REMARK    6  A    between atoms: C11_14  and  C12_16 
REMARK    7  A    between atoms: C12_16  and  O4_17 
REMARK    8  A    between atoms: O4_17  and  N2_18 
REMARK    9  A    between atoms: C27_34  and  O5_35 
REMARK   10  A    between atoms: C27_34  and  C28_36 
ROOT
HETATM    1  N2  UNL     1       5.014  63.486 -34.649  1.00  0.00    -0.271 N 
ATOM      2  H2  UNL     1       4.576  63.139 -33.795  1.00  0.00     0.194 HD
HETATM    3  C13 UNL     1       4.621  64.542 -35.298  1.00  0.00     0.032 C 
HETATM    4  C14 UNL     1       5.278  65.109 -36.511  1.00  0.00     0.030 C 
HETATM    5  C15 UNL     1       4.731  66.119 -37.216  1.00  0.00    -0.069 C 
HETATM    6  C16 UNL     1       5.363  66.479 -38.546  1.00  0.00     0.035 C 
HETATM    7  C17 UNL     1       4.960  67.840 -39.101  1.00  0.00     0.010 C 
HETATM    8  C18 UNL     1       3.443  68.112 -39.068  1.00  0.00    -0.004 C 
HETATM    9  C19 UNL     1       2.663  67.091 -38.181  1.00  0.00     0.002 C 
HETATM   10  C20 UNL     1       1.181  67.509 -38.063  1.00  0.00     0.007 C 
HETATM   11  C21 UNL     1       0.514  67.662 -39.450  1.00  0.00     0.013 C 
HETATM   12  C22 UNL     1       1.288  68.619 -40.382  1.00  0.00    -0.002 C 
HETATM   13  C23 UNL     1       1.139  70.070 -39.845  1.00  0.00     0.019 C 
HETATM   14  C24 UNL     1       2.765  68.129 -40.445  1.00  0.00     0.002 C 
HETATM   15  C25 UNL     1       3.368  68.965 -41.567  1.00  0.00     0.009 C 
HETATM   16  C26 UNL     1       2.220  69.121 -42.585  1.00  0.00     0.047 C 
HETATM   17  C27 UNL     1       0.933  68.572 -41.902  1.00  0.00     0.125 C 
HETATM   18  C30 UNL     1       3.409  66.797 -36.838  1.00  0.00    -0.016 C 
HETATM   19  C31 UNL     1       3.682  68.093 -36.036  1.00  0.00     0.020 C 
HETATM   20  C32 UNL     1       2.580  65.832 -35.949  1.00  0.00     0.020 C 
HETATM   21  C33 UNL     1       3.383  65.247 -34.788  1.00  0.00     0.060 C 
ENDROOT
BRANCH   1  22
HETATM   22  O4  UNL     1       6.117  62.884 -35.273  1.00  0.00    -0.271 OA
BRANCH  22  23
HETATM   23  C12 UNL     1       6.305  61.565 -34.763  1.00  0.00     0.303 C 
BRANCH  23  24
HETATM   24  C11 UNL     1       7.795  61.281 -34.671  1.00  0.00     0.244 C 
HETATM   25  N1  UNL     1       8.531  62.332 -34.154  1.00  0.00    -0.345 N 
HETATM   26  H12 UNL     1       8.063  63.233 -34.228  1.00  0.00     0.163 HD
HETATM   27  O3  UNL     1       8.288  60.208 -35.005  1.00  0.00    -0.271 OA
BRANCH  25  28
HETATM   28  C3  UNL     1      10.001  62.337 -34.214  1.00  0.00     0.188 C 
BRANCH  28  29
HETATM   29  C2  UNL     1      10.636  62.539 -32.823  1.00  0.00     0.281 C 
HETATM   30  O2  UNL     1      11.615  63.239 -32.590  1.00  0.00    -0.263 OA
BRANCH  29  31
HETATM   31  O1  UNL     1      10.025  61.748 -31.887  1.00  0.00    -0.325 OA
HETATM   32  C1  UNL     1      10.928  60.992 -31.078  1.00  0.00     0.213 C 
ENDBRANCH  29  31
ENDBRANCH  28  29
BRANCH  28  33
HETATM   33  C4  UNL     1      10.563  63.330 -35.250  1.00  0.00     0.074 C 
BRANCH  33  34
HETATM   34  C5  UNL     1      11.580  62.695 -36.172  1.00  0.00    -0.056 A 
HETATM   35  C6  UNL     1      12.951  62.830 -35.908  1.00  0.00     0.007 A 
HETATM   36  C7  UNL     1      13.895  62.244 -36.755  1.00  0.00     0.001 A 
HETATM   37  C8  UNL     1      13.481  61.524 -37.872  1.00  0.00     0.000 A 
HETATM   38  C9  UNL     1      12.122  61.394 -38.147  1.00  0.00     0.001 A 
HETATM   39  C10 UNL     1      11.174  61.980 -37.304  1.00  0.00     0.007 A 
ENDBRANCH  33  34
ENDBRANCH  28  33
ENDBRANCH  25  28
ENDBRANCH  23  24
ENDBRANCH  22  23
ENDBRANCH   1  22
BRANCH  17  40
HETATM   40  O5  UNL     1       0.765  67.210 -42.320  1.00  0.00    -0.381 OA
HETATM   41  H34 UNL     1       0.769  67.193 -43.293  1.00  0.00     0.211 HD
ENDBRANCH  17  40
BRANCH  17  42
HETATM   42  C28 UNL     1      -0.327  69.378 -42.295  1.00  0.00     0.158 C 
HETATM   43  C29 UNL     1      -1.672  68.768 -41.990  1.00  0.00     0.094 C 
HETATM   44  O6  UNL     1      -0.260  70.491 -42.824  1.00  0.00    -0.295 OA
ENDBRANCH  17  42
TORSDOF 10
ENDMDL
MODEL 2
REMARK minimizedAffinity -8.85255527
REMARK CNNscore 0.674558103
REMARK CNNaffinity 7.55495691
REMARK  10 active torsions:
REMARK  status: ('A' for Active; 'I' for Inactive)
REMARK    1  A    between atoms: O1_2  and  C2_3 
REMARK    2  A    between atoms: C2_3  and  C3_5 
REMARK    3  A    between atoms: C3_5  and  C4_6 
REMARK    4  A    between atoms: C3_5  and  N1_13 
REMARK    5  A    between atoms: C4_6  and  C5_7 
REMARK       I    between atoms: N1_13  and  C11_14 
REMARK    6  A    between atoms: C11_14  and  C12_16 
REMARK    7  A    between atoms: C12_16  and  O4_17 
REMARK    8  A    between atoms: O4_17  and  N2_18 
REMARK    9  A    between atoms: C27_34  and  O5_35 
REMARK   10  A    between atoms: C27_34  and  C28_36 
ROOT
HETATM    1  N2  UNL     1       0.943  53.233 -18.687  1.00  0.00    -0.271 N 
ATOM      2  H2  UNL     1       1.456  54.114 -18.650  1.00  0.00     0.194 HD
HETATM    3  C13 UNL     1       0.804  52.422 -17.679  1.00  0.00     0.032 C 
HETATM    4  C14 UNL     1       0.010  51.160 -17.684  1.00  0.00     0.030 C 
HETATM    5  C15 UNL     1       0.030  50.297 -16.649  1.00  0.00    -0.069 C 
HETATM    6  C16 UNL     1      -0.636  48.948 -16.838  1.00  0.00     0.035 C 
HETATM    7  C17 UNL     1      -0.918  48.186 -15.548  1.00  0.00     0.010 C 
HETATM    8  C18 UNL     1       0.274  48.131 -14.572  1.00  0.00    -0.004 C 
HETATM    9  C19 UNL     1       1.410  49.135 -14.946  1.00  0.00     0.002 C 
HETATM   10  C20 UNL     1       2.496  49.145 -13.848  1.00  0.00     0.007 C 
HETATM   11  C21 UNL     1       3.067  47.730 -13.592  1.00  0.00     0.013 C 
HETATM   12  C22 UNL     1       1.970  46.692 -13.278  1.00  0.00    -0.002 C 
HETATM   13  C23 UNL     1       1.373  47.003 -11.877  1.00  0.00     0.019 C 
HETATM   14  C24 UNL     1       0.920  46.747 -14.427  1.00  0.00     0.002 C 
HETATM   15  C25 UNL     1       0.039  45.533 -14.160  1.00  0.00     0.009 C 
HETATM   16  C26 UNL     1       1.013  44.468 -13.615  1.00  0.00     0.047 C 
HETATM   17  C27 UNL     1       2.372  45.185 -13.365  1.00  0.00     0.125 C 
HETATM   18  C30 UNL     1       0.839  50.529 -15.368  1.00  0.00    -0.016 C 
HETATM   19  C31 UNL     1      -0.063  51.139 -14.268  1.00  0.00     0.020 C 
HETATM   20  C32 UNL     1       1.991  51.526 -15.669  1.00  0.00     0.020 C 
HETATM   21  C33 UNL     1       1.521  52.785 -16.396  1.00  0.00     0.060 C 
ENDROOT
BRANCH   1  22
HETATM   22  O4  UNL     1       0.300  52.738 -19.832  1.00  0.00    -0.271 OA
BRANCH  22  23
HETATM   23  C12 UNL     1       1.030  53.110 -20.999  1.00  0.00     0.303 C 
BRANCH  23  24
HETATM   24  C11 UNL     1       0.539  52.278 -22.172  1.00  0.00     0.244 C 
HETATM   25  N1  UNL     1       0.627  52.926 -23.390  1.00  0.00    -0.345 N 
HETATM   26  H12 UNL     1       0.673  53.941 -23.309  1.00  0.00     0.163 HD
HETATM   27  O3  UNL     1       0.127  51.128 -22.045  1.00  0.00    -0.271 OA
BRANCH  25  28
HETATM   28  C3  UNL     1      -0.017  52.382 -24.595  1.00  0.00     0.188 C 
BRANCH  28  29
HETATM   29  C2  UNL     1       0.461  53.090 -25.879  1.00  0.00     0.281 C 
HETATM   30  O2  UNL     1      -0.224  53.833 -26.571  1.00  0.00    -0.263 OA
BRANCH  29  31
HETATM   31  O1  UNL     1       1.732  52.698 -26.209  1.00  0.00    -0.325 OA
HETATM   32  C1  UNL     1       1.844  51.320 -26.570  1.00  0.00     0.213 C 
ENDBRANCH  29  31
ENDBRANCH  28  29
BRANCH  28  33
HETATM   33  C4  UNL     1      -1.555  52.348 -24.498  1.00  0.00     0.074 C 
BRANCH  33  34
HETATM   34  C5  UNL     1      -2.130  50.989 -24.833  1.00  0.00    -0.056 A 
HETATM   35  C6  UNL     1      -2.046  50.493 -26.143  1.00  0.00     0.007 A 
HETATM   36  C7  UNL     1      -2.573  49.239 -26.458  1.00  0.00     0.001 A 
HETATM   37  C8  UNL     1      -3.190  48.472 -25.473  1.00  0.00     0.000 A 
HETATM   38  C9  UNL     1      -3.285  48.961 -24.173  1.00  0.00     0.001 A 
HETATM   39  C10 UNL     1      -2.762  50.216 -23.854  1.00  0.00     0.007 A 
ENDBRANCH  33  34
ENDBRANCH  28  33
ENDBRANCH  25  28
ENDBRANCH  23  24
ENDBRANCH  22  23
ENDBRANCH   1  22
BRANCH  17  40
HETATM   40  O5  UNL     1       3.198  44.969 -14.517  1.00  0.00    -0.381 OA
HETATM   41  H34 UNL     1       3.247  44.009 -14.674  1.00  0.00     0.211 HD
ENDBRANCH  17  40
BRANCH  17  42
HETATM   42  C28 UNL     1       3.100  44.638 -12.114  1.00  0.00     0.158 C 
HETATM   43  C29 UNL     1       2.474  43.469 -11.395  1.00  0.00     0.094 C 
HETATM   44  O6  UNL     1       4.165  45.112 -11.711  1.00  0.00    -0.295 OA
ENDBRANCH  17  42
TORSDOF 10
ENDMDL
MODEL 3
REMARK minimizedAffinity -8.7271328
REMARK CNNscore 0.654033959
REMARK CNNaffinity 6.5070138
REMARK  10 active torsions:
REMARK  status: ('A' for Active; 'I' for Inactive)
REMARK    1  A    between atoms: O1_2  and  C2_3 
REMARK    2  A    between atoms: C2_3  and  C3_5 
REMARK    3  A    between atoms: C3_5  and  C4_6 
REMARK    4  A    between atoms: C3_5  and  N1_13 
REMARK    5  A    between atoms: C4_6  and  C5_7 
REMARK       I    between atoms: N1_13  and  C11_14 
REMARK    6  A    between atoms: C11_14  and  C12_16 
REMARK    7  A    between atoms: C12_16  and  O4_17 
REMARK    8  A    between atoms: O4_17  and  N2_18 
REMARK    9  A    between atoms: C27_34  and  O5_35 
REMARK   10  A    between atoms: C27_34  and  C28_36 
ROOT
HETATM    1  N2  UNL     1       4.944  65.115 -36.806  1.00  0.00    -0.271 N 
ATOM      2  H2  UNL     1       4.722  64.649 -35.926  1.00  0.00     0.194 HD
HETATM    3  C13 UNL     1       4.297  66.141 -37.276  1.00  0.00     0.032 C 
HETATM    4  C14 UNL     1       4.636  66.882 -38.525  1.00  0.00     0.030 C 
HETATM    5  C15 UNL     1       3.835  67.842 -39.028  1.00  0.00    -0.069 C 
HETATM    6  C16 UNL     1       4.157  68.383 -40.408  1.00  0.00     0.035 C 
HETATM    7  C17 UNL     1       3.475  69.701 -40.755  1.00  0.00     0.010 C 
HETATM    8  C18 UNL     1       1.967  69.735 -40.438  1.00  0.00    -0.004 C 
HETATM    9  C19 UNL     1       1.511  68.550 -39.530  1.00  0.00     0.002 C 
HETATM   10  C20 UNL     1       0.032  68.728 -39.122  1.00  0.00     0.007 C 
HETATM   11  C21 UNL     1      -0.891  68.870 -40.354  1.00  0.00     0.013 C 
HETATM   12  C22 UNL     1      -0.441  69.995 -41.310  1.00  0.00    -0.002 C 
HETATM   13  C23 UNL     1      -0.688  71.366 -40.622  1.00  0.00     0.019 C 
HETATM   14  C24 UNL     1       1.053  69.741 -41.671  1.00  0.00     0.002 C 
HETATM   15  C25 UNL     1       1.319  70.734 -42.796  1.00  0.00     0.009 C 
HETATM   16  C26 UNL     1      -0.006  70.781 -43.584  1.00  0.00     0.047 C 
HETATM   17  C27 UNL     1      -1.058  69.997 -42.745  1.00  0.00     0.125 C 
HETATM   18  C30 UNL     1       2.524  68.283 -38.368  1.00  0.00    -0.016 C 
HETATM   19  C31 UNL     1       2.758  69.548 -37.507  1.00  0.00     0.020 C 
HETATM   20  C32 UNL     1       2.013  67.145 -37.444  1.00  0.00     0.020 C 
HETATM   21  C33 UNL     1       3.087  66.613 -36.498  1.00  0.00     0.060 C 
ENDROOT
BRANCH   1  22
HETATM   22  O4  UNL     1       5.987  64.733 -37.663  1.00  0.00    -0.271 OA
BRANCH  22  23
HETATM   23  C12 UNL     1       7.245  65.055 -37.072  1.00  0.00     0.303 C 
BRANCH  23  24
HETATM   24  C11 UNL     1       7.424  64.225 -35.813  1.00  0.00     0.244 C 
HETATM   25  N1  UNL     1       6.850  62.968 -35.889  1.00  0.00    -0.345 N 
HETATM   26  H12 UNL     1       6.121  62.895 -36.596  1.00  0.00     0.163 HD
HETATM   27  O3  UNL     1       8.043  64.628 -34.833  1.00  0.00    -0.271 OA
BRANCH  25  28
HETATM   28  C3  UNL     1       6.710  62.119 -34.696  1.00  0.00     0.188 C 
BRANCH  28  29
HETATM   29  C2  UNL     1       7.555  60.832 -34.798  1.00  0.00     0.281 C 
HETATM   30  O2  UNL     1       7.106  59.707 -34.984  1.00  0.00    -0.263 OA
BRANCH  29  31
HETATM   31  O1  UNL     1       8.876  61.094 -34.550  1.00  0.00    -0.325 OA
HETATM   32  C1  UNL     1       9.128  61.672 -33.268  1.00  0.00     0.213 C 
ENDBRANCH  29  31
ENDBRANCH  28  29
BRANCH  28  33
HETATM   33  C4  UNL     1       5.242  61.814 -34.338  1.00  0.00     0.074 C 
BRANCH  33  34
HETATM   34  C5  UNL     1       4.679  62.783 -33.321  1.00  0.00    -0.056 A 
HETATM   35  C6  UNL     1       5.219  64.072 -33.203  1.00  0.00     0.007 A 
HETATM   36  C7  UNL     1       4.702  64.972 -32.268  1.00  0.00     0.001 A 
HETATM   37  C8  UNL     1       3.647  64.593 -31.442  1.00  0.00     0.000 A 
HETATM   38  C9  UNL     1       3.112  63.312 -31.546  1.00  0.00     0.001 A 
HETATM   39  C10 UNL     1       3.627  62.408 -32.478  1.00  0.00     0.007 A 
ENDBRANCH  33  34
ENDBRANCH  28  33
ENDBRANCH  25  28
ENDBRANCH  23  24
ENDBRANCH  22  23
ENDBRANCH   1  22
BRANCH  17  40
HETATM   40  O5  UNL     1      -1.110  68.657 -43.253  1.00  0.00    -0.381 OA
HETATM   41  H34 UNL     1      -1.282  68.706 -44.210  1.00  0.00     0.211 HD
ENDBRANCH  17  40
BRANCH  17  42
HETATM   42  C28 UNL     1      -2.468  70.626 -42.840  1.00  0.00     0.158 C 
HETATM   43  C29 UNL     1      -2.584  71.993 -43.467  1.00  0.00     0.094 C 
HETATM   44  O6  UNL     1      -3.479  70.042 -42.441  1.00  0.00    -0.295 OA
ENDBRANCH  17  42
TORSDOF 10
ENDMDL
MODEL 4
REMARK minimizedAffinity -8.67722797
REMARK CNNscore 0.350475132
REMARK CNNaffinity 6.19163656
REMARK  10 active torsions:
REMARK  status: ('A' for Active; 'I' for Inactive)
REMARK    1  A    between atoms: O1_2  and  C2_3 
REMARK    2  A    between atoms: C2_3  and  C3_5 
REMARK    3  A    between atoms: C3_5  and  C4_6 
REMARK    4  A    between atoms: C3_5  and  N1_13 
REMARK    5  A    between atoms: C4_6  and  C5_7 
REMARK       I    between atoms: N1_13  and  C11_14 
REMARK    6  A    between atoms: C11_14  and  C12_16 
REMARK    7  A    between atoms: C12_16  and  O4_17 
REMARK    8  A    between atoms: O4_17  and  N2_18 
REMARK    9  A    between atoms: C27_34  and  O5_35 
REMARK   10  A    between atoms: C27_34  and  C28_36 
ROOT
HETATM    1  N2  UNL     1       4.843  64.670 -36.304  1.00  0.00    -0.271 N 
ATOM      2  H2  UNL     1       4.577  64.225 -35.425  1.00  0.00     0.194 HD
HETATM    3  C13 UNL     1       4.253  65.716 -36.804  1.00  0.00     0.032 C 
HETATM    4  C14 UNL     1       4.657  66.426 -38.052  1.00  0.00     0.030 C 
HETATM    5  C15 UNL     1       3.912  67.413 -38.587  1.00  0.00    -0.069 C 
HETATM    6  C16 UNL     1       4.294  67.923 -39.964  1.00  0.00     0.035 C 
HETATM    7  C17 UNL     1       3.678  69.264 -40.345  1.00  0.00     0.010 C 
HETATM    8  C18 UNL     1       2.165  69.366 -40.069  1.00  0.00    -0.004 C 
HETATM    9  C19 UNL     1       1.635  68.213 -39.160  1.00  0.00     0.002 C 
HETATM   10  C20 UNL     1       0.155  68.460 -38.794  1.00  0.00     0.007 C 
HETATM   11  C21 UNL     1      -0.729  68.626 -40.052  1.00  0.00     0.013 C 
HETATM   12  C22 UNL     1      -0.205  69.718 -41.009  1.00  0.00    -0.002 C 
HETATM   13  C23 UNL     1      -0.412  71.107 -40.344  1.00  0.00     0.019 C 
HETATM   14  C24 UNL     1       1.286  69.396 -41.326  1.00  0.00     0.002 C 
HETATM   15  C25 UNL     1       1.623  70.362 -42.455  1.00  0.00     0.009 C 
HETATM   16  C26 UNL     1       0.323  70.455 -43.279  1.00  0.00     0.047 C 
HETATM   17  C27 UNL     1      -0.783  69.728 -42.460  1.00  0.00     0.125 C 
HETATM   18  C30 UNL     1       2.604  67.919 -37.968  1.00  0.00    -0.016 C 
HETATM   19  C31 UNL     1       2.869  69.183 -37.115  1.00  0.00     0.020 C 
HETATM   20  C32 UNL     1       2.020  66.815 -37.045  1.00  0.00     0.020 C 
HETATM   21  C33 UNL     1       3.045  66.249 -36.064  1.00  0.00     0.060 C 
ENDROOT
BRANCH   1  22
HETATM   22  O4  UNL     1       5.891  64.232 -37.128  1.00  0.00    -0.271 OA
BRANCH  22  23
HETATM   23  C12 UNL     1       7.091  64.930 -36.800  1.00  0.00     0.303 C 
BRANCH  23  24
HETATM   24  C11 UNL     1       7.840  64.146 -35.737  1.00  0.00     0.244 C 
HETATM   25  N1  UNL     1       8.559  63.075 -36.236  1.00  0.00    -0.345 N 
HETATM   26  H12 UNL     1       8.231  62.753 -37.146  1.00  0.00     0.163 HD
HETATM   27  O3  UNL     1       7.825  64.455 -34.549  1.00  0.00    -0.271 OA
BRANCH  25  28
HETATM   28  C3  UNL     1       9.145  62.064 -35.343  1.00  0.00     0.188 C 
BRANCH  28  29
HETATM   29  C2  UNL     1       8.186  61.673 -34.201  1.00  0.00     0.281 C 
HETATM   30  O2  UNL     1       8.403  61.848 -33.007  1.00  0.00    -0.263 OA
BRANCH  29  31
HETATM   31  O1  UNL     1       7.093  61.006 -34.687  1.00  0.00    -0.325 OA
HETATM   32  C1  UNL     1       7.313  59.614 -34.920  1.00  0.00     0.213 C 
ENDBRANCH  29  31
ENDBRANCH  28  29
BRANCH  28  33
HETATM   33  C4  UNL     1      10.538  62.458 -34.813  1.00  0.00     0.074 C 
BRANCH  33  34
HETATM   34  C5  UNL     1      11.485  62.872 -35.918  1.00  0.00    -0.056 A 
HETATM   35  C6  UNL     1      11.696  62.027 -37.018  1.00  0.00     0.007 A 
HETATM   36  C7  UNL     1      12.568  62.405 -38.042  1.00  0.00     0.001 A 
HETATM   37  C8  UNL     1      13.238  63.623 -37.976  1.00  0.00     0.000 A 
HETATM   38  C9  UNL     1      13.042  64.463 -36.883  1.00  0.00     0.001 A 
HETATM   39  C10 UNL     1      12.173  64.089 -35.855  1.00  0.00     0.007 A 
ENDBRANCH  33  34
ENDBRANCH  28  33
ENDBRANCH  25  28
ENDBRANCH  23  24
ENDBRANCH  22  23
ENDBRANCH   1  22
BRANCH  17  40
HETATM   40  O5  UNL     1      -0.879  68.385 -42.954  1.00  0.00    -0.381 OA
HETATM   41  H34 UNL     1      -1.024  68.429 -43.915  1.00  0.00     0.211 HD
ENDBRANCH  17  40
BRANCH  17  42
HETATM   42  C28 UNL     1      -2.162  70.416 -42.600  1.00  0.00     0.158 C 
HETATM   43  C29 UNL     1      -3.374  69.660 -42.114  1.00  0.00     0.094 C 
HETATM   44  O6  UNL     1      -2.289  71.549 -43.070  1.00  0.00    -0.295 OA
ENDBRANCH  17  42
TORSDOF 10
ENDMDL
MODEL 5
REMARK minimizedAffinity -8.35963249
REMARK CNNscore 0.313685745
REMARK CNNaffinity 6.92554855
REMARK  10 active torsions:
REMARK  status: ('A' for Active; 'I' for Inactive)
REMARK    1  A    between atoms: O1_2  and  C2_3 
REMARK    2  A    between atoms: C2_3  and  C3_5 
REMARK    3  A    between atoms: C3_5  and  C4_6 
REMARK    4  A    between atoms: C3_5  and  N1_13 
REMARK    5  A    between atoms: C4_6  and  C5_7 
REMARK       I    between atoms: N1_13  and  C11_14 
REMARK    6  A    between atoms: C11_14  and  C12_16 
REMARK    7  A    between atoms: C12_16  and  O4_17 
REMARK    8  A    between atoms: O4_17  and  N2_18 
REMARK    9  A    between atoms: C27_34  and  O5_35 
REMARK   10  A    between atoms: C27_34  and  C28_36 
ROOT
HETATM    1  N2  UNL     1       0.660  53.321 -22.533  1.00  0.00    -0.271 N 
ATOM      2  H2  UNL     1       0.835  54.190 -23.038  1.00  0.00     0.194 HD
HETATM    3  C13 UNL     1      -0.179  52.405 -22.917  1.00  0.00     0.032 C 
HETATM    4  C14 UNL     1      -0.411  51.098 -22.236  1.00  0.00     0.030 C 
HETATM    5  C15 UNL     1      -1.400  50.262 -22.607  1.00  0.00    -0.069 C 
HETATM    6  C16 UNL     1      -1.688  49.066 -21.721  1.00  0.00     0.035 C 
HETATM    7  C17 UNL     1      -2.527  47.973 -22.371  1.00  0.00     0.010 C 
HETATM    8  C18 UNL     1      -3.783  48.490 -23.101  1.00  0.00    -0.004 C 
HETATM    9  C19 UNL     1      -3.768  50.037 -23.311  1.00  0.00     0.002 C 
HETATM   10  C20 UNL     1      -4.968  50.468 -24.183  1.00  0.00     0.007 C 
HETATM   11  C21 UNL     1      -6.314  50.003 -23.579  1.00  0.00     0.013 C 
HETATM   12  C22 UNL     1      -6.349  48.486 -23.299  1.00  0.00    -0.002 C 
HETATM   13  C23 UNL     1      -6.380  47.727 -24.656  1.00  0.00     0.019 C 
HETATM   14  C24 UNL     1      -5.111  48.135 -22.420  1.00  0.00     0.002 C 
HETATM   15  C25 UNL     1      -5.375  46.697 -21.994  1.00  0.00     0.009 C 
HETATM   16  C26 UNL     1      -6.905  46.628 -21.810  1.00  0.00     0.047 C 
HETATM   17  C27 UNL     1      -7.487  47.961 -22.367  1.00  0.00     0.125 C 
HETATM   18  C30 UNL     1      -2.362  50.549 -23.766  1.00  0.00    -0.016 C 
HETATM   19  C31 UNL     1      -1.878  49.838 -25.052  1.00  0.00     0.020 C 
HETATM   20  C32 UNL     1      -2.395  52.079 -24.032  1.00  0.00     0.020 C 
HETATM   21  C33 UNL     1      -1.002  52.696 -24.154  1.00  0.00     0.060 C 
ENDROOT
BRANCH   1  22
HETATM   22  O4  UNL     1       1.294  52.961 -21.334  1.00  0.00    -0.271 OA
BRANCH  22  23
HETATM   23  C12 UNL     1       0.967  53.898 -20.310  1.00  0.00     0.303 C 
BRANCH  23  24
HETATM   24  C11 UNL     1       0.383  53.148 -19.125  1.00  0.00     0.244 C 
HETATM   25  N1  UNL     1       1.266  53.001 -18.069  1.00  0.00    -0.345 N 
HETATM   26  H12 UNL     1       2.243  53.096 -18.340  1.00  0.00     0.163 HD
HETATM   27  O3  UNL     1      -0.772  52.734 -19.103  1.00  0.00    -0.271 OA
BRANCH  25  28
HETATM   28  C3  UNL     1       0.969  52.104 -16.943  1.00  0.00     0.188 C 
BRANCH  28  29
HETATM   29  C2  UNL     1       2.080  52.128 -15.874  1.00  0.00     0.281 C 
HETATM   30  O2  UNL     1       3.106  52.794 -15.939  1.00  0.00    -0.263 OA
BRANCH  29  31
HETATM   31  O1  UNL     1       1.821  51.222 -14.879  1.00  0.00    -0.325 OA
HETATM   32  C1  UNL     1       2.889  51.057 -13.945  1.00  0.00     0.213 C 
ENDBRANCH  29  31
ENDBRANCH  28  29
BRANCH  28  33
HETATM   33  C4  UNL     1       0.630  50.667 -17.386  1.00  0.00     0.074 C 
BRANCH  33  34
HETATM   34  C5  UNL     1      -0.570  50.102 -16.658  1.00  0.00    -0.056 A 
HETATM   35  C6  UNL     1      -0.730  48.713 -16.535  1.00  0.00     0.007 A 
HETATM   36  C7  UNL     1      -1.835  48.186 -15.864  1.00  0.00     0.001 A 
HETATM   37  C8  UNL     1      -2.790  49.036 -15.314  1.00  0.00     0.000 A 
HETATM   38  C9  UNL     1      -2.645  50.415 -15.440  1.00  0.00     0.001 A 
HETATM   39  C10 UNL     1      -1.542  50.947 -16.113  1.00  0.00     0.007 A 
ENDBRANCH  33  34
ENDBRANCH  28  33
ENDBRANCH  25  28
ENDBRANCH  23  24
ENDBRANCH  22  23
ENDBRANCH   1  22
BRANCH  17  40
HETATM   40  O5  UNL     1      -7.659  48.857 -21.260  1.00  0.00    -0.381 OA
HETATM   41  H34 UNL     1      -8.202  48.404 -20.590  1.00  0.00     0.211 HD
ENDBRANCH  17  40
BRANCH  17  42
HETATM   42  C28 UNL     1      -8.851  47.756 -23.066  1.00  0.00     0.158 C 
HETATM   43  C29 UNL     1      -9.826  46.794 -22.433  1.00  0.00     0.094 C 
HETATM   44  O6  UNL     1      -9.162  48.361 -24.096  1.00  0.00    -0.295 OA
ENDBRANCH  17  42
TORSDOF 10
ENDMDL
MODEL 6
REMARK minimizedAffinity -7.94133186
REMARK CNNscore 0.29956004
REMARK CNNaffinity 5.78331327
REMARK  10 active torsions:
REMARK  status: ('A' for Active; 'I' for Inactive)
REMARK    1  A    between atoms: O1_2  and  C2_3 
REMARK    2  A    between atoms: C2_3  and  C3_5 
REMARK    3  A    between atoms: C3_5  and  C4_6 
REMARK    4  A    between atoms: C3_5  and  N1_13 
REMARK    5  A    between atoms: C4_6  and  C5_7 
REMARK       I    between atoms: N1_13  and  C11_14 
REMARK    6  A    between atoms: C11_14  and  C12_16 
REMARK    7  A    between atoms: C12_16  and  O4_17 
REMARK    8  A    between atoms: O4_17  and  N2_18 
REMARK    9  A    between atoms: C27_34  and  O5_35 
REMARK   10  A    between atoms: C27_34  and  C28_36 
ROOT
HETATM    1  N2  UNL     1     -12.780  46.601 -23.740  1.00  0.00    -0.271 N 
ATOM      2  H2  UNL     1     -12.569  46.232 -22.813  1.00  0.00     0.194 HD
HETATM    3  C13 UNL     1     -12.128  46.286 -24.821  1.00  0.00     0.032 C 
HETATM    4  C14 UNL     1     -12.451  46.758 -26.198  1.00  0.00     0.030 C 
HETATM    5  C15 UNL     1     -11.645  46.508 -27.249  1.00  0.00    -0.069 C 
HETATM    6  C16 UNL     1     -11.948  47.209 -28.559  1.00  0.00     0.035 C 
HETATM    7  C17 UNL     1     -11.263  46.610 -29.781  1.00  0.00     0.010 C 
HETATM    8  C18 UNL     1      -9.760  46.329 -29.589  1.00  0.00    -0.004 C 
HETATM    9  C19 UNL     1      -9.315  46.403 -28.094  1.00  0.00     0.002 C 
HETATM   10  C20 UNL     1      -7.842  45.960 -27.953  1.00  0.00     0.007 C 
HETATM   11  C21 UNL     1      -6.902  46.793 -28.854  1.00  0.00     0.013 C 
HETATM   12  C22 UNL     1      -7.340  46.796 -30.333  1.00  0.00    -0.002 C 
HETATM   13  C23 UNL     1      -7.105  45.379 -30.928  1.00  0.00     0.019 C 
HETATM   14  C24 UNL     1      -8.829  47.252 -30.387  1.00  0.00     0.002 C 
HETATM   15  C25 UNL     1      -9.080  47.466 -31.874  1.00  0.00     0.009 C 
HETATM   16  C26 UNL     1      -7.745  48.020 -32.411  1.00  0.00     0.047 C 
HETATM   17  C27 UNL     1      -6.703  47.878 -31.262  1.00  0.00     0.125 C 
HETATM   18  C30 UNL     1     -10.344  45.704 -27.145  1.00  0.00    -0.016 C 
HETATM   19  C31 UNL     1     -10.591  44.231 -27.550  1.00  0.00     0.020 C 
HETATM   20  C32 UNL     1      -9.843  45.735 -25.675  1.00  0.00     0.020 C 
HETATM   21  C33 UNL     1     -10.930  45.373 -24.665  1.00  0.00     0.060 C 
ENDROOT
BRANCH   1  22
HETATM   22  O4  UNL     1     -13.810  47.513 -24.014  1.00  0.00    -0.271 OA
BRANCH  22  23
HETATM   23  C12 UNL     1     -14.923  47.263 -23.157  1.00  0.00     0.303 C 
BRANCH  23  24
HETATM   24  C11 UNL     1     -15.830  46.239 -23.817  1.00  0.00     0.244 C 
HETATM   25  N1  UNL     1     -17.177  46.539 -23.713  1.00  0.00    -0.345 N 
HETATM   26  H12 UNL     1     -17.394  47.180 -22.951  1.00  0.00     0.163 HD
HETATM   27  O3  UNL     1     -15.401  45.251 -24.406  1.00  0.00    -0.271 OA
BRANCH  25  28
HETATM   28  C3  UNL     1     -18.210  45.556 -24.073  1.00  0.00     0.188 C 
BRANCH  28  29
HETATM   29  C2  UNL     1     -19.115  46.059 -25.217  1.00  0.00     0.281 C 
HETATM   30  O2  UNL     1     -20.133  46.724 -25.069  1.00  0.00    -0.263 OA
BRANCH  29  31
HETATM   31  O1  UNL     1     -18.689  45.575 -26.425  1.00  0.00    -0.325 OA
HETATM   32  C1  UNL     1     -18.177  44.243 -26.376  1.00  0.00     0.213 C 
ENDBRANCH  29  31
ENDBRANCH  28  29
BRANCH  28  33
HETATM   33  C4  UNL     1     -19.031  45.069 -22.864  1.00  0.00     0.074 C 
BRANCH  33  34
HETATM   34  C5  UNL     1     -18.516  45.618 -21.551  1.00  0.00    -0.056 A 
HETATM   35  C6  UNL     1     -19.042  46.811 -21.033  1.00  0.00     0.007 A 
HETATM   36  C7  UNL     1     -18.572  47.322 -19.821  1.00  0.00     0.001 A 
HETATM   37  C8  UNL     1     -17.573  46.652 -19.120  1.00  0.00     0.000 A 
HETATM   38  C9  UNL     1     -17.039  45.473 -19.632  1.00  0.00     0.001 A 
HETATM   39  C10 UNL     1     -17.505  44.959 -20.845  1.00  0.00     0.007 A 
ENDBRANCH  33  34
ENDBRANCH  28  33
ENDBRANCH  25  28
ENDBRANCH  23  24
ENDBRANCH  22  23
ENDBRANCH   1  22
BRANCH  17  40
HETATM   40  O5  UNL     1      -6.643  49.135 -30.572  1.00  0.00    -0.381 OA
HETATM   41  H34 UNL     1      -6.457  49.828 -31.230  1.00  0.00     0.211 HD
ENDBRANCH  17  40
BRANCH  17  42
HETATM   42  C28 UNL     1      -5.293  47.526 -31.791  1.00  0.00     0.158 C 
HETATM   43  C29 UNL     1      -4.913  46.067 -31.853  1.00  0.00     0.094 C 
HETATM   44  O6  UNL     1      -4.497  48.387 -32.172  1.00  0.00    -0.295 OA
ENDBRANCH  17  42
TORSDOF 10
ENDMDL
MODEL 7
REMARK minimizedAffinity -9.56885052
REMARK CNNscore 0.277213603
REMARK CNNaffinity 6.91320276
REMARK  10 active torsions:
REMARK  status: ('A' for Active; 'I' for Inactive)
REMARK    1  A    between atoms: O1_2  and  C2_3 
REMARK    2  A    between atoms: C2_3  and  C3_5 
REMARK    3  A    between atoms: C3_5  and  C4_6 
REMARK    4  A    between atoms: C3_5  and  N1_13 
REMARK    5  A    between atoms: C4_6  and  C5_7 
REMARK       I    between atoms: N1_13  and  C11_14 
REMARK    6  A    between atoms: C11_14  and  C12_16 
REMARK    7  A    between atoms: C12_16  and  O4_17 
REMARK    8  A    between atoms: O4_17  and  N2_18 
REMARK    9  A    between atoms: C27_34  and  O5_35 
REMARK   10  A    between atoms: C27_34  and  C28_36 
ROOT
HETATM    1  N2  UNL     1      -5.014  51.168 -21.503  1.00  0.00    -0.271 N 
ATOM      2  H2  UNL     1      -5.932  50.723 -21.535  1.00  0.00     0.194 HD
HETATM    3  C13 UNL     1      -4.046  50.796 -20.717  1.00  0.00     0.032 C 
HETATM    4  C14 UNL     1      -2.676  51.383 -20.692  1.00  0.00     0.030 C 
HETATM    5  C15 UNL     1      -1.770  51.048 -19.751  1.00  0.00    -0.069 C 
HETATM    6  C16 UNL     1      -0.487  51.854 -19.683  1.00  0.00     0.035 C 
HETATM    7  C17 UNL     1       0.636  51.204 -18.884  1.00  0.00     0.010 C 
HETATM    8  C18 UNL     1       0.201  50.656 -17.510  1.00  0.00    -0.004 C 
HETATM    9  C19 UNL     1      -1.350  50.579 -17.352  1.00  0.00     0.002 C 
HETATM   10  C20 UNL     1      -1.716  49.879 -16.025  1.00  0.00     0.007 C 
HETATM   11  C21 UNL     1      -1.068  50.579 -14.808  1.00  0.00     0.013 C 
HETATM   12  C22 UNL     1       0.461  50.729 -14.951  1.00  0.00    -0.002 C 
HETATM   13  C23 UNL     1       1.115  49.324 -14.839  1.00  0.00     0.019 C 
HETATM   14  C24 UNL     1       0.743  51.440 -16.308  1.00  0.00     0.002 C 
HETATM   15  C25 UNL     1       2.230  51.767 -16.234  1.00  0.00     0.009 C 
HETATM   16  C26 UNL     1       2.472  52.104 -14.748  1.00  0.00     0.047 C 
HETATM   17  C27 UNL     1       1.170  51.728 -13.982  1.00  0.00     0.125 C 
HETATM   18  C30 UNL     1      -2.040  50.025 -18.642  1.00  0.00    -0.016 C 
HETATM   19  C31 UNL     1      -1.481  48.639 -19.044  1.00  0.00     0.020 C 
HETATM   20  C32 UNL     1      -3.573  49.897 -18.432  1.00  0.00     0.020 C 
HETATM   21  C33 UNL     1      -4.341  49.682 -19.735  1.00  0.00     0.060 C 
ENDROOT
BRANCH   1  22
HETATM   22  O4  UNL     1      -4.634  52.258 -22.300  1.00  0.00    -0.271 OA
BRANCH  22  23
HETATM   23  C12 UNL     1      -5.017  52.026 -23.655  1.00  0.00     0.303 C 
BRANCH  23  24
HETATM   24  C11 UNL     1      -3.771  52.028 -24.524  1.00  0.00     0.244 C 
HETATM   25  N1  UNL     1      -3.924  51.347 -25.718  1.00  0.00    -0.345 N 
HETATM   26  H12 UNL     1      -4.687  50.672 -25.707  1.00  0.00     0.163 HD
HETATM   27  O3  UNL     1      -2.736  52.604 -24.202  1.00  0.00    -0.271 OA
BRANCH  25  28
HETATM   28  C3  UNL     1      -2.770  51.035 -26.574  1.00  0.00     0.188 C 
BRANCH  28  29
HETATM   29  C2  UNL     1      -3.125  50.019 -27.679  1.00  0.00     0.281 C 
HETATM   30  O2  UNL     1      -3.476  50.308 -28.817  1.00  0.00    -0.263 OA
BRANCH  29  31
HETATM   31  O1  UNL     1      -3.099  48.739 -27.192  1.00  0.00    -0.325 OA
HETATM   32  C1  UNL     1      -4.382  48.221 -26.836  1.00  0.00     0.213 C 
ENDBRANCH  29  31
ENDBRANCH  28  29
BRANCH  28  33
HETATM   33  C4  UNL     1      -1.523  50.604 -25.778  1.00  0.00     0.074 C 
BRANCH  33  34
HETATM   34  C5  UNL     1      -0.232  51.034 -26.441  1.00  0.00    -0.056 A 
HETATM   35  C6  UNL     1       0.971  51.014 -25.719  1.00  0.00     0.007 A 
HETATM   36  C7  UNL     1       2.165  51.408 -26.325  1.00  0.00     0.001 A 
HETATM   37  C8  UNL     1       2.170  51.829 -27.652  1.00  0.00     0.000 A 
HETATM   38  C9  UNL     1       0.979  51.862 -28.373  1.00  0.00     0.001 A 
HETATM   39  C10 UNL     1      -0.218  51.470 -27.770  1.00  0.00     0.007 A 
ENDBRANCH  33  34
ENDBRANCH  28  33
ENDBRANCH  25  28
ENDBRANCH  23  24
ENDBRANCH  22  23
ENDBRANCH   1  22
BRANCH  17  40
HETATM   40  O5  UNL     1       0.383  52.919 -13.850  1.00  0.00    -0.381 OA
HETATM   41  H34 UNL     1       0.939  53.601 -13.433  1.00  0.00     0.211 HD
ENDBRANCH  17  40
BRANCH  17  42
HETATM   42  C28 UNL     1       1.465  51.161 -12.573  1.00  0.00     0.158 C 
HETATM   43  C29 UNL     1       2.910  50.994 -12.173  1.00  0.00     0.094 C 
HETATM   44  O6  UNL     1       0.567  50.866 -11.780  1.00  0.00    -0.295 OA
ENDBRANCH  17  42
TORSDOF 10
ENDMDL
MODEL 8
REMARK minimizedAffinity -8.60156727
REMARK CNNscore 0.208727658
REMARK CNNaffinity 5.69055939
REMARK  10 active torsions:
REMARK  status: ('A' for Active; 'I' for Inactive)
REMARK    1  A    between atoms: O1_2  and  C2_3 
REMARK    2  A    between atoms: C2_3  and  C3_5 
REMARK    3  A    between atoms: C3_5  and  C4_6 
REMARK    4  A    between atoms: C3_5  and  N1_13 
REMARK    5  A    between atoms: C4_6  and  C5_7 
REMARK       I    between atoms: N1_13  and  C11_14 
REMARK    6  A    between atoms: C11_14  and  C12_16 
REMARK    7  A    between atoms: C12_16  and  O4_17 
REMARK    8  A    between atoms: O4_17  and  N2_18 
REMARK    9  A    between atoms: C27_34  and  O5_35 
REMARK   10  A    between atoms: C27_34  and  C28_36 
ROOT
HETATM    1  N2  UNL     1       2.519  68.056 -36.663  1.00  0.00    -0.271 N 
ATOM      2  H2  UNL     1       2.944  68.497 -35.846  1.00  0.00     0.194 HD
HETATM    3  C13 UNL     1       1.747  68.670 -37.510  1.00  0.00     0.032 C 
HETATM    4  C14 UNL     1       1.163  68.070 -38.745  1.00  0.00     0.030 C 
HETATM    5  C15 UNL     1       0.255  68.722 -39.497  1.00  0.00    -0.069 C 
HETATM    6  C16 UNL     1      -0.435  67.949 -40.605  1.00  0.00     0.035 C 
HETATM    7  C17 UNL     1      -1.142  68.810 -41.644  1.00  0.00     0.010 C 
HETATM    8  C18 UNL     1      -2.033  69.918 -41.046  1.00  0.00    -0.004 C 
HETATM    9  C19 UNL     1      -1.776  70.147 -39.523  1.00  0.00     0.002 C 
HETATM   10  C20 UNL     1      -2.579  71.368 -39.024  1.00  0.00     0.007 C 
HETATM   11  C21 UNL     1      -4.091  71.220 -39.316  1.00  0.00     0.013 C 
HETATM   12  C22 UNL     1      -4.386  70.933 -40.803  1.00  0.00    -0.002 C 
HETATM   13  C23 UNL     1      -4.070  72.209 -41.632  1.00  0.00     0.019 C 
HETATM   14  C24 UNL     1      -3.540  69.694 -41.225  1.00  0.00     0.002 C 
HETATM   15  C25 UNL     1      -4.088  69.343 -42.602  1.00  0.00     0.009 C 
HETATM   16  C26 UNL     1      -5.595  69.661 -42.506  1.00  0.00     0.047 C 
HETATM   17  C27 UNL     1      -5.813  70.405 -41.155  1.00  0.00     0.125 C 
HETATM   18  C30 UNL     1      -0.249  70.135 -39.182  1.00  0.00    -0.016 C 
HETATM   19  C31 UNL     1       0.534  71.180 -40.012  1.00  0.00     0.020 C 
HETATM   20  C32 UNL     1      -0.021  70.431 -37.675  1.00  0.00     0.020 C 
HETATM   21  C33 UNL     1       1.399  70.112 -37.209  1.00  0.00     0.060 C 
ENDROOT
BRANCH   1  22
HETATM   22  O4  UNL     1       2.694  66.709 -37.015  1.00  0.00    -0.271 OA
BRANCH  22  23
HETATM   23  C12 UNL     1       2.399  65.872 -35.898  1.00  0.00     0.303 C 
BRANCH  23  24
HETATM   24  C11 UNL     1       3.704  65.412 -35.271  1.00  0.00     0.244 C 
HETATM   25  N1  UNL     1       3.568  64.310 -34.445  1.00  0.00    -0.345 N 
HETATM   26  H12 UNL     1       2.618  64.174 -34.102  1.00  0.00     0.163 HD
HETATM   27  O3  UNL     1       4.780  65.956 -35.500  1.00  0.00    -0.271 OA
BRANCH  25  28
HETATM   28  C3  UNL     1       4.663  63.872 -33.568  1.00  0.00     0.188 C 
BRANCH  28  29
HETATM   29  C2  UNL     1       4.698  64.663 -32.244  1.00  0.00     0.281 C 
HETATM   30  O2  UNL     1       3.743  64.825 -31.494  1.00  0.00    -0.263 OA
BRANCH  29  31
HETATM   31  O1  UNL     1       5.919  65.257 -32.062  1.00  0.00    -0.325 OA
HETATM   32  C1  UNL     1       5.937  66.658 -32.340  1.00  0.00     0.213 C 
ENDBRANCH  29  31
ENDBRANCH  28  29
BRANCH  28  33
HETATM   33  C4  UNL     1       6.036  63.865 -34.268  1.00  0.00     0.074 C 
BRANCH  33  34
HETATM   34  C5  UNL     1       6.583  62.468 -34.463  1.00  0.00    -0.056 A 
HETATM   35  C6  UNL     1       7.952  62.216 -34.286  1.00  0.00     0.007 A 
HETATM   36  C7  UNL     1       8.462  60.928 -34.463  1.00  0.00     0.001 A 
HETATM   37  C8  UNL     1       7.615  59.883 -34.821  1.00  0.00     0.000 A 
HETATM   38  C9  UNL     1       6.257  60.126 -35.009  1.00  0.00     0.001 A 
HETATM   39  C10 UNL     1       5.742  61.413 -34.835  1.00  0.00     0.007 A 
ENDBRANCH  33  34
ENDBRANCH  28  33
ENDBRANCH  25  28
ENDBRANCH  23  24
ENDBRANCH  22  23
ENDBRANCH   1  22
BRANCH  17  40
HETATM   40  O5  UNL     1      -6.225  69.434 -40.184  1.00  0.00    -0.381 OA
HETATM   41  H34 UNL     1      -7.000  68.965 -40.540  1.00  0.00     0.211 HD
ENDBRANCH  17  40
BRANCH  17  42
HETATM   42  C28 UNL     1      -6.898  71.502 -41.262  1.00  0.00     0.158 C 
HETATM   43  C29 UNL     1      -7.528  71.736 -42.613  1.00  0.00     0.094 C 
HETATM   44  O6  UNL     1      -7.266  72.163 -40.287  1.00  0.00    -0.295 OA
ENDBRANCH  17  42
TORSDOF 10
ENDMDL
MODEL 9
REMARK minimizedAffinity -9.813797
REMARK CNNscore 0.203824013
REMARK CNNaffinity 6.10249949
REMARK  10 active torsions:
REMARK  status: ('A' for Active; 'I' for Inactive)
REMARK    1  A    between atoms: O1_2  and  C2_3 
REMARK    2  A    between atoms: C2_3  and  C3_5 
REMARK    3  A    between atoms: C3_5  and  C4_6 
REMARK    4  A    between atoms: C3_5  and  N1_13 
REMARK    5  A    between atoms: C4_6  and  C5_7 
REMARK       I    between atoms: N1_13  and  C11_14 
REMARK    6  A    between atoms: C11_14  and  C12_16 
REMARK    7  A    between atoms: C12_16  and  O4_17 
REMARK    8  A    between atoms: O4_17  and  N2_18 
REMARK    9  A    between atoms: C27_34  and  O5_35 
REMARK   10  A    between atoms: C27_34  and  C28_36 
ROOT
HETATM    1  N2  UNL     1      -9.224  48.001 -24.304  1.00  0.00    -0.271 N 
ATOM      2  H2  UNL     1      -9.930  48.214 -23.599  1.00  0.00     0.194 HD
HETATM    3  C13 UNL     1      -7.963  48.301 -24.194  1.00  0.00     0.032 C 
HETATM    4  C14 UNL     1      -6.898  47.948 -25.177  1.00  0.00     0.030 C 
HETATM    5  C15 UNL     1      -5.639  48.419 -25.069  1.00  0.00    -0.069 C 
HETATM    6  C16 UNL     1      -4.691  48.179 -26.228  1.00  0.00     0.035 C 
HETATM    7  C17 UNL     1      -3.216  48.381 -25.902  1.00  0.00     0.010 C 
HETATM    8  C18 UNL     1      -2.909  49.686 -25.140  1.00  0.00    -0.004 C 
HETATM    9  C19 UNL     1      -4.192  50.370 -24.570  1.00  0.00     0.002 C 
HETATM   10  C20 UNL     1      -3.804  51.578 -23.689  1.00  0.00     0.007 C 
HETATM   11  C21 UNL     1      -2.929  52.594 -24.458  1.00  0.00     0.013 C 
HETATM   12  C22 UNL     1      -1.679  51.946 -25.090  1.00  0.00    -0.002 C 
HETATM   13  C23 UNL     1      -0.696  51.542 -23.956  1.00  0.00     0.019 C 
HETATM   14  C24 UNL     1      -2.155  50.743 -25.958  1.00  0.00     0.002 C 
HETATM   15  C25 UNL     1      -0.902  50.342 -26.726  1.00  0.00     0.009 C 
HETATM   16  C26 UNL     1      -0.183  51.678 -27.005  1.00  0.00     0.047 C 
HETATM   17  C27 UNL     1      -0.926  52.771 -26.182  1.00  0.00     0.125 C 
HETATM   18  C30 UNL     1      -5.171  49.331 -23.930  1.00  0.00    -0.016 C 
HETATM   19  C31 UNL     1      -4.482  48.496 -22.824  1.00  0.00     0.020 C 
HETATM   20  C32 UNL     1      -6.403  50.046 -23.312  1.00  0.00     0.020 C 
HETATM   21  C33 UNL     1      -7.543  49.088 -22.971  1.00  0.00     0.060 C 
ENDROOT
BRANCH   1  22
HETATM   22  O4  UNL     1      -9.488  47.348 -25.517  1.00  0.00    -0.271 OA
BRANCH  22  23
HETATM   23  C12 UNL     1     -10.272  46.180 -25.280  1.00  0.00     0.303 C 
BRANCH  23  24
HETATM   24  C11 UNL     1     -11.742  46.559 -25.311  1.00  0.00     0.244 C 
HETATM   25  N1  UNL     1     -12.594  45.513 -25.004  1.00  0.00    -0.345 N 
HETATM   26  H12 UNL     1     -12.175  44.595 -25.137  1.00  0.00     0.163 HD
HETATM   27  O3  UNL     1     -12.130  47.697 -25.562  1.00  0.00    -0.271 OA
BRANCH  25  28
HETATM   28  C3  UNL     1     -14.045  45.621 -25.217  1.00  0.00     0.188 C 
BRANCH  28  29
HETATM   29  C2  UNL     1     -14.436  45.360 -26.686  1.00  0.00     0.281 C 
HETATM   30  O2  UNL     1     -14.721  44.264 -27.155  1.00  0.00    -0.263 OA
BRANCH  29  31
HETATM   31  O1  UNL     1     -14.324  46.502 -27.433  1.00  0.00    -0.325 OA
HETATM   32  C1  UNL     1     -13.718  46.309 -28.712  1.00  0.00     0.213 C 
ENDBRANCH  29  31
ENDBRANCH  28  29
BRANCH  28  33
HETATM   33  C4  UNL     1     -14.639  46.943 -24.693  1.00  0.00     0.074 C 
BRANCH  33  34
HETATM   34  C5  UNL     1     -15.970  46.749 -24.001  1.00  0.00    -0.056 A 
HETATM   35  C6  UNL     1     -17.167  46.940 -24.709  1.00  0.00     0.007 A 
HETATM   36  C7  UNL     1     -18.398  46.760 -24.075  1.00  0.00     0.001 A 
HETATM   37  C8  UNL     1     -18.448  46.394 -22.733  1.00  0.00     0.000 A 
HETATM   38  C9  UNL     1     -17.265  46.212 -22.021  1.00  0.00     0.001 A 
HETATM   39  C10 UNL     1     -16.031  46.393 -22.649  1.00  0.00     0.007 A 
ENDBRANCH  33  34
ENDBRANCH  28  33
ENDBRANCH  25  28
ENDBRANCH  23  24
ENDBRANCH  22  23
ENDBRANCH   1  22
BRANCH  17  40
HETATM   40  O5  UNL     1      -1.873  53.403 -27.053  1.00  0.00    -0.381 OA
HETATM   41  H34 UNL     1      -1.394  53.718 -27.840  1.00  0.00     0.211 HD
ENDBRANCH  17  40
BRANCH  17  42
HETATM   42  C28 UNL     1       0.042  53.843 -25.627  1.00  0.00     0.158 C 
HETATM   43  C29 UNL     1       0.780  53.526 -24.350  1.00  0.00     0.094 C 
HETATM   44  O6  UNL     1       0.234  54.918 -26.200  1.00  0.00    -0.295 OA
ENDBRANCH  17  42
TORSDOF 10
ENDMDL
