MODEL 1
REMARK minimizedAffinity -9.77903938
REMARK  7 active torsions:
REMARK  status: ('A' for Active; 'I' for Inactive)
REMARK    1  A    between atoms: C2_2  and  C30_33 
REMARK    2  A    between atoms: C3_3  and  C4_4 
REMARK    3  A    between atoms: C4_4  and  C5_5 
REMARK    4  A    between atoms: C5_5  and  C6_6 
REMARK    5  A    between atoms: C6_6  and  C8_8 
REMARK    6  A    between atoms: C10_10  and  O1_11 
REMARK    7  A    between atoms: C30_33  and  O5_35 
ROOT
HETATM    1  C8  UNL     1      -5.748   7.076  14.681  1.00  0.00     0.001 C 
HETATM    2  C9  UNL     1      -5.645   8.424  15.441  1.00  0.00     0.038 C 
HETATM    3  C10 UNL     1      -4.208   8.949  15.209  1.00  0.00     0.131 C 
HETATM    4  C11 UNL     1      -3.662   8.105  14.024  1.00  0.00     0.014 C 
HETATM    5  C12 UNL     1      -4.184   8.731  12.690  1.00  0.00     0.023 C 
HETATM    6  C13 UNL     1      -2.156   7.949  13.812  1.00  0.00    -0.058 C 
HETATM    7  C14 UNL     1      -1.645   6.865  13.171  1.00  0.00    -0.000 C 
HETATM    8  C15 UNL     1      -2.591   5.732  12.775  1.00  0.00     0.157 C 
HETATM    9  O2  UNL     1      -2.198   4.786  12.094  1.00  0.00    -0.293 OA
HETATM   10  C16 UNL     1      -4.050   5.757  13.217  1.00  0.00     0.094 C 
HETATM   11  C17 UNL     1      -4.262   6.706  14.395  1.00  0.00    -0.019 C 
HETATM   12  C18 UNL     1      -3.606   6.055  15.651  1.00  0.00     0.017 C 
HETATM   13  C19 UNL     1      -0.140   6.712  12.829  1.00  0.00    -0.008 C 
HETATM   14  C20 UNL     1       0.417   5.639  13.796  1.00  0.00     0.021 C 
HETATM   15  C21 UNL     1       0.079   6.230  11.359  1.00  0.00     0.022 C 
HETATM   16  C22 UNL     1       1.371   6.687  10.687  1.00  0.00     0.080 C 
HETATM   17  C23 UNL     1       2.459   6.982  11.688  1.00  0.00     0.135 C 
HETATM   18  O3  UNL     1       3.560   6.437  11.606  1.00  0.00    -0.297 OA
HETATM   19  C24 UNL     1       2.147   8.053  12.738  1.00  0.00     0.018 C 
HETATM   20  C25 UNL     1       2.972   7.793  14.012  1.00  0.00     0.023 C 
HETATM   21  C26 UNL     1       2.624   9.397  12.147  1.00  0.00     0.023 C 
HETATM   22  C27 UNL     1       0.596   8.098  12.971  1.00  0.00     0.014 C 
HETATM   23  C28 UNL     1       0.197   8.809  14.268  1.00  0.00     0.011 C 
HETATM   24  C29 UNL     1      -1.300   9.098  14.285  1.00  0.00     0.036 C 
ENDROOT
BRANCH   1  25
HETATM   25  C6  UNL     1      -6.679   5.988  15.293  1.00  0.00    -0.013 C 
HETATM   26  C7  UNL     1      -7.390   6.390  16.591  1.00  0.00     0.010 C 
BRANCH  25  27
HETATM   27  C5  UNL     1      -7.726   5.557  14.231  1.00  0.00     0.008 C 
BRANCH  27  28
HETATM   28  C4  UNL     1      -7.513   4.141  13.686  1.00  0.00     0.028 C 
BRANCH  28  29
HETATM   29  C3  UNL     1      -6.555   4.143  12.526  1.00  0.00    -0.013 C 
HETATM   30  C2  UNL     1      -6.166   3.107  11.755  1.00  0.00     0.008 C 
HETATM   31  C1  UNL     1      -5.122   3.265  10.688  1.00  0.00     0.055 C 
BRANCH  30  32
HETATM   32  C30 UNL     1      -6.687   1.724  11.873  1.00  0.00     0.171 C 
HETATM   33  O4  UNL     1      -6.217   0.747  11.317  1.00  0.00    -0.646 OA
BRANCH  32  34
HETATM   34  O5  UNL     1      -7.818   1.635  12.589  1.00  0.00    -0.773 OA
HETATM   35  H44 UNL     1      -8.046   0.684  12.532  1.00  0.00     0.167 HD
ENDBRANCH  32  34
ENDBRANCH  30  32
ENDBRANCH  28  29
ENDBRANCH  27  28
ENDBRANCH  25  27
ENDBRANCH   1  25
BRANCH   3  36
HETATM   36  O1  UNL     1      -4.218  10.345  14.947  1.00  0.00    -0.394 OA
HETATM   37  H17 UNL     1      -4.645  10.782  15.704  1.00  0.00     0.210 HD
ENDBRANCH   3  36
TORSDOF 7
ENDMDL
MODEL 2
REMARK minimizedAffinity -9.77145386
REMARK  7 active torsions:
REMARK  status: ('A' for Active; 'I' for Inactive)
REMARK    1  A    between atoms: C2_2  and  C30_33 
REMARK    2  A    between atoms: C3_3  and  C4_4 
REMARK    3  A    between atoms: C4_4  and  C5_5 
REMARK    4  A    between atoms: C5_5  and  C6_6 
REMARK    5  A    between atoms: C6_6  and  C8_8 
REMARK    6  A    between atoms: C10_10  and  O1_11 
REMARK    7  A    between atoms: C30_33  and  O5_35 
ROOT
HETATM    1  C8  UNL     1       1.124   7.269  13.000  1.00  0.00     0.001 C 
HETATM    2  C9  UNL     1       0.308   8.313  13.806  1.00  0.00     0.038 C 
HETATM    3  C10 UNL     1      -1.141   7.773  13.881  1.00  0.00     0.131 C 
HETATM    4  C11 UNL     1      -1.032   6.279  13.468  1.00  0.00     0.014 C 
HETATM    5  C12 UNL     1      -0.582   5.453  14.717  1.00  0.00     0.023 C 
HETATM    6  C13 UNL     1      -2.252   5.532  12.932  1.00  0.00    -0.058 C 
HETATM    7  C14 UNL     1      -2.114   4.463  12.103  1.00  0.00    -0.000 C 
HETATM    8  C15 UNL     1      -0.717   4.095  11.606  1.00  0.00     0.157 C 
HETATM    9  O2  UNL     1      -0.526   3.072  10.950  1.00  0.00    -0.293 OA
HETATM   10  C16 UNL     1       0.475   4.993  11.922  1.00  0.00     0.094 C 
HETATM   11  C17 UNL     1       0.027   6.398  12.318  1.00  0.00    -0.019 C 
HETATM   12  C18 UNL     1      -0.516   7.101  11.037  1.00  0.00     0.017 C 
HETATM   13  C19 UNL     1      -3.310   3.602  11.623  1.00  0.00    -0.008 C 
HETATM   14  C20 UNL     1      -3.528   3.955  10.131  1.00  0.00     0.021 C 
HETATM   15  C21 UNL     1      -3.012   2.072  11.741  1.00  0.00     0.022 C 
HETATM   16  C22 UNL     1      -4.219   1.169  11.984  1.00  0.00     0.080 C 
HETATM   17  C23 UNL     1      -5.500   1.780  11.473  1.00  0.00     0.135 C 
HETATM   18  O3  UNL     1      -6.221   1.170  10.684  1.00  0.00    -0.297 OA
HETATM   19  C24 UNL     1      -5.886   3.141  12.059  1.00  0.00     0.018 C 
HETATM   20  C25 UNL     1      -6.749   3.919  11.048  1.00  0.00     0.023 C 
HETATM   21  C26 UNL     1      -6.769   2.852  13.292  1.00  0.00     0.023 C 
HETATM   22  C27 UNL     1      -4.582   3.890  12.507  1.00  0.00     0.014 C 
HETATM   23  C28 UNL     1      -4.786   5.395  12.713  1.00  0.00     0.011 C 
HETATM   24  C29 UNL     1      -3.592   6.005  13.439  1.00  0.00     0.036 C 
ENDROOT
BRANCH   1  25
HETATM   25  C6  UNL     1       2.294   7.807  12.126  1.00  0.00    -0.013 C 
HETATM   26  C7  UNL     1       3.265   8.754  12.843  1.00  0.00     0.010 C 
BRANCH  25  27
HETATM   27  C5  UNL     1       3.075   6.607  11.524  1.00  0.00     0.008 C 
BRANCH  27  28
HETATM   28  C4  UNL     1       3.941   6.972  10.314  1.00  0.00     0.028 C 
BRANCH  28  29
HETATM   29  C3  UNL     1       3.394   6.362   9.052  1.00  0.00    -0.013 C 
HETATM   30  C2  UNL     1       2.736   6.969   8.043  1.00  0.00     0.008 C 
HETATM   31  C1  UNL     1       2.170   6.191   6.890  1.00  0.00     0.055 C 
BRANCH  30  32
HETATM   32  C30 UNL     1       2.477   8.425   7.957  1.00  0.00     0.171 C 
HETATM   33  O4  UNL     1       3.281   9.261   7.585  1.00  0.00    -0.646 OA
BRANCH  32  34
HETATM   34  O5  UNL     1       1.273   8.786   8.429  1.00  0.00    -0.773 OA
HETATM   35  H44 UNL     1       1.281   9.761   8.343  1.00  0.00     0.167 HD
ENDBRANCH  32  34
ENDBRANCH  30  32
ENDBRANCH  28  29
ENDBRANCH  27  28
ENDBRANCH  25  27
ENDBRANCH   1  25
BRANCH   3  36
HETATM   36  O1  UNL     1      -1.681   7.959  15.181  1.00  0.00    -0.394 OA
HETATM   37  H17 UNL     1      -1.638   8.909  15.384  1.00  0.00     0.210 HD
ENDBRANCH   3  36
TORSDOF 7
ENDMDL
MODEL 3
REMARK minimizedAffinity -9.43474483
REMARK  7 active torsions:
REMARK  status: ('A' for Active; 'I' for Inactive)
REMARK    1  A    between atoms: C2_2  and  C30_33 
REMARK    2  A    between atoms: C3_3  and  C4_4 
REMARK    3  A    between atoms: C4_4  and  C5_5 
REMARK    4  A    between atoms: C5_5  and  C6_6 
REMARK    5  A    between atoms: C6_6  and  C8_8 
REMARK    6  A    between atoms: C10_10  and  O1_11 
REMARK    7  A    between atoms: C30_33  and  O5_35 
ROOT
HETATM    1  C8  UNL     1      -1.039   5.876  11.454  1.00  0.00     0.001 C 
HETATM    2  C9  UNL     1      -1.788   6.865  12.384  1.00  0.00     0.038 C 
HETATM    3  C10 UNL     1      -0.766   7.961  12.772  1.00  0.00     0.131 C 
HETATM    4  C11 UNL     1       0.403   7.792  11.761  1.00  0.00     0.014 C 
HETATM    5  C12 UNL     1       0.015   8.521  10.434  1.00  0.00     0.023 C 
HETATM    6  C13 UNL     1       1.799   8.317  12.095  1.00  0.00    -0.058 C 
HETATM    7  C14 UNL     1       2.909   7.765  11.537  1.00  0.00    -0.000 C 
HETATM    8  C15 UNL     1       2.752   6.521  10.665  1.00  0.00     0.157 C 
HETATM    9  O2  UNL     1       3.707   6.054  10.047  1.00  0.00    -0.293 OA
HETATM   10  C16 UNL     1       1.396   5.833  10.540  1.00  0.00     0.094 C 
HETATM   11  C17 UNL     1       0.461   6.228  11.682  1.00  0.00    -0.019 C 
HETATM   12  C18 UNL     1       0.993   5.553  12.984  1.00  0.00     0.017 C 
HETATM   13  C19 UNL     1       4.337   8.330  11.753  1.00  0.00    -0.008 C 
HETATM   14  C20 UNL     1       5.060   7.333  12.692  1.00  0.00     0.021 C 
HETATM   15  C21 UNL     1       5.133   8.429  10.411  1.00  0.00     0.022 C 
HETATM   16  C22 UNL     1       6.181   9.537  10.333  1.00  0.00     0.080 C 
HETATM   17  C23 UNL     1       6.696   9.932  11.694  1.00  0.00     0.135 C 
HETATM   18  O3  UNL     1       7.901   9.919  11.943  1.00  0.00    -0.297 OA
HETATM   19  C24 UNL     1       5.652  10.430  12.698  1.00  0.00     0.018 C 
HETATM   20  C25 UNL     1       6.137  10.157  14.134  1.00  0.00     0.023 C 
HETATM   21  C26 UNL     1       5.572  11.962  12.523  1.00  0.00     0.023 C 
HETATM   22  C27 UNL     1       4.265   9.786  12.351  1.00  0.00     0.014 C 
HETATM   23  C28 UNL     1       3.254   9.864  13.500  1.00  0.00     0.011 C 
HETATM   24  C29 UNL     1       1.853   9.516  13.009  1.00  0.00     0.036 C 
ENDROOT
BRANCH   1  25
HETATM   25  C6  UNL     1      -1.468   4.380  11.520  1.00  0.00    -0.013 C 
HETATM   26  C7  UNL     1      -0.344   3.391  11.853  1.00  0.00     0.010 C 
BRANCH  25  27
HETATM   27  C5  UNL     1      -2.626   4.227  12.543  1.00  0.00     0.008 C 
BRANCH  27  28
HETATM   28  C4  UNL     1      -3.977   3.884  11.908  1.00  0.00     0.028 C 
BRANCH  28  29
HETATM   29  C3  UNL     1      -5.114   4.218  12.834  1.00  0.00    -0.013 C 
HETATM   30  C2  UNL     1      -6.306   3.599  12.959  1.00  0.00     0.008 C 
HETATM   31  C1  UNL     1      -7.374   4.123  13.875  1.00  0.00     0.055 C 
BRANCH  30  32
HETATM   32  C30 UNL     1      -6.706   2.379  12.220  1.00  0.00     0.171 C 
HETATM   33  O4  UNL     1      -6.095   1.890  11.287  1.00  0.00    -0.646 OA
BRANCH  32  34
HETATM   34  O5  UNL     1      -7.891   1.882  12.607  1.00  0.00    -0.773 OA
HETATM   35  H44 UNL     1      -8.025   1.122  12.003  1.00  0.00     0.167 HD
ENDBRANCH  32  34
ENDBRANCH  30  32
ENDBRANCH  28  29
ENDBRANCH  27  28
ENDBRANCH  25  27
ENDBRANCH   1  25
BRANCH   3  36
HETATM   36  O1  UNL     1      -1.365   9.247  12.729  1.00  0.00    -0.394 OA
HETATM   37  H17 UNL     1      -2.129   9.236  13.331  1.00  0.00     0.210 HD
ENDBRANCH   3  36
TORSDOF 7
ENDMDL
MODEL 4
REMARK minimizedAffinity -9.43276405
REMARK  7 active torsions:
REMARK  status: ('A' for Active; 'I' for Inactive)
REMARK    1  A    between atoms: C2_2  and  C30_33 
REMARK    2  A    between atoms: C3_3  and  C4_4 
REMARK    3  A    between atoms: C4_4  and  C5_5 
REMARK    4  A    between atoms: C5_5  and  C6_6 
REMARK    5  A    between atoms: C6_6  and  C8_8 
REMARK    6  A    between atoms: C10_10  and  O1_11 
REMARK    7  A    between atoms: C30_33  and  O5_35 
ROOT
HETATM    1  C8  UNL     1      -2.252   6.197  13.180  1.00  0.00     0.001 C 
HETATM    2  C9  UNL     1      -2.220   5.389  11.857  1.00  0.00     0.038 C 
HETATM    3  C10 UNL     1      -0.760   5.444  11.345  1.00  0.00     0.131 C 
HETATM    4  C11 UNL     1       0.071   5.937  12.563  1.00  0.00     0.014 C 
HETATM    5  C12 UNL     1       0.365   4.711  13.487  1.00  0.00     0.023 C 
HETATM    6  C13 UNL     1       1.433   6.598  12.356  1.00  0.00    -0.058 C 
HETATM    7  C14 UNL     1       1.933   7.478  13.264  1.00  0.00    -0.000 C 
HETATM    8  C15 UNL     1       1.053   7.899  14.440  1.00  0.00     0.157 C 
HETATM    9  O2  UNL     1       1.499   8.600  15.347  1.00  0.00    -0.293 OA
HETATM   10  C16 UNL     1      -0.403   7.449  14.512  1.00  0.00     0.094 C 
HETATM   11  C17 UNL     1      -0.919   7.003  13.147  1.00  0.00    -0.019 C 
HETATM   12  C18 UNL     1      -1.068   8.274  12.257  1.00  0.00     0.017 C 
HETATM   13  C19 UNL     1       3.354   8.088  13.160  1.00  0.00    -0.008 C 
HETATM   14  C20 UNL     1       3.161   9.568  12.747  1.00  0.00     0.021 C 
HETATM   15  C21 UNL     1       4.111   8.041  14.527  1.00  0.00     0.022 C 
HETATM   16  C22 UNL     1       5.632   7.934  14.449  1.00  0.00     0.080 C 
HETATM   17  C23 UNL     1       6.177   8.494  13.160  1.00  0.00     0.135 C 
HETATM   18  O3  UNL     1       7.046   9.365  13.166  1.00  0.00    -0.297 OA
HETATM   19  C24 UNL     1       5.658   7.857  11.867  1.00  0.00     0.018 C 
HETATM   20  C25 UNL     1       5.732   8.877  10.716  1.00  0.00     0.023 C 
HETATM   21  C26 UNL     1       6.630   6.707  11.526  1.00  0.00     0.023 C 
HETATM   22  C27 UNL     1       4.224   7.277  12.127  1.00  0.00     0.014 C 
HETATM   23  C28 UNL     1       3.440   6.998  10.840  1.00  0.00     0.011 C 
HETATM   24  C29 UNL     1       2.203   6.157  11.136  1.00  0.00     0.036 C 
ENDROOT
BRANCH   1  25
HETATM   25  C6  UNL     1      -3.570   6.956  13.513  1.00  0.00    -0.013 C 
HETATM   26  C7  UNL     1      -3.608   8.425  13.073  1.00  0.00     0.010 C 
BRANCH  25  27
HETATM   27  C5  UNL     1      -4.771   6.190  12.895  1.00  0.00     0.008 C 
BRANCH  27  28
HETATM   28  C4  UNL     1      -5.057   4.840  13.561  1.00  0.00     0.028 C 
BRANCH  28  29
HETATM   29  C3  UNL     1      -5.109   3.733  12.544  1.00  0.00    -0.013 C 
HETATM   30  C2  UNL     1      -6.107   2.857  12.307  1.00  0.00     0.008 C 
HETATM   31  C1  UNL     1      -5.959   1.744  11.309  1.00  0.00     0.055 C 
BRANCH  30  32
HETATM   32  C30 UNL     1      -7.422   2.867  12.991  1.00  0.00     0.171 C 
HETATM   33  O4  UNL     1      -7.749   3.640  13.874  1.00  0.00    -0.646 OA
BRANCH  32  34
HETATM   34  O5  UNL     1      -8.228   1.860  12.619  1.00  0.00    -0.773 OA
HETATM   35  H44 UNL     1      -9.018   1.985  13.184  1.00  0.00     0.167 HD
ENDBRANCH  32  34
ENDBRANCH  30  32
ENDBRANCH  28  29
ENDBRANCH  27  28
ENDBRANCH  25  27
ENDBRANCH   1  25
BRANCH   3  36
HETATM   36  O1  UNL     1      -0.348   4.176  10.859  1.00  0.00    -0.394 OA
HETATM   37  H17 UNL     1      -0.968   3.915  10.157  1.00  0.00     0.210 HD
ENDBRANCH   3  36
TORSDOF 7
ENDMDL
MODEL 5
REMARK minimizedAffinity -9.3124218
REMARK  7 active torsions:
REMARK  status: ('A' for Active; 'I' for Inactive)
REMARK    1  A    between atoms: C2_2  and  C30_33 
REMARK    2  A    between atoms: C3_3  and  C4_4 
REMARK    3  A    between atoms: C4_4  and  C5_5 
REMARK    4  A    between atoms: C5_5  and  C6_6 
REMARK    5  A    between atoms: C6_6  and  C8_8 
REMARK    6  A    between atoms: C10_10  and  O1_11 
REMARK    7  A    between atoms: C30_33  and  O5_35 
ROOT
HETATM    1  C8  UNL     1      -1.494   6.714  13.294  1.00  0.00     0.001 C 
HETATM    2  C9  UNL     1      -1.497   6.585  14.839  1.00  0.00     0.038 C 
HETATM    3  C10 UNL     1      -0.091   7.021  15.317  1.00  0.00     0.131 C 
HETATM    4  C11 UNL     1       0.538   7.749  14.096  1.00  0.00     0.014 C 
HETATM    5  C12 UNL     1       0.009   9.220  14.073  1.00  0.00     0.023 C 
HETATM    6  C13 UNL     1       2.055   7.883  13.969  1.00  0.00    -0.058 C 
HETATM    7  C14 UNL     1       2.650   8.016  12.754  1.00  0.00    -0.000 C 
HETATM    8  C15 UNL     1       1.788   7.900  11.498  1.00  0.00     0.157 C 
HETATM    9  O2  UNL     1       2.258   8.126  10.383  1.00  0.00    -0.293 OA
HETATM   10  C16 UNL     1       0.320   7.503  11.605  1.00  0.00     0.094 C 
HETATM   11  C17 UNL     1       0.019   6.826  12.940  1.00  0.00    -0.019 C 
HETATM   12  C18 UNL     1       0.684   5.416  12.918  1.00  0.00     0.017 C 
HETATM   13  C19 UNL     1       4.169   8.269  12.577  1.00  0.00    -0.008 C 
HETATM   14  C20 UNL     1       4.770   6.945  12.044  1.00  0.00     0.021 C 
HETATM   15  C21 UNL     1       4.455   9.406  11.542  1.00  0.00     0.022 C 
HETATM   16  C22 UNL     1       5.732  10.212  11.766  1.00  0.00     0.080 C 
HETATM   17  C23 UNL     1       6.774   9.430  12.525  1.00  0.00     0.135 C 
HETATM   18  O3  UNL     1       7.909   9.281  12.072  1.00  0.00    -0.297 OA
HETATM   19  C24 UNL     1       6.367   8.920  13.911  1.00  0.00     0.018 C 
HETATM   20  C25 UNL     1       7.176   7.657  14.261  1.00  0.00     0.023 C 
HETATM   21  C26 UNL     1       6.772  10.019  14.917  1.00  0.00     0.023 C 
HETATM   22  C27 UNL     1       4.812   8.721  13.943  1.00  0.00     0.014 C 
HETATM   23  C28 UNL     1       4.336   7.836  15.100  1.00  0.00     0.011 C 
HETATM   24  C29 UNL     1       2.824   7.935  15.266  1.00  0.00     0.036 C 
ENDROOT
BRANCH   1  25
HETATM   25  C6  UNL     1      -2.369   5.701  12.498  1.00  0.00    -0.013 C 
HETATM   26  C7  UNL     1      -1.597   4.769  11.556  1.00  0.00     0.010 C 
BRANCH  25  27
HETATM   27  C5  UNL     1      -3.212   4.861  13.495  1.00  0.00     0.008 C 
BRANCH  27  28
HETATM   28  C4  UNL     1      -4.688   4.730  13.107  1.00  0.00     0.028 C 
BRANCH  28  29
HETATM   29  C3  UNL     1      -4.906   3.565  12.181  1.00  0.00    -0.013 C 
HETATM   30  C2  UNL     1      -5.978   2.752  12.093  1.00  0.00     0.008 C 
HETATM   31  C1  UNL     1      -5.995   1.567  11.170  1.00  0.00     0.055 C 
BRANCH  30  32
HETATM   32  C30 UNL     1      -7.224   2.906  12.880  1.00  0.00     0.171 C 
HETATM   33  O4  UNL     1      -7.425   3.770  13.716  1.00  0.00    -0.646 OA
BRANCH  32  34
HETATM   34  O5  UNL     1      -8.118   1.928  12.667  1.00  0.00    -0.773 OA
HETATM   35  H44 UNL     1      -8.846   2.151  13.283  1.00  0.00     0.167 HD
ENDBRANCH  32  34
ENDBRANCH  30  32
ENDBRANCH  28  29
ENDBRANCH  27  28
ENDBRANCH  25  27
ENDBRANCH   1  25
BRANCH   3  36
HETATM   36  O1  UNL     1      -0.183   7.840  16.473  1.00  0.00    -0.394 OA
HETATM   37  H17 UNL     1      -0.656   7.333  17.155  1.00  0.00     0.210 HD
ENDBRANCH   3  36
TORSDOF 7
ENDMDL
MODEL 6
REMARK minimizedAffinity -9.28585625
REMARK  7 active torsions:
REMARK  status: ('A' for Active; 'I' for Inactive)
REMARK    1  A    between atoms: C2_2  and  C30_33 
REMARK    2  A    between atoms: C3_3  and  C4_4 
REMARK    3  A    between atoms: C4_4  and  C5_5 
REMARK    4  A    between atoms: C5_5  and  C6_6 
REMARK    5  A    between atoms: C6_6  and  C8_8 
REMARK    6  A    between atoms: C10_10  and  O1_11 
REMARK    7  A    between atoms: C30_33  and  O5_35 
ROOT
HETATM    1  C8  UNL     1       0.569   5.879  12.917  1.00  0.00     0.001 C 
HETATM    2  C9  UNL     1       1.047   6.764  14.098  1.00  0.00     0.038 C 
HETATM    3  C10 UNL     1      -0.222   7.157  14.892  1.00  0.00     0.131 C 
HETATM    4  C11 UNL     1      -1.325   6.185  14.388  1.00  0.00     0.014 C 
HETATM    5  C12 UNL     1      -1.176   4.830  15.155  1.00  0.00     0.023 C 
HETATM    6  C13 UNL     1      -2.803   6.547  14.532  1.00  0.00    -0.058 C 
HETATM    7  C14 UNL     1      -3.737   6.035  13.688  1.00  0.00    -0.000 C 
HETATM    8  C15 UNL     1      -3.273   5.187  12.505  1.00  0.00     0.157 C 
HETATM    9  O2  UNL     1      -4.083   4.607  11.783  1.00  0.00    -0.293 OA
HETATM   10  C16 UNL     1      -1.786   5.038  12.201  1.00  0.00     0.094 C 
HETATM   11  C17 UNL     1      -0.966   6.142  12.863  1.00  0.00    -0.019 C 
HETATM   12  C18 UNL     1      -1.269   7.474  12.111  1.00  0.00     0.017 C 
HETATM   13  C19 UNL     1      -5.259   6.279  13.858  1.00  0.00    -0.008 C 
HETATM   14  C20 UNL     1      -5.669   7.261  12.734  1.00  0.00     0.021 C 
HETATM   15  C21 UNL     1      -6.083   4.960  13.702  1.00  0.00     0.022 C 
HETATM   16  C22 UNL     1      -7.390   4.887  14.488  1.00  0.00     0.080 C 
HETATM   17  C23 UNL     1      -7.961   6.253  14.772  1.00  0.00     0.135 C 
HETATM   18  O3  UNL     1      -9.113   6.538  14.446  1.00  0.00    -0.297 OA
HETATM   19  C24 UNL     1      -7.066   7.215  15.559  1.00  0.00     0.018 C 
HETATM   20  C25 UNL     1      -7.428   8.671  15.210  1.00  0.00     0.023 C 
HETATM   21  C26 UNL     1      -7.402   7.003  17.051  1.00  0.00     0.023 C 
HETATM   22  C27 UNL     1      -5.565   6.842  15.298  1.00  0.00     0.014 C 
HETATM   23  C28 UNL     1      -4.586   7.959  15.676  1.00  0.00     0.011 C 
HETATM   24  C29 UNL     1      -3.155   7.436  15.700  1.00  0.00     0.036 C 
ENDROOT
BRANCH   1  25
HETATM   25  C6  UNL     1       1.383   5.965  11.593  1.00  0.00    -0.013 C 
HETATM   26  C7  UNL     1       0.558   5.829  10.307  1.00  0.00     0.010 C 
BRANCH  25  27
HETATM   27  C5  UNL     1       2.179   7.299  11.570  1.00  0.00     0.008 C 
BRANCH  27  28
HETATM   28  C4  UNL     1       3.474   7.237  10.754  1.00  0.00     0.028 C 
BRANCH  28  29
HETATM   29  C3  UNL     1       3.268   6.497   9.461  1.00  0.00    -0.013 C 
HETATM   30  C2  UNL     1       2.824   6.978   8.281  1.00  0.00     0.008 C 
HETATM   31  C1  UNL     1       2.584   6.077   7.103  1.00  0.00     0.055 C 
BRANCH  30  32
HETATM   32  C30 UNL     1       2.508   8.400   8.012  1.00  0.00     0.171 C 
HETATM   33  O4  UNL     1       3.302   9.233   7.611  1.00  0.00    -0.646 OA
BRANCH  32  34
HETATM   34  O5  UNL     1       1.254   8.745   8.346  1.00  0.00    -0.773 OA
HETATM   35  H44 UNL     1       1.226   9.704   8.151  1.00  0.00     0.167 HD
ENDBRANCH  32  34
ENDBRANCH  30  32
ENDBRANCH  28  29
ENDBRANCH  27  28
ENDBRANCH  25  27
ENDBRANCH   1  25
BRANCH   3  36
HETATM   36  O1  UNL     1       0.011   7.067  16.290  1.00  0.00    -0.394 OA
HETATM   37  H17 UNL     1       0.763   7.646  16.500  1.00  0.00     0.210 HD
ENDBRANCH   3  36
TORSDOF 7
ENDMDL
MODEL 7
REMARK minimizedAffinity -8.86323166
REMARK  7 active torsions:
REMARK  status: ('A' for Active; 'I' for Inactive)
REMARK    1  A    between atoms: C2_2  and  C30_33 
REMARK    2  A    between atoms: C3_3  and  C4_4 
REMARK    3  A    between atoms: C4_4  and  C5_5 
REMARK    4  A    between atoms: C5_5  and  C6_6 
REMARK    5  A    between atoms: C6_6  and  C8_8 
REMARK    6  A    between atoms: C10_10  and  O1_11 
REMARK    7  A    between atoms: C30_33  and  O5_35 
ROOT
HETATM    1  C8  UNL     1       3.760   8.052  11.019  1.00  0.00     0.001 C 
HETATM    2  C9  UNL     1       3.959   6.679  10.325  1.00  0.00     0.038 C 
HETATM    3  C10 UNL     1       2.629   5.905  10.494  1.00  0.00     0.131 C 
HETATM    4  C11 UNL     1       1.594   6.982  10.926  1.00  0.00     0.014 C 
HETATM    5  C12 UNL     1       1.086   7.719   9.645  1.00  0.00     0.023 C 
HETATM    6  C13 UNL     1       0.321   6.579  11.669  1.00  0.00    -0.058 C 
HETATM    7  C14 UNL     1      -0.317   7.450  12.495  1.00  0.00    -0.000 C 
HETATM    8  C15 UNL     1       0.331   8.805  12.774  1.00  0.00     0.157 C 
HETATM    9  O2  UNL     1      -0.260   9.670  13.419  1.00  0.00    -0.293 OA
HETATM   10  C16 UNL     1       1.729   9.114  12.248  1.00  0.00     0.094 C 
HETATM   11  C17 UNL     1       2.486   7.837  11.890  1.00  0.00    -0.019 C 
HETATM   12  C18 UNL     1       2.846   7.110  13.221  1.00  0.00     0.017 C 
HETATM   13  C19 UNL     1      -1.670   7.132  13.182  1.00  0.00    -0.008 C 
HETATM   14  C20 UNL     1      -1.352   6.898  14.679  1.00  0.00     0.021 C 
HETATM   15  C21 UNL     1      -2.680   8.319  13.060  1.00  0.00     0.022 C 
HETATM   16  C22 UNL     1      -4.159   7.943  13.035  1.00  0.00     0.080 C 
HETATM   17  C23 UNL     1      -4.424   6.630  13.726  1.00  0.00     0.135 C 
HETATM   18  O3  UNL     1      -5.249   6.548  14.636  1.00  0.00    -0.297 OA
HETATM   19  C24 UNL     1      -3.685   5.408  13.171  1.00  0.00     0.018 C 
HETATM   20  C25 UNL     1      -3.500   4.359  14.285  1.00  0.00     0.023 C 
HETATM   21  C26 UNL     1      -4.610   4.785  12.103  1.00  0.00     0.023 C 
HETATM   22  C27 UNL     1      -2.349   5.883  12.502  1.00  0.00     0.014 C 
HETATM   23  C28 UNL     1      -1.339   4.750  12.290  1.00  0.00     0.011 C 
HETATM   24  C29 UNL     1      -0.212   5.199  11.368  1.00  0.00     0.036 C 
ENDROOT
BRANCH   1  25
HETATM   25  C6  UNL     1       5.012   8.697  11.682  1.00  0.00    -0.013 C 
HETATM   26  C7  UNL     1       4.714   9.712  12.793  1.00  0.00     0.010 C 
BRANCH  25  27
HETATM   27  C5  UNL     1       5.936   7.575  12.228  1.00  0.00     0.008 C 
BRANCH  27  28
HETATM   28  C4  UNL     1       6.443   7.824  13.652  1.00  0.00     0.028 C 
BRANCH  28  29
HETATM   29  C3  UNL     1       7.940   7.973  13.677  1.00  0.00    -0.013 C 
HETATM   30  C2  UNL     1       8.751   8.125  14.743  1.00  0.00     0.008 C 
HETATM   31  C1  UNL     1      10.227   8.356  14.586  1.00  0.00     0.055 C 
BRANCH  30  32
HETATM   32  C30 UNL     1       8.304   8.105  16.156  1.00  0.00     0.171 C 
HETATM   33  O4  UNL     1       7.405   8.786  16.618  1.00  0.00    -0.646 OA
BRANCH  32  34
HETATM   34  O5  UNL     1       9.053   7.321  16.946  1.00  0.00    -0.773 OA
HETATM   35  H44 UNL     1       8.660   7.453  17.833  1.00  0.00     0.167 HD
ENDBRANCH  32  34
ENDBRANCH  30  32
ENDBRANCH  28  29
ENDBRANCH  27  28
ENDBRANCH  25  27
ENDBRANCH   1  25
BRANCH   3  36
HETATM   36  O1  UNL     1       2.278   5.238   9.292  1.00  0.00    -0.394 OA
HETATM   37  H17 UNL     1       3.013   4.646   9.059  1.00  0.00     0.210 HD
ENDBRANCH   3  36
TORSDOF 7
ENDMDL
MODEL 8
REMARK minimizedAffinity -8.67780018
REMARK  7 active torsions:
REMARK  status: ('A' for Active; 'I' for Inactive)
REMARK    1  A    between atoms: C2_2  and  C30_33 
REMARK    2  A    between atoms: C3_3  and  C4_4 
REMARK    3  A    between atoms: C4_4  and  C5_5 
REMARK    4  A    between atoms: C5_5  and  C6_6 
REMARK    5  A    between atoms: C6_6  and  C8_8 
REMARK    6  A    between atoms: C10_10  and  O1_11 
REMARK    7  A    between atoms: C30_33  and  O5_35 
ROOT
HETATM    1  C8  UNL     1      -1.519   6.789  13.383  1.00  0.00     0.001 C 
HETATM    2  C9  UNL     1      -1.477   6.542  14.913  1.00  0.00     0.038 C 
HETATM    3  C10 UNL     1      -0.048   6.913  15.378  1.00  0.00     0.131 C 
HETATM    4  C11 UNL     1       0.558   7.721  14.196  1.00  0.00     0.014 C 
HETATM    5  C12 UNL     1       0.060   9.199  14.303  1.00  0.00     0.023 C 
HETATM    6  C13 UNL     1       2.073   7.836  14.033  1.00  0.00    -0.058 C 
HETATM    7  C14 UNL     1       2.634   8.050  12.813  1.00  0.00    -0.000 C 
HETATM    8  C15 UNL     1       1.732   8.047  11.579  1.00  0.00     0.157 C 
HETATM    9  O2  UNL     1       2.173   8.349  10.471  1.00  0.00    -0.293 OA
HETATM   10  C16 UNL     1       0.259   7.670  11.702  1.00  0.00     0.094 C 
HETATM   11  C17 UNL     1      -0.015   6.899  12.991  1.00  0.00    -0.019 C 
HETATM   12  C18 UNL     1       0.619   5.483  12.840  1.00  0.00     0.017 C 
HETATM   13  C19 UNL     1       4.152   8.287  12.607  1.00  0.00    -0.008 C 
HETATM   14  C20 UNL     1       4.708   6.997  11.956  1.00  0.00     0.021 C 
HETATM   15  C21 UNL     1       4.430   9.494  11.653  1.00  0.00     0.022 C 
HETATM   16  C22 UNL     1       5.731  10.257  11.897  1.00  0.00     0.080 C 
HETATM   17  C23 UNL     1       6.778   9.399  12.560  1.00  0.00     0.135 C 
HETATM   18  O3  UNL     1       7.895   9.265  12.061  1.00  0.00    -0.297 OA
HETATM   19  C24 UNL     1       6.403   8.793  13.916  1.00  0.00     0.018 C 
HETATM   20  C25 UNL     1       7.195   7.491  14.143  1.00  0.00     0.023 C 
HETATM   21  C26 UNL     1       6.861   9.803  14.989  1.00  0.00     0.023 C 
HETATM   22  C27 UNL     1       4.845   8.621  13.982  1.00  0.00     0.014 C 
HETATM   23  C28 UNL     1       4.386   7.658  15.083  1.00  0.00     0.011 C 
HETATM   24  C29 UNL     1       2.883   7.773  15.305  1.00  0.00     0.036 C 
ENDROOT
BRANCH   1  25
HETATM   25  C6  UNL     1      -2.438   5.856  12.541  1.00  0.00    -0.013 C 
HETATM   26  C7  UNL     1      -2.168   4.355  12.698  1.00  0.00     0.010 C 
BRANCH  25  27
HETATM   27  C5  UNL     1      -3.923   6.162  12.879  1.00  0.00     0.008 C 
BRANCH  27  28
HETATM   28  C4  UNL     1      -4.591   5.103  13.762  1.00  0.00     0.028 C 
BRANCH  28  29
HETATM   29  C3  UNL     1      -5.846   4.575  13.122  1.00  0.00    -0.013 C 
HETATM   30  C2  UNL     1      -7.105   4.594  13.604  1.00  0.00     0.008 C 
HETATM   31  C1  UNL     1      -8.239   3.934  12.872  1.00  0.00     0.055 C 
BRANCH  30  32
HETATM   32  C30 UNL     1      -7.514   5.227  14.879  1.00  0.00     0.171 C 
HETATM   33  O4  UNL     1      -7.464   6.420  15.120  1.00  0.00    -0.646 OA
BRANCH  32  34
HETATM   34  O5  UNL     1      -7.870   4.345  15.827  1.00  0.00    -0.773 OA
HETATM   35  H44 UNL     1      -8.063   4.913  16.601  1.00  0.00     0.167 HD
ENDBRANCH  32  34
ENDBRANCH  30  32
ENDBRANCH  28  29
ENDBRANCH  27  28
ENDBRANCH  25  27
ENDBRANCH   1  25
BRANCH   3  36
HETATM   36  O1  UNL     1      -0.088   7.643  16.596  1.00  0.00    -0.394 OA
HETATM   37  H17 UNL     1      -0.551   7.094  17.252  1.00  0.00     0.210 HD
ENDBRANCH   3  36
TORSDOF 7
ENDMDL
MODEL 9
REMARK minimizedAffinity -8.62529278
REMARK  7 active torsions:
REMARK  status: ('A' for Active; 'I' for Inactive)
REMARK    1  A    between atoms: C2_2  and  C30_33 
REMARK    2  A    between atoms: C3_3  and  C4_4 
REMARK    3  A    between atoms: C4_4  and  C5_5 
REMARK    4  A    between atoms: C5_5  and  C6_6 
REMARK    5  A    between atoms: C6_6  and  C8_8 
REMARK    6  A    between atoms: C10_10  and  O1_11 
REMARK    7  A    between atoms: C30_33  and  O5_35 
ROOT
HETATM    1  C8  UNL     1      -2.742   5.566  13.277  1.00  0.00     0.001 C 
HETATM    2  C9  UNL     1      -2.701   4.714  11.981  1.00  0.00     0.038 C 
HETATM    3  C10 UNL     1      -1.271   4.860  11.406  1.00  0.00     0.131 C 
HETATM    4  C11 UNL     1      -0.432   5.459  12.569  1.00  0.00     0.014 C 
HETATM    5  C12 UNL     1      -0.008   4.294  13.522  1.00  0.00     0.023 C 
HETATM    6  C13 UNL     1       0.866   6.212  12.282  1.00  0.00    -0.058 C 
HETATM    7  C14 UNL     1       1.333   7.160  13.137  1.00  0.00    -0.000 C 
HETATM    8  C15 UNL     1       0.471   7.557  14.335  1.00  0.00     0.157 C 
HETATM    9  O2  UNL     1       0.898   8.323  15.198  1.00  0.00    -0.293 OA
HETATM   10  C16 UNL     1      -0.942   7.003  14.485  1.00  0.00     0.094 C 
HETATM   11  C17 UNL     1      -1.477   6.468  13.159  1.00  0.00    -0.019 C 
HETATM   12  C18 UNL     1      -1.758   7.691  12.233  1.00  0.00     0.017 C 
HETATM   13  C19 UNL     1       2.697   7.872  12.952  1.00  0.00    -0.008 C 
HETATM   14  C20 UNL     1       2.375   9.316  12.497  1.00  0.00     0.021 C 
HETATM   15  C21 UNL     1       3.510   7.932  14.285  1.00  0.00     0.022 C 
HETATM   16  C22 UNL     1       5.031   7.937  14.146  1.00  0.00     0.080 C 
HETATM   17  C23 UNL     1       5.479   8.488  12.816  1.00  0.00     0.135 C 
HETATM   18  O3  UNL     1       6.278   9.422  12.755  1.00  0.00    -0.297 OA
HETATM   19  C24 UNL     1       4.959   7.766  11.570  1.00  0.00     0.018 C 
HETATM   20  C25 UNL     1       4.908   8.745  10.382  1.00  0.00     0.023 C 
HETATM   21  C26 UNL     1       6.002   6.681  11.226  1.00  0.00     0.023 C 
HETATM   22  C27 UNL     1       3.585   7.090  11.910  1.00  0.00     0.014 C 
HETATM   23  C28 UNL     1       2.773   6.705  10.668  1.00  0.00     0.011 C 
HETATM   24  C29 UNL     1       1.618   5.785  11.045  1.00  0.00     0.036 C 
ENDROOT
BRANCH   1  25
HETATM   25  C6  UNL     1      -4.099   6.236  13.640  1.00  0.00    -0.013 C 
HETATM   26  C7  UNL     1      -5.344   5.541  13.074  1.00  0.00     0.010 C 
BRANCH  25  27
HETATM   27  C5  UNL     1      -4.215   6.349  15.184  1.00  0.00     0.008 C 
BRANCH  27  28
HETATM   28  C4  UNL     1      -5.642   6.176  15.716  1.00  0.00     0.028 C 
BRANCH  28  29
HETATM   29  C3  UNL     1      -6.401   7.473  15.666  1.00  0.00    -0.013 C 
HETATM   30  C2  UNL     1      -7.687   7.681  15.315  1.00  0.00     0.008 C 
HETATM   31  C1  UNL     1      -8.267   9.063  15.228  1.00  0.00     0.055 C 
BRANCH  30  32
HETATM   32  C30 UNL     1      -8.650   6.612  14.962  1.00  0.00     0.171 C 
HETATM   33  O4  UNL     1      -8.995   6.322  13.830  1.00  0.00    -0.646 OA
BRANCH  32  34
HETATM   34  O5  UNL     1      -9.212   6.022  16.029  1.00  0.00    -0.773 OA
HETATM   35  H44 UNL     1      -9.841   5.387  15.629  1.00  0.00     0.167 HD
ENDBRANCH  32  34
ENDBRANCH  30  32
ENDBRANCH  28  29
ENDBRANCH  27  28
ENDBRANCH  25  27
ENDBRANCH   1  25
BRANCH   3  36
HETATM   36  O1  UNL     1      -0.783   3.609  10.946  1.00  0.00    -0.394 OA
HETATM   37  H17 UNL     1      -1.409   3.276  10.280  1.00  0.00     0.210 HD
ENDBRANCH   3  36
TORSDOF 7
ENDMDL
