MODEL 1
REMARK minimizedAffinity -5.79782248
REMARK CNNscore 0.764384985
REMARK CNNaffinity 6.74391508
REMARK  13 active torsions:
REMARK  status: ('A' for Active; 'I' for Inactive)
REMARK    1  A    between atoms: C2_2  and  C3_3 
REMARK    2  A    between atoms: C3_3  and  C4_4 
REMARK    3  A    between atoms: C4_4  and  C5_5 
REMARK    4  A    between atoms: C5_5  and  C6_6 
REMARK    5  A    between atoms: C6_6  and  C7_7 
REMARK    6  A    between atoms: C7_7  and  C8_8 
REMARK    7  A    between atoms: C8_8  and  C9_9 
REMARK    8  A    between atoms: C9_9  and  C10_10 
REMARK    9  A    between atoms: C10_10  and  C11_11 
REMARK   10  A    between atoms: C11_11  and  C12_12 
REMARK   11  A    between atoms: C12_12  and  C13_13 
REMARK   12  A    between atoms: C13_13  and  O2_15 
REMARK   13  A    between atoms: O2_15  and  C14_16 
ROOT
HETATM    1  C14 UNL     1      -1.153   5.766  35.417  1.00  0.00     0.140 C 
HETATM    2  C15 UNL     1       0.254   6.326  35.106  1.00  0.00     0.034 C 
HETATM    3  C16 UNL     1       0.464   6.158  33.591  1.00  0.00     0.008 C 
HETATM    4  C17 UNL     1      -0.900   5.708  33.077  1.00  0.00     0.001 C 
HETATM    5  C18 UNL     1      -0.990   5.019  31.713  1.00  0.00    -0.004 C 
HETATM    6  C19 UNL     1      -0.421   5.902  30.586  1.00  0.00     0.010 C 
HETATM    7  C20 UNL     1      -0.544   5.259  29.197  1.00  0.00     0.035 C 
HETATM    8  C21 UNL     1      -1.344   3.980  29.255  1.00  0.00    -0.068 C 
HETATM    9  C22 UNL     1      -0.794   2.835  28.812  1.00  0.00     0.053 C 
HETATM   10  C23 UNL     1      -1.422   1.525  29.094  1.00  0.00     0.149 C 
HETATM   11  O3  UNL     1      -0.965   0.507  28.583  1.00  0.00    -0.293 OA
HETATM   12  C24 UNL     1      -2.538   1.497  30.104  1.00  0.00     0.084 C 
HETATM   13  C25 UNL     1      -3.440   2.704  29.899  1.00  0.00     0.022 C 
HETATM   14  C26 UNL     1      -2.700   4.072  29.966  1.00  0.00    -0.016 C 
HETATM   15  C27 UNL     1      -3.609   5.060  29.178  1.00  0.00     0.020 C 
HETATM   16  C28 UNL     1      -2.490   4.678  31.418  1.00  0.00     0.002 C 
HETATM   17  C29 UNL     1      -3.163   3.915  32.586  1.00  0.00     0.007 C 
HETATM   18  C30 UNL     1      -2.932   4.570  33.961  1.00  0.00     0.012 C 
HETATM   19  C31 UNL     1      -1.443   4.830  34.222  1.00  0.00    -0.013 C 
HETATM   20  C32 UNL     1      -0.708   3.476  34.404  1.00  0.00     0.018 C 
ENDROOT
BRANCH   1  21
HETATM   21  O2  UNL     1      -1.193   5.062  36.660  1.00  0.00    -0.315 OA
BRANCH  21  22
HETATM   22  C13 UNL     1      -1.549   5.807  37.743  1.00  0.00     0.259 C 
HETATM   23  O1  UNL     1      -2.009   6.940  37.704  1.00  0.00    -0.265 OA
BRANCH  22  24
HETATM   24  C12 UNL     1      -1.276   5.041  39.016  1.00  0.00     0.111 C 
BRANCH  24  25
HETATM   25  C11 UNL     1      -0.042   5.566  39.744  1.00  0.00     0.010 C 
BRANCH  25  26
HETATM   26  C10 UNL     1       0.736   4.504  40.530  1.00  0.00     0.000 C 
BRANCH  26  27
HETATM   27  C9  UNL     1       1.641   5.037  41.648  1.00  0.00     0.000 C 
BRANCH  27  28
HETATM   28  C8  UNL     1       3.068   5.406  41.228  1.00  0.00     0.000 C 
BRANCH  28  29
HETATM   29  C7  UNL     1       4.144   5.215  42.302  1.00  0.00     0.000 C 
BRANCH  29  30
HETATM   30  C6  UNL     1       5.468   5.901  41.958  1.00  0.00     0.000 C 
BRANCH  30  31
HETATM   31  C5  UNL     1       5.370   7.430  41.941  1.00  0.00     0.000 C 
BRANCH  31  32
HETATM   32  C4  UNL     1       6.384   8.108  42.868  1.00  0.00     0.000 C 
BRANCH  32  33
HETATM   33  C3  UNL     1       7.212   7.072  43.633  1.00  0.00    -0.000 C 
BRANCH  33  34
HETATM   34  C2  UNL     1       8.271   7.699  44.545  1.00  0.00    -0.005 C 
HETATM   35  C1  UNL     1       8.623   6.835  45.746  1.00  0.00     0.005 C 
ENDBRANCH  33  34
ENDBRANCH  32  33
ENDBRANCH  31  32
ENDBRANCH  30  31
ENDBRANCH  29  30
ENDBRANCH  28  29
ENDBRANCH  27  28
ENDBRANCH  26  27
ENDBRANCH  25  26
ENDBRANCH  24  25
ENDBRANCH  22  24
ENDBRANCH  21  22
ENDBRANCH   1  21
TORSDOF 13
ENDMDL
MODEL 2
REMARK minimizedAffinity -5.82495451
REMARK CNNscore 0.701930344
REMARK CNNaffinity 6.16567469
REMARK  13 active torsions:
REMARK  status: ('A' for Active; 'I' for Inactive)
REMARK    1  A    between atoms: C2_2  and  C3_3 
REMARK    2  A    between atoms: C3_3  and  C4_4 
REMARK    3  A    between atoms: C4_4  and  C5_5 
REMARK    4  A    between atoms: C5_5  and  C6_6 
REMARK    5  A    between atoms: C6_6  and  C7_7 
REMARK    6  A    between atoms: C7_7  and  C8_8 
REMARK    7  A    between atoms: C8_8  and  C9_9 
REMARK    8  A    between atoms: C9_9  and  C10_10 
REMARK    9  A    between atoms: C10_10  and  C11_11 
REMARK   10  A    between atoms: C11_11  and  C12_12 
REMARK   11  A    between atoms: C12_12  and  C13_13 
REMARK   12  A    between atoms: C13_13  and  O2_15 
REMARK   13  A    between atoms: O2_15  and  C14_16 
ROOT
HETATM    1  C14 UNL     1      -2.028   4.107  34.888  1.00  0.00     0.140 C 
HETATM    2  C15 UNL     1      -2.964   2.879  34.806  1.00  0.00     0.034 C 
HETATM    3  C16 UNL     1      -3.028   2.478  33.321  1.00  0.00     0.008 C 
HETATM    4  C17 UNL     1      -1.972   3.356  32.657  1.00  0.00     0.001 C 
HETATM    5  C18 UNL     1      -2.033   3.575  31.143  1.00  0.00    -0.004 C 
HETATM    6  C19 UNL     1      -1.978   2.244  30.368  1.00  0.00     0.010 C 
HETATM    7  C20 UNL     1      -1.985   2.433  28.845  1.00  0.00     0.035 C 
HETATM    8  C21 UNL     1      -1.881   3.893  28.474  1.00  0.00    -0.068 C 
HETATM    9  C22 UNL     1      -2.834   4.451  27.705  1.00  0.00     0.053 C 
HETATM   10  C23 UNL     1      -2.925   5.919  27.542  1.00  0.00     0.149 C 
HETATM   11  O3  UNL     1      -3.729   6.395  26.747  1.00  0.00    -0.293 OA
HETATM   12  C24 UNL     1      -2.090   6.769  28.463  1.00  0.00     0.084 C 
HETATM   13  C25 UNL     1      -0.715   6.141  28.627  1.00  0.00     0.022 C 
HETATM   14  C26 UNL     1      -0.741   4.672  29.143  1.00  0.00    -0.016 C 
HETATM   15  C27 UNL     1       0.615   4.061  28.686  1.00  0.00     0.020 C 
HETATM   16  C28 UNL     1      -0.835   4.491  30.717  1.00  0.00     0.002 C 
HETATM   17  C29 UNL     1      -0.749   5.784  31.565  1.00  0.00     0.007 C 
HETATM   18  C30 UNL     1      -0.829   5.528  33.083  1.00  0.00     0.012 C 
HETATM   19  C31 UNL     1      -2.050   4.675  33.451  1.00  0.00    -0.013 C 
HETATM   20  C32 UNL     1      -3.343   5.498  33.214  1.00  0.00     0.018 C 
ENDROOT
BRANCH   1  21
HETATM   21  O2  UNL     1      -2.480   5.069  35.843  1.00  0.00    -0.315 OA
BRANCH  21  22
HETATM   22  C13 UNL     1      -2.304   4.725  37.148  1.00  0.00     0.259 C 
HETATM   23  O1  UNL     1      -3.019   3.962  37.783  1.00  0.00    -0.265 OA
BRANCH  22  24
HETATM   24  C12 UNL     1      -1.104   5.441  37.719  1.00  0.00     0.111 C 
BRANCH  24  25
HETATM   25  C11 UNL     1      -1.100   5.423  39.245  1.00  0.00     0.010 C 
BRANCH  25  26
HETATM   26  C10 UNL     1      -0.216   4.335  39.869  1.00  0.00     0.000 C 
BRANCH  26  27
HETATM   27  C9  UNL     1       0.560   4.750  41.124  1.00  0.00     0.000 C 
BRANCH  27  28
HETATM   28  C8  UNL     1       2.077   4.882  40.954  1.00  0.00     0.000 C 
BRANCH  28  29
HETATM   29  C7  UNL     1       2.811   5.600  42.092  1.00  0.00     0.000 C 
BRANCH  29  30
HETATM   30  C6  UNL     1       4.268   5.158  42.243  1.00  0.00     0.000 C 
BRANCH  30  31
HETATM   31  C5  UNL     1       4.931   5.684  43.521  1.00  0.00     0.000 C 
BRANCH  31  32
HETATM   32  C4  UNL     1       6.226   6.456  43.253  1.00  0.00     0.000 C 
BRANCH  32  33
HETATM   33  C3  UNL     1       7.155   6.416  44.470  1.00  0.00    -0.000 C 
BRANCH  33  34
HETATM   34  C2  UNL     1       8.134   7.593  44.522  1.00  0.00    -0.005 C 
HETATM   35  C1  UNL     1       9.200   7.446  45.597  1.00  0.00     0.005 C 
ENDBRANCH  33  34
ENDBRANCH  32  33
ENDBRANCH  31  32
ENDBRANCH  30  31
ENDBRANCH  29  30
ENDBRANCH  28  29
ENDBRANCH  27  28
ENDBRANCH  26  27
ENDBRANCH  25  26
ENDBRANCH  24  25
ENDBRANCH  22  24
ENDBRANCH  21  22
ENDBRANCH   1  21
TORSDOF 13
ENDMDL
MODEL 3
REMARK minimizedAffinity -6.34528017
REMARK CNNscore 0.497540206
REMARK CNNaffinity 6.54710054
REMARK  13 active torsions:
REMARK  status: ('A' for Active; 'I' for Inactive)
REMARK    1  A    between atoms: C2_2  and  C3_3 
REMARK    2  A    between atoms: C3_3  and  C4_4 
REMARK    3  A    between atoms: C4_4  and  C5_5 
REMARK    4  A    between atoms: C5_5  and  C6_6 
REMARK    5  A    between atoms: C6_6  and  C7_7 
REMARK    6  A    between atoms: C7_7  and  C8_8 
REMARK    7  A    between atoms: C8_8  and  C9_9 
REMARK    8  A    between atoms: C9_9  and  C10_10 
REMARK    9  A    between atoms: C10_10  and  C11_11 
REMARK   10  A    between atoms: C11_11  and  C12_12 
REMARK   11  A    between atoms: C12_12  and  C13_13 
REMARK   12  A    between atoms: C13_13  and  O2_15 
REMARK   13  A    between atoms: O2_15  and  C14_16 
ROOT
HETATM    1  C14 UNL     1       2.301  -9.878  26.756  1.00  0.00     0.140 C 
HETATM    2  C15 UNL     1       1.335 -11.020  27.143  1.00  0.00     0.034 C 
HETATM    3  C16 UNL     1       0.682 -11.500  25.834  1.00  0.00     0.008 C 
HETATM    4  C17 UNL     1       1.454 -10.761  24.745  1.00  0.00     0.001 C 
HETATM    5  C18 UNL     1       0.830 -10.627  23.353  1.00  0.00    -0.004 C 
HETATM    6  C19 UNL     1       0.504 -12.001  22.736  1.00  0.00     0.010 C 
HETATM    7  C20 UNL     1      -0.076 -11.903  21.318  1.00  0.00     0.035 C 
HETATM    8  C21 UNL     1      -0.035 -10.482  20.808  1.00  0.00    -0.068 C 
HETATM    9  C22 UNL     1      -1.174  -9.888  20.410  1.00  0.00     0.053 C 
HETATM   10  C23 UNL     1      -1.233  -8.430  20.164  1.00  0.00     0.149 C 
HETATM   11  O3  UNL     1      -2.249  -7.932  19.692  1.00  0.00    -0.293 OA
HETATM   12  C24 UNL     1      -0.059  -7.606  20.621  1.00  0.00     0.084 C 
HETATM   13  C25 UNL     1       1.234  -8.342  20.309  1.00  0.00     0.022 C 
HETATM   14  C26 UNL     1       1.319  -9.770  20.925  1.00  0.00    -0.016 C 
HETATM   15  C27 UNL     1       2.357 -10.525  20.045  1.00  0.00     0.020 C 
HETATM   16  C28 UNL     1       1.825  -9.849  22.427  1.00  0.00     0.002 C 
HETATM   17  C29 UNL     1       2.307  -8.521  23.062  1.00  0.00     0.007 C 
HETATM   18  C30 UNL     1       2.800  -8.678  24.514  1.00  0.00     0.012 C 
HETATM   19  C31 UNL     1       1.765  -9.396  25.389  1.00  0.00    -0.013 C 
HETATM   20  C32 UNL     1       0.531  -8.476  25.586  1.00  0.00     0.018 C 
ENDROOT
BRANCH   1  21
HETATM   21  O2  UNL     1       2.309  -8.824  27.721  1.00  0.00    -0.315 OA
BRANCH  21  22
HETATM   22  C13 UNL     1       3.480  -8.138  27.830  1.00  0.00     0.259 C 
HETATM   23  O1  UNL     1       4.594  -8.604  27.641  1.00  0.00    -0.265 OA
BRANCH  22  24
HETATM   24  C12 UNL     1       3.212  -6.710  28.242  1.00  0.00     0.111 C 
BRANCH  24  25
HETATM   25  C11 UNL     1       4.489  -5.985  28.655  1.00  0.00     0.010 C 
BRANCH  25  26
HETATM   26  C10 UNL     1       4.319  -5.000  29.817  1.00  0.00     0.000 C 
BRANCH  26  27
HETATM   27  C9  UNL     1       5.617  -4.433  30.403  1.00  0.00     0.000 C 
BRANCH  27  28
HETATM   28  C8  UNL     1       6.566  -5.460  31.030  1.00  0.00     0.000 C 
BRANCH  28  29
HETATM   29  C7  UNL     1       7.907  -5.647  30.312  1.00  0.00     0.000 C 
BRANCH  29  30
HETATM   30  C6  UNL     1       9.079  -4.985  31.041  1.00  0.00     0.000 C 
BRANCH  30  31
HETATM   31  C5  UNL     1       9.166  -5.371  32.521  1.00  0.00     0.000 C 
BRANCH  31  32
HETATM   32  C4  UNL     1       9.991  -4.384  33.353  1.00  0.00     0.000 C 
BRANCH  32  33
HETATM   33  C3  UNL     1      10.956  -3.588  32.469  1.00  0.00    -0.000 C 
BRANCH  33  34
HETATM   34  C2  UNL     1      11.619  -2.418  33.200  1.00  0.00    -0.005 C 
HETATM   35  C1  UNL     1      12.227  -1.385  32.263  1.00  0.00     0.005 C 
ENDBRANCH  33  34
ENDBRANCH  32  33
ENDBRANCH  31  32
ENDBRANCH  30  31
ENDBRANCH  29  30
ENDBRANCH  28  29
ENDBRANCH  27  28
ENDBRANCH  26  27
ENDBRANCH  25  26
ENDBRANCH  24  25
ENDBRANCH  22  24
ENDBRANCH  21  22
ENDBRANCH   1  21
TORSDOF 13
ENDMDL
MODEL 4
REMARK minimizedAffinity -5.90638113
REMARK CNNscore 0.49423182
REMARK CNNaffinity 6.62214804
REMARK  13 active torsions:
REMARK  status: ('A' for Active; 'I' for Inactive)
REMARK    1  A    between atoms: C2_2  and  C3_3 
REMARK    2  A    between atoms: C3_3  and  C4_4 
REMARK    3  A    between atoms: C4_4  and  C5_5 
REMARK    4  A    between atoms: C5_5  and  C6_6 
REMARK    5  A    between atoms: C6_6  and  C7_7 
REMARK    6  A    between atoms: C7_7  and  C8_8 
REMARK    7  A    between atoms: C8_8  and  C9_9 
REMARK    8  A    between atoms: C9_9  and  C10_10 
REMARK    9  A    between atoms: C10_10  and  C11_11 
REMARK   10  A    between atoms: C11_11  and  C12_12 
REMARK   11  A    between atoms: C12_12  and  C13_13 
REMARK   12  A    between atoms: C13_13  and  O2_15 
REMARK   13  A    between atoms: O2_15  and  C14_16 
ROOT
HETATM    1  C14 UNL     1       0.960 -10.186  25.248  1.00  0.00     0.140 C 
HETATM    2  C15 UNL     1       0.463  -8.934  26.006  1.00  0.00     0.034 C 
HETATM    3  C16 UNL     1      -0.621  -8.293  25.122  1.00  0.00     0.008 C 
HETATM    4  C17 UNL     1      -0.842  -9.314  24.010  1.00  0.00     0.001 C 
HETATM    5  C18 UNL     1      -1.509  -8.862  22.708  1.00  0.00    -0.004 C 
HETATM    6  C19 UNL     1      -2.902  -8.252  22.959  1.00  0.00     0.010 C 
HETATM    7  C20 UNL     1      -3.620  -7.836  21.668  1.00  0.00     0.035 C 
HETATM    8  C21 UNL     1      -2.848  -8.277  20.447  1.00  0.00    -0.068 C 
HETATM    9  C22 UNL     1      -2.468  -7.361  19.537  1.00  0.00     0.053 C 
HETATM   10  C23 UNL     1      -1.489  -7.693  18.478  1.00  0.00     0.149 C 
HETATM   11  O3  UNL     1      -1.247  -6.878  17.594  1.00  0.00    -0.293 OA
HETATM   12  C24 UNL     1      -0.744  -8.995  18.611  1.00  0.00     0.084 C 
HETATM   13  C25 UNL     1      -1.697 -10.081  19.084  1.00  0.00     0.022 C 
HETATM   14  C26 UNL     1      -2.427  -9.752  20.420  1.00  0.00    -0.016 C 
HETATM   15  C27 UNL     1      -3.708 -10.635  20.405  1.00  0.00     0.020 C 
HETATM   16  C28 UNL     1      -1.632 -10.095  21.749  1.00  0.00     0.002 C 
HETATM   17  C29 UNL     1      -0.286 -10.842  21.573  1.00  0.00     0.007 C 
HETATM   18  C30 UNL     1       0.420 -11.156  22.907  1.00  0.00     0.012 C 
HETATM   19  C31 UNL     1       0.564  -9.904  23.781  1.00  0.00    -0.013 C 
HETATM   20  C32 UNL     1       1.577  -8.931  23.124  1.00  0.00     0.018 C 
ENDROOT
BRANCH   1  21
HETATM   21  O2  UNL     1       2.370 -10.379  25.386  1.00  0.00    -0.315 OA
BRANCH  21  22
HETATM   22  C13 UNL     1       2.795 -10.720  26.634  1.00  0.00     0.259 C 
HETATM   23  O1  UNL     1       2.608 -11.801  27.175  1.00  0.00    -0.265 OA
BRANCH  22  24
HETATM   24  C12 UNL     1       3.517  -9.560  27.274  1.00  0.00     0.111 C 
BRANCH  24  25
HETATM   25  C11 UNL     1       4.835  -9.249  26.571  1.00  0.00     0.010 C 
BRANCH  25  26
HETATM   26  C10 UNL     1       5.736  -8.252  27.311  1.00  0.00     0.000 C 
BRANCH  26  27
HETATM   27  C9  UNL     1       5.012  -7.092  28.004  1.00  0.00     0.000 C 
BRANCH  27  28
HETATM   28  C8  UNL     1       5.573  -6.679  29.368  1.00  0.00     0.000 C 
BRANCH  28  29
HETATM   29  C7  UNL     1       6.695  -5.636  29.334  1.00  0.00     0.000 C 
BRANCH  29  30
HETATM   30  C6  UNL     1       6.801  -4.821  30.626  1.00  0.00     0.000 C 
BRANCH  30  31
HETATM   31  C5  UNL     1       8.241  -4.441  30.985  1.00  0.00     0.000 C 
BRANCH  31  32
HETATM   32  C4  UNL     1       8.377  -3.862  32.396  1.00  0.00     0.000 C 
BRANCH  32  33
HETATM   33  C3  UNL     1       8.826  -4.934  33.393  1.00  0.00    -0.000 C 
BRANCH  33  34
HETATM   34  C2  UNL     1      10.265  -5.405  33.167  1.00  0.00    -0.005 C 
HETATM   35  C1  UNL     1      11.265  -4.264  33.056  1.00  0.00     0.005 C 
ENDBRANCH  33  34
ENDBRANCH  32  33
ENDBRANCH  31  32
ENDBRANCH  30  31
ENDBRANCH  29  30
ENDBRANCH  28  29
ENDBRANCH  27  28
ENDBRANCH  26  27
ENDBRANCH  25  26
ENDBRANCH  24  25
ENDBRANCH  22  24
ENDBRANCH  21  22
ENDBRANCH   1  21
TORSDOF 13
ENDMDL
MODEL 5
REMARK minimizedAffinity -6.42042589
REMARK CNNscore 0.479783744
REMARK CNNaffinity 6.54256964
REMARK  13 active torsions:
REMARK  status: ('A' for Active; 'I' for Inactive)
REMARK    1  A    between atoms: C2_2  and  C3_3 
REMARK    2  A    between atoms: C3_3  and  C4_4 
REMARK    3  A    between atoms: C4_4  and  C5_5 
REMARK    4  A    between atoms: C5_5  and  C6_6 
REMARK    5  A    between atoms: C6_6  and  C7_7 
REMARK    6  A    between atoms: C7_7  and  C8_8 
REMARK    7  A    between atoms: C8_8  and  C9_9 
REMARK    8  A    between atoms: C9_9  and  C10_10 
REMARK    9  A    between atoms: C10_10  and  C11_11 
REMARK   10  A    between atoms: C11_11  and  C12_12 
REMARK   11  A    between atoms: C12_12  and  C13_13 
REMARK   12  A    between atoms: C13_13  and  O2_15 
REMARK   13  A    between atoms: O2_15  and  C14_16 
ROOT
HETATM    1  C14 UNL     1       0.265  -9.269  25.642  1.00  0.00     0.140 C 
HETATM    2  C15 UNL     1      -1.028 -10.050  25.973  1.00  0.00     0.034 C 
HETATM    3  C16 UNL     1      -1.585 -10.557  24.631  1.00  0.00     0.008 C 
HETATM    4  C17 UNL     1      -0.485 -10.226  23.627  1.00  0.00     0.001 C 
HETATM    5  C18 UNL     1      -0.832 -10.168  22.136  1.00  0.00    -0.004 C 
HETATM    6  C19 UNL     1      -1.431 -11.497  21.635  1.00  0.00     0.010 C 
HETATM    7  C20 UNL     1      -1.742 -11.489  20.132  1.00  0.00     0.035 C 
HETATM    8  C21 UNL     1      -1.232 -10.229  19.475  1.00  0.00    -0.068 C 
HETATM    9  C22 UNL     1      -2.089  -9.439  18.803  1.00  0.00     0.053 C 
HETATM   10  C23 UNL     1      -1.703  -8.075  18.380  1.00  0.00     0.149 C 
HETATM   11  O3  UNL     1      -2.459  -7.419  17.670  1.00  0.00    -0.293 OA
HETATM   12  C24 UNL     1      -0.429  -7.511  18.949  1.00  0.00     0.084 C 
HETATM   13  C25 UNL     1       0.640  -8.592  18.975  1.00  0.00     0.022 C 
HETATM   14  C26 UNL     1       0.233  -9.873  19.759  1.00  0.00    -0.016 C 
HETATM   15  C27 UNL     1       1.139 -11.001  19.185  1.00  0.00     0.020 C 
HETATM   16  C28 UNL     1       0.467  -9.831  21.328  1.00  0.00     0.002 C 
HETATM   17  C29 UNL     1       1.198  -8.582  21.882  1.00  0.00     0.007 C 
HETATM   18  C30 UNL     1       1.406  -8.619  23.408  1.00  0.00     0.012 C 
HETATM   19  C31 UNL     1       0.093  -8.898  24.152  1.00  0.00    -0.013 C 
HETATM   20  C32 UNL     1      -0.851  -7.676  24.004  1.00  0.00     0.018 C 
ENDROOT
BRANCH   1  21
HETATM   21  O2  UNL     1       0.420  -8.108  26.461  1.00  0.00    -0.315 OA
BRANCH  21  22
HETATM   22  C13 UNL     1       1.392  -8.188  27.412  1.00  0.00     0.259 C 
HETATM   23  O1  UNL     1       1.223  -8.032  28.613  1.00  0.00    -0.265 OA
BRANCH  22  24
HETATM   24  C12 UNL     1       2.728  -8.476  26.770  1.00  0.00     0.111 C 
BRANCH  24  25
HETATM   25  C11 UNL     1       3.849  -8.568  27.801  1.00  0.00     0.010 C 
BRANCH  25  26
HETATM   26  C10 UNL     1       4.811  -7.373  27.807  1.00  0.00     0.000 C 
BRANCH  26  27
HETATM   27  C9  UNL     1       4.332  -6.139  28.580  1.00  0.00     0.000 C 
BRANCH  27  28
HETATM   28  C8  UNL     1       5.370  -5.485  29.497  1.00  0.00     0.000 C 
BRANCH  28  29
HETATM   29  C7  UNL     1       6.778  -5.344  28.908  1.00  0.00     0.000 C 
BRANCH  29  30
HETATM   30  C6  UNL     1       7.882  -5.377  29.968  1.00  0.00     0.000 C 
BRANCH  30  31
HETATM   31  C5  UNL     1       7.389  -4.986  31.366  1.00  0.00     0.000 C 
BRANCH  31  32
HETATM   32  C4  UNL     1       7.932  -3.634  31.838  1.00  0.00     0.000 C 
BRANCH  32  33
HETATM   33  C3  UNL     1       9.423  -3.493  31.517  1.00  0.00    -0.000 C 
BRANCH  33  34
HETATM   34  C2  UNL     1       9.937  -2.057  31.648  1.00  0.00    -0.005 C 
HETATM   35  C1  UNL     1      10.822  -1.840  32.866  1.00  0.00     0.005 C 
ENDBRANCH  33  34
ENDBRANCH  32  33
ENDBRANCH  31  32
ENDBRANCH  30  31
ENDBRANCH  29  30
ENDBRANCH  28  29
ENDBRANCH  27  28
ENDBRANCH  26  27
ENDBRANCH  25  26
ENDBRANCH  24  25
ENDBRANCH  22  24
ENDBRANCH  21  22
ENDBRANCH   1  21
TORSDOF 13
ENDMDL
MODEL 6
REMARK minimizedAffinity -7.27380085
REMARK CNNscore 0.393998742
REMARK CNNaffinity 7.08800936
REMARK  13 active torsions:
REMARK  status: ('A' for Active; 'I' for Inactive)
REMARK    1  A    between atoms: C2_2  and  C3_3 
REMARK    2  A    between atoms: C3_3  and  C4_4 
REMARK    3  A    between atoms: C4_4  and  C5_5 
REMARK    4  A    between atoms: C5_5  and  C6_6 
REMARK    5  A    between atoms: C6_6  and  C7_7 
REMARK    6  A    between atoms: C7_7  and  C8_8 
REMARK    7  A    between atoms: C8_8  and  C9_9 
REMARK    8  A    between atoms: C9_9  and  C10_10 
REMARK    9  A    between atoms: C10_10  and  C11_11 
REMARK   10  A    between atoms: C11_11  and  C12_12 
REMARK   11  A    between atoms: C12_12  and  C13_13 
REMARK   12  A    between atoms: C13_13  and  O2_15 
REMARK   13  A    between atoms: O2_15  and  C14_16 
ROOT
HETATM    1  C14 UNL     1       9.130  -6.824  27.104  1.00  0.00     0.140 C 
HETATM    2  C15 UNL     1      10.062  -5.598  27.237  1.00  0.00     0.034 C 
HETATM    3  C16 UNL     1      11.401  -6.128  27.780  1.00  0.00     0.008 C 
HETATM    4  C17 UNL     1      11.244  -7.644  27.734  1.00  0.00     0.001 C 
HETATM    5  C18 UNL     1      12.169  -8.514  28.590  1.00  0.00    -0.004 C 
HETATM    6  C19 UNL     1      13.655  -8.265  28.262  1.00  0.00     0.010 C 
HETATM    7  C20 UNL     1      14.607  -9.160  29.068  1.00  0.00     0.035 C 
HETATM    8  C21 UNL     1      13.845 -10.184  29.873  1.00  0.00    -0.068 C 
HETATM    9  C22 UNL     1      14.014 -10.238  31.207  1.00  0.00     0.053 C 
HETATM   10  C23 UNL     1      13.102 -11.027  32.064  1.00  0.00     0.149 C 
HETATM   11  O3  UNL     1      13.345 -11.153  33.260  1.00  0.00    -0.293 OA
HETATM   12  C24 UNL     1      11.838 -11.547  31.431  1.00  0.00     0.084 C 
HETATM   13  C25 UNL     1      12.143 -12.059  30.032  1.00  0.00     0.022 C 
HETATM   14  C26 UNL     1      12.806 -11.005  29.097  1.00  0.00    -0.016 C 
HETATM   15  C27 UNL     1      13.542 -11.840  28.010  1.00  0.00     0.020 C 
HETATM   16  C28 UNL     1      11.814 -10.020  28.347  1.00  0.00     0.002 C 
HETATM   17  C29 UNL     1      10.301 -10.304  28.518  1.00  0.00     0.007 C 
HETATM   18  C30 UNL     1       9.401  -9.319  27.747  1.00  0.00     0.012 C 
HETATM   19  C31 UNL     1       9.754  -7.861  28.064  1.00  0.00    -0.013 C 
HETATM   20  C32 UNL     1       9.363  -7.544  29.532  1.00  0.00     0.018 C 
ENDROOT
BRANCH   1  21
HETATM   21  O2  UNL     1       7.780  -6.519  27.463  1.00  0.00    -0.315 OA
BRANCH  21  22
HETATM   22  C13 UNL     1       6.823  -7.087  26.678  1.00  0.00     0.259 C 
HETATM   23  O1  UNL     1       6.838  -7.122  25.455  1.00  0.00    -0.265 OA
BRANCH  22  24
HETATM   24  C12 UNL     1       5.717  -7.655  27.534  1.00  0.00     0.111 C 
BRANCH  24  25
HETATM   25  C11 UNL     1       5.651  -6.984  28.903  1.00  0.00     0.010 C 
BRANCH  25  26
HETATM   26  C10 UNL     1       4.527  -5.953  29.056  1.00  0.00     0.000 C 
BRANCH  26  27
HETATM   27  C9  UNL     1       4.528  -5.160  30.369  1.00  0.00     0.000 C 
BRANCH  27  28
HETATM   28  C8  UNL     1       5.553  -4.025  30.458  1.00  0.00     0.000 C 
BRANCH  28  29
HETATM   29  C7  UNL     1       6.964  -4.440  30.887  1.00  0.00     0.000 C 
BRANCH  29  30
HETATM   30  C6  UNL     1       7.668  -3.386  31.745  1.00  0.00     0.000 C 
BRANCH  30  31
HETATM   31  C5  UNL     1       9.143  -3.191  31.374  1.00  0.00     0.000 C 
BRANCH  31  32
HETATM   32  C4  UNL     1       9.721  -1.867  31.883  1.00  0.00     0.000 C 
BRANCH  32  33
HETATM   33  C3  UNL     1      10.873  -2.108  32.862  1.00  0.00    -0.000 C 
BRANCH  33  34
HETATM   34  C2  UNL     1      11.067  -3.584  33.218  1.00  0.00    -0.005 C 
HETATM   35  C1  UNL     1      10.577  -3.940  34.614  1.00  0.00     0.005 C 
ENDBRANCH  33  34
ENDBRANCH  32  33
ENDBRANCH  31  32
ENDBRANCH  30  31
ENDBRANCH  29  30
ENDBRANCH  28  29
ENDBRANCH  27  28
ENDBRANCH  26  27
ENDBRANCH  25  26
ENDBRANCH  24  25
ENDBRANCH  22  24
ENDBRANCH  21  22
ENDBRANCH   1  21
TORSDOF 13
ENDMDL
MODEL 7
REMARK minimizedAffinity -6.46423626
REMARK CNNscore 0.392521173
REMARK CNNaffinity 6.44148064
REMARK  13 active torsions:
REMARK  status: ('A' for Active; 'I' for Inactive)
REMARK    1  A    between atoms: C2_2  and  C3_3 
REMARK    2  A    between atoms: C3_3  and  C4_4 
REMARK    3  A    between atoms: C4_4  and  C5_5 
REMARK    4  A    between atoms: C5_5  and  C6_6 
REMARK    5  A    between atoms: C6_6  and  C7_7 
REMARK    6  A    between atoms: C7_7  and  C8_8 
REMARK    7  A    between atoms: C8_8  and  C9_9 
REMARK    8  A    between atoms: C9_9  and  C10_10 
REMARK    9  A    between atoms: C10_10  and  C11_11 
REMARK   10  A    between atoms: C11_11  and  C12_12 
REMARK   11  A    between atoms: C12_12  and  C13_13 
REMARK   12  A    between atoms: C13_13  and  O2_15 
REMARK   13  A    between atoms: O2_15  and  C14_16 
ROOT
HETATM    1  C14 UNL     1       1.955 -10.682  25.270  1.00  0.00     0.140 C 
HETATM    2  C15 UNL     1       0.677 -11.301  25.880  1.00  0.00     0.034 C 
HETATM    3  C16 UNL     1      -0.409 -11.217  24.794  1.00  0.00     0.008 C 
HETATM    4  C17 UNL     1       0.346 -10.751  23.553  1.00  0.00     0.001 C 
HETATM    5  C18 UNL     1      -0.439 -10.129  22.395  1.00  0.00    -0.004 C 
HETATM    6  C19 UNL     1      -1.521 -11.086  21.857  1.00  0.00     0.010 C 
HETATM    7  C20 UNL     1      -2.292 -10.512  20.660  1.00  0.00     0.035 C 
HETATM    8  C21 UNL     1      -1.691  -9.206  20.197  1.00  0.00    -0.068 C 
HETATM    9  C22 UNL     1      -2.459  -8.103  20.149  1.00  0.00     0.053 C 
HETATM   10  C23 UNL     1      -1.862  -6.761  19.969  1.00  0.00     0.149 C 
HETATM   11  O3  UNL     1      -2.590  -5.786  19.814  1.00  0.00    -0.293 OA
HETATM   12  C24 UNL     1      -0.367  -6.648  20.102  1.00  0.00     0.084 C 
HETATM   13  C25 UNL     1       0.297  -7.834  19.422  1.00  0.00     0.022 C 
HETATM   14  C26 UNL     1      -0.177  -9.220  19.950  1.00  0.00    -0.016 C 
HETATM   15  C27 UNL     1       0.131 -10.217  18.796  1.00  0.00     0.020 C 
HETATM   16  C28 UNL     1       0.561  -9.757  21.248  1.00  0.00     0.002 C 
HETATM   17  C29 UNL     1       1.757  -8.914  21.759  1.00  0.00     0.007 C 
HETATM   18  C30 UNL     1       2.434  -9.506  23.011  1.00  0.00     0.012 C 
HETATM   19  C31 UNL     1       1.417  -9.800  24.121  1.00  0.00    -0.013 C 
HETATM   20  C32 UNL     1       0.865  -8.462  24.679  1.00  0.00     0.018 C 
ENDROOT
BRANCH   1  21
HETATM   21  O2  UNL     1       2.694  -9.915  26.223  1.00  0.00    -0.315 OA
BRANCH  21  22
HETATM   22  C13 UNL     1       4.044 -10.092  26.196  1.00  0.00     0.259 C 
HETATM   23  O1  UNL     1       4.661 -10.707  25.338  1.00  0.00    -0.265 OA
BRANCH  22  24
HETATM   24  C12 UNL     1       4.680  -9.435  27.398  1.00  0.00     0.111 C 
BRANCH  24  25
HETATM   25  C11 UNL     1       4.154  -8.019  27.619  1.00  0.00     0.010 C 
BRANCH  25  26
HETATM   26  C10 UNL     1       5.184  -7.037  28.191  1.00  0.00     0.000 C 
BRANCH  26  27
HETATM   27  C9  UNL     1       4.668  -5.620  28.465  1.00  0.00     0.000 C 
BRANCH  27  28
HETATM   28  C8  UNL     1       4.142  -5.367  29.882  1.00  0.00     0.000 C 
BRANCH  28  29
HETATM   29  C7  UNL     1       4.879  -4.286  30.679  1.00  0.00     0.000 C 
BRANCH  29  30
HETATM   30  C6  UNL     1       6.380  -4.235  30.382  1.00  0.00     0.000 C 
BRANCH  30  31
HETATM   31  C5  UNL     1       7.147  -5.441  30.938  1.00  0.00     0.000 C 
BRANCH  31  32
HETATM   32  C4  UNL     1       8.585  -5.103  31.344  1.00  0.00     0.000 C 
BRANCH  32  33
HETATM   33  C3  UNL     1       8.612  -4.133  32.528  1.00  0.00    -0.000 C 
BRANCH  33  34
HETATM   34  C2  UNL     1       9.444  -4.642  33.708  1.00  0.00    -0.005 C 
HETATM   35  C1  UNL     1       8.637  -4.820  34.985  1.00  0.00     0.005 C 
ENDBRANCH  33  34
ENDBRANCH  32  33
ENDBRANCH  31  32
ENDBRANCH  30  31
ENDBRANCH  29  30
ENDBRANCH  28  29
ENDBRANCH  27  28
ENDBRANCH  26  27
ENDBRANCH  25  26
ENDBRANCH  24  25
ENDBRANCH  22  24
ENDBRANCH  21  22
ENDBRANCH   1  21
TORSDOF 13
ENDMDL
MODEL 8
REMARK minimizedAffinity -6.9552803
REMARK CNNscore 0.380010068
REMARK CNNaffinity 6.65501404
REMARK  13 active torsions:
REMARK  status: ('A' for Active; 'I' for Inactive)
REMARK    1  A    between atoms: C2_2  and  C3_3 
REMARK    2  A    between atoms: C3_3  and  C4_4 
REMARK    3  A    between atoms: C4_4  and  C5_5 
REMARK    4  A    between atoms: C5_5  and  C6_6 
REMARK    5  A    between atoms: C6_6  and  C7_7 
REMARK    6  A    between atoms: C7_7  and  C8_8 
REMARK    7  A    between atoms: C8_8  and  C9_9 
REMARK    8  A    between atoms: C9_9  and  C10_10 
REMARK    9  A    between atoms: C10_10  and  C11_11 
REMARK   10  A    between atoms: C11_11  and  C12_12 
REMARK   11  A    between atoms: C12_12  and  C13_13 
REMARK   12  A    between atoms: C13_13  and  O2_15 
REMARK   13  A    between atoms: O2_15  and  C14_16 
ROOT
HETATM    1  C14 UNL     1       1.838  -8.587  25.119  1.00  0.00     0.140 C 
HETATM    2  C15 UNL     1       2.987  -9.250  24.326  1.00  0.00     0.034 C 
HETATM    3  C16 UNL     1       2.556  -9.246  22.849  1.00  0.00     0.008 C 
HETATM    4  C17 UNL     1       1.286  -8.401  22.838  1.00  0.00     0.001 C 
HETATM    5  C18 UNL     1       0.322  -8.523  21.655  1.00  0.00    -0.004 C 
HETATM    6  C19 UNL     1       1.015  -8.203  20.316  1.00  0.00     0.010 C 
HETATM    7  C20 UNL     1       0.062  -8.266  19.114  1.00  0.00     0.035 C 
HETATM    8  C21 UNL     1      -1.367  -8.469  19.559  1.00  0.00    -0.068 C 
HETATM    9  C22 UNL     1      -2.061  -9.525  19.096  1.00  0.00     0.053 C 
HETATM   10  C23 UNL     1      -3.352  -9.918  19.703  1.00  0.00     0.149 C 
HETATM   11  O3  UNL     1      -4.019 -10.811  19.191  1.00  0.00    -0.293 OA
HETATM   12  C24 UNL     1      -3.729  -9.266  21.006  1.00  0.00     0.084 C 
HETATM   13  C25 UNL     1      -3.370  -7.789  20.960  1.00  0.00     0.022 C 
HETATM   14  C26 UNL     1      -1.872  -7.507  20.642  1.00  0.00    -0.016 C 
HETATM   15  C27 UNL     1      -1.848  -6.059  20.072  1.00  0.00     0.020 C 
HETATM   16  C28 UNL     1      -0.880  -7.544  21.880  1.00  0.00     0.002 C 
HETATM   17  C29 UNL     1      -1.529  -7.717  23.276  1.00  0.00     0.007 C 
HETATM   18  C30 UNL     1      -0.507  -7.726  24.430  1.00  0.00     0.012 C 
HETATM   19  C31 UNL     1       0.617  -8.740  24.185  1.00  0.00    -0.013 C 
HETATM   20  C32 UNL     1       0.042 -10.178  24.278  1.00  0.00     0.018 C 
ENDROOT
BRANCH   1  21
HETATM   21  O2  UNL     1       1.618  -9.217  26.383  1.00  0.00    -0.315 OA
BRANCH  21  22
HETATM   22  C13 UNL     1       1.656  -8.389  27.464  1.00  0.00     0.259 C 
HETATM   23  O1  UNL     1       0.687  -8.043  28.125  1.00  0.00    -0.265 OA
BRANCH  22  24
HETATM   24  C12 UNL     1       3.072  -7.934  27.724  1.00  0.00     0.111 C 
BRANCH  24  25
HETATM   25  C11 UNL     1       3.116  -6.617  28.493  1.00  0.00     0.010 C 
BRANCH  25  26
HETATM   26  C10 UNL     1       4.457  -5.877  28.416  1.00  0.00     0.000 C 
BRANCH  26  27
HETATM   27  C9  UNL     1       5.515  -6.311  29.437  1.00  0.00     0.000 C 
BRANCH  27  28
HETATM   28  C8  UNL     1       5.615  -5.446  30.699  1.00  0.00     0.000 C 
BRANCH  28  29
HETATM   29  C7  UNL     1       5.127  -4.001  30.550  1.00  0.00     0.000 C 
BRANCH  29  30
HETATM   30  C6  UNL     1       6.097  -2.974  31.139  1.00  0.00     0.000 C 
BRANCH  30  31
HETATM   31  C5  UNL     1       7.450  -3.577  31.535  1.00  0.00     0.000 C 
BRANCH  31  32
HETATM   32  C4  UNL     1       8.495  -2.520  31.902  1.00  0.00     0.000 C 
BRANCH  32  33
HETATM   33  C3  UNL     1       9.580  -3.106  32.811  1.00  0.00    -0.000 C 
BRANCH  33  34
HETATM   34  C2  UNL     1       9.125  -4.360  33.563  1.00  0.00    -0.005 C 
HETATM   35  C1  UNL     1       9.942  -5.598  33.225  1.00  0.00     0.005 C 
ENDBRANCH  33  34
ENDBRANCH  32  33
ENDBRANCH  31  32
ENDBRANCH  30  31
ENDBRANCH  29  30
ENDBRANCH  28  29
ENDBRANCH  27  28
ENDBRANCH  26  27
ENDBRANCH  25  26
ENDBRANCH  24  25
ENDBRANCH  22  24
ENDBRANCH  21  22
ENDBRANCH   1  21
TORSDOF 13
ENDMDL
MODEL 9
REMARK minimizedAffinity -7.34519768
REMARK CNNscore 0.373452872
REMARK CNNaffinity 6.78540087
REMARK  13 active torsions:
REMARK  status: ('A' for Active; 'I' for Inactive)
REMARK    1  A    between atoms: C2_2  and  C3_3 
REMARK    2  A    between atoms: C3_3  and  C4_4 
REMARK    3  A    between atoms: C4_4  and  C5_5 
REMARK    4  A    between atoms: C5_5  and  C6_6 
REMARK    5  A    between atoms: C6_6  and  C7_7 
REMARK    6  A    between atoms: C7_7  and  C8_8 
REMARK    7  A    between atoms: C8_8  and  C9_9 
REMARK    8  A    between atoms: C9_9  and  C10_10 
REMARK    9  A    between atoms: C10_10  and  C11_11 
REMARK   10  A    between atoms: C11_11  and  C12_12 
REMARK   11  A    between atoms: C12_12  and  C13_13 
REMARK   12  A    between atoms: C13_13  and  O2_15 
REMARK   13  A    between atoms: O2_15  and  C14_16 
ROOT
HETATM    1  C14 UNL     1       7.717  -7.886  28.630  1.00  0.00     0.140 C 
HETATM    2  C15 UNL     1       9.089  -8.434  28.176  1.00  0.00     0.034 C 
HETATM    3  C16 UNL     1      10.150  -7.704  29.019  1.00  0.00     0.008 C 
HETATM    4  C17 UNL     1       9.333  -6.934  30.053  1.00  0.00     0.001 C 
HETATM    5  C18 UNL     1       9.981  -5.755  30.783  1.00  0.00    -0.004 C 
HETATM    6  C19 UNL     1      11.260  -6.177  31.532  1.00  0.00     0.010 C 
HETATM    7  C20 UNL     1      11.905  -5.026  32.318  1.00  0.00     0.035 C 
HETATM    8  C21 UNL     1      11.035  -3.793  32.295  1.00  0.00    -0.068 C 
HETATM    9  C22 UNL     1      11.536  -2.637  31.825  1.00  0.00     0.053 C 
HETATM   10  C23 UNL     1      10.657  -1.484  31.529  1.00  0.00     0.149 C 
HETATM   11  O3  UNL     1      11.150  -0.407  31.211  1.00  0.00    -0.293 OA
HETATM   12  C24 UNL     1       9.172  -1.732  31.524  1.00  0.00     0.084 C 
HETATM   13  C25 UNL     1       8.805  -2.646  32.682  1.00  0.00     0.022 C 
HETATM   14  C26 UNL     1       9.567  -4.004  32.690  1.00  0.00    -0.016 C 
HETATM   15  C27 UNL     1       9.513  -4.487  34.168  1.00  0.00     0.020 C 
HETATM   16  C28 UNL     1       8.944  -5.155  31.793  1.00  0.00     0.002 C 
HETATM   17  C29 UNL     1       7.580  -4.847  31.126  1.00  0.00     0.007 C 
HETATM   18  C30 UNL     1       7.029  -6.016  30.287  1.00  0.00     0.012 C 
HETATM   19  C31 UNL     1       8.065  -6.527  29.277  1.00  0.00    -0.013 C 
HETATM   20  C32 UNL     1       8.292  -5.450  28.184  1.00  0.00     0.018 C 
ENDROOT
BRANCH   1  21
HETATM   21  O2  UNL     1       6.807  -7.734  27.539  1.00  0.00    -0.315 OA
BRANCH  21  22
HETATM   22  C13 UNL     1       5.807  -8.657  27.477  1.00  0.00     0.259 C 
HETATM   23  O1  UNL     1       5.942  -9.826  27.142  1.00  0.00    -0.265 OA
BRANCH  22  24
HETATM   24  C12 UNL     1       4.491  -8.027  27.862  1.00  0.00     0.111 C 
BRANCH  24  25
HETATM   25  C11 UNL     1       3.300  -8.851  27.379  1.00  0.00     0.010 C 
BRANCH  25  26
HETATM   26  C10 UNL     1       2.406  -8.142  26.355  1.00  0.00     0.000 C 
BRANCH  26  27
HETATM   27  C9  UNL     1       1.997  -8.980  25.138  1.00  0.00     0.000 C 
BRANCH  27  28
HETATM   28  C8  UNL     1       2.840  -8.772  23.875  1.00  0.00     0.000 C 
BRANCH  28  29
HETATM   29  C7  UNL     1       2.279  -9.398  22.594  1.00  0.00     0.000 C 
BRANCH  29  30
HETATM   30  C6  UNL     1       1.038  -8.676  22.063  1.00  0.00     0.000 C 
BRANCH  30  31
HETATM   31  C5  UNL     1       1.169  -8.249  20.596  1.00  0.00     0.000 C 
BRANCH  31  32
HETATM   32  C4  UNL     1       0.721  -6.805  20.348  1.00  0.00     0.000 C 
BRANCH  32  33
HETATM   33  C3  UNL     1      -0.681  -6.557  20.911  1.00  0.00    -0.000 C 
BRANCH  33  34
HETATM   34  C2  UNL     1      -1.799  -7.060  19.993  1.00  0.00    -0.005 C 
HETATM   35  C1  UNL     1      -3.173  -6.525  20.364  1.00  0.00     0.005 C 
ENDBRANCH  33  34
ENDBRANCH  32  33
ENDBRANCH  31  32
ENDBRANCH  30  31
ENDBRANCH  29  30
ENDBRANCH  28  29
ENDBRANCH  27  28
ENDBRANCH  26  27
ENDBRANCH  25  26
ENDBRANCH  24  25
ENDBRANCH  22  24
ENDBRANCH  21  22
ENDBRANCH   1  21
TORSDOF 13
ENDMDL
