MODEL 1
REMARK minimizedAffinity -7.02907944
REMARK CNNscore 0.476754367
REMARK CNNaffinity 5.05164146
REMARK  3 active torsions:
REMARK  status: ('A' for Active; 'I' for Inactive)
REMARK    1  A    between atoms: C2_2  and  O1_3 
REMARK    2  A    between atoms: C2_2  and  C3_4 
REMARK    3  A    between atoms: C23_31  and  O9_32 
ROOT
HETATM    1  C3  UNL     1      -6.723  48.808 -20.739  1.00  0.00     0.133 C 
HETATM    2  C4  UNL     1      -8.000  48.738 -19.899  1.00  0.00     0.016 C 
HETATM    3  C5  UNL     1      -8.537  47.639 -19.344  1.00  0.00    -0.001 C 
HETATM    4  C6  UNL     1      -9.836  47.592 -18.714  1.00  0.00     0.006 C 
HETATM    5  C7  UNL     1     -10.950  47.999 -19.341  1.00  0.00     0.082 C 
HETATM    6  C8  UNL     1     -12.265  47.672 -18.772  1.00  0.00     0.283 C 
HETATM    7  O2  UNL     1     -12.566  47.718 -17.592  1.00  0.00    -0.260 OA
HETATM    8  O3  UNL     1     -13.029  47.220 -19.800  1.00  0.00    -0.312 OA
HETATM    9  C9  UNL     1     -14.203  46.507 -19.433  1.00  0.00     0.146 C 
HETATM   10  C10 UNL     1     -15.470  47.397 -19.407  1.00  0.00     0.068 C 
HETATM   11  C11 UNL     1     -16.536  46.570 -20.158  1.00  0.00     0.162 C 
HETATM   12  O4  UNL     1     -16.626  46.945 -21.550  1.00  0.00    -0.377 OA
HETATM   13  C12 UNL     1     -15.363  46.976 -22.237  1.00  0.00     0.127 C 
HETATM   14  C13 UNL     1     -15.573  47.210 -23.744  1.00  0.00     0.032 C 
HETATM   15  C14 UNL     1     -15.138  46.035 -24.626  1.00  0.00     0.003 C 
HETATM   16  C15 UNL     1     -13.741  45.468 -24.312  1.00  0.00     0.007 C 
HETATM   17  C16 UNL     1     -13.266  45.675 -22.844  1.00  0.00     0.017 C 
HETATM   18  C17 UNL     1     -12.378  46.938 -22.787  1.00  0.00     0.183 C 
HETATM   19  O5  UNL     1     -11.033  46.568 -22.423  1.00  0.00    -0.319 OA
HETATM   20  C18 UNL     1     -10.067  46.760 -23.359  1.00  0.00     0.291 C 
HETATM   21  O6  UNL     1     -10.238  47.162 -24.499  1.00  0.00    -0.262 OA
HETATM   22  C19 UNL     1      -8.726  46.502 -22.781  1.00  0.00     0.259 A 
HETATM   23  O7  UNL     1      -7.613  46.520 -23.688  1.00  0.00    -0.356 OA
HETATM   24  C20 UNL     1      -7.670  47.601 -22.743  1.00  0.00     0.128 A 
HETATM   25  C21 UNL     1      -7.941  48.949 -23.357  1.00  0.00     0.070 C 
HETATM   26  C22 UNL     1      -6.906  49.968 -22.894  1.00  0.00     0.172 C 
HETATM   27  O8  UNL     1      -6.874  50.069 -21.470  1.00  0.00    -0.371 OA
HETATM   28  C23 UNL     1      -6.583  47.564 -21.694  1.00  0.00     0.197 C 
HETATM   29  C24 UNL     1     -14.541  45.697 -21.964  1.00  0.00     0.034 C 
HETATM   30  C25 UNL     1     -14.511  45.345 -20.429  1.00  0.00     0.025 C 
HETATM   31  C26 UNL     1     -13.636  44.127 -20.140  1.00  0.00     0.022 C 
HETATM   32  C27 UNL     1     -15.982  45.181 -20.110  1.00  0.00     0.118 A 
HETATM   33  C28 UNL     1     -16.810  43.928 -20.241  1.00  0.00     0.210 A 
HETATM   34  O10 UNL     1     -16.328  44.398 -18.965  1.00  0.00    -0.371 OA
ENDROOT
BRANCH   1  35
HETATM   35  C2  UNL     1      -5.445  49.021 -19.867  1.00  0.00     0.155 C 
HETATM   36  C1  UNL     1      -4.470  50.078 -20.371  1.00  0.00     0.042 C 
BRANCH  35  37
HETATM   37  O1  UNL     1      -4.721  47.782 -19.735  1.00  0.00    -0.393 OA
HETATM   38  H5  UNL     1      -5.407  47.108 -19.558  1.00  0.00     0.210 HD
ENDBRANCH  35  37
ENDBRANCH   1  35
BRANCH  28  39
HETATM   39  O9  UNL     1      -5.314  47.529 -22.356  1.00  0.00    -0.389 OA
HETATM   40  H30 UNL     1      -5.401  46.889 -23.088  1.00  0.00     0.210 HD
ENDBRANCH  28  39
TORSDOF 3
ENDMDL
MODEL 2
REMARK minimizedAffinity -7.57339287
REMARK CNNscore 0.475659221
REMARK CNNaffinity 5.74045515
REMARK  3 active torsions:
REMARK  status: ('A' for Active; 'I' for Inactive)
REMARK    1  A    between atoms: C2_2  and  O1_3 
REMARK    2  A    between atoms: C2_2  and  C3_4 
REMARK    3  A    between atoms: C23_31  and  O9_32 
ROOT
HETATM    1  C3  UNL     1     -10.450  46.554 -29.738  1.00  0.00     0.133 C 
HETATM    2  C4  UNL     1     -10.756  45.296 -30.553  1.00  0.00     0.016 C 
HETATM    3  C5  UNL     1     -10.578  44.023 -30.163  1.00  0.00    -0.001 C 
HETATM    4  C6  UNL     1     -10.711  42.875 -31.030  1.00  0.00     0.006 C 
HETATM    5  C7  UNL     1     -10.036  42.770 -32.185  1.00  0.00     0.082 C 
HETATM    6  C8  UNL     1      -9.988  41.477 -32.883  1.00  0.00     0.283 C 
HETATM    7  O2  UNL     1     -10.918  40.703 -33.022  1.00  0.00    -0.260 OA
HETATM    8  O3  UNL     1      -8.693  41.282 -33.244  1.00  0.00    -0.312 OA
HETATM    9  C9  UNL     1      -8.343  39.951 -33.600  1.00  0.00     0.146 C 
HETATM   10  C10 UNL     1      -8.391  39.699 -35.127  1.00  0.00     0.068 C 
HETATM   11  C11 UNL     1      -7.075  38.952 -35.435  1.00  0.00     0.162 C 
HETATM   12  O4  UNL     1      -6.039  39.850 -35.887  1.00  0.00    -0.377 OA
HETATM   13  C12 UNL     1      -5.840  40.997 -35.041  1.00  0.00     0.127 C 
HETATM   14  C13 UNL     1      -4.608  41.800 -35.498  1.00  0.00     0.032 C 
HETATM   15  C14 UNL     1      -3.465  41.825 -34.477  1.00  0.00     0.003 C 
HETATM   16  C15 UNL     1      -3.887  42.170 -33.037  1.00  0.00     0.007 C 
HETATM   17  C16 UNL     1      -5.359  41.813 -32.682  1.00  0.00     0.017 C 
HETATM   18  C17 UNL     1      -6.231  43.076 -32.864  1.00  0.00     0.183 C 
HETATM   19  O5  UNL     1      -6.767  43.482 -31.589  1.00  0.00    -0.319 OA
HETATM   20  C18 UNL     1      -6.343  44.674 -31.094  1.00  0.00     0.291 C 
HETATM   21  O6  UNL     1      -5.508  45.408 -31.599  1.00  0.00    -0.262 OA
HETATM   22  C19 UNL     1      -7.109  45.032 -29.876  1.00  0.00     0.259 A 
HETATM   23  O7  UNL     1      -6.675  46.194 -29.153  1.00  0.00    -0.356 OA
HETATM   24  C20 UNL     1      -7.940  46.309 -29.826  1.00  0.00     0.128 A 
HETATM   25  C21 UNL     1      -7.942  47.271 -30.985  1.00  0.00     0.070 C 
HETATM   26  C22 UNL     1      -9.090  48.265 -30.855  1.00  0.00     0.172 C 
HETATM   27  O8  UNL     1     -10.350  47.597 -30.762  1.00  0.00    -0.371 OA
HETATM   28  C23 UNL     1      -9.128  46.397 -28.897  1.00  0.00     0.197 C 
HETATM   29  C24 UNL     1      -5.742  40.590 -33.554  1.00  0.00     0.034 C 
HETATM   30  C25 UNL     1      -6.891  39.594 -33.149  1.00  0.00     0.025 C 
HETATM   31  C26 UNL     1      -6.848  39.247 -31.662  1.00  0.00     0.022 C 
HETATM   32  C27 UNL     1      -6.658  38.435 -34.095  1.00  0.00     0.118 A 
HETATM   33  C28 UNL     1      -5.747  37.253 -33.883  1.00  0.00     0.210 A 
HETATM   34  O10 UNL     1      -7.177  37.157 -33.717  1.00  0.00    -0.371 OA
ENDROOT
BRANCH   1  35
HETATM   35  C2  UNL     1     -11.657  47.001 -28.852  1.00  0.00     0.155 C 
HETATM   36  C1  UNL     1     -13.033  46.580 -29.350  1.00  0.00     0.042 C 
BRANCH  35  37
HETATM   37  O1  UNL     1     -11.661  48.434 -28.705  1.00  0.00    -0.393 OA
HETATM   38  H5  UNL     1     -10.728  48.672 -28.533  1.00  0.00     0.210 HD
ENDBRANCH  35  37
ENDBRANCH   1  35
BRANCH  28  39
HETATM   39  O9  UNL     1      -8.924  47.495 -28.000  1.00  0.00    -0.389 OA
HETATM   40  H30 UNL     1      -7.993  47.444 -27.708  1.00  0.00     0.210 HD
ENDBRANCH  28  39
TORSDOF 3
ENDMDL
MODEL 3
REMARK minimizedAffinity -7.55175591
REMARK CNNscore 0.439160824
REMARK CNNaffinity 5.98517942
REMARK  3 active torsions:
REMARK  status: ('A' for Active; 'I' for Inactive)
REMARK    1  A    between atoms: C2_2  and  O1_3 
REMARK    2  A    between atoms: C2_2  and  C3_4 
REMARK    3  A    between atoms: C23_31  and  O9_32 
ROOT
HETATM    1  C3  UNL     1      -2.765  49.470 -11.034  1.00  0.00     0.133 C 
HETATM    2  C4  UNL     1      -2.252  50.022  -9.703  1.00  0.00     0.016 C 
HETATM    3  C5  UNL     1      -2.584  51.194  -9.137  1.00  0.00    -0.001 C 
HETATM    4  C6  UNL     1      -1.939  51.752  -7.972  1.00  0.00     0.006 C 
HETATM    5  C7  UNL     1      -0.611  51.929  -7.906  1.00  0.00     0.082 C 
HETATM    6  C8  UNL     1      -0.039  52.751  -6.829  1.00  0.00     0.283 C 
HETATM    7  O2  UNL     1      -0.386  52.742  -5.661  1.00  0.00    -0.260 OA
HETATM    8  O3  UNL     1       0.867  53.577  -7.412  1.00  0.00    -0.312 OA
HETATM    9  C9  UNL     1       1.272  54.698  -6.638  1.00  0.00     0.146 C 
HETATM   10  C10 UNL     1       2.589  54.456  -5.861  1.00  0.00     0.068 C 
HETATM   11  C11 UNL     1       3.427  55.726  -6.119  1.00  0.00     0.162 C 
HETATM   12  O4  UNL     1       4.354  55.547  -7.212  1.00  0.00    -0.377 OA
HETATM   13  C12 UNL     1       3.757  55.023  -8.413  1.00  0.00     0.127 C 
HETATM   14  C13 UNL     1       4.773  55.032  -9.570  1.00  0.00     0.032 C 
HETATM   15  C14 UNL     1       4.397  55.968 -10.724  1.00  0.00     0.003 C 
HETATM   16  C15 UNL     1       2.946  55.837 -11.221  1.00  0.00     0.007 C 
HETATM   17  C16 UNL     1       1.934  55.320 -10.158  1.00  0.00     0.017 C 
HETATM   18  C17 UNL     1       1.761  53.796 -10.341  1.00  0.00     0.183 C 
HETATM   19  O5  UNL     1       0.406  53.506 -10.740  1.00  0.00    -0.319 OA
HETATM   20  C18 UNL     1       0.227  52.990 -11.984  1.00  0.00     0.291 C 
HETATM   21  O6  UNL     1       1.099  52.801 -12.818  1.00  0.00    -0.262 OA
HETATM   22  C19 UNL     1      -1.186  52.584 -12.179  1.00  0.00     0.259 A 
HETATM   23  O7  UNL     1      -1.563  52.157 -13.497  1.00  0.00    -0.356 OA
HETATM   24  C20 UNL     1      -1.544  51.134 -12.487  1.00  0.00     0.128 A 
HETATM   25  C21 UNL     1      -0.466  50.099 -12.672  1.00  0.00     0.070 C 
HETATM   26  C22 UNL     1      -1.056  48.694 -12.617  1.00  0.00     0.172 C 
HETATM   27  O8  UNL     1      -1.756  48.470 -11.391  1.00  0.00    -0.371 OA
HETATM   28  C23 UNL     1      -2.910  50.603 -12.118  1.00  0.00     0.197 C 
HETATM   29  C24 UNL     1       2.464  55.784  -8.777  1.00  0.00     0.034 C 
HETATM   30  C25 UNL     1       1.521  55.957  -7.528  1.00  0.00     0.025 C 
HETATM   31  C26 UNL     1       0.206  56.639  -7.896  1.00  0.00     0.022 C 
HETATM   32  C27 UNL     1       2.405  56.722  -6.564  1.00  0.00     0.118 A 
HETATM   33  C28 UNL     1       2.573  58.217  -6.472  1.00  0.00     0.210 A 
HETATM   34  O10 UNL     1       1.762  57.478  -5.535  1.00  0.00    -0.371 OA
ENDROOT
BRANCH   1  35
HETATM   35  C2  UNL     1      -4.082  48.646 -10.872  1.00  0.00     0.155 C 
HETATM   36  C1  UNL     1      -3.901  47.179 -10.503  1.00  0.00     0.042 C 
BRANCH  35  37
HETATM   37  O1  UNL     1      -4.856  48.701 -12.086  1.00  0.00    -0.393 OA
HETATM   38  H5  UNL     1      -4.819  49.638 -12.365  1.00  0.00     0.210 HD
ENDBRANCH  35  37
ENDBRANCH   1  35
BRANCH  28  39
HETATM   39  O9  UNL     1      -3.550  50.133 -13.310  1.00  0.00    -0.389 OA
HETATM   40  H30 UNL     1      -3.384  50.806 -13.998  1.00  0.00     0.210 HD
ENDBRANCH  28  39
TORSDOF 3
ENDMDL
MODEL 4
REMARK minimizedAffinity -8.07400799
REMARK CNNscore 0.392852038
REMARK CNNaffinity 5.46815634
REMARK  3 active torsions:
REMARK  status: ('A' for Active; 'I' for Inactive)
REMARK    1  A    between atoms: C2_2  and  O1_3 
REMARK    2  A    between atoms: C2_2  and  C3_4 
REMARK    3  A    between atoms: C23_31  and  O9_32 
ROOT
HETATM    1  C3  UNL     1      -9.797  46.033 -26.973  1.00  0.00     0.133 C 
HETATM    2  C4  UNL     1     -10.966  46.698 -26.244  1.00  0.00     0.016 C 
HETATM    3  C5  UNL     1     -11.516  46.307 -25.084  1.00  0.00    -0.001 C 
HETATM    4  C6  UNL     1     -12.730  46.858 -24.526  1.00  0.00     0.006 C 
HETATM    5  C7  UNL     1     -13.876  46.909 -25.222  1.00  0.00     0.082 C 
HETATM    6  C8  UNL     1     -15.135  47.213 -24.526  1.00  0.00     0.283 C 
HETATM    7  O2  UNL     1     -15.288  48.052 -23.656  1.00  0.00    -0.260 OA
HETATM    8  O3  UNL     1     -16.049  46.313 -24.972  1.00  0.00    -0.312 OA
HETATM    9  C9  UNL     1     -17.222  46.177 -24.181  1.00  0.00     0.146 C 
HETATM   10  C10 UNL     1     -18.404  47.034 -24.696  1.00  0.00     0.068 C 
HETATM   11  C11 UNL     1     -19.613  46.074 -24.676  1.00  0.00     0.162 C 
HETATM   12  O4  UNL     1     -19.841  45.468 -25.966  1.00  0.00    -0.377 OA
HETATM   13  C12 UNL     1     -18.670  44.873 -26.555  1.00  0.00     0.127 C 
HETATM   14  C13 UNL     1     -19.040  44.102 -27.835  1.00  0.00     0.032 C 
HETATM   15  C14 UNL     1     -18.807  42.590 -27.744  1.00  0.00     0.003 C 
HETATM   16  C15 UNL     1     -17.431  42.177 -27.190  1.00  0.00     0.007 C 
HETATM   17  C16 UNL     1     -16.768  43.217 -26.240  1.00  0.00     0.017 C 
HETATM   18  C17 UNL     1     -15.785  44.079 -27.062  1.00  0.00     0.183 C 
HETATM   19  O5  UNL     1     -14.438  43.854 -26.599  1.00  0.00    -0.319 OA
HETATM   20  C18 UNL     1     -13.579  43.259 -27.468  1.00  0.00     0.291 C 
HETATM   21  O6  UNL     1     -13.854  42.847 -28.583  1.00  0.00    -0.262 OA
HETATM   22  C19 UNL     1     -12.203  43.256 -26.917  1.00  0.00     0.259 A 
HETATM   23  O7  UNL     1     -11.209  42.530 -27.655  1.00  0.00    -0.356 OA
HETATM   24  C20 UNL     1     -11.068  43.961 -27.652  1.00  0.00     0.128 A 
HETATM   25  C21 UNL     1     -11.305  44.611 -28.989  1.00  0.00     0.070 C 
HETATM   26  C22 UNL     1     -10.147  45.533 -29.351  1.00  0.00     0.172 C 
HETATM   27  O8  UNL     1      -9.937  46.526 -28.346  1.00  0.00    -0.371 OA
HETATM   28  C23 UNL     1      -9.870  44.462 -26.881  1.00  0.00     0.197 C 
HETATM   29  C24 UNL     1     -17.923  43.978 -25.541  1.00  0.00     0.034 C 
HETATM   30  C25 UNL     1     -17.736  44.703 -24.156  1.00  0.00     0.025 C 
HETATM   31  C26 UNL     1     -16.930  43.857 -23.173  1.00  0.00     0.022 C 
HETATM   32  C27 UNL     1     -19.167  44.988 -23.749  1.00  0.00     0.118 A 
HETATM   33  C28 UNL     1     -20.099  44.077 -22.992  1.00  0.00     0.210 A 
HETATM   34  O10 UNL     1     -19.433  45.189 -22.358  1.00  0.00    -0.371 OA
ENDROOT
BRANCH   1  35
HETATM   35  C2  UNL     1      -8.411  46.582 -26.508  1.00  0.00     0.155 C 
HETATM   36  C1  UNL     1      -8.018  46.253 -25.074  1.00  0.00     0.042 C 
BRANCH  35  37
HETATM   37  O1  UNL     1      -8.368  48.014 -26.658  1.00  0.00    -0.393 OA
HETATM   38  H5  UNL     1      -8.768  48.187 -27.534  1.00  0.00     0.210 HD
ENDBRANCH  35  37
ENDBRANCH   1  35
BRANCH  28  39
HETATM   39  O9  UNL     1      -8.695  43.834 -27.407  1.00  0.00    -0.389 OA
HETATM   40  H30 UNL     1      -8.919  42.892 -27.534  1.00  0.00     0.210 HD
ENDBRANCH  28  39
TORSDOF 3
ENDMDL
MODEL 5
REMARK minimizedAffinity -7.96993017
REMARK CNNscore 0.377847105
REMARK CNNaffinity 5.08110428
REMARK  3 active torsions:
REMARK  status: ('A' for Active; 'I' for Inactive)
REMARK    1  A    between atoms: C2_2  and  O1_3 
REMARK    2  A    between atoms: C2_2  and  C3_4 
REMARK    3  A    between atoms: C23_31  and  O9_32 
ROOT
HETATM    1  C3  UNL     1      -9.696  46.108 -27.650  1.00  0.00     0.133 C 
HETATM    2  C4  UNL     1     -10.442  44.790 -27.867  1.00  0.00     0.016 C 
HETATM    3  C5  UNL     1     -11.318  44.514 -28.847  1.00  0.00    -0.001 C 
HETATM    4  C6  UNL     1     -12.130  43.321 -28.907  1.00  0.00     0.006 C 
HETATM    5  C7  UNL     1     -12.922  42.944 -27.892  1.00  0.00     0.082 C 
HETATM    6  C8  UNL     1     -13.929  41.895 -28.107  1.00  0.00     0.283 C 
HETATM    7  O2  UNL     1     -13.769  40.868 -28.744  1.00  0.00    -0.260 OA
HETATM    8  O3  UNL     1     -15.081  42.345 -27.547  1.00  0.00    -0.312 OA
HETATM    9  C9  UNL     1     -16.269  41.673 -27.947  1.00  0.00     0.146 C 
HETATM   10  C10 UNL     1     -16.695  40.556 -26.964  1.00  0.00     0.068 C 
HETATM   11  C11 UNL     1     -18.209  40.781 -26.759  1.00  0.00     0.162 C 
HETATM   12  O4  UNL     1     -18.483  41.558 -25.574  1.00  0.00    -0.377 OA
HETATM   13  C12 UNL     1     -17.723  42.777 -25.478  1.00  0.00     0.127 C 
HETATM   14  C13 UNL     1     -18.205  43.621 -24.284  1.00  0.00     0.032 C 
HETATM   15  C14 UNL     1     -18.833  44.962 -24.679  1.00  0.00     0.003 C 
HETATM   16  C15 UNL     1     -18.017  45.790 -25.690  1.00  0.00     0.007 C 
HETATM   17  C16 UNL     1     -17.091  44.957 -26.622  1.00  0.00     0.017 C 
HETATM   18  C17 UNL     1     -15.668  44.943 -26.020  1.00  0.00     0.183 C 
HETATM   19  O5  UNL     1     -14.760  45.628 -26.907  1.00  0.00    -0.319 OA
HETATM   20  C18 UNL     1     -14.207  46.782 -26.451  1.00  0.00     0.291 C 
HETATM   21  O6  UNL     1     -14.449  47.325 -25.385  1.00  0.00    -0.262 OA
HETATM   22  C19 UNL     1     -13.173  47.270 -27.395  1.00  0.00     0.259 A 
HETATM   23  O7  UNL     1     -12.602  48.559 -27.124  1.00  0.00    -0.356 OA
HETATM   24  C20 UNL     1     -11.725  47.434 -26.946  1.00  0.00     0.128 A 
HETATM   25  C21 UNL     1     -11.329  47.175 -25.516  1.00  0.00     0.070 C 
HETATM   26  C22 UNL     1      -9.814  47.060 -25.390  1.00  0.00     0.172 C 
HETATM   27  O8  UNL     1      -9.297  46.036 -26.242  1.00  0.00    -0.371 OA
HETATM   28  C23 UNL     1     -10.609  47.353 -27.961  1.00  0.00     0.197 C 
HETATM   29  C24 UNL     1     -17.768  43.574 -26.800  1.00  0.00     0.034 C 
HETATM   30  C25 UNL     1     -17.483  42.651 -28.043  1.00  0.00     0.025 C 
HETATM   31  C26 UNL     1     -17.448  43.444 -29.347  1.00  0.00     0.022 C 
HETATM   32  C27 UNL     1     -18.588  41.621 -27.937  1.00  0.00     0.118 A 
HETATM   33  C28 UNL     1     -19.983  41.717 -28.502  1.00  0.00     0.210 A 
HETATM   34  O10 UNL     1     -18.956  40.919 -29.127  1.00  0.00    -0.371 OA
ENDROOT
BRANCH   1  35
HETATM   35  C2  UNL     1      -8.344  46.166 -28.429  1.00  0.00     0.155 C 
HETATM   36  C1  UNL     1      -7.593  44.846 -28.548  1.00  0.00     0.042 C 
BRANCH  35  37
HETATM   37  O1  UNL     1      -7.457  47.122 -27.816  1.00  0.00    -0.393 OA
HETATM   38  H5  UNL     1      -8.020  47.898 -27.622  1.00  0.00     0.210 HD
ENDBRANCH  35  37
ENDBRANCH   1  35
BRANCH  28  39
HETATM   39  O9  UNL     1      -9.876  48.583 -27.930  1.00  0.00    -0.389 OA
HETATM   40  H30 UNL     1     -10.539  49.299 -27.890  1.00  0.00     0.210 HD
ENDBRANCH  28  39
TORSDOF 3
ENDMDL
MODEL 6
REMARK minimizedAffinity -9.59382439
REMARK CNNscore 0.37252003
REMARK CNNaffinity 6.45186806
REMARK  3 active torsions:
REMARK  status: ('A' for Active; 'I' for Inactive)
REMARK    1  A    between atoms: C2_2  and  O1_3 
REMARK    2  A    between atoms: C2_2  and  C3_4 
REMARK    3  A    between atoms: C23_31  and  O9_32 
ROOT
HETATM    1  C3  UNL     1      -0.597  52.672 -26.339  1.00  0.00     0.133 C 
HETATM    2  C4  UNL     1      -1.826  51.773 -26.196  1.00  0.00     0.016 C 
HETATM    3  C5  UNL     1      -2.986  52.086 -25.596  1.00  0.00    -0.001 C 
HETATM    4  C6  UNL     1      -4.050  51.146 -25.328  1.00  0.00     0.006 C 
HETATM    5  C7  UNL     1      -3.841  50.004 -24.656  1.00  0.00     0.082 C 
HETATM    6  C8  UNL     1      -4.990  49.227 -24.168  1.00  0.00     0.283 C 
HETATM    7  O2  UNL     1      -6.023  49.017 -24.779  1.00  0.00    -0.260 OA
HETATM    8  O3  UNL     1      -4.709  48.886 -22.885  1.00  0.00    -0.312 OA
HETATM    9  C9  UNL     1      -5.814  48.456 -22.101  1.00  0.00     0.146 C 
HETATM   10  C10 UNL     1      -5.965  46.916 -22.057  1.00  0.00     0.068 C 
HETATM   11  C11 UNL     1      -6.197  46.594 -20.565  1.00  0.00     0.162 C 
HETATM   12  O4  UNL     1      -4.972  46.225 -19.896  1.00  0.00    -0.377 OA
HETATM   13  C12 UNL     1      -3.886  47.146 -20.102  1.00  0.00     0.127 C 
HETATM   14  C13 UNL     1      -2.684  46.771 -19.217  1.00  0.00     0.032 C 
HETATM   15  C14 UNL     1      -2.341  47.818 -18.152  1.00  0.00     0.003 C 
HETATM   16  C15 UNL     1      -2.257  49.267 -18.668  1.00  0.00     0.007 C 
HETATM   17  C16 UNL     1      -3.116  49.562 -19.932  1.00  0.00     0.017 C 
HETATM   18  C17 UNL     1      -2.215  49.439 -21.181  1.00  0.00     0.183 C 
HETATM   19  O5  UNL     1      -2.102  50.723 -21.826  1.00  0.00    -0.319 OA
HETATM   20  C18 UNL     1      -0.873  51.303 -21.834  1.00  0.00     0.291 C 
HETATM   21  O6  UNL     1       0.133  50.865 -21.298  1.00  0.00    -0.262 OA
HETATM   22  C19 UNL     1      -0.880  52.522 -22.678  1.00  0.00     0.259 A 
HETATM   23  O7  UNL     1       0.309  53.326 -22.667  1.00  0.00    -0.356 OA
HETATM   24  C20 UNL     1       0.033  52.631 -23.895  1.00  0.00     0.128 A 
HETATM   25  C21 UNL     1       1.012  51.535 -24.222  1.00  0.00     0.070 C 
HETATM   26  C22 UNL     1       1.545  51.698 -25.641  1.00  0.00     0.172 C 
HETATM   27  O8  UNL     1       0.485  51.719 -26.598  1.00  0.00    -0.371 OA
HETATM   28  C23 UNL     1      -0.352  53.534 -25.044  1.00  0.00     0.197 C 
HETATM   29  C24 UNL     1      -4.334  48.606 -19.873  1.00  0.00     0.034 C 
HETATM   30  C25 UNL     1      -5.687  48.920 -20.615  1.00  0.00     0.025 C 
HETATM   31  C26 UNL     1      -6.098  50.382 -20.460  1.00  0.00     0.022 C 
HETATM   32  C27 UNL     1      -6.632  47.909 -20.000  1.00  0.00     0.118 A 
HETATM   33  C28 UNL     1      -7.445  48.069 -18.740  1.00  0.00     0.210 A 
HETATM   34  O10 UNL     1      -8.032  48.193 -20.052  1.00  0.00    -0.371 OA
ENDROOT
BRANCH   1  35
HETATM   35  C2  UNL     1      -0.648  53.554 -27.627  1.00  0.00     0.155 C 
HETATM   36  C1  UNL     1      -0.198  55.000 -27.455  1.00  0.00     0.042 C 
BRANCH  35  37
HETATM   37  O1  UNL     1      -1.984  53.571 -28.166  1.00  0.00    -0.393 OA
HETATM   38  H5  UNL     1      -2.286  52.642 -28.118  1.00  0.00     0.210 HD
ENDBRANCH  35  37
ENDBRANCH   1  35
BRANCH  28  39
HETATM   39  O9  UNL     1       0.688  54.503 -25.227  1.00  0.00    -0.389 OA
HETATM   40  H30 UNL     1       0.936  54.814 -24.336  1.00  0.00     0.210 HD
ENDBRANCH  28  39
TORSDOF 3
ENDMDL
MODEL 7
REMARK minimizedAffinity -8.38182163
REMARK CNNscore 0.327226609
REMARK CNNaffinity 5.22828722
REMARK  3 active torsions:
REMARK  status: ('A' for Active; 'I' for Inactive)
REMARK    1  A    between atoms: C2_2  and  O1_3 
REMARK    2  A    between atoms: C2_2  and  C3_4 
REMARK    3  A    between atoms: C23_31  and  O9_32 
ROOT
HETATM    1  C3  UNL     1       4.369  64.962 -34.359  1.00  0.00     0.133 C 
HETATM    2  C4  UNL     1       3.351  65.939 -34.948  1.00  0.00     0.016 C 
HETATM    3  C5  UNL     1       2.599  65.753 -36.046  1.00  0.00    -0.001 C 
HETATM    4  C6  UNL     1       1.785  66.774 -36.663  1.00  0.00     0.006 C 
HETATM    5  C7  UNL     1       2.287  67.963 -37.029  1.00  0.00     0.082 C 
HETATM    6  C8  UNL     1       1.498  68.848 -37.899  1.00  0.00     0.283 C 
HETATM    7  O2  UNL     1       0.300  69.055 -37.813  1.00  0.00    -0.260 OA
HETATM    8  O3  UNL     1       2.344  69.298 -38.861  1.00  0.00    -0.312 OA
HETATM    9  C9  UNL     1       1.729  69.865 -40.011  1.00  0.00     0.146 C 
HETATM   10  C10 UNL     1       1.623  71.408 -39.943  1.00  0.00     0.068 C 
HETATM   11  C11 UNL     1       2.110  71.888 -41.328  1.00  0.00     0.162 C 
HETATM   12  O4  UNL     1       3.507  72.252 -41.311  1.00  0.00    -0.377 OA
HETATM   13  C12 UNL     1       4.371  71.255 -40.735  1.00  0.00     0.127 C 
HETATM   14  C13 UNL     1       5.848  71.647 -40.919  1.00  0.00     0.032 C 
HETATM   15  C14 UNL     1       6.640  70.692 -41.818  1.00  0.00     0.003 C 
HETATM   16  C15 UNL     1       6.469  69.197 -41.489  1.00  0.00     0.007 C 
HETATM   17  C16 UNL     1       5.121  68.828 -40.805  1.00  0.00     0.017 C 
HETATM   18  C17 UNL     1       5.340  68.776 -39.277  1.00  0.00     0.183 C 
HETATM   19  O5  UNL     1       5.136  67.430 -38.804  1.00  0.00    -0.319 OA
HETATM   20  C18 UNL     1       6.219  66.784 -38.297  1.00  0.00     0.291 C 
HETATM   21  O6  UNL     1       7.360  67.214 -38.256  1.00  0.00    -0.262 OA
HETATM   22  C19 UNL     1       5.816  65.489 -37.695  1.00  0.00     0.259 A 
HETATM   23  O7  UNL     1       6.871  64.624 -37.250  1.00  0.00    -0.356 OA
HETATM   24  C20 UNL     1       6.060  65.209 -36.217  1.00  0.00     0.128 A 
HETATM   25  C21 UNL     1       6.781  66.210 -35.353  1.00  0.00     0.070 C 
HETATM   26  C22 UNL     1       6.596  65.877 -33.877  1.00  0.00     0.172 C 
HETATM   27  O8  UNL     1       5.212  65.822 -33.525  1.00  0.00    -0.371 OA
HETATM   28  C23 UNL     1       5.184  64.220 -35.485  1.00  0.00     0.197 C 
HETATM   29  C24 UNL     1       4.073  69.852 -41.309  1.00  0.00     0.034 C 
HETATM   30  C25 UNL     1       2.529  69.544 -41.314  1.00  0.00     0.025 C 
HETATM   31  C26 UNL     1       2.231  68.130 -41.806  1.00  0.00     0.022 C 
HETATM   32  C27 UNL     1       1.981  70.663 -42.175  1.00  0.00     0.118 A 
HETATM   33  C28 UNL     1       1.844  70.674 -43.676  1.00  0.00     0.210 A 
HETATM   34  O10 UNL     1       0.715  70.454 -42.805  1.00  0.00    -0.371 OA
ENDROOT
BRANCH   1  35
HETATM   35  C2  UNL     1       3.724  63.961 -33.349  1.00  0.00     0.155 C 
HETATM   36  C1  UNL     1       4.561  63.631 -32.120  1.00  0.00     0.042 C 
BRANCH  35  37
HETATM   37  O1  UNL     1       3.408  62.721 -34.011  1.00  0.00    -0.393 OA
HETATM   38  H5  UNL     1       3.006  62.986 -34.862  1.00  0.00     0.210 HD
ENDBRANCH  35  37
ENDBRANCH   1  35
BRANCH  28  39
HETATM   39  O9  UNL     1       6.015  63.181 -34.955  1.00  0.00    -0.389 OA
HETATM   40  H30 UNL     1       6.647  62.945 -35.662  1.00  0.00     0.210 HD
ENDBRANCH  28  39
TORSDOF 3
ENDMDL
MODEL 8
REMARK minimizedAffinity -7.15813589
REMARK CNNscore 0.325765669
REMARK CNNaffinity 5.20078897
REMARK  3 active torsions:
REMARK  status: ('A' for Active; 'I' for Inactive)
REMARK    1  A    between atoms: C2_2  and  O1_3 
REMARK    2  A    between atoms: C2_2  and  C3_4 
REMARK    3  A    between atoms: C23_31  and  O9_32 
ROOT
HETATM    1  C3  UNL     1       4.970  58.366  -4.075  1.00  0.00     0.133 C 
HETATM    2  C4  UNL     1       3.653  58.348  -4.852  1.00  0.00     0.016 C 
HETATM    3  C5  UNL     1       2.581  57.580  -4.598  1.00  0.00    -0.001 C 
HETATM    4  C6  UNL     1       1.430  57.468  -5.464  1.00  0.00     0.006 C 
HETATM    5  C7  UNL     1       1.542  57.141  -6.760  1.00  0.00     0.082 C 
HETATM    6  C8  UNL     1       0.340  56.767  -7.521  1.00  0.00     0.283 C 
HETATM    7  O2  UNL     1      -0.748  57.311  -7.454  1.00  0.00    -0.260 OA
HETATM    8  O3  UNL     1       0.660  55.649  -8.223  1.00  0.00    -0.312 OA
HETATM    9  C9  UNL     1      -0.437  54.904  -8.736  1.00  0.00     0.146 C 
HETATM   10  C10 UNL     1      -0.771  55.251 -10.208  1.00  0.00     0.068 C 
HETATM   11  C11 UNL     1      -0.944  53.880 -10.896  1.00  0.00     0.162 C 
HETATM   12  O4  UNL     1       0.268  53.450 -11.553  1.00  0.00    -0.377 OA
HETATM   13  C12 UNL     1       1.443  53.509 -10.724  1.00  0.00     0.127 C 
HETATM   14  C13 UNL     1       2.645  52.870 -11.443  1.00  0.00     0.032 C 
HETATM   15  C14 UNL     1       3.180  51.606 -10.762  1.00  0.00     0.003 C 
HETATM   16  C15 UNL     1       3.407  51.732  -9.244  1.00  0.00     0.007 C 
HETATM   17  C16 UNL     1       2.510  52.787  -8.534  1.00  0.00     0.017 C 
HETATM   18  C17 UNL     1       3.307  54.104  -8.404  1.00  0.00     0.183 C 
HETATM   19  O5  UNL     1       3.533  54.398  -7.011  1.00  0.00    -0.319 OA
HETATM   20  C18 UNL     1       4.821  54.371  -6.577  1.00  0.00     0.291 C 
HETATM   21  O6  UNL     1       5.798  54.066  -7.241  1.00  0.00    -0.262 OA
HETATM   22  C19 UNL     1       4.908  54.863  -5.181  1.00  0.00     0.259 A 
HETATM   23  O7  UNL     1       6.184  54.754  -4.533  1.00  0.00    -0.356 OA
HETATM   24  C20 UNL     1       5.747  56.089  -4.838  1.00  0.00     0.128 A 
HETATM   25  C21 UNL     1       6.562  56.783  -5.897  1.00  0.00     0.070 C 
HETATM   26  C22 UNL     1       7.019  58.153  -5.410  1.00  0.00     0.172 C 
HETATM   27  O8  UNL     1       5.910  58.966  -5.026  1.00  0.00    -0.371 OA
HETATM   28  C23 UNL     1       5.402  56.920  -3.624  1.00  0.00     0.197 C 
HETATM   29  C24 UNL     1       1.191  52.865  -9.343  1.00  0.00     0.034 C 
HETATM   30  C25 UNL     1      -0.159  53.368  -8.706  1.00  0.00     0.025 C 
HETATM   31  C26 UNL     1      -0.378  52.797  -7.307  1.00  0.00     0.022 C 
HETATM   32  C27 UNL     1      -1.178  52.952  -9.747  1.00  0.00     0.118 A 
HETATM   33  C28 UNL     1      -1.883  51.623  -9.853  1.00  0.00     0.210 A 
HETATM   34  O10 UNL     1      -2.534  52.796  -9.320  1.00  0.00    -0.371 OA
ENDROOT
BRANCH   1  35
HETATM   35  C2  UNL     1       4.945  59.368  -2.877  1.00  0.00     0.155 C 
HETATM   36  C1  UNL     1       4.226  60.686  -3.133  1.00  0.00     0.042 C 
BRANCH  35  37
HETATM   37  O1  UNL     1       6.289  59.674  -2.456  1.00  0.00    -0.393 OA
HETATM   38  H5  UNL     1       6.753  58.813  -2.450  1.00  0.00     0.210 HD
ENDBRANCH  35  37
ENDBRANCH   1  35
BRANCH  28  39
HETATM   39  O9  UNL     1       6.538  56.941  -2.751  1.00  0.00    -0.389 OA
HETATM   40  H30 UNL     1       6.879  56.027  -2.719  1.00  0.00     0.210 HD
ENDBRANCH  28  39
TORSDOF 3
ENDMDL
MODEL 9
REMARK minimizedAffinity -7.21554804
REMARK CNNscore 0.306829304
REMARK CNNaffinity 5.24572182
REMARK  3 active torsions:
REMARK  status: ('A' for Active; 'I' for Inactive)
REMARK    1  A    between atoms: C2_2  and  O1_3 
REMARK    2  A    between atoms: C2_2  and  C3_4 
REMARK    3  A    between atoms: C23_31  and  O9_32 
ROOT
HETATM    1  C3  UNL     1      -5.070  48.963 -23.573  1.00  0.00     0.133 C 
HETATM    2  C4  UNL     1      -6.397  48.225 -23.759  1.00  0.00     0.016 C 
HETATM    3  C5  UNL     1      -7.625  48.769 -23.757  1.00  0.00    -0.001 C 
HETATM    4  C6  UNL     1      -8.856  48.012 -23.757  1.00  0.00     0.006 C 
HETATM    5  C7  UNL     1      -9.112  47.067 -22.840  1.00  0.00     0.082 C 
HETATM    6  C8  UNL     1     -10.475  46.530 -22.712  1.00  0.00     0.283 C 
HETATM    7  O2  UNL     1     -11.224  46.250 -23.631  1.00  0.00    -0.260 OA
HETATM    8  O3  UNL     1     -10.757  46.507 -21.384  1.00  0.00    -0.312 OA
HETATM    9  C9  UNL     1     -12.132  46.377 -21.045  1.00  0.00     0.146 C 
HETATM   10  C10 UNL     1     -12.549  44.915 -20.752  1.00  0.00     0.068 C 
HETATM   11  C11 UNL     1     -13.374  45.003 -19.451  1.00  0.00     0.162 C 
HETATM   12  O4  UNL     1     -12.571  44.725 -18.284  1.00  0.00    -0.377 OA
HETATM   13  C12 UNL     1     -11.346  45.477 -18.215  1.00  0.00     0.127 C 
HETATM   14  C13 UNL     1     -10.646  45.249 -16.863  1.00  0.00     0.032 C 
HETATM   15  C14 UNL     1     -10.553  46.505 -15.989  1.00  0.00     0.003 C 
HETATM   16  C15 UNL     1     -10.035  47.763 -16.711  1.00  0.00     0.007 C 
HETATM   17  C16 UNL     1     -10.295  47.791 -18.245  1.00  0.00     0.017 C 
HETATM   18  C17 UNL     1      -9.028  47.284 -18.969  1.00  0.00     0.183 C 
HETATM   19  O5  UNL     1      -8.464  48.349 -19.761  1.00  0.00    -0.319 OA
HETATM   20  C18 UNL     1      -7.241  48.812 -19.389  1.00  0.00     0.291 C 
HETATM   21  O6  UNL     1      -6.600  48.451 -18.415  1.00  0.00    -0.262 OA
HETATM   22  C19 UNL     1      -6.723  49.772 -20.393  1.00  0.00     0.259 A 
HETATM   23  O7  UNL     1      -5.506  50.460 -20.066  1.00  0.00    -0.356 OA
HETATM   24  C20 UNL     1      -5.417  49.498 -21.131  1.00  0.00     0.128 A 
HETATM   25  C21 UNL     1      -4.589  48.284 -20.804  1.00  0.00     0.070 C 
HETATM   26  C22 UNL     1      -3.544  48.038 -21.886  1.00  0.00     0.172 C 
HETATM   27  O8  UNL     1      -4.150  47.895 -23.172  1.00  0.00    -0.371 OA
HETATM   28  C23 UNL     1      -5.183  50.105 -22.495  1.00  0.00     0.197 C 
HETATM   29  C24 UNL     1     -11.591  46.977 -18.490  1.00  0.00     0.034 C 
HETATM   30  C25 UNL     1     -12.493  47.193 -19.763  1.00  0.00     0.025 C 
HETATM   31  C26 UNL     1     -12.675  48.674 -20.089  1.00  0.00     0.022 C 
HETATM   32  C27 UNL     1     -13.757  46.447 -19.390  1.00  0.00     0.118 A 
HETATM   33  C28 UNL     1     -14.942  46.985 -18.629  1.00  0.00     0.210 A 
HETATM   34  O10 UNL     1     -14.965  46.815 -20.061  1.00  0.00    -0.371 OA
ENDROOT
BRANCH   1  35
HETATM   35  C2  UNL     1      -4.483  49.488 -24.922  1.00  0.00     0.155 C 
HETATM   36  C1  UNL     1      -3.001  49.218 -25.147  1.00  0.00     0.042 C 
BRANCH  35  37
HETATM   37  O1  UNL     1      -4.692  50.910 -25.034  1.00  0.00    -0.393 OA
HETATM   38  H5  UNL     1      -5.613  51.052 -24.737  1.00  0.00     0.210 HD
ENDBRANCH  35  37
ENDBRANCH   1  35
BRANCH  28  39
HETATM   39  O9  UNL     1      -4.001  50.912 -22.436  1.00  0.00    -0.389 OA
HETATM   40  H30 UNL     1      -4.056  51.421 -21.604  1.00  0.00     0.210 HD
ENDBRANCH  28  39
TORSDOF 3
ENDMDL
