MODEL 1
REMARK minimizedAffinity -8.57769108
REMARK CNNscore 0.167715609
REMARK CNNaffinity 6.14540243
REMARK  13 active torsions:
REMARK  status: ('A' for Active; 'I' for Inactive)
REMARK    1  A    between atoms: C2_2  and  C3_3 
REMARK    2  A    between atoms: C2_2  and  C11_12 
REMARK    3  A    between atoms: C3_3  and  C4_4 
REMARK    4  A    between atoms: C4_4  and  C5_5 
REMARK    5  A    between atoms: C5_5  and  O1_7 
REMARK    6  A    between atoms: C5_5  and  C7_8 
REMARK    7  A    between atoms: C28_32  and  O5_33 
REMARK    8  A    between atoms: O5_33  and  C29_34 
REMARK    9  A    between atoms: C30_36  and  C31_37 
REMARK   10  A    between atoms: C31_37  and  O7_38 
REMARK   11  A    between atoms: C32_39  and  O8_40 
REMARK   12  A    between atoms: C33_41  and  O9_42 
REMARK   13  A    between atoms: C34_43  and  O10_44 
ROOT
HETATM    1  C11 UNL     1      -7.068  47.940 -23.094  1.00  0.00    -0.001 C 
HETATM    2  C12 UNL     1      -6.115  48.053 -24.318  1.00  0.00     0.007 C 
HETATM    3  C13 UNL     1      -6.882  47.572 -25.561  1.00  0.00     0.024 C 
HETATM    4  C14 UNL     1      -8.268  47.245 -25.050  1.00  0.00     0.092 C 
HETATM    5  C15 UNL     1      -9.214  48.467 -25.156  1.00  0.00     0.272 C 
HETATM    6  O2  UNL     1      -8.914  49.648 -25.131  1.00  0.00    -0.264 OA
HETATM    7  O3  UNL     1     -10.509  48.004 -25.280  1.00  0.00    -0.305 OA
HETATM    8  C16 UNL     1     -10.497  46.551 -25.244  1.00  0.00     0.113 C 
HETATM    9  C17 UNL     1     -10.552  46.146 -23.735  1.00  0.00     0.043 C 
HETATM   10  C18 UNL     1      -9.466  46.838 -22.863  1.00  0.00     0.014 C 
HETATM   11  C19 UNL     1      -8.077  46.837 -23.553  1.00  0.00    -0.020 C 
HETATM   12  C20 UNL     1      -7.449  45.429 -23.387  1.00  0.00     0.017 C 
HETATM   13  C21 UNL     1      -9.124  46.278 -25.768  1.00  0.00     0.137 A 
HETATM   14  O4  UNL     1      -8.689  44.972 -26.085  1.00  0.00    -0.364 OA
HETATM   15  C22 UNL     1      -8.888  45.872 -27.200  1.00  0.00     0.162 A 
HETATM   16  C23 UNL     1     -10.043  45.527 -28.080  1.00  0.00     0.041 C 
HETATM   17  C24 UNL     1     -11.337  46.259 -27.650  1.00  0.00     0.009 C 
HETATM   18  C25 UNL     1     -12.518  46.080 -28.691  1.00  0.00    -0.017 C 
HETATM   19  C26 UNL     1     -12.541  44.690 -29.370  1.00  0.00     0.018 C 
HETATM   20  C27 UNL     1     -12.286  47.105 -29.840  1.00  0.00     0.018 C 
HETATM   21  C28 UNL     1     -13.911  46.404 -28.060  1.00  0.00     0.133 C 
HETATM   22  C35 UNL     1     -13.759  47.364 -26.883  1.00  0.00     0.034 C 
HETATM   23  C36 UNL     1     -13.008  46.713 -25.724  1.00  0.00     0.015 C 
HETATM   24  C37 UNL     1     -11.679  45.988 -26.129  1.00  0.00    -0.004 C 
HETATM   25  C38 UNL     1     -11.868  44.473 -25.857  1.00  0.00     0.019 C 
ENDROOT
BRANCH  21  26
HETATM   26  O5  UNL     1     -14.530  45.197 -27.603  1.00  0.00    -0.352 OA
BRANCH  26  27
HETATM   27  C29 UNL     1     -15.954  45.171 -27.753  1.00  0.00     0.292 C 
HETATM   28  O6  UNL     1     -16.590  45.383 -26.490  1.00  0.00    -0.348 OA
HETATM   29  C30 UNL     1     -17.957  44.977 -26.482  1.00  0.00     0.179 C 
HETATM   30  C32 UNL     1     -18.092  43.442 -26.635  1.00  0.00     0.180 C 
HETATM   31  C33 UNL     1     -16.910  42.834 -27.412  1.00  0.00     0.183 C 
HETATM   32  C34 UNL     1     -16.343  43.825 -28.430  1.00  0.00     0.204 C 
BRANCH  29  33
HETATM   33  C31 UNL     1     -18.604  45.514 -25.202  1.00  0.00     0.198 C 
BRANCH  33  34
HETATM   34  O7  UNL     1     -19.499  46.584 -25.496  1.00  0.00    -0.398 OA
HETATM   35  H49 UNL     1     -19.133  47.383 -25.072  1.00  0.00     0.209 HD
ENDBRANCH  33  34
ENDBRANCH  29  33
BRANCH  30  36
HETATM   36  O8  UNL     1     -18.189  42.746 -25.380  1.00  0.00    -0.390 OA
HETATM   37  H51 UNL     1     -19.002  43.088 -24.950  1.00  0.00     0.210 HD
ENDBRANCH  30  36
BRANCH  31  38
HETATM   38  O9  UNL     1     -15.890  42.380 -26.517  1.00  0.00    -0.390 OA
HETATM   39  H53 UNL     1     -16.360  42.225 -25.668  1.00  0.00     0.210 HD
ENDBRANCH  31  38
BRANCH  32  40
HETATM   40  O10 UNL     1     -17.350  44.064 -29.438  1.00  0.00    -0.388 OA
HETATM   41  H55 UNL     1     -17.331  43.293 -30.034  1.00  0.00     0.210 HD
ENDBRANCH  32  40
ENDBRANCH  26  27
ENDBRANCH  21  26
BRANCH   1  42
HETATM   42  C2  UNL     1      -6.290  47.767 -21.754  1.00  0.00    -0.014 C 
HETATM   43  C1  UNL     1      -6.767  48.760 -20.687  1.00  0.00     0.010 C 
BRANCH  42  44
HETATM   44  C3  UNL     1      -4.758  47.954 -21.951  1.00  0.00     0.007 C 
BRANCH  44  45
HETATM   45  C4  UNL     1      -4.201  49.314 -21.513  1.00  0.00     0.038 C 
BRANCH  45  46
HETATM   46  C5  UNL     1      -2.999  49.965 -22.267  1.00  0.00     0.061 C 
HETATM   47  C6  UNL     1      -2.688  49.219 -23.574  1.00  0.00     0.046 C 
BRANCH  46  48
HETATM   48  O1  UNL     1      -3.516  51.259 -22.677  1.00  0.00    -0.389 OA
HETATM   49  H12 UNL     1      -4.275  51.114 -23.267  1.00  0.00     0.210 HD
ENDBRANCH  46  48
BRANCH  46  50
HETATM   50  C7  UNL     1      -1.693  50.273 -21.411  1.00  0.00    -0.021 C 
HETATM   51  C8  UNL     1      -2.039  51.067 -20.131  1.00  0.00     0.017 C 
HETATM   52  C9  UNL     1      -0.895  49.021 -20.993  1.00  0.00     0.017 C 
HETATM   53  C10 UNL     1      -0.707  51.159 -22.222  1.00  0.00     0.017 C 
ENDBRANCH  46  50
ENDBRANCH  45  46
ENDBRANCH  44  45
ENDBRANCH  42  44
ENDBRANCH   1  42
TORSDOF 13
ENDMDL
MODEL 2
REMARK minimizedAffinity -8.41674137
REMARK CNNscore 0.165932328
REMARK CNNaffinity 6.94887209
REMARK  13 active torsions:
REMARK  status: ('A' for Active; 'I' for Inactive)
REMARK    1  A    between atoms: C2_2  and  C3_3 
REMARK    2  A    between atoms: C2_2  and  C11_12 
REMARK    3  A    between atoms: C3_3  and  C4_4 
REMARK    4  A    between atoms: C4_4  and  C5_5 
REMARK    5  A    between atoms: C5_5  and  O1_7 
REMARK    6  A    between atoms: C5_5  and  C7_8 
REMARK    7  A    between atoms: C28_32  and  O5_33 
REMARK    8  A    between atoms: O5_33  and  C29_34 
REMARK    9  A    between atoms: C30_36  and  C31_37 
REMARK   10  A    between atoms: C31_37  and  O7_38 
REMARK   11  A    between atoms: C32_39  and  O8_40 
REMARK   12  A    between atoms: C33_41  and  O9_42 
REMARK   13  A    between atoms: C34_43  and  O10_44 
ROOT
HETATM    1  C11 UNL     1      -1.741  51.505 -22.285  1.00  0.00    -0.001 C 
HETATM    2  C12 UNL     1      -3.111  52.182 -22.571  1.00  0.00     0.007 C 
HETATM    3  C13 UNL     1      -4.219  51.227 -22.095  1.00  0.00     0.024 C 
HETATM    4  C14 UNL     1      -3.478  50.051 -21.498  1.00  0.00     0.092 C 
HETATM    5  C15 UNL     1      -3.235  50.244 -19.980  1.00  0.00     0.272 C 
HETATM    6  O2  UNL     1      -3.129  51.293 -19.369  1.00  0.00    -0.264 OA
HETATM    7  O3  UNL     1      -3.146  48.998 -19.393  1.00  0.00    -0.305 OA
HETATM    8  C16 UNL     1      -3.290  47.980 -20.420  1.00  0.00     0.113 C 
HETATM    9  C17 UNL     1      -1.864  47.745 -21.014  1.00  0.00     0.043 C 
HETATM   10  C18 UNL     1      -1.156  49.052 -21.474  1.00  0.00     0.014 C 
HETATM   11  C19 UNL     1      -2.113  49.987 -22.259  1.00  0.00    -0.020 C 
HETATM   12  C20 UNL     1      -2.254  49.441 -23.704  1.00  0.00     0.017 C 
HETATM   13  C21 UNL     1      -4.116  48.721 -21.421  1.00  0.00     0.137 A 
HETATM   14  O4  UNL     1      -4.673  48.083 -22.552  1.00  0.00    -0.364 OA
HETATM   15  C22 UNL     1      -5.604  48.513 -21.531  1.00  0.00     0.162 A 
HETATM   16  C23 UNL     1      -6.263  47.404 -20.782  1.00  0.00     0.041 C 
HETATM   17  C24 UNL     1      -5.489  47.037 -19.492  1.00  0.00     0.009 C 
HETATM   18  C25 UNL     1      -6.278  46.017 -18.572  1.00  0.00    -0.017 C 
HETATM   19  C26 UNL     1      -7.102  44.976 -19.366  1.00  0.00     0.018 C 
HETATM   20  C27 UNL     1      -7.316  46.837 -17.750  1.00  0.00     0.018 C 
HETATM   21  C28 UNL     1      -5.339  45.304 -17.546  1.00  0.00     0.133 C 
HETATM   22  C35 UNL     1      -4.109  46.162 -17.255  1.00  0.00     0.034 C 
HETATM   23  C36 UNL     1      -3.218  46.299 -18.487  1.00  0.00     0.015 C 
HETATM   24  C37 UNL     1      -3.975  46.696 -19.801  1.00  0.00    -0.004 C 
HETATM   25  C38 UNL     1      -3.857  45.507 -20.790  1.00  0.00     0.019 C 
ENDROOT
BRANCH  21  26
HETATM   26  O5  UNL     1      -4.914  44.042 -18.070  1.00  0.00    -0.352 OA
BRANCH  26  27
HETATM   27  C29 UNL     1      -4.615  43.059 -17.072  1.00  0.00     0.292 C 
HETATM   28  O6  UNL     1      -3.941  41.944 -17.662  1.00  0.00    -0.348 OA
HETATM   29  C30 UNL     1      -3.972  40.779 -16.837  1.00  0.00     0.179 C 
HETATM   30  C32 UNL     1      -5.410  40.225 -16.696  1.00  0.00     0.180 C 
HETATM   31  C33 UNL     1      -6.472  41.331 -16.842  1.00  0.00     0.183 C 
HETATM   32  C34 UNL     1      -5.942  42.680 -16.354  1.00  0.00     0.204 C 
BRANCH  29  33
HETATM   33  C31 UNL     1      -2.988  39.761 -17.421  1.00  0.00     0.198 C 
BRANCH  33  34
HETATM   34  O7  UNL     1      -3.133  39.669 -18.836  1.00  0.00    -0.398 OA
HETATM   35  H49 UNL     1      -3.438  38.763 -19.031  1.00  0.00     0.209 HD
ENDBRANCH  33  34
ENDBRANCH  29  33
BRANCH  30  36
HETATM   36  O8  UNL     1      -5.725  39.194 -17.649  1.00  0.00    -0.390 OA
HETATM   37  H51 UNL     1      -5.093  38.466 -17.469  1.00  0.00     0.210 HD
ENDBRANCH  30  36
BRANCH  31  38
HETATM   38  O9  UNL     1      -6.934  41.420 -18.194  1.00  0.00    -0.390 OA
HETATM   39  H53 UNL     1      -6.749  40.534 -18.575  1.00  0.00     0.210 HD
ENDBRANCH  31  38
BRANCH  32  40
HETATM   40  O10 UNL     1      -5.713  42.589 -14.931  1.00  0.00    -0.388 OA
HETATM   41  H55 UNL     1      -6.586  42.670 -14.506  1.00  0.00     0.210 HD
ENDBRANCH  32  40
ENDBRANCH  26  27
ENDBRANCH  21  26
BRANCH   1  42
HETATM   42  C2  UNL     1      -0.622  52.010 -23.246  1.00  0.00    -0.014 C 
HETATM   43  C1  UNL     1       0.671  52.341 -22.489  1.00  0.00     0.010 C 
BRANCH  42  44
HETATM   44  C3  UNL     1      -1.069  53.275 -24.033  1.00  0.00     0.007 C 
BRANCH  44  45
HETATM   45  C4  UNL     1      -0.182  53.654 -25.226  1.00  0.00     0.038 C 
BRANCH  45  46
HETATM   46  C5  UNL     1      -0.361  52.952 -26.609  1.00  0.00     0.061 C 
HETATM   47  C6  UNL     1      -1.839  52.632 -26.886  1.00  0.00     0.046 C 
BRANCH  46  48
HETATM   48  O1  UNL     1      -0.007  53.988 -27.564  1.00  0.00    -0.389 OA
HETATM   49  H12 UNL     1      -0.624  54.730 -27.455  1.00  0.00     0.210 HD
ENDBRANCH  46  48
BRANCH  46  50
HETATM   50  C7  UNL     1       0.601  51.725 -26.924  1.00  0.00    -0.021 C 
HETATM   51  C8  UNL     1       0.985  51.685 -28.420  1.00  0.00     0.017 C 
HETATM   52  C9  UNL     1       1.904  51.709 -26.099  1.00  0.00     0.017 C 
HETATM   53  C10 UNL     1      -0.114  50.379 -26.620  1.00  0.00     0.017 C 
ENDBRANCH  46  50
ENDBRANCH  45  46
ENDBRANCH  44  45
ENDBRANCH  42  44
ENDBRANCH   1  42
TORSDOF 13
ENDMDL
MODEL 3
REMARK minimizedAffinity -9.78247833
REMARK CNNscore 0.159495711
REMARK CNNaffinity 7.05408669
REMARK  13 active torsions:
REMARK  status: ('A' for Active; 'I' for Inactive)
REMARK    1  A    between atoms: C2_2  and  C3_3 
REMARK    2  A    between atoms: C2_2  and  C11_12 
REMARK    3  A    between atoms: C3_3  and  C4_4 
REMARK    4  A    between atoms: C4_4  and  C5_5 
REMARK    5  A    between atoms: C5_5  and  O1_7 
REMARK    6  A    between atoms: C5_5  and  C7_8 
REMARK    7  A    between atoms: C28_32  and  O5_33 
REMARK    8  A    between atoms: O5_33  and  C29_34 
REMARK    9  A    between atoms: C30_36  and  C31_37 
REMARK   10  A    between atoms: C31_37  and  O7_38 
REMARK   11  A    between atoms: C32_39  and  O8_40 
REMARK   12  A    between atoms: C33_41  and  O9_42 
REMARK   13  A    between atoms: C34_43  and  O10_44 
ROOT
HETATM    1  C11 UNL     1      -1.857  51.522 -22.265  1.00  0.00    -0.001 C 
HETATM    2  C12 UNL     1      -3.256  52.152 -22.517  1.00  0.00     0.007 C 
HETATM    3  C13 UNL     1      -4.319  51.152 -22.032  1.00  0.00     0.024 C 
HETATM    4  C14 UNL     1      -3.524  49.997 -21.465  1.00  0.00     0.092 C 
HETATM    5  C15 UNL     1      -3.259  50.180 -19.949  1.00  0.00     0.272 C 
HETATM    6  O2  UNL     1      -3.179  51.225 -19.327  1.00  0.00    -0.264 OA
HETATM    7  O3  UNL     1      -3.113  48.931 -19.379  1.00  0.00    -0.305 OA
HETATM    8  C16 UNL     1      -3.241  47.921 -20.417  1.00  0.00     0.113 C 
HETATM    9  C17 UNL     1      -1.819  47.745 -21.041  1.00  0.00     0.043 C 
HETATM   10  C18 UNL     1      -1.168  49.082 -21.497  1.00  0.00     0.014 C 
HETATM   11  C19 UNL     1      -2.173  49.991 -22.252  1.00  0.00    -0.020 C 
HETATM   12  C20 UNL     1      -2.322  49.459 -23.701  1.00  0.00     0.017 C 
HETATM   13  C21 UNL     1      -4.113  48.643 -21.392  1.00  0.00     0.137 A 
HETATM   14  O4  UNL     1      -4.668  48.000 -22.521  1.00  0.00    -0.364 OA
HETATM   15  C22 UNL     1      -5.594  48.383 -21.477  1.00  0.00     0.162 A 
HETATM   16  C23 UNL     1      -6.197  47.241 -20.729  1.00  0.00     0.041 C 
HETATM   17  C24 UNL     1      -5.386  46.888 -19.460  1.00  0.00     0.009 C 
HETATM   18  C25 UNL     1      -6.119  45.828 -18.538  1.00  0.00    -0.017 C 
HETATM   19  C26 UNL     1      -6.921  44.767 -19.329  1.00  0.00     0.018 C 
HETATM   20  C27 UNL     1      -7.169  46.600 -17.685  1.00  0.00     0.018 C 
HETATM   21  C28 UNL     1      -5.134  45.137 -17.539  1.00  0.00     0.133 C 
HETATM   22  C35 UNL     1      -3.932  46.036 -17.260  1.00  0.00     0.034 C 
HETATM   23  C36 UNL     1      -3.071  46.221 -18.508  1.00  0.00     0.015 C 
HETATM   24  C37 UNL     1      -3.867  46.606 -19.801  1.00  0.00    -0.004 C 
HETATM   25  C38 UNL     1      -3.725  45.434 -20.808  1.00  0.00     0.019 C 
ENDROOT
BRANCH  21  26
HETATM   26  O5  UNL     1      -4.675  43.898 -18.087  1.00  0.00    -0.352 OA
BRANCH  26  27
HETATM   27  C29 UNL     1      -4.036  43.035 -17.140  1.00  0.00     0.292 C 
HETATM   28  O6  UNL     1      -2.620  43.236 -17.164  1.00  0.00    -0.348 OA
HETATM   29  C30 UNL     1      -1.898  42.162 -16.564  1.00  0.00     0.179 C 
HETATM   30  C32 UNL     1      -2.031  40.860 -17.391  1.00  0.00     0.180 C 
HETATM   31  C33 UNL     1      -3.353  40.812 -18.180  1.00  0.00     0.183 C 
HETATM   32  C34 UNL     1      -4.464  41.572 -17.454  1.00  0.00     0.204 C 
BRANCH  29  33
HETATM   33  C31 UNL     1      -0.445  42.612 -16.381  1.00  0.00     0.198 C 
BRANCH  33  34
HETATM   34  O7  UNL     1      -0.386  43.882 -15.735  1.00  0.00    -0.398 OA
HETATM   35  H49 UNL     1       0.007  44.506 -16.375  1.00  0.00     0.209 HD
ENDBRANCH  33  34
ENDBRANCH  29  33
BRANCH  30  36
HETATM   36  O8  UNL     1      -0.959  40.663 -18.330  1.00  0.00    -0.390 OA
HETATM   37  H51 UNL     1      -0.142  40.605 -17.789  1.00  0.00     0.210 HD
ENDBRANCH  30  36
BRANCH  31  38
HETATM   38  O9  UNL     1      -3.173  41.312 -19.509  1.00  0.00    -0.390 OA
HETATM   39  H53 UNL     1      -2.214  41.194 -19.687  1.00  0.00     0.210 HD
ENDBRANCH  31  38
BRANCH  32  40
HETATM   40  O10 UNL     1      -4.757  40.879 -16.222  1.00  0.00    -0.388 OA
HETATM   41  H55 UNL     1      -5.307  40.111 -16.462  1.00  0.00     0.210 HD
ENDBRANCH  32  40
ENDBRANCH  26  27
ENDBRANCH  21  26
BRANCH   1  42
HETATM   42  C2  UNL     1      -0.776  52.080 -23.241  1.00  0.00    -0.014 C 
HETATM   43  C1  UNL     1       0.408  52.698 -22.485  1.00  0.00     0.010 C 
BRANCH  42  44
HETATM   44  C3  UNL     1      -1.365  53.156 -24.197  1.00  0.00     0.007 C 
BRANCH  44  45
HETATM   45  C4  UNL     1      -1.357  52.788 -25.687  1.00  0.00     0.038 C 
BRANCH  45  46
HETATM   46  C5  UNL     1      -0.085  53.024 -26.561  1.00  0.00     0.061 C 
HETATM   47  C6  UNL     1      -0.410  53.867 -27.804  1.00  0.00     0.046 C 
BRANCH  46  48
HETATM   48  O1  UNL     1       0.746  53.876 -25.726  1.00  0.00    -0.389 OA
HETATM   49  H12 UNL     1       0.266  54.704 -25.558  1.00  0.00     0.210 HD
ENDBRANCH  46  48
BRANCH  46  50
HETATM   50  C7  UNL     1       0.804  51.749 -26.898  1.00  0.00    -0.021 C 
HETATM   51  C8  UNL     1       1.079  51.645 -28.415  1.00  0.00     0.017 C 
HETATM   52  C9  UNL     1       2.160  51.704 -26.166  1.00  0.00     0.017 C 
HETATM   53  C10 UNL     1       0.058  50.445 -26.500  1.00  0.00     0.017 C 
ENDBRANCH  46  50
ENDBRANCH  45  46
ENDBRANCH  44  45
ENDBRANCH  42  44
ENDBRANCH   1  42
TORSDOF 13
ENDMDL
MODEL 4
REMARK minimizedAffinity -8.07739735
REMARK CNNscore 0.158904329
REMARK CNNaffinity 5.75045395
REMARK  13 active torsions:
REMARK  status: ('A' for Active; 'I' for Inactive)
REMARK    1  A    between atoms: C2_2  and  C3_3 
REMARK    2  A    between atoms: C2_2  and  C11_12 
REMARK    3  A    between atoms: C3_3  and  C4_4 
REMARK    4  A    between atoms: C4_4  and  C5_5 
REMARK    5  A    between atoms: C5_5  and  O1_7 
REMARK    6  A    between atoms: C5_5  and  C7_8 
REMARK    7  A    between atoms: C28_32  and  O5_33 
REMARK    8  A    between atoms: O5_33  and  C29_34 
REMARK    9  A    between atoms: C30_36  and  C31_37 
REMARK   10  A    between atoms: C31_37  and  O7_38 
REMARK   11  A    between atoms: C32_39  and  O8_40 
REMARK   12  A    between atoms: C33_41  and  O9_42 
REMARK   13  A    between atoms: C34_43  and  O10_44 
ROOT
HETATM    1  C11 UNL     1     -11.573  45.540 -27.804  1.00  0.00    -0.001 C 
HETATM    2  C12 UNL     1     -12.324  46.181 -29.005  1.00  0.00     0.007 C 
HETATM    3  C13 UNL     1     -13.829  46.157 -28.690  1.00  0.00     0.024 C 
HETATM    4  C14 UNL     1     -13.918  45.559 -27.303  1.00  0.00     0.092 C 
HETATM    5  C15 UNL     1     -13.885  46.656 -26.209  1.00  0.00     0.272 C 
HETATM    6  O2  UNL     1     -13.365  47.756 -26.271  1.00  0.00    -0.264 OA
HETATM    7  O3  UNL     1     -14.556  46.182 -25.099  1.00  0.00    -0.305 OA
HETATM    8  C16 UNL     1     -15.018  44.831 -25.368  1.00  0.00     0.113 C 
HETATM    9  C17 UNL     1     -13.837  43.877 -24.996  1.00  0.00     0.043 C 
HETATM   10  C18 UNL     1     -12.489  44.261 -25.672  1.00  0.00     0.014 C 
HETATM   11  C19 UNL     1     -12.671  44.625 -27.169  1.00  0.00    -0.020 C 
HETATM   12  C20 UNL     1     -12.813  43.310 -27.979  1.00  0.00     0.017 C 
HETATM   13  C21 UNL     1     -15.152  44.881 -26.855  1.00  0.00     0.137 A 
HETATM   14  O4  UNL     1     -15.746  43.831 -27.590  1.00  0.00    -0.364 OA
HETATM   15  C22 UNL     1     -16.487  45.072 -27.526  1.00  0.00     0.162 A 
HETATM   16  C23 UNL     1     -17.744  45.006 -26.724  1.00  0.00     0.041 C 
HETATM   17  C24 UNL     1     -17.513  45.421 -25.251  1.00  0.00     0.009 C 
HETATM   18  C25 UNL     1     -18.863  45.567 -24.435  1.00  0.00    -0.017 C 
HETATM   19  C26 UNL     1     -19.949  44.545 -24.845  1.00  0.00     0.018 C 
HETATM   20  C27 UNL     1     -19.458  46.968 -24.766  1.00  0.00     0.018 C 
HETATM   21  C28 UNL     1     -18.624  45.523 -22.891  1.00  0.00     0.133 C 
HETATM   22  C35 UNL     1     -17.203  45.968 -22.553  1.00  0.00     0.034 C 
HETATM   23  C36 UNL     1     -16.166  44.980 -23.082  1.00  0.00     0.015 C 
HETATM   24  C37 UNL     1     -16.363  44.565 -24.580  1.00  0.00    -0.004 C 
HETATM   25  C38 UNL     1     -16.700  43.051 -24.608  1.00  0.00     0.019 C 
ENDROOT
BRANCH  21  26
HETATM   26  O5  UNL     1     -18.825  44.191 -22.406  1.00  0.00    -0.352 OA
BRANCH  26  27
HETATM   27  C29 UNL     1     -19.866  44.069 -21.431  1.00  0.00     0.292 C 
HETATM   28  O6  UNL     1     -19.308  43.998 -20.116  1.00  0.00    -0.348 OA
HETATM   29  C30 UNL     1     -20.224  43.481 -19.153  1.00  0.00     0.179 C 
HETATM   30  C32 UNL     1     -20.548  41.992 -19.424  1.00  0.00     0.180 C 
HETATM   31  C33 UNL     1     -20.414  41.635 -20.916  1.00  0.00     0.183 C 
HETATM   32  C34 UNL     1     -20.737  42.835 -21.807  1.00  0.00     0.204 C 
BRANCH  29  33
HETATM   33  C31 UNL     1     -19.634  43.725 -17.760  1.00  0.00     0.198 C 
BRANCH  33  34
HETATM   34  O7  UNL     1     -20.602  44.316 -16.896  1.00  0.00    -0.398 OA
HETATM   35  H49 UNL     1     -20.269  45.204 -16.665  1.00  0.00     0.209 HD
ENDBRANCH  33  34
ENDBRANCH  29  33
BRANCH  30  36
HETATM   36  O8  UNL     1     -19.717  41.079 -18.684  1.00  0.00    -0.390 OA
HETATM   37  H51 UNL     1     -19.894  41.268 -17.738  1.00  0.00     0.210 HD
ENDBRANCH  30  36
BRANCH  31  38
HETATM   38  O9  UNL     1     -19.111  41.119 -21.203  1.00  0.00    -0.390 OA
HETATM   39  H53 UNL     1     -18.787  40.777 -20.341  1.00  0.00     0.210 HD
ENDBRANCH  31  38
BRANCH  32  40
HETATM   40  O10 UNL     1     -22.134  43.161 -21.640  1.00  0.00    -0.388 OA
HETATM   41  H55 UNL     1     -22.633  42.512 -22.169  1.00  0.00     0.210 HD
ENDBRANCH  32  40
ENDBRANCH  26  27
ENDBRANCH  21  26
BRANCH   1  42
HETATM   42  C2  UNL     1     -10.204  44.924 -28.224  1.00  0.00    -0.014 C 
HETATM   43  C1  UNL     1      -9.192  44.946 -27.071  1.00  0.00     0.010 C 
BRANCH  42  44
HETATM   44  C3  UNL     1      -9.584  45.677 -29.437  1.00  0.00     0.007 C 
BRANCH  44  45
HETATM   45  C4  UNL     1      -8.380  46.571 -29.110  1.00  0.00     0.038 C 
BRANCH  45  46
HETATM   46  C5  UNL     1      -7.978  47.745 -30.057  1.00  0.00     0.061 C 
HETATM   47  C6  UNL     1      -9.204  48.333 -30.773  1.00  0.00     0.046 C 
BRANCH  46  48
HETATM   48  O1  UNL     1      -7.534  48.783 -29.141  1.00  0.00    -0.389 OA
HETATM   49  H12 UNL     1      -8.279  49.024 -28.566  1.00  0.00     0.210 HD
ENDBRANCH  46  48
BRANCH  46  50
HETATM   50  C7  UNL     1      -6.757  47.487 -31.044  1.00  0.00    -0.021 C 
HETATM   51  C8  UNL     1      -5.600  48.476 -30.772  1.00  0.00     0.017 C 
HETATM   52  C9  UNL     1      -6.182  46.057 -30.987  1.00  0.00     0.017 C 
HETATM   53  C10 UNL     1      -7.190  47.717 -32.518  1.00  0.00     0.017 C 
ENDBRANCH  46  50
ENDBRANCH  45  46
ENDBRANCH  44  45
ENDBRANCH  42  44
ENDBRANCH   1  42
TORSDOF 13
ENDMDL
MODEL 5
REMARK minimizedAffinity -8.61214733
REMARK CNNscore 0.156328768
REMARK CNNaffinity 5.60455704
REMARK  13 active torsions:
REMARK  status: ('A' for Active; 'I' for Inactive)
REMARK    1  A    between atoms: C2_2  and  C3_3 
REMARK    2  A    between atoms: C2_2  and  C11_12 
REMARK    3  A    between atoms: C3_3  and  C4_4 
REMARK    4  A    between atoms: C4_4  and  C5_5 
REMARK    5  A    between atoms: C5_5  and  O1_7 
REMARK    6  A    between atoms: C5_5  and  C7_8 
REMARK    7  A    between atoms: C28_32  and  O5_33 
REMARK    8  A    between atoms: O5_33  and  C29_34 
REMARK    9  A    between atoms: C30_36  and  C31_37 
REMARK   10  A    between atoms: C31_37  and  O7_38 
REMARK   11  A    between atoms: C32_39  and  O8_40 
REMARK   12  A    between atoms: C33_41  and  O9_42 
REMARK   13  A    between atoms: C34_43  and  O10_44 
ROOT
HETATM    1  C11 UNL     1      -7.455  47.701 -24.908  1.00  0.00    -0.001 C 
HETATM    2  C12 UNL     1      -7.091  47.123 -26.306  1.00  0.00     0.007 C 
HETATM    3  C13 UNL     1      -8.323  46.376 -26.843  1.00  0.00     0.024 C 
HETATM    4  C14 UNL     1      -9.384  46.578 -25.784  1.00  0.00     0.092 C 
HETATM    5  C15 UNL     1     -10.241  47.837 -26.072  1.00  0.00     0.272 C 
HETATM    6  O2  UNL     1      -9.911  48.840 -26.680  1.00  0.00    -0.264 OA
HETATM    7  O3  UNL     1     -11.487  47.652 -25.508  1.00  0.00    -0.305 OA
HETATM    8  C16 UNL     1     -11.517  46.360 -24.842  1.00  0.00     0.113 C 
HETATM    9  C17 UNL     1     -10.958  46.593 -23.401  1.00  0.00     0.043 C 
HETATM   10  C18 UNL     1      -9.581  47.318 -23.375  1.00  0.00     0.014 C 
HETATM   11  C19 UNL     1      -8.605  46.751 -24.439  1.00  0.00    -0.020 C 
HETATM   12  C20 UNL     1      -8.020  45.418 -23.906  1.00  0.00     0.017 C 
HETATM   13  C21 UNL     1     -10.498  45.618 -25.643  1.00  0.00     0.137 A 
HETATM   14  O4  UNL     1     -10.284  44.231 -25.483  1.00  0.00    -0.364 OA
HETATM   15  C22 UNL     1     -10.893  44.649 -26.727  1.00  0.00     0.162 A 
HETATM   16  C23 UNL     1     -12.321  44.247 -26.887  1.00  0.00     0.041 C 
HETATM   17  C24 UNL     1     -13.291  45.348 -26.394  1.00  0.00     0.009 C 
HETATM   18  C25 UNL     1     -14.804  45.038 -26.751  1.00  0.00    -0.017 C 
HETATM   19  C26 UNL     1     -15.160  43.535 -26.689  1.00  0.00     0.018 C 
HETATM   20  C27 UNL     1     -15.030  45.464 -28.232  1.00  0.00     0.018 C 
HETATM   21  C28 UNL     1     -15.796  45.873 -25.877  1.00  0.00     0.133 C 
HETATM   22  C35 UNL     1     -15.131  47.157 -25.385  1.00  0.00     0.034 C 
HETATM   23  C36 UNL     1     -13.993  46.860 -24.412  1.00  0.00     0.015 C 
HETATM   24  C37 UNL     1     -12.982  45.768 -24.900  1.00  0.00    -0.004 C 
HETATM   25  C38 UNL     1     -13.099  44.555 -23.941  1.00  0.00     0.019 C 
ENDROOT
BRANCH  21  26
HETATM   26  O5  UNL     1     -16.215  45.101 -24.747  1.00  0.00    -0.352 OA
BRANCH  26  27
HETATM   27  C29 UNL     1     -17.279  45.691 -23.992  1.00  0.00     0.292 C 
HETATM   28  O6  UNL     1     -17.492  44.961 -22.781  1.00  0.00    -0.348 OA
HETATM   29  C30 UNL     1     -18.762  45.229 -22.188  1.00  0.00     0.179 C 
HETATM   30  C32 UNL     1     -19.920  44.699 -23.067  1.00  0.00     0.180 C 
HETATM   31  C33 UNL     1     -19.540  44.665 -24.560  1.00  0.00     0.183 C 
HETATM   32  C34 UNL     1     -18.536  45.765 -24.906  1.00  0.00     0.204 C 
BRANCH  29  33
HETATM   33  C31 UNL     1     -18.759  44.637 -20.775  1.00  0.00     0.198 C 
BRANCH  33  34
HETATM   34  O7  UNL     1     -20.001  44.881 -20.120  1.00  0.00    -0.398 OA
HETATM   35  H49 UNL     1     -19.810  45.459 -19.357  1.00  0.00     0.209 HD
ENDBRANCH  33  34
ENDBRANCH  29  33
BRANCH  30  36
HETATM   36  O8  UNL     1     -20.362  43.380 -22.702  1.00  0.00    -0.390 OA
HETATM   37  H51 UNL     1     -20.683  43.455 -21.779  1.00  0.00     0.210 HD
ENDBRANCH  30  36
BRANCH  31  38
HETATM   38  O9  UNL     1     -19.037  43.377 -24.928  1.00  0.00    -0.390 OA
HETATM   39  H53 UNL     1     -19.414  42.765 -24.259  1.00  0.00     0.210 HD
ENDBRANCH  31  38
BRANCH  32  40
HETATM   40  O10 UNL     1     -19.187  47.043 -24.731  1.00  0.00    -0.388 OA
HETATM   41  H55 UNL     1     -19.749  47.175 -25.516  1.00  0.00     0.210 HD
ENDBRANCH  32  40
ENDBRANCH  26  27
ENDBRANCH  21  26
BRANCH   1  42
HETATM   42  C2  UNL     1      -6.198  47.896 -24.006  1.00  0.00    -0.014 C 
HETATM   43  C1  UNL     1      -6.424  48.981 -22.944  1.00  0.00     0.010 C 
BRANCH  42  44
HETATM   44  C3  UNL     1      -4.944  48.281 -24.843  1.00  0.00     0.007 C 
BRANCH  44  45
HETATM   45  C4  UNL     1      -3.806  48.943 -24.056  1.00  0.00     0.038 C 
BRANCH  45  46
HETATM   46  C5  UNL     1      -3.288  50.364 -24.443  1.00  0.00     0.061 C 
HETATM   47  C6  UNL     1      -1.900  50.294 -25.100  1.00  0.00     0.046 C 
BRANCH  46  48
HETATM   48  O1  UNL     1      -4.193  50.778 -25.502  1.00  0.00    -0.389 OA
HETATM   49  H12 UNL     1      -4.110  50.151 -26.240  1.00  0.00     0.210 HD
ENDBRANCH  46  48
BRANCH  46  50
HETATM   50  C7  UNL     1      -3.382  51.493 -23.327  1.00  0.00    -0.021 C 
HETATM   51  C8  UNL     1      -2.284  52.564 -23.521  1.00  0.00     0.017 C 
HETATM   52  C9  UNL     1      -4.743  52.215 -23.263  1.00  0.00     0.017 C 
HETATM   53  C10 UNL     1      -3.153  50.884 -21.916  1.00  0.00     0.017 C 
ENDBRANCH  46  50
ENDBRANCH  45  46
ENDBRANCH  44  45
ENDBRANCH  42  44
ENDBRANCH   1  42
TORSDOF 13
ENDMDL
MODEL 6
REMARK minimizedAffinity -8.19672585
REMARK CNNscore 0.149495944
REMARK CNNaffinity 5.3608036
REMARK  13 active torsions:
REMARK  status: ('A' for Active; 'I' for Inactive)
REMARK    1  A    between atoms: C2_2  and  C3_3 
REMARK    2  A    between atoms: C2_2  and  C11_12 
REMARK    3  A    between atoms: C3_3  and  C4_4 
REMARK    4  A    between atoms: C4_4  and  C5_5 
REMARK    5  A    between atoms: C5_5  and  O1_7 
REMARK    6  A    between atoms: C5_5  and  C7_8 
REMARK    7  A    between atoms: C28_32  and  O5_33 
REMARK    8  A    between atoms: O5_33  and  C29_34 
REMARK    9  A    between atoms: C30_36  and  C31_37 
REMARK   10  A    between atoms: C31_37  and  O7_38 
REMARK   11  A    between atoms: C32_39  and  O8_40 
REMARK   12  A    between atoms: C33_41  and  O9_42 
REMARK   13  A    between atoms: C34_43  and  O10_44 
ROOT
HETATM    1  C11 UNL     1     -13.461  46.545 -24.385  1.00  0.00    -0.001 C 
HETATM    2  C12 UNL     1     -12.209  46.658 -23.470  1.00  0.00     0.007 C 
HETATM    3  C13 UNL     1     -10.978  46.260 -24.301  1.00  0.00     0.024 C 
HETATM    4  C14 UNL     1     -11.525  45.979 -25.683  1.00  0.00     0.092 C 
HETATM    5  C15 UNL     1     -11.497  47.248 -26.573  1.00  0.00     0.272 C 
HETATM    6  O2  UNL     1     -11.553  48.411 -26.215  1.00  0.00    -0.264 OA
HETATM    7  O3  UNL     1     -11.403  46.850 -27.892  1.00  0.00    -0.305 OA
HETATM    8  C16 UNL     1     -11.388  45.398 -27.948  1.00  0.00     0.113 C 
HETATM    9  C17 UNL     1     -12.882  44.940 -27.971  1.00  0.00     0.043 C 
HETATM   10  C18 UNL     1     -13.739  45.548 -26.824  1.00  0.00     0.014 C 
HETATM   11  C19 UNL     1     -13.000  45.508 -25.461  1.00  0.00    -0.020 C 
HETATM   12  C20 UNL     1     -13.093  44.067 -24.896  1.00  0.00     0.017 C 
HETATM   13  C21 UNL     1     -10.805  45.081 -26.609  1.00  0.00     0.137 A 
HETATM   14  O4  UNL     1     -10.427  43.769 -26.247  1.00  0.00    -0.364 OA
HETATM   15  C22 UNL     1      -9.352  44.718 -26.442  1.00  0.00     0.162 A 
HETATM   16  C23 UNL     1      -8.502  44.460 -27.641  1.00  0.00     0.041 C 
HETATM   17  C24 UNL     1      -9.004  45.235 -28.883  1.00  0.00     0.009 C 
HETATM   18  C25 UNL     1      -8.000  45.150 -30.106  1.00  0.00    -0.017 C 
HETATM   19  C26 UNL     1      -7.274  43.789 -30.218  1.00  0.00     0.018 C 
HETATM   20  C27 UNL     1      -6.880  46.206 -29.864  1.00  0.00     0.018 C 
HETATM   21  C28 UNL     1      -8.691  45.515 -31.460  1.00  0.00     0.133 C 
HETATM   22  C35 UNL     1      -9.896  46.423 -31.221  1.00  0.00     0.034 C 
HETATM   23  C36 UNL     1     -11.004  45.695 -30.463  1.00  0.00     0.015 C 
HETATM   24  C37 UNL     1     -10.525  44.925 -29.186  1.00  0.00    -0.004 C 
HETATM   25  C38 UNL     1     -10.750  43.411 -29.437  1.00  0.00     0.019 C 
ENDROOT
BRANCH  21  26
HETATM   26  O5  UNL     1      -9.128  44.323 -32.120  1.00  0.00    -0.352 OA
BRANCH  26  27
HETATM   27  C29 UNL     1      -9.263  44.451 -33.540  1.00  0.00     0.292 C 
HETATM   28  O6  UNL     1     -10.551  44.980 -33.869  1.00  0.00    -0.348 OA
HETATM   29  C30 UNL     1     -10.908  44.760 -35.233  1.00  0.00     0.179 C 
HETATM   30  C32 UNL     1     -11.115  43.255 -35.528  1.00  0.00     0.180 C 
HETATM   31  C33 UNL     1     -10.272  42.364 -34.596  1.00  0.00     0.183 C 
HETATM   32  C34 UNL     1      -8.977  43.061 -34.179  1.00  0.00     0.204 C 
BRANCH  29  33
HETATM   33  C31 UNL     1     -12.144  45.611 -35.541  1.00  0.00     0.198 C 
BRANCH  33  34
HETATM   34  O7  UNL     1     -12.634  46.239 -34.359  1.00  0.00    -0.398 OA
HETATM   35  H49 UNL     1     -13.523  45.873 -34.191  1.00  0.00     0.209 HD
ENDBRANCH  33  34
ENDBRANCH  29  33
BRANCH  30  36
HETATM   36  O8  UNL     1     -12.484  42.830 -35.412  1.00  0.00    -0.390 OA
HETATM   37  H51 UNL     1     -12.979  43.348 -36.082  1.00  0.00     0.210 HD
ENDBRANCH  30  36
BRANCH  31  38
HETATM   38  O9  UNL     1     -11.031  41.962 -33.451  1.00  0.00    -0.390 OA
HETATM   39  H53 UNL     1     -11.967  42.033 -33.740  1.00  0.00     0.210 HD
ENDBRANCH  31  38
BRANCH  32  40
HETATM   40  O10 UNL     1      -8.154  43.230 -35.354  1.00  0.00    -0.388 OA
HETATM   41  H55 UNL     1      -7.744  42.364 -35.530  1.00  0.00     0.210 HD
ENDBRANCH  32  40
ENDBRANCH  26  27
ENDBRANCH  21  26
BRANCH   1  42
HETATM   42  C2  UNL     1     -14.765  46.286 -23.571  1.00  0.00    -0.014 C 
HETATM   43  C1  UNL     1     -15.858  47.309 -23.907  1.00  0.00     0.010 C 
BRANCH  42  44
HETATM   44  C3  UNL     1     -14.504  46.330 -22.038  1.00  0.00     0.007 C 
BRANCH  44  45
HETATM   45  C4  UNL     1     -15.370  47.322 -21.252  1.00  0.00     0.038 C 
BRANCH  45  46
HETATM   46  C5  UNL     1     -15.517  47.200 -19.702  1.00  0.00     0.061 C 
HETATM   47  C6  UNL     1     -16.993  47.086 -19.288  1.00  0.00     0.046 C 
BRANCH  46  48
HETATM   48  O1  UNL     1     -14.935  45.901 -19.408  1.00  0.00    -0.389 OA
HETATM   49  H12 UNL     1     -15.450  45.221 -19.873  1.00  0.00     0.210 HD
ENDBRANCH  46  48
BRANCH  46  50
HETATM   50  C7  UNL     1     -14.711  48.247 -18.818  1.00  0.00    -0.021 C 
HETATM   51  C8  UNL     1     -15.669  49.189 -18.054  1.00  0.00     0.017 C 
HETATM   52  C9  UNL     1     -13.753  47.611 -17.791  1.00  0.00     0.017 C 
HETATM   53  C10 UNL     1     -13.830  49.156 -19.719  1.00  0.00     0.017 C 
ENDBRANCH  46  50
ENDBRANCH  45  46
ENDBRANCH  44  45
ENDBRANCH  42  44
ENDBRANCH   1  42
TORSDOF 13
ENDMDL
MODEL 7
REMARK minimizedAffinity -8.75671768
REMARK CNNscore 0.148142859
REMARK CNNaffinity 6.61130381
REMARK  13 active torsions:
REMARK  status: ('A' for Active; 'I' for Inactive)
REMARK    1  A    between atoms: C2_2  and  C3_3 
REMARK    2  A    between atoms: C2_2  and  C11_12 
REMARK    3  A    between atoms: C3_3  and  C4_4 
REMARK    4  A    between atoms: C4_4  and  C5_5 
REMARK    5  A    between atoms: C5_5  and  O1_7 
REMARK    6  A    between atoms: C5_5  and  C7_8 
REMARK    7  A    between atoms: C28_32  and  O5_33 
REMARK    8  A    between atoms: O5_33  and  C29_34 
REMARK    9  A    between atoms: C30_36  and  C31_37 
REMARK   10  A    between atoms: C31_37  and  O7_38 
REMARK   11  A    between atoms: C32_39  and  O8_40 
REMARK   12  A    between atoms: C33_41  and  O9_42 
REMARK   13  A    between atoms: C34_43  and  O10_44 
ROOT
HETATM    1  C11 UNL     1      -1.519  50.480 -16.589  1.00  0.00    -0.001 C 
HETATM    2  C12 UNL     1      -0.206  50.777 -17.367  1.00  0.00     0.007 C 
HETATM    3  C13 UNL     1      -0.465  50.491 -18.856  1.00  0.00     0.024 C 
HETATM    4  C14 UNL     1      -1.922  50.091 -18.920  1.00  0.00     0.092 C 
HETATM    5  C15 UNL     1      -2.836  51.316 -19.177  1.00  0.00     0.272 C 
HETATM    6  O2  UNL     1      -2.626  52.479 -18.879  1.00  0.00    -0.264 OA
HETATM    7  O3  UNL     1      -3.979  50.878 -19.815  1.00  0.00    -0.305 OA
HETATM    8  C16 UNL     1      -3.903  49.437 -19.984  1.00  0.00     0.113 C 
HETATM    9  C17 UNL     1      -4.460  48.807 -18.667  1.00  0.00     0.043 C 
HETATM   10  C18 UNL     1      -3.785  49.357 -17.378  1.00  0.00     0.014 C 
HETATM   11  C19 UNL     1      -2.244  49.460 -17.526  1.00  0.00    -0.020 C 
HETATM   12  C20 UNL     1      -1.640  48.043 -17.352  1.00  0.00     0.017 C 
HETATM   13  C21 UNL     1      -2.422  49.246 -20.024  1.00  0.00     0.137 A 
HETATM   14  O4  UNL     1      -1.834  48.003 -20.349  1.00  0.00    -0.364 OA
HETATM   15  C22 UNL     1      -1.680  49.063 -21.322  1.00  0.00     0.162 A 
HETATM   16  C23 UNL     1      -2.435  48.857 -22.593  1.00  0.00     0.041 C 
HETATM   17  C24 UNL     1      -3.835  49.516 -22.548  1.00  0.00     0.009 C 
HETATM   18  C25 UNL     1      -4.567  49.498 -23.953  1.00  0.00    -0.017 C 
HETATM   19  C26 UNL     1      -4.278  48.228 -24.787  1.00  0.00     0.018 C 
HETATM   20  C27 UNL     1      -4.003  50.686 -24.787  1.00  0.00     0.018 C 
HETATM   21  C28 UNL     1      -6.108  49.723 -23.815  1.00  0.00     0.133 C 
HETATM   22  C35 UNL     1      -6.427  50.493 -22.535  1.00  0.00     0.034 C 
HETATM   23  C36 UNL     1      -6.094  49.672 -21.291  1.00  0.00     0.015 C 
HETATM   24  C37 UNL     1      -4.671  49.017 -21.301  1.00  0.00    -0.004 C 
HETATM   25  C38 UNL     1      -4.862  47.478 -21.332  1.00  0.00     0.019 C 
ENDROOT
BRANCH  21  26
HETATM   26  O5  UNL     1      -6.783  48.461 -23.782  1.00  0.00    -0.352 OA
BRANCH  26  27
HETATM   27  C29 UNL     1      -8.191  48.539 -24.028  1.00  0.00     0.292 C 
HETATM   28  O6  UNL     1      -8.823  47.303 -23.684  1.00  0.00    -0.348 OA
HETATM   29  C30 UNL     1     -10.119  47.163 -24.266  1.00  0.00     0.179 C 
HETATM   30  C32 UNL     1     -10.037  47.042 -25.807  1.00  0.00     0.180 C 
HETATM   31  C33 UNL     1      -8.797  47.757 -26.376  1.00  0.00     0.183 C 
HETATM   32  C34 UNL     1      -8.399  48.955 -25.513  1.00  0.00     0.204 C 
BRANCH  29  33
HETATM   33  C31 UNL     1     -10.808  45.966 -23.603  1.00  0.00     0.198 C 
BRANCH  33  34
HETATM   34  O7  UNL     1      -9.952  44.826 -23.601  1.00  0.00    -0.398 OA
HETATM   35  H49 UNL     1     -10.380  44.150 -24.158  1.00  0.00     0.209 HD
ENDBRANCH  33  34
ENDBRANCH  29  33
BRANCH  30  36
HETATM   36  O8  UNL     1     -10.007  45.683 -26.276  1.00  0.00    -0.390 OA
HETATM   37  H51 UNL     1     -10.851  45.281 -25.977  1.00  0.00     0.210 HD
ENDBRANCH  30  36
BRANCH  31  38
HETATM   38  O9  UNL     1      -7.705  46.844 -26.521  1.00  0.00    -0.390 OA
HETATM   39  H53 UNL     1      -8.130  45.961 -26.586  1.00  0.00     0.210 HD
ENDBRANCH  31  38
BRANCH  32  40
HETATM   40  O10 UNL     1      -9.451  49.942 -25.596  1.00  0.00    -0.388 OA
HETATM   41  H55 UNL     1      -9.335  50.396 -26.450  1.00  0.00     0.210 HD
ENDBRANCH  32  40
ENDBRANCH  26  27
ENDBRANCH  21  26
BRANCH   1  42
HETATM   42  C2  UNL     1      -1.249  50.104 -15.100  1.00  0.00    -0.014 C 
HETATM   43  C1  UNL     1      -0.587  48.725 -14.973  1.00  0.00     0.010 C 
BRANCH  42  44
HETATM   44  C3  UNL     1      -2.559  50.099 -14.261  1.00  0.00     0.007 C 
BRANCH  44  45
HETATM   45  C4  UNL     1      -2.384  50.394 -12.766  1.00  0.00     0.038 C 
BRANCH  45  46
HETATM   46  C5  UNL     1      -2.363  51.863 -12.239  1.00  0.00     0.061 C 
HETATM   47  C6  UNL     1      -0.927  52.404 -12.149  1.00  0.00     0.046 C 
BRANCH  46  48
HETATM   48  O1  UNL     1      -2.991  52.617 -13.311  1.00  0.00    -0.389 OA
HETATM   49  H12 UNL     1      -2.454  52.515 -14.114  1.00  0.00     0.210 HD
ENDBRANCH  46  48
BRANCH  46  50
HETATM   50  C7  UNL     1      -3.218  52.172 -10.934  1.00  0.00    -0.021 C 
HETATM   51  C8  UNL     1      -4.409  51.196 -10.802  1.00  0.00     0.017 C 
HETATM   52  C9  UNL     1      -2.415  52.122  -9.619  1.00  0.00     0.017 C 
HETATM   53  C10 UNL     1      -3.829  53.599 -11.008  1.00  0.00     0.017 C 
ENDBRANCH  46  50
ENDBRANCH  45  46
ENDBRANCH  44  45
ENDBRANCH  42  44
ENDBRANCH   1  42
TORSDOF 13
ENDMDL
MODEL 8
REMARK minimizedAffinity -8.44342327
REMARK CNNscore 0.143028885
REMARK CNNaffinity 6.71102333
REMARK  13 active torsions:
REMARK  status: ('A' for Active; 'I' for Inactive)
REMARK    1  A    between atoms: C2_2  and  C3_3 
REMARK    2  A    between atoms: C2_2  and  C11_12 
REMARK    3  A    between atoms: C3_3  and  C4_4 
REMARK    4  A    between atoms: C4_4  and  C5_5 
REMARK    5  A    between atoms: C5_5  and  O1_7 
REMARK    6  A    between atoms: C5_5  and  C7_8 
REMARK    7  A    between atoms: C28_32  and  O5_33 
REMARK    8  A    between atoms: O5_33  and  C29_34 
REMARK    9  A    between atoms: C30_36  and  C31_37 
REMARK   10  A    between atoms: C31_37  and  O7_38 
REMARK   11  A    between atoms: C32_39  and  O8_40 
REMARK   12  A    between atoms: C33_41  and  O9_42 
REMARK   13  A    between atoms: C34_43  and  O10_44 
ROOT
HETATM    1  C11 UNL     1      -1.949  50.696 -21.649  1.00  0.00    -0.001 C 
HETATM    2  C12 UNL     1      -3.112  51.660 -22.018  1.00  0.00     0.007 C 
HETATM    3  C13 UNL     1      -4.435  50.897 -21.834  1.00  0.00     0.024 C 
HETATM    4  C14 UNL     1      -4.022  49.538 -21.315  1.00  0.00     0.092 C 
HETATM    5  C15 UNL     1      -3.992  49.507 -19.766  1.00  0.00     0.272 C 
HETATM    6  O2  UNL     1      -3.797  50.438 -19.005  1.00  0.00    -0.264 OA
HETATM    7  O3  UNL     1      -4.223  48.209 -19.353  1.00  0.00    -0.305 OA
HETATM    8  C16 UNL     1      -4.384  47.363 -20.524  1.00  0.00     0.113 C 
HETATM    9  C17 UNL     1      -2.948  46.917 -20.948  1.00  0.00     0.043 C 
HETATM   10  C18 UNL     1      -1.952  48.100 -21.120  1.00  0.00     0.014 C 
HETATM   11  C19 UNL     1      -2.588  49.289 -21.888  1.00  0.00    -0.020 C 
HETATM   12  C20 UNL     1      -2.594  48.948 -23.401  1.00  0.00     0.017 C 
HETATM   13  C21 UNL     1      -4.894  48.361 -21.512  1.00  0.00     0.137 A 
HETATM   14  O4  UNL     1      -5.370  47.979 -22.786  1.00  0.00    -0.364 OA
HETATM   15  C22 UNL     1      -6.358  48.468 -21.850  1.00  0.00     0.162 A 
HETATM   16  C23 UNL     1      -7.316  47.434 -21.359  1.00  0.00     0.041 C 
HETATM   17  C24 UNL     1      -6.836  46.779 -20.042  1.00  0.00     0.009 C 
HETATM   18  C25 UNL     1      -7.932  45.839 -19.389  1.00  0.00    -0.017 C 
HETATM   19  C26 UNL     1      -8.794  45.079 -20.424  1.00  0.00     0.018 C 
HETATM   20  C27 UNL     1      -8.922  46.752 -18.606  1.00  0.00     0.018 C 
HETATM   21  C28 UNL     1      -7.311  44.842 -18.356  1.00  0.00     0.133 C 
HETATM   22  C35 UNL     1      -6.009  45.401 -17.785  1.00  0.00     0.034 C 
HETATM   23  C36 UNL     1      -4.924  45.495 -18.855  1.00  0.00     0.015 C 
HETATM   24  C37 UNL     1      -5.379  46.180 -20.189  1.00  0.00    -0.004 C 
HETATM   25  C38 UNL     1      -5.322  45.110 -21.311  1.00  0.00     0.019 C 
ENDROOT
BRANCH  21  26
HETATM   26  O5  UNL     1      -7.043  43.588 -18.991  1.00  0.00    -0.352 OA
BRANCH  26  27
HETATM   27  C29 UNL     1      -6.646  42.546 -18.094  1.00  0.00     0.292 C 
HETATM   28  O6  UNL     1      -5.511  41.849 -18.616  1.00  0.00    -0.348 OA
HETATM   29  C30 UNL     1      -5.311  40.577 -18.001  1.00  0.00     0.179 C 
HETATM   30  C32 UNL     1      -6.455  39.595 -18.350  1.00  0.00     0.180 C 
HETATM   31  C33 UNL     1      -7.778  40.330 -18.638  1.00  0.00     0.183 C 
HETATM   32  C34 UNL     1      -7.878  41.631 -17.840  1.00  0.00     0.204 C 
BRANCH  29  33
HETATM   33  C31 UNL     1      -3.929  40.063 -18.416  1.00  0.00     0.198 C 
BRANCH  33  34
HETATM   34  O7  UNL     1      -3.657  40.382 -19.778  1.00  0.00    -0.398 OA
HETATM   35  H49 UNL     1      -3.583  39.536 -20.257  1.00  0.00     0.209 HD
ENDBRANCH  33  34
ENDBRANCH  29  33
BRANCH  30  36
HETATM   36  O8  UNL     1      -6.169  38.759 -19.485  1.00  0.00    -0.390 OA
HETATM   37  H51 UNL     1      -5.377  38.236 -19.236  1.00  0.00     0.210 HD
ENDBRANCH  30  36
BRANCH  31  38
HETATM   38  O9  UNL     1      -7.931  40.575 -20.040  1.00  0.00    -0.390 OA
HETATM   39  H53 UNL     1      -7.367  39.896 -20.471  1.00  0.00     0.210 HD
ENDBRANCH  31  38
BRANCH  32  40
HETATM   40  O10 UNL     1      -7.952  41.296 -16.437  1.00  0.00    -0.388 OA
HETATM   41  H55 UNL     1      -8.868  41.010 -16.270  1.00  0.00     0.210 HD
ENDBRANCH  32  40
ENDBRANCH  26  27
ENDBRANCH  21  26
BRANCH   1  42
HETATM   42  C2  UNL     1      -0.619  51.073 -22.370  1.00  0.00    -0.014 C 
HETATM   43  C1  UNL     1       0.312  51.883 -21.459  1.00  0.00     0.010 C 
BRANCH  42  44
HETATM   44  C3  UNL     1      -0.881  51.897 -23.664  1.00  0.00     0.007 C 
BRANCH  44  45
HETATM   45  C4  UNL     1       0.009  51.540 -24.862  1.00  0.00     0.038 C 
BRANCH  45  46
HETATM   46  C5  UNL     1       0.448  52.635 -25.884  1.00  0.00     0.061 C 
HETATM   47  C6  UNL     1       0.145  54.046 -25.357  1.00  0.00     0.046 C 
BRANCH  46  48
HETATM   48  O1  UNL     1       1.897  52.531 -25.891  1.00  0.00    -0.389 OA
HETATM   49  H12 UNL     1       2.223  52.723 -24.996  1.00  0.00     0.210 HD
ENDBRANCH  46  48
BRANCH  46  50
HETATM   50  C7  UNL     1      -0.008  52.434 -27.395  1.00  0.00    -0.021 C 
HETATM   51  C8  UNL     1      -1.172  51.423 -27.497  1.00  0.00     0.017 C 
HETATM   52  C9  UNL     1      -0.440  53.730 -28.109  1.00  0.00     0.017 C 
HETATM   53  C10 UNL     1       1.156  51.846 -28.241  1.00  0.00     0.017 C 
ENDBRANCH  46  50
ENDBRANCH  45  46
ENDBRANCH  44  45
ENDBRANCH  42  44
ENDBRANCH   1  42
TORSDOF 13
ENDMDL
MODEL 9
REMARK minimizedAffinity -7.8026619
REMARK CNNscore 0.139244333
REMARK CNNaffinity 5.45597458
REMARK  13 active torsions:
REMARK  status: ('A' for Active; 'I' for Inactive)
REMARK    1  A    between atoms: C2_2  and  C3_3 
REMARK    2  A    between atoms: C2_2  and  C11_12 
REMARK    3  A    between atoms: C3_3  and  C4_4 
REMARK    4  A    between atoms: C4_4  and  C5_5 
REMARK    5  A    between atoms: C5_5  and  O1_7 
REMARK    6  A    between atoms: C5_5  and  C7_8 
REMARK    7  A    between atoms: C28_32  and  O5_33 
REMARK    8  A    between atoms: O5_33  and  C29_34 
REMARK    9  A    between atoms: C30_36  and  C31_37 
REMARK   10  A    between atoms: C31_37  and  O7_38 
REMARK   11  A    between atoms: C32_39  and  O8_40 
REMARK   12  A    between atoms: C33_41  and  O9_42 
REMARK   13  A    between atoms: C34_43  and  O10_44 
ROOT
HETATM    1  C11 UNL     1     -11.744  45.341 -28.144  1.00  0.00    -0.001 C 
HETATM    2  C12 UNL     1     -12.583  45.972 -29.292  1.00  0.00     0.007 C 
HETATM    3  C13 UNL     1     -14.057  45.975 -28.854  1.00  0.00     0.024 C 
HETATM    4  C14 UNL     1     -14.040  45.403 -27.454  1.00  0.00     0.092 C 
HETATM    5  C15 UNL     1     -13.903  46.518 -26.387  1.00  0.00     0.272 C 
HETATM    6  O2  UNL     1     -13.375  47.609 -26.512  1.00  0.00    -0.264 OA
HETATM    7  O3  UNL     1     -14.486  46.073 -25.217  1.00  0.00    -0.305 OA
HETATM    8  C16 UNL     1     -14.986  44.724 -25.422  1.00  0.00     0.113 C 
HETATM    9  C17 UNL     1     -13.791  43.760 -25.130  1.00  0.00     0.043 C 
HETATM   10  C18 UNL     1     -12.498  44.113 -25.921  1.00  0.00     0.014 C 
HETATM   11  C19 UNL     1     -12.798  44.453 -27.405  1.00  0.00    -0.020 C 
HETATM   12  C20 UNL     1     -13.023  43.127 -28.176  1.00  0.00     0.017 C 
HETATM   13  C21 UNL     1     -15.241  44.750 -26.893  1.00  0.00     0.137 A 
HETATM   14  O4  UNL     1     -15.907  43.696 -27.557  1.00  0.00    -0.364 OA
HETATM   15  C22 UNL     1     -16.625  44.948 -27.456  1.00  0.00     0.162 A 
HETATM   16  C23 UNL     1     -17.812  44.914 -26.553  1.00  0.00     0.041 C 
HETATM   17  C24 UNL     1     -17.455  45.352 -25.112  1.00  0.00     0.009 C 
HETATM   18  C25 UNL     1     -18.732  45.532 -24.191  1.00  0.00    -0.017 C 
HETATM   19  C26 UNL     1     -19.861  44.518 -24.491  1.00  0.00     0.018 C 
HETATM   20  C27 UNL     1     -19.334  46.935 -24.498  1.00  0.00     0.018 C 
HETATM   21  C28 UNL     1     -18.367  45.511 -22.671  1.00  0.00     0.133 C 
HETATM   22  C35 UNL     1     -16.918  45.942 -22.459  1.00  0.00     0.034 C 
HETATM   23  C36 UNL     1     -15.941  44.930 -23.053  1.00  0.00     0.015 C 
HETATM   24  C37 UNL     1     -16.265  44.492 -24.521  1.00  0.00    -0.004 C 
HETATM   25  C38 UNL     1     -16.623  42.982 -24.494  1.00  0.00     0.019 C 
ENDROOT
BRANCH  21  26
HETATM   26  O5  UNL     1     -18.544  44.191 -22.146  1.00  0.00    -0.352 OA
BRANCH  26  27
HETATM   27  C29 UNL     1     -19.640  44.060 -21.234  1.00  0.00     0.292 C 
HETATM   28  O6  UNL     1     -19.167  44.089 -19.885  1.00  0.00    -0.348 OA
HETATM   29  C30 UNL     1     -20.117  43.571 -18.954  1.00  0.00     0.179 C 
HETATM   30  C32 UNL     1     -20.343  42.054 -19.163  1.00  0.00     0.180 C 
HETATM   31  C33 UNL     1     -20.093  41.629 -20.622  1.00  0.00     0.183 C 
HETATM   32  C34 UNL     1     -20.418  42.763 -21.596  1.00  0.00     0.204 C 
BRANCH  29  33
HETATM   33  C31 UNL     1     -19.634  43.919 -17.543  1.00  0.00     0.198 C 
BRANCH  33  34
HETATM   34  O7  UNL     1     -20.527  43.402 -16.559  1.00  0.00    -0.398 OA
HETATM   35  H49 UNL     1     -20.913  44.169 -16.096  1.00  0.00     0.209 HD
ENDBRANCH  33  34
ENDBRANCH  29  33
BRANCH  30  36
HETATM   36  O8  UNL     1     -19.516  41.229 -18.324  1.00  0.00    -0.390 OA
HETATM   37  H51 UNL     1     -19.765  41.455 -17.402  1.00  0.00     0.210 HD
ENDBRANCH  30  36
BRANCH  31  38
HETATM   38  O9  UNL     1     -18.747  41.173 -20.797  1.00  0.00    -0.390 OA
HETATM   39  H53 UNL     1     -18.464  40.894 -19.899  1.00  0.00     0.210 HD
ENDBRANCH  31  38
BRANCH  32  40
HETATM   40  O10 UNL     1     -21.839  43.017 -21.536  1.00  0.00    -0.388 OA
HETATM   41  H55 UNL     1     -22.266  42.315 -22.059  1.00  0.00     0.210 HD
ENDBRANCH  32  40
ENDBRANCH  26  27
ENDBRANCH  21  26
BRANCH   1  42
HETATM   42  C2  UNL     1     -10.422  44.699 -28.664  1.00  0.00    -0.014 C 
HETATM   43  C1  UNL     1      -9.847  43.689 -27.662  1.00  0.00     0.010 C 
BRANCH  42  44
HETATM   44  C3  UNL     1      -9.337  45.775 -28.956  1.00  0.00     0.007 C 
BRANCH  44  45
HETATM   45  C4  UNL     1      -9.585  47.148 -28.319  1.00  0.00     0.038 C 
BRANCH  45  46
HETATM   46  C5  UNL     1      -8.544  47.772 -27.336  1.00  0.00     0.061 C 
HETATM   47  C6  UNL     1      -7.119  47.692 -27.906  1.00  0.00     0.046 C 
BRANCH  46  48
HETATM   48  O1  UNL     1      -8.880  49.186 -27.339  1.00  0.00    -0.389 OA
HETATM   49  H12 UNL     1      -8.770  49.526 -28.243  1.00  0.00     0.210 HD
ENDBRANCH  46  48
BRANCH  46  50
HETATM   50  C7  UNL     1      -8.623  47.311 -25.816  1.00  0.00    -0.021 C 
HETATM   51  C8  UNL     1     -10.087  47.267 -25.321  1.00  0.00     0.017 C 
HETATM   52  C9  UNL     1      -7.985  45.937 -25.532  1.00  0.00     0.017 C 
HETATM   53  C10 UNL     1      -7.883  48.325 -24.900  1.00  0.00     0.017 C 
ENDBRANCH  46  50
ENDBRANCH  45  46
ENDBRANCH  44  45
ENDBRANCH  42  44
ENDBRANCH   1  42
TORSDOF 13
ENDMDL
