MODEL 1
REMARK minimizedAffinity -9.59246159
REMARK  8 active torsions:
REMARK  status: ('A' for Active; 'I' for Inactive)
REMARK    1  A    between atoms: C2_2  and  C3_3 
REMARK    2  A    between atoms: C2_2  and  C27_30 
REMARK    3  A    between atoms: C3_3  and  C4_4 
REMARK    4  A    between atoms: C4_4  and  C5_5 
REMARK    5  A    between atoms: C5_5  and  C7_7 
REMARK    6  A    between atoms: C26_28  and  O3_29 
REMARK    7  A    between atoms: C27_30  and  C29_32 
REMARK    8  A    between atoms: C29_32  and  O5_34 
ROOT
HETATM    1  C7  UNL     1      -1.728   6.654  12.632  1.00  0.00    -0.002 C 
HETATM    2  C8  UNL     1      -1.591   7.719  13.735  1.00  0.00     0.006 C 
HETATM    3  C9  UNL     1      -0.213   8.319  13.501  1.00  0.00     0.010 C 
HETATM    4  C10 UNL     1       0.633   7.072  13.242  1.00  0.00     0.027 C 
HETATM    5  C11 UNL     1       2.047   7.349  12.767  1.00  0.00    -0.036 C 
HETATM    6  C12 UNL     1       2.517   7.016  11.543  1.00  0.00     0.002 C 
HETATM    7  C13 UNL     1       1.527   6.536  10.512  1.00  0.00     0.157 C 
HETATM    8  O1  UNL     1       1.884   6.260   9.368  1.00  0.00    -0.293 OA
HETATM    9  C14 UNL     1       0.055   6.530  10.846  1.00  0.00     0.093 C 
HETATM   10  C15 UNL     1      -0.251   6.191  12.314  1.00  0.00    -0.026 C 
HETATM   11  C16 UNL     1       0.082   4.710  12.560  1.00  0.00     0.016 C 
HETATM   12  C17 UNL     1       4.005   7.123  11.125  1.00  0.00    -0.008 C 
HETATM   13  C18 UNL     1       4.497   5.719  10.660  1.00  0.00     0.021 C 
HETATM   14  C19 UNL     1       4.136   8.130   9.938  1.00  0.00     0.022 C 
HETATM   15  C20 UNL     1       5.076   9.309  10.143  1.00  0.00     0.080 C 
HETATM   16  C21 UNL     1       6.387   8.901  10.749  1.00  0.00     0.131 C 
HETATM   17  O2  UNL     1       7.450   9.374  10.330  1.00  0.00    -0.298 OA
HETATM   18  C22 UNL     1       6.360   7.916  11.908  1.00  0.00     0.056 C 
HETATM   19  C23 UNL     1       7.230   8.434  13.054  1.00  0.00     0.018 C 
HETATM   20  C24 UNL     1       4.924   7.525  12.341  1.00  0.00     0.012 C 
HETATM   21  C25 UNL     1       4.232   8.555  13.248  1.00  0.00     0.042 C 
HETATM   22  C26 UNL     1       2.934   7.982  13.812  1.00  0.00     0.148 C 
ENDROOT
BRANCH   1  23
HETATM   23  C5  UNL     1      -2.892   5.656  12.893  1.00  0.00    -0.014 C 
HETATM   24  C6  UNL     1      -3.007   5.155  14.334  1.00  0.00     0.010 C 
BRANCH  23  25
HETATM   25  C4  UNL     1      -2.872   4.493  11.868  1.00  0.00     0.009 C 
BRANCH  25  26
HETATM   26  C3  UNL     1      -3.735   3.274  12.256  1.00  0.00     0.034 C 
BRANCH  26  27
HETATM   27  C2  UNL     1      -5.193   3.257  11.836  1.00  0.00    -0.075 C 
HETATM   28  C1  UNL     1      -5.562   3.098  10.550  1.00  0.00     0.015 C 
BRANCH  27  29
HETATM   29  C27 UNL     1      -6.249   3.493  12.916  1.00  0.00     0.107 C 
HETATM   30  C28 UNL     1      -6.628   4.967  13.049  1.00  0.00     0.026 C 
BRANCH  29  31
HETATM   31  C29 UNL     1      -7.501   2.639  12.713  1.00  0.00     0.147 C 
HETATM   32  O4  UNL     1      -8.669   2.978  12.786  1.00  0.00    -0.650 OA
BRANCH  31  33
HETATM   33  O5  UNL     1      -7.200   1.353  12.423  1.00  0.00    -0.776 OA
HETATM   34  H42 UNL     1      -8.078   0.930  12.315  1.00  0.00     0.167 HD
ENDBRANCH  31  33
ENDBRANCH  29  31
ENDBRANCH  27  29
ENDBRANCH  26  27
ENDBRANCH  25  26
ENDBRANCH  23  25
ENDBRANCH   1  23
BRANCH  22  35
HETATM   35  O3  UNL     1       3.217   6.988  14.790  1.00  0.00    -0.391 OA
HETATM   36  H37 UNL     1       3.696   7.418  15.518  1.00  0.00     0.210 HD
ENDBRANCH  22  35
TORSDOF 8
ENDMDL
MODEL 2
REMARK minimizedAffinity -9.51217461
REMARK  8 active torsions:
REMARK  status: ('A' for Active; 'I' for Inactive)
REMARK    1  A    between atoms: C2_2  and  C3_3 
REMARK    2  A    between atoms: C2_2  and  C27_30 
REMARK    3  A    between atoms: C3_3  and  C4_4 
REMARK    4  A    between atoms: C4_4  and  C5_5 
REMARK    5  A    between atoms: C5_5  and  C7_7 
REMARK    6  A    between atoms: C26_28  and  O3_29 
REMARK    7  A    between atoms: C27_30  and  C29_32 
REMARK    8  A    between atoms: C29_32  and  O5_34 
ROOT
HETATM    1  C7  UNL     1      -2.315   8.862  12.889  1.00  0.00    -0.002 C 
HETATM    2  C8  UNL     1      -1.765   9.516  14.170  1.00  0.00     0.006 C 
HETATM    3  C9  UNL     1      -0.261   9.544  13.953  1.00  0.00     0.010 C 
HETATM    4  C10 UNL     1       0.002   8.149  13.384  1.00  0.00     0.027 C 
HETATM    5  C11 UNL     1       1.409   7.927  12.865  1.00  0.00    -0.036 C 
HETATM    6  C12 UNL     1       1.715   7.704  11.566  1.00  0.00     0.002 C 
HETATM    7  C13 UNL     1       0.627   7.899  10.541  1.00  0.00     0.157 C 
HETATM    8  O1  UNL     1       0.851   7.755   9.340  1.00  0.00    -0.293 OA
HETATM    9  C14 UNL     1      -0.721   8.416  10.981  1.00  0.00     0.093 C 
HETATM   10  C15 UNL     1      -1.156   7.922  12.371  1.00  0.00    -0.026 C 
HETATM   11  C16 UNL     1      -1.464   6.418  12.288  1.00  0.00     0.016 C 
HETATM   12  C17 UNL     1       3.120   7.289  11.063  1.00  0.00    -0.008 C 
HETATM   13  C18 UNL     1       2.996   5.941  10.289  1.00  0.00     0.021 C 
HETATM   14  C19 UNL     1       3.667   8.386  10.095  1.00  0.00     0.022 C 
HETATM   15  C20 UNL     1       5.006   9.011  10.458  1.00  0.00     0.080 C 
HETATM   16  C21 UNL     1       6.027   7.989  10.866  1.00  0.00     0.131 C 
HETATM   17  O2  UNL     1       7.195   8.070  10.468  1.00  0.00    -0.298 OA
HETATM   18  C22 UNL     1       5.585   6.875  11.802  1.00  0.00     0.056 C 
HETATM   19  C23 UNL     1       6.578   6.738  12.957  1.00  0.00     0.018 C 
HETATM   20  C24 UNL     1       4.109   7.014  12.259  1.00  0.00     0.012 C 
HETATM   21  C25 UNL     1       3.892   8.014  13.405  1.00  0.00     0.042 C 
HETATM   22  C26 UNL     1       2.466   7.907  13.943  1.00  0.00     0.148 C 
ENDROOT
BRANCH   1  23
HETATM   23  C5  UNL     1      -3.789   8.387  13.035  1.00  0.00    -0.014 C 
HETATM   24  C6  UNL     1      -4.582   9.065  14.154  1.00  0.00     0.010 C 
BRANCH  23  25
HETATM   25  C4  UNL     1      -3.875   6.841  13.111  1.00  0.00     0.009 C 
BRANCH  25  26
HETATM   26  C3  UNL     1      -5.201   6.293  13.677  1.00  0.00     0.034 C 
BRANCH  26  27
HETATM   27  C2  UNL     1      -5.613   4.878  13.317  1.00  0.00    -0.075 C 
HETATM   28  C1  UNL     1      -4.898   4.125  12.459  1.00  0.00     0.015 C 
BRANCH  27  29
HETATM   29  C27 UNL     1      -6.916   4.341  13.911  1.00  0.00     0.107 C 
HETATM   30  C28 UNL     1      -7.366   5.131  15.139  1.00  0.00     0.026 C 
BRANCH  29  31
HETATM   31  C29 UNL     1      -8.046   4.269  12.883  1.00  0.00     0.147 C 
HETATM   32  O4  UNL     1      -8.381   5.110  12.066  1.00  0.00    -0.650 OA
BRANCH  31  33
HETATM   33  O5  UNL     1      -8.722   3.100  12.948  1.00  0.00    -0.776 OA
HETATM   34  H42 UNL     1      -9.400   3.188  12.245  1.00  0.00     0.167 HD
ENDBRANCH  31  33
ENDBRANCH  29  31
ENDBRANCH  27  29
ENDBRANCH  26  27
ENDBRANCH  25  26
ENDBRANCH  23  25
ENDBRANCH   1  23
BRANCH  22  35
HETATM   35  O3  UNL     1       2.305   6.698  14.677  1.00  0.00    -0.391 OA
HETATM   36  H37 UNL     1       2.910   6.731  15.436  1.00  0.00     0.210 HD
ENDBRANCH  22  35
TORSDOF 8
ENDMDL
MODEL 3
REMARK minimizedAffinity -9.34882641
REMARK  8 active torsions:
REMARK  status: ('A' for Active; 'I' for Inactive)
REMARK    1  A    between atoms: C2_2  and  C3_3 
REMARK    2  A    between atoms: C2_2  and  C27_30 
REMARK    3  A    between atoms: C3_3  and  C4_4 
REMARK    4  A    between atoms: C4_4  and  C5_5 
REMARK    5  A    between atoms: C5_5  and  C7_7 
REMARK    6  A    between atoms: C26_28  and  O3_29 
REMARK    7  A    between atoms: C27_30  and  C29_32 
REMARK    8  A    between atoms: C29_32  and  O5_34 
ROOT
HETATM    1  C7  UNL     1      -1.698   6.159  12.274  1.00  0.00    -0.002 C 
HETATM    2  C8  UNL     1      -1.710   7.257  13.353  1.00  0.00     0.006 C 
HETATM    3  C9  UNL     1      -0.373   7.960  13.179  1.00  0.00     0.010 C 
HETATM    4  C10 UNL     1       0.583   6.779  13.003  1.00  0.00     0.027 C 
HETATM    5  C11 UNL     1       1.995   7.158  12.601  1.00  0.00    -0.036 C 
HETATM    6  C12 UNL     1       2.561   6.835  11.415  1.00  0.00     0.002 C 
HETATM    7  C13 UNL     1       1.674   6.253  10.344  1.00  0.00     0.157 C 
HETATM    8  O1  UNL     1       2.117   5.979   9.230  1.00  0.00    -0.293 OA
HETATM    9  C14 UNL     1       0.190   6.137  10.596  1.00  0.00     0.093 C 
HETATM   10  C15 UNL     1      -0.174   5.809  12.053  1.00  0.00    -0.026 C 
HETATM   11  C16 UNL     1       0.260   4.366  12.359  1.00  0.00     0.016 C 
HETATM   12  C17 UNL     1       4.057   7.052  11.078  1.00  0.00    -0.008 C 
HETATM   13  C18 UNL     1       4.685   5.681  10.682  1.00  0.00     0.021 C 
HETATM   14  C19 UNL     1       4.178   8.037   9.872  1.00  0.00     0.022 C 
HETATM   15  C20 UNL     1       5.008   9.293  10.096  1.00  0.00     0.080 C 
HETATM   16  C21 UNL     1       6.310   9.006  10.787  1.00  0.00     0.131 C 
HETATM   17  O2  UNL     1       7.354   9.553  10.415  1.00  0.00    -0.298 OA
HETATM   18  C22 UNL     1       6.293   8.050  11.969  1.00  0.00     0.056 C 
HETATM   19  C23 UNL     1       7.052   8.663  13.147  1.00  0.00     0.018 C 
HETATM   20  C24 UNL     1       4.869   7.555  12.332  1.00  0.00     0.012 C 
HETATM   21  C25 UNL     1       4.047   8.547  13.169  1.00  0.00     0.042 C 
HETATM   22  C26 UNL     1       2.767   7.885  13.675  1.00  0.00     0.148 C 
ENDROOT
BRANCH   1  23
HETATM   23  C5  UNL     1      -2.793   5.077  12.498  1.00  0.00    -0.014 C 
HETATM   24  C6  UNL     1      -2.993   4.105  11.333  1.00  0.00     0.010 C 
BRANCH  23  25
HETATM   25  C4  UNL     1      -4.126   5.717  12.963  1.00  0.00     0.009 C 
BRANCH  25  26
HETATM   26  C3  UNL     1      -5.150   4.723  13.550  1.00  0.00     0.034 C 
BRANCH  26  27
HETATM   27  C2  UNL     1      -6.568   5.206  13.796  1.00  0.00    -0.075 C 
HETATM   28  C1  UNL     1      -6.833   6.263  14.588  1.00  0.00     0.015 C 
BRANCH  27  29
HETATM   29  C27 UNL     1      -7.712   4.411  13.164  1.00  0.00     0.107 C 
HETATM   30  C28 UNL     1      -8.554   5.258  12.211  1.00  0.00     0.026 C 
BRANCH  29  31
HETATM   31  C29 UNL     1      -7.227   3.143  12.460  1.00  0.00     0.147 C 
HETATM   32  O4  UNL     1      -6.303   3.018  11.676  1.00  0.00    -0.650 OA
BRANCH  31  33
HETATM   33  O5  UNL     1      -7.968   2.061  12.792  1.00  0.00    -0.776 OA
HETATM   34  H42 UNL     1      -7.552   1.334  12.282  1.00  0.00     0.167 HD
ENDBRANCH  31  33
ENDBRANCH  29  31
ENDBRANCH  27  29
ENDBRANCH  26  27
ENDBRANCH  25  26
ENDBRANCH  23  25
ENDBRANCH   1  23
BRANCH  22  35
HETATM   35  O3  UNL     1       3.071   6.940  14.696  1.00  0.00    -0.391 OA
HETATM   36  H37 UNL     1       3.471   7.425  15.437  1.00  0.00     0.210 HD
ENDBRANCH  22  35
TORSDOF 8
ENDMDL
MODEL 4
REMARK minimizedAffinity -9.32793999
REMARK  8 active torsions:
REMARK  status: ('A' for Active; 'I' for Inactive)
REMARK    1  A    between atoms: C2_2  and  C3_3 
REMARK    2  A    between atoms: C2_2  and  C27_30 
REMARK    3  A    between atoms: C3_3  and  C4_4 
REMARK    4  A    between atoms: C4_4  and  C5_5 
REMARK    5  A    between atoms: C5_5  and  C7_7 
REMARK    6  A    between atoms: C26_28  and  O3_29 
REMARK    7  A    between atoms: C27_30  and  C29_32 
REMARK    8  A    between atoms: C29_32  and  O5_34 
ROOT
HETATM    1  C7  UNL     1      -0.752   5.041  12.719  1.00  0.00    -0.002 C 
HETATM    2  C8  UNL     1      -0.242   4.328  11.453  1.00  0.00     0.006 C 
HETATM    3  C9  UNL     1       1.189   4.818  11.304  1.00  0.00     0.010 C 
HETATM    4  C10 UNL     1       1.041   6.313  11.584  1.00  0.00     0.027 C 
HETATM    5  C11 UNL     1       2.349   7.070  11.711  1.00  0.00    -0.036 C 
HETATM    6  C12 UNL     1       2.782   7.655  12.852  1.00  0.00     0.002 C 
HETATM    7  C13 UNL     1       2.032   7.360  14.126  1.00  0.00     0.157 C 
HETATM    8  O1  UNL     1       2.400   7.825  15.204  1.00  0.00    -0.293 OA
HETATM    9  C14 UNL     1       0.896   6.366  14.102  1.00  0.00     0.093 C 
HETATM   10  C15 UNL     1       0.076   6.384  12.801  1.00  0.00    -0.026 C 
HETATM   11  C16 UNL     1      -0.720   7.698  12.735  1.00  0.00     0.016 C 
HETATM   12  C17 UNL     1       4.018   8.586  12.937  1.00  0.00    -0.008 C 
HETATM   13  C18 UNL     1       3.568   9.963  13.513  1.00  0.00     0.021 C 
HETATM   14  C19 UNL     1       5.077   7.952  13.894  1.00  0.00     0.022 C 
HETATM   15  C20 UNL     1       6.463   7.711  13.315  1.00  0.00     0.080 C 
HETATM   16  C21 UNL     1       6.971   8.886  12.529  1.00  0.00     0.131 C 
HETATM   17  O2  UNL     1       8.143   9.260  12.642  1.00  0.00    -0.298 OA
HETATM   18  C22 UNL     1       6.008   9.574  11.576  1.00  0.00     0.056 C 
HETATM   19  C23 UNL     1       6.668   9.757  10.208  1.00  0.00     0.018 C 
HETATM   20  C24 UNL     1       4.619   8.887  11.511  1.00  0.00     0.012 C 
HETATM   21  C25 UNL     1       4.567   7.644  10.609  1.00  0.00     0.042 C 
HETATM   22  C26 UNL     1       3.124   7.182  10.420  1.00  0.00     0.148 C 
ENDROOT
BRANCH   1  23
HETATM   23  C5  UNL     1      -2.299   4.990  12.864  1.00  0.00    -0.014 C 
HETATM   24  C6  UNL     1      -2.826   5.189  14.286  1.00  0.00     0.010 C 
BRANCH  23  25
HETATM   25  C4  UNL     1      -2.881   3.717  12.196  1.00  0.00     0.009 C 
BRANCH  25  26
HETATM   26  C3  UNL     1      -4.210   3.933  11.442  1.00  0.00     0.034 C 
BRANCH  26  27
HETATM   27  C2  UNL     1      -5.389   3.039  11.783  1.00  0.00    -0.075 C 
HETATM   28  C1  UNL     1      -5.695   1.953  11.049  1.00  0.00     0.015 C 
BRANCH  27  29
HETATM   29  C27 UNL     1      -6.274   3.447  12.962  1.00  0.00     0.107 C 
HETATM   30  C28 UNL     1      -6.269   4.956  13.201  1.00  0.00     0.026 C 
BRANCH  29  31
HETATM   31  C29 UNL     1      -7.709   2.935  12.824  1.00  0.00     0.147 C 
HETATM   32  O4  UNL     1      -8.734   3.582  12.694  1.00  0.00    -0.650 OA
BRANCH  31  33
HETATM   33  O5  UNL     1      -7.776   1.585  12.866  1.00  0.00    -0.776 OA
HETATM   34  H42 UNL     1      -8.734   1.400  12.764  1.00  0.00     0.167 HD
ENDBRANCH  31  33
ENDBRANCH  29  31
ENDBRANCH  27  29
ENDBRANCH  26  27
ENDBRANCH  25  26
ENDBRANCH  23  25
ENDBRANCH   1  23
BRANCH  22  35
HETATM   35  O3  UNL     1       2.421   8.090   9.578  1.00  0.00    -0.391 OA
HETATM   36  H37 UNL     1       2.855   8.081   8.709  1.00  0.00     0.210 HD
ENDBRANCH  22  35
TORSDOF 8
ENDMDL
MODEL 5
REMARK minimizedAffinity -9.10935307
REMARK  8 active torsions:
REMARK  status: ('A' for Active; 'I' for Inactive)
REMARK    1  A    between atoms: C2_2  and  C3_3 
REMARK    2  A    between atoms: C2_2  and  C27_30 
REMARK    3  A    between atoms: C3_3  and  C4_4 
REMARK    4  A    between atoms: C4_4  and  C5_5 
REMARK    5  A    between atoms: C5_5  and  C7_7 
REMARK    6  A    between atoms: C26_28  and  O3_29 
REMARK    7  A    between atoms: C27_30  and  C29_32 
REMARK    8  A    between atoms: C29_32  and  O5_34 
ROOT
HETATM    1  C7  UNL     1       0.602   6.498  11.953  1.00  0.00    -0.002 C 
HETATM    2  C8  UNL     1       0.332   5.536  10.781  1.00  0.00     0.006 C 
HETATM    3  C9  UNL     1      -1.177   5.348  10.799  1.00  0.00     0.010 C 
HETATM    4  C10 UNL     1      -1.454   5.164  12.291  1.00  0.00     0.027 C 
HETATM    5  C11 UNL     1      -2.922   5.152  12.670  1.00  0.00    -0.036 C 
HETATM    6  C12 UNL     1      -3.519   6.097  13.433  1.00  0.00     0.002 C 
HETATM    7  C13 UNL     1      -2.737   7.347  13.749  1.00  0.00     0.157 C 
HETATM    8  O1  UNL     1      -3.237   8.263  14.401  1.00  0.00    -0.293 OA
HETATM    9  C14 UNL     1      -1.370   7.539  13.139  1.00  0.00     0.093 C 
HETATM   10  C15 UNL     1      -0.566   6.237  12.983  1.00  0.00    -0.026 C 
HETATM   11  C16 UNL     1      -0.164   5.734  14.379  1.00  0.00     0.016 C 
HETATM   12  C17 UNL     1      -4.965   5.989  13.977  1.00  0.00    -0.008 C 
HETATM   13  C18 UNL     1      -4.924   6.102  15.531  1.00  0.00     0.021 C 
HETATM   14  C19 UNL     1      -5.823   7.161  13.402  1.00  0.00     0.022 C 
HETATM   15  C20 UNL     1      -7.079   6.774  12.633  1.00  0.00     0.080 C 
HETATM   16  C21 UNL     1      -7.879   5.715  13.334  1.00  0.00     0.131 C 
HETATM   17  O2  UNL     1      -9.111   5.793  13.395  1.00  0.00    -0.298 OA
HETATM   18  C22 UNL     1      -7.128   4.537  13.935  1.00  0.00     0.056 C 
HETATM   19  C23 UNL     1      -7.791   3.225  13.513  1.00  0.00     0.018 C 
HETATM   20  C24 UNL     1      -5.603   4.583  13.661  1.00  0.00     0.012 C 
HETATM   21  C25 UNL     1      -5.194   4.085  12.265  1.00  0.00     0.042 C 
HETATM   22  C26 UNL     1      -3.676   3.942  12.174  1.00  0.00     0.148 C 
ENDROOT
BRANCH   1  23
HETATM   23  C5  UNL     1       2.101   6.545  12.365  1.00  0.00    -0.014 C 
HETATM   24  C6  UNL     1       2.556   7.854  13.012  1.00  0.00     0.010 C 
BRANCH  23  25
HETATM   25  C4  UNL     1       3.019   6.122  11.189  1.00  0.00     0.009 C 
BRANCH  25  26
HETATM   26  C3  UNL     1       2.436   6.390   9.786  1.00  0.00     0.034 C 
BRANCH  26  27
HETATM   27  C2  UNL     1       2.846   7.660   9.062  1.00  0.00    -0.075 C 
HETATM   28  C1  UNL     1       3.956   8.344   9.399  1.00  0.00     0.015 C 
BRANCH  27  29
HETATM   29  C27 UNL     1       1.918   8.187   7.967  1.00  0.00     0.107 C 
HETATM   30  C28 UNL     1       1.896   7.283   6.736  1.00  0.00     0.026 C 
BRANCH  29  31
HETATM   31  C29 UNL     1       0.495   8.434   8.470  1.00  0.00     0.147 C 
HETATM   32  O4  UNL     1      -0.558   8.252   7.884  1.00  0.00    -0.650 OA
BRANCH  31  33
HETATM   33  O5  UNL     1       0.477   8.921   9.732  1.00  0.00    -0.776 OA
HETATM   34  H42 UNL     1      -0.479   9.025   9.923  1.00  0.00     0.167 HD
ENDBRANCH  31  33
ENDBRANCH  29  31
ENDBRANCH  27  29
ENDBRANCH  26  27
ENDBRANCH  25  26
ENDBRANCH  23  25
ENDBRANCH   1  23
BRANCH  22  35
HETATM   35  O3  UNL     1      -3.239   2.824  12.939  1.00  0.00    -0.391 OA
HETATM   36  H37 UNL     1      -3.639   2.027  12.553  1.00  0.00     0.210 HD
ENDBRANCH  22  35
TORSDOF 8
ENDMDL
MODEL 6
REMARK minimizedAffinity -8.96084881
REMARK  8 active torsions:
REMARK  status: ('A' for Active; 'I' for Inactive)
REMARK    1  A    between atoms: C2_2  and  C3_3 
REMARK    2  A    between atoms: C2_2  and  C27_30 
REMARK    3  A    between atoms: C3_3  and  C4_4 
REMARK    4  A    between atoms: C4_4  and  C5_5 
REMARK    5  A    between atoms: C5_5  and  C7_7 
REMARK    6  A    between atoms: C26_28  and  O3_29 
REMARK    7  A    between atoms: C27_30  and  C29_32 
REMARK    8  A    between atoms: C29_32  and  O5_34 
ROOT
HETATM    1  C7  UNL     1      -1.548   8.040  13.101  1.00  0.00    -0.002 C 
HETATM    2  C8  UNL     1      -1.376   8.598  14.525  1.00  0.00     0.006 C 
HETATM    3  C9  UNL     1       0.100   8.950  14.609  1.00  0.00     0.010 C 
HETATM    4  C10 UNL     1       0.752   7.730  13.957  1.00  0.00     0.027 C 
HETATM    5  C11 UNL     1       2.241   7.864  13.701  1.00  0.00    -0.036 C 
HETATM    6  C12 UNL     1       2.802   7.895  12.470  1.00  0.00     0.002 C 
HETATM    7  C13 UNL     1       1.885   8.019  11.279  1.00  0.00     0.157 C 
HETATM    8  O1  UNL     1       2.333   8.096  10.136  1.00  0.00    -0.293 OA
HETATM    9  C14 UNL     1       0.402   8.193  11.502  1.00  0.00     0.093 C 
HETATM   10  C15 UNL     1      -0.141   7.430  12.721  1.00  0.00    -0.026 C 
HETATM   11  C16 UNL     1      -0.095   5.922  12.422  1.00  0.00     0.016 C 
HETATM   12  C17 UNL     1       4.327   7.839  12.208  1.00  0.00    -0.008 C 
HETATM   13  C18 UNL     1       4.632   6.619  11.287  1.00  0.00     0.021 C 
HETATM   14  C19 UNL     1       4.775   9.150  11.485  1.00  0.00     0.022 C 
HETATM   15  C20 UNL     1       5.865   9.966  12.165  1.00  0.00     0.080 C 
HETATM   16  C21 UNL     1       7.001   9.115  12.653  1.00  0.00     0.131 C 
HETATM   17  O2  UNL     1       8.173   9.479  12.500  1.00  0.00    -0.298 OA
HETATM   18  C22 UNL     1       6.663   7.813  13.362  1.00  0.00     0.056 C 
HETATM   19  C23 UNL     1       7.454   7.708  14.667  1.00  0.00     0.018 C 
HETATM   20  C24 UNL     1       5.138   7.594  13.537  1.00  0.00     0.012 C 
HETATM   21  C25 UNL     1       4.518   8.357  14.718  1.00  0.00     0.042 C 
HETATM   22  C26 UNL     1       3.081   7.897  14.955  1.00  0.00     0.148 C 
ENDROOT
BRANCH   1  23
HETATM   23  C5  UNL     1      -2.886   7.271  12.908  1.00  0.00    -0.014 C 
HETATM   24  C6  UNL     1      -4.141   8.144  12.890  1.00  0.00     0.010 C 
BRANCH  23  25
HETATM   25  C4  UNL     1      -3.005   6.094  13.911  1.00  0.00     0.009 C 
BRANCH  25  26
HETATM   26  C3  UNL     1      -3.152   4.703  13.261  1.00  0.00     0.034 C 
BRANCH  26  27
HETATM   27  C2  UNL     1      -4.469   4.351  12.594  1.00  0.00    -0.075 C 
HETATM   28  C1  UNL     1      -5.655   4.634  13.166  1.00  0.00     0.015 C 
BRANCH  27  29
HETATM   29  C27 UNL     1      -4.416   3.596  11.265  1.00  0.00     0.107 C 
HETATM   30  C28 UNL     1      -3.026   3.630  10.630  1.00  0.00     0.026 C 
BRANCH  29  31
HETATM   31  C29 UNL     1      -4.908   2.153  11.388  1.00  0.00     0.147 C 
HETATM   32  O4  UNL     1      -6.054   1.749  11.478  1.00  0.00    -0.650 OA
BRANCH  31  33
HETATM   33  O5  UNL     1      -3.888   1.265  11.397  1.00  0.00    -0.776 OA
HETATM   34  H42 UNL     1      -4.339   0.398  11.474  1.00  0.00     0.167 HD
ENDBRANCH  31  33
ENDBRANCH  29  31
ENDBRANCH  27  29
ENDBRANCH  26  27
ENDBRANCH  25  26
ENDBRANCH  23  25
ENDBRANCH   1  23
BRANCH  22  35
HETATM   35  O3  UNL     1       3.067   6.587  15.512  1.00  0.00    -0.391 OA
HETATM   36  H37 UNL     1       3.515   6.629  16.374  1.00  0.00     0.210 HD
ENDBRANCH  22  35
TORSDOF 8
ENDMDL
MODEL 7
REMARK minimizedAffinity -8.75442696
REMARK  8 active torsions:
REMARK  status: ('A' for Active; 'I' for Inactive)
REMARK    1  A    between atoms: C2_2  and  C3_3 
REMARK    2  A    between atoms: C2_2  and  C27_30 
REMARK    3  A    between atoms: C3_3  and  C4_4 
REMARK    4  A    between atoms: C4_4  and  C5_5 
REMARK    5  A    between atoms: C5_5  and  C7_7 
REMARK    6  A    between atoms: C26_28  and  O3_29 
REMARK    7  A    between atoms: C27_30  and  C29_32 
REMARK    8  A    between atoms: C29_32  and  O5_34 
ROOT
HETATM    1  C7  UNL     1      -5.954   6.849  13.864  1.00  0.00    -0.002 C 
HETATM    2  C8  UNL     1      -5.865   8.364  13.610  1.00  0.00     0.006 C 
HETATM    3  C9  UNL     1      -4.504   8.551  12.959  1.00  0.00     0.010 C 
HETATM    4  C10 UNL     1      -3.616   7.656  13.824  1.00  0.00     0.027 C 
HETATM    5  C11 UNL     1      -2.205   7.463  13.303  1.00  0.00    -0.036 C 
HETATM    6  C12 UNL     1      -1.707   6.280  12.875  1.00  0.00     0.002 C 
HETATM    7  C13 UNL     1      -2.667   5.130  12.703  1.00  0.00     0.157 C 
HETATM    8  O1  UNL     1      -2.287   4.041  12.276  1.00  0.00    -0.293 OA
HETATM    9  C14 UNL     1      -4.143   5.360  12.923  1.00  0.00     0.093 C 
HETATM   10  C15 UNL     1      -4.460   6.368  14.039  1.00  0.00    -0.026 C 
HETATM   11  C16 UNL     1      -4.085   5.742  15.393  1.00  0.00     0.016 C 
HETATM   12  C17 UNL     1      -0.218   6.039  12.523  1.00  0.00    -0.008 C 
HETATM   13  C18 UNL     1       0.323   4.876  13.408  1.00  0.00     0.021 C 
HETATM   14  C19 UNL     1      -0.101   5.635  11.019  1.00  0.00     0.022 C 
HETATM   15  C20 UNL     1       0.800   6.499  10.148  1.00  0.00     0.080 C 
HETATM   16  C21 UNL     1       2.114   6.805  10.805  1.00  0.00     0.131 C 
HETATM   17  O2  UNL     1       3.167   6.759  10.160  1.00  0.00    -0.298 OA
HETATM   18  C22 UNL     1       2.101   7.201  12.273  1.00  0.00     0.056 C 
HETATM   19  C23 UNL     1       2.938   8.464  12.481  1.00  0.00     0.018 C 
HETATM   20  C24 UNL     1       0.671   7.295  12.866  1.00  0.00     0.012 C 
HETATM   21  C25 UNL     1      -0.065   8.605  12.543  1.00  0.00     0.042 C 
HETATM   22  C26 UNL     1      -1.353   8.708  13.357  1.00  0.00     0.148 C 
ENDROOT
BRANCH   1  23
HETATM   23  C5  UNL     1      -7.090   6.465  14.854  1.00  0.00    -0.014 C 
HETATM   24  C6  UNL     1      -6.620   5.871  16.183  1.00  0.00     0.010 C 
BRANCH  23  25
HETATM   25  C4  UNL     1      -8.160   5.581  14.163  1.00  0.00     0.009 C 
BRANCH  25  26
HETATM   26  C3  UNL     1      -9.086   6.333  13.185  1.00  0.00     0.034 C 
BRANCH  26  27
HETATM   27  C2  UNL     1     -10.093   7.316  13.753  1.00  0.00    -0.075 C 
HETATM   28  C1  UNL     1      -9.825   8.061  14.842  1.00  0.00     0.015 C 
BRANCH  27  29
HETATM   29  C27 UNL     1     -11.467   7.395  13.085  1.00  0.00     0.107 C 
HETATM   30  C28 UNL     1     -12.561   6.733  13.922  1.00  0.00     0.026 C 
BRANCH  29  31
HETATM   31  C29 UNL     1     -11.866   8.827  12.728  1.00  0.00     0.147 C 
HETATM   32  O4  UNL     1     -12.487   9.631  13.401  1.00  0.00    -0.650 OA
BRANCH  31  33
HETATM   33  O5  UNL     1     -11.451   9.178  11.489  1.00  0.00    -0.776 OA
HETATM   34  H42 UNL     1     -11.764  10.103  11.396  1.00  0.00     0.167 HD
ENDBRANCH  31  33
ENDBRANCH  29  31
ENDBRANCH  27  29
ENDBRANCH  26  27
ENDBRANCH  25  26
ENDBRANCH  23  25
ENDBRANCH   1  23
BRANCH  22  35
HETATM   35  O3  UNL     1      -1.052   8.959  14.726  1.00  0.00    -0.391 OA
HETATM   36  H37 UNL     1      -0.597   9.816  14.776  1.00  0.00     0.210 HD
ENDBRANCH  22  35
TORSDOF 8
ENDMDL
MODEL 8
REMARK minimizedAffinity -8.74771023
REMARK  8 active torsions:
REMARK  status: ('A' for Active; 'I' for Inactive)
REMARK    1  A    between atoms: C2_2  and  C3_3 
REMARK    2  A    between atoms: C2_2  and  C27_30 
REMARK    3  A    between atoms: C3_3  and  C4_4 
REMARK    4  A    between atoms: C4_4  and  C5_5 
REMARK    5  A    between atoms: C5_5  and  C7_7 
REMARK    6  A    between atoms: C26_28  and  O3_29 
REMARK    7  A    between atoms: C27_30  and  C29_32 
REMARK    8  A    between atoms: C29_32  and  O5_34 
ROOT
HETATM    1  C7  UNL     1      -1.307   5.668  13.614  1.00  0.00    -0.002 C 
HETATM    2  C8  UNL     1      -0.966   4.839  12.362  1.00  0.00     0.006 C 
HETATM    3  C9  UNL     1       0.490   5.175  12.082  1.00  0.00     0.010 C 
HETATM    4  C10 UNL     1       0.507   6.691  12.278  1.00  0.00     0.027 C 
HETATM    5  C11 UNL     1       1.887   7.320  12.265  1.00  0.00    -0.036 C 
HETATM    6  C12 UNL     1       2.459   7.921  13.334  1.00  0.00     0.002 C 
HETATM    7  C13 UNL     1       1.784   7.773  14.673  1.00  0.00     0.157 C 
HETATM    8  O1  UNL     1       2.276   8.257  15.691  1.00  0.00    -0.293 OA
HETATM    9  C14 UNL     1       0.560   6.897  14.792  1.00  0.00     0.093 C 
HETATM   10  C15 UNL     1      -0.351   6.924  13.553  1.00  0.00    -0.026 C 
HETATM   11  C16 UNL     1      -1.022   8.305  13.463  1.00  0.00     0.016 C 
HETATM   12  C17 UNL     1       3.780   8.727  13.273  1.00  0.00    -0.008 C 
HETATM   13  C18 UNL     1       3.509  10.172  13.793  1.00  0.00     0.021 C 
HETATM   14  C19 UNL     1       4.845   8.045  14.190  1.00  0.00     0.022 C 
HETATM   15  C20 UNL     1       6.154   7.636  13.531  1.00  0.00     0.080 C 
HETATM   16  C21 UNL     1       6.709   8.709  12.640  1.00  0.00     0.131 C 
HETATM   17  O2  UNL     1       7.917   8.971  12.646  1.00  0.00    -0.298 OA
HETATM   18  C22 UNL     1       5.745   9.436  11.716  1.00  0.00     0.056 C 
HETATM   19  C23 UNL     1       6.314   9.478  10.296  1.00  0.00     0.018 C 
HETATM   20  C24 UNL     1       4.297   8.888  11.793  1.00  0.00     0.012 C 
HETATM   21  C25 UNL     1       4.059   7.609  10.975  1.00  0.00     0.042 C 
HETATM   22  C26 UNL     1       2.568   7.283  10.918  1.00  0.00     0.148 C 
ENDROOT
BRANCH   1  23
HETATM   23  C5  UNL     1      -2.837   5.778  13.871  1.00  0.00    -0.014 C 
HETATM   24  C6  UNL     1      -3.230   6.147  15.302  1.00  0.00     0.010 C 
BRANCH  23  25
HETATM   25  C4  UNL     1      -3.582   4.516  13.364  1.00  0.00     0.009 C 
BRANCH  25  26
HETATM   26  C3  UNL     1      -5.054   4.750  12.967  1.00  0.00     0.034 C 
BRANCH  26  27
HETATM   27  C2  UNL     1      -5.841   3.588  12.388  1.00  0.00    -0.075 C 
HETATM   28  C1  UNL     1      -7.147   3.408  12.659  1.00  0.00     0.015 C 
BRANCH  27  29
HETATM   29  C27 UNL     1      -5.085   2.575  11.526  1.00  0.00     0.107 C 
HETATM   30  C28 UNL     1      -5.915   1.326  11.233  1.00  0.00     0.026 C 
BRANCH  29  31
HETATM   31  C29 UNL     1      -4.563   3.183  10.224  1.00  0.00     0.147 C 
HETATM   32  O4  UNL     1      -3.480   3.699  10.010  1.00  0.00    -0.650 OA
BRANCH  31  33
HETATM   33  O5  UNL     1      -5.473   3.111   9.226  1.00  0.00    -0.776 OA
HETATM   34  H42 UNL     1      -5.013   3.525   8.466  1.00  0.00     0.167 HD
ENDBRANCH  31  33
ENDBRANCH  29  31
ENDBRANCH  27  29
ENDBRANCH  26  27
ENDBRANCH  25  26
ENDBRANCH  23  25
ENDBRANCH   1  23
BRANCH  22  35
HETATM   35  O3  UNL     1       1.892   8.208  10.073  1.00  0.00    -0.391 OA
HETATM   36  H37 UNL     1       2.256   8.109   9.177  1.00  0.00     0.210 HD
ENDBRANCH  22  35
TORSDOF 8
ENDMDL
MODEL 9
REMARK minimizedAffinity -8.73670101
REMARK  8 active torsions:
REMARK  status: ('A' for Active; 'I' for Inactive)
REMARK    1  A    between atoms: C2_2  and  C3_3 
REMARK    2  A    between atoms: C2_2  and  C27_30 
REMARK    3  A    between atoms: C3_3  and  C4_4 
REMARK    4  A    between atoms: C4_4  and  C5_5 
REMARK    5  A    between atoms: C5_5  and  C7_7 
REMARK    6  A    between atoms: C26_28  and  O3_29 
REMARK    7  A    between atoms: C27_30  and  C29_32 
REMARK    8  A    between atoms: C29_32  and  O5_34 
ROOT
HETATM    1  C7  UNL     1      -1.750   5.965  12.943  1.00  0.00    -0.002 C 
HETATM    2  C8  UNL     1      -1.932   6.616  14.326  1.00  0.00     0.006 C 
HETATM    3  C9  UNL     1      -0.701   7.495  14.485  1.00  0.00     0.010 C 
HETATM    4  C10 UNL     1       0.411   6.573  13.983  1.00  0.00     0.027 C 
HETATM    5  C11 UNL     1       1.765   7.237  13.824  1.00  0.00    -0.036 C 
HETATM    6  C12 UNL     1       2.391   7.412  12.637  1.00  0.00     0.002 C 
HETATM    7  C13 UNL     1       1.611   7.129  11.378  1.00  0.00     0.157 C 
HETATM    8  O1  UNL     1       2.108   7.310  10.267  1.00  0.00    -0.293 OA
HETATM    9  C14 UNL     1       0.153   6.752  11.480  1.00  0.00     0.093 C 
HETATM   10  C15 UNL     1      -0.189   5.902  12.715  1.00  0.00    -0.026 C 
HETATM   11  C16 UNL     1       0.434   4.507  12.543  1.00  0.00     0.016 C 
HETATM   12  C17 UNL     1       3.849   7.914  12.489  1.00  0.00    -0.008 C 
HETATM   13  C18 UNL     1       4.666   6.850  11.694  1.00  0.00     0.021 C 
HETATM   14  C19 UNL     1       3.855   9.259  11.697  1.00  0.00     0.022 C 
HETATM   15  C20 UNL     1       4.501  10.454  12.384  1.00  0.00     0.080 C 
HETATM   16  C21 UNL     1       5.817  10.109  13.019  1.00  0.00     0.131 C 
HETATM   17  O2  UNL     1       6.783  10.875  12.921  1.00  0.00    -0.298 OA
HETATM   18  C22 UNL     1       5.911   8.812  13.805  1.00  0.00     0.056 C 
HETATM   19  C23 UNL     1       6.556   9.072  15.168  1.00  0.00     0.018 C 
HETATM   20  C24 UNL     1       4.562   8.051  13.888  1.00  0.00     0.012 C 
HETATM   21  C25 UNL     1       3.596   8.587  14.957  1.00  0.00     0.042 C 
HETATM   22  C26 UNL     1       2.410   7.640  15.127  1.00  0.00     0.148 C 
ENDROOT
BRANCH   1  23
HETATM   23  C5  UNL     1      -2.690   4.746  12.718  1.00  0.00    -0.014 C 
HETATM   24  C6  UNL     1      -2.694   4.183  11.296  1.00  0.00     0.010 C 
BRANCH  23  25
HETATM   25  C4  UNL     1      -4.122   5.040  13.236  1.00  0.00     0.009 C 
BRANCH  25  26
HETATM   26  C3  UNL     1      -5.203   4.059  12.738  1.00  0.00     0.034 C 
BRANCH  26  27
HETATM   27  C2  UNL     1      -6.597   4.158  13.331  1.00  0.00    -0.075 C 
HETATM   28  C1  UNL     1      -7.443   3.110  13.338  1.00  0.00     0.015 C 
BRANCH  27  29
HETATM   29  C27 UNL     1      -7.049   5.516  13.869  1.00  0.00     0.107 C 
HETATM   30  C28 UNL     1      -8.422   5.927  13.339  1.00  0.00     0.026 C 
BRANCH  29  31
HETATM   31  C29 UNL     1      -7.028   5.581  15.396  1.00  0.00     0.147 C 
HETATM   32  O4  UNL     1      -6.159   6.031  16.123  1.00  0.00    -0.650 OA
BRANCH  31  33
HETATM   33  O5  UNL     1      -8.142   5.047  15.945  1.00  0.00    -0.776 OA
HETATM   34  H42 UNL     1      -7.999   5.157  16.909  1.00  0.00     0.167 HD
ENDBRANCH  31  33
ENDBRANCH  29  31
ENDBRANCH  27  29
ENDBRANCH  26  27
ENDBRANCH  25  26
ENDBRANCH  23  25
ENDBRANCH   1  23
BRANCH  22  35
HETATM   35  O3  UNL     1       2.822   6.447  15.786  1.00  0.00    -0.391 OA
HETATM   36  H37 UNL     1       3.139   6.694  16.671  1.00  0.00     0.210 HD
ENDBRANCH  22  35
TORSDOF 8
ENDMDL
