MODEL 1
REMARK minimizedAffinity -6.67292786
REMARK CNNscore 0.595578372
REMARK CNNaffinity 6.96246099
REMARK  20 active torsions:
REMARK  status: ('A' for Active; 'I' for Inactive)
REMARK    1  A    between atoms: C2_2  and  C3_3 
REMARK    2  A    between atoms: C2_2  and  C28_35 
REMARK    3  A    between atoms: C4_4  and  C5_5 
REMARK    4  A    between atoms: C6_6  and  C7_7 
REMARK    5  A    between atoms: C6_6  and  C9_11 
REMARK    6  A    between atoms: C7_7  and  O1_8 
REMARK    7  A    between atoms: O1_8  and  C8_9 
REMARK    8  A    between atoms: C8_9  and  O2_10 
REMARK    9  A    between atoms: C13_15  and  O3_16 
REMARK   10  A    between atoms: C14_17  and  C15_18 
REMARK   11  A    between atoms: C15_18  and  C16_19 
REMARK   12  A    between atoms: C16_19  and  C17_20 
REMARK   13  A    between atoms: C17_20  and  O4_21 
REMARK   14  A    between atoms: C19_23  and  C21_25 
REMARK   15  A    between atoms: C24_29  and  O6_30 
REMARK   16  A    between atoms: C24_29  and  C25_31 
REMARK   17  A    between atoms: C25_31  and  C26_32 
REMARK   18  A    between atoms: C26_32  and  N1_33 
REMARK   19  A    between atoms: C28_35  and  C29_36 
REMARK   20  A    between atoms: C29_36  and  C30_37 
ROOT
HETATM    1  C9  UNL     1       2.804  51.595 -10.037  1.00  0.00     0.046 C 
HETATM    2  C10 UNL     1       2.110  51.201  -8.732  1.00  0.00     0.013 C 
HETATM    3  C11 UNL     1       1.293  52.442  -8.335  1.00  0.00     0.017 C 
HETATM    4  C12 UNL     1       0.990  53.240  -9.658  1.00  0.00     0.025 C 
HETATM    5  C13 UNL     1       1.623  52.308 -10.756  1.00  0.00     0.138 C 
HETATM    6  C14 UNL     1       1.846  54.607  -9.556  1.00  0.00     0.029 C 
HETATM    7  C18 UNL     1       1.279  55.526  -8.459  1.00  0.00    -0.066 C 
HETATM    8  C19 UNL     1       1.983  56.008  -7.405  1.00  0.00    -0.021 C 
HETATM    9  C20 UNL     1       1.402  56.849  -6.297  1.00  0.00     0.052 C 
HETATM   10  C22 UNL     1      -0.194  55.824  -8.649  1.00  0.00     0.038 C 
HETATM   11  C23 UNL     1      -1.020  54.539  -8.721  1.00  0.00     0.043 C 
HETATM   12  C24 UNL     1      -0.549  53.592  -9.853  1.00  0.00     0.070 C 
ENDROOT
BRANCH   5  13
HETATM   13  O3  UNL     1       0.701  51.313 -11.204  1.00  0.00    -0.394 OA
HETATM   14  H17 UNL     1       1.195  50.676 -11.749  1.00  0.00     0.210 HD
ENDBRANCH   5  13
BRANCH   6  15
HETATM   15  C15 UNL     1       2.030  55.389 -10.892  1.00  0.00     0.012 C 
BRANCH  15  16
HETATM   16  C16 UNL     1       3.222  56.360 -10.853  1.00  0.00     0.027 C 
BRANCH  16  17
HETATM   17  C17 UNL     1       4.532  55.683 -11.245  1.00  0.00     0.164 C 
BRANCH  17  18
HETATM   18  O4  UNL     1       5.242  55.231 -10.105  1.00  0.00    -0.401 OA
HETATM   19  H25 UNL     1       5.583  56.016  -9.640  1.00  0.00     0.209 HD
ENDBRANCH  17  18
ENDBRANCH  16  17
ENDBRANCH  15  16
ENDBRANCH   6  15
BRANCH  12  20
HETATM   20  O6  UNL     1      -0.660  54.366 -11.078  1.00  0.00    -0.389 OA
HETATM   21  H34 UNL     1      -1.597  54.595 -11.205  1.00  0.00     0.210 HD
ENDBRANCH  12  20
BRANCH  12  22
HETATM   22  C25 UNL     1      -1.602  52.459 -10.059  1.00  0.00     0.068 C 
BRANCH  22  23
HETATM   23  C26 UNL     1      -3.094  52.701  -9.837  1.00  0.00     0.272 C 
BRANCH  23  24
HETATM   24  N1  UNL     1      -3.736  53.371 -10.972  1.00  0.00     0.079 N 
HETATM   25  C27 UNL     1      -3.511  52.627 -12.207  1.00  0.00     0.306 C 
HETATM   26  H39 UNL     1      -3.344  54.306 -11.074  1.00  0.00     0.315 HD
ENDBRANCH  23  24
ENDBRANCH  22  23
ENDBRANCH  12  22
BRANCH   1  27
HETATM   27  C6  UNL     1       3.556  50.569 -10.893  1.00  0.00    -0.050 C 
HETATM   28  C5  UNL     1       3.689  50.475 -12.234  1.00  0.00     0.005 C 
BRANCH  28  29
HETATM   29  C4  UNL     1       3.169  51.315 -13.290  1.00  0.00     0.001 C 
HETATM   30  C3  UNL     1       3.505  51.152 -14.582  1.00  0.00     0.006 C 
BRANCH  30  31
HETATM   31  C2  UNL     1       3.032  51.952 -15.706  1.00  0.00    -0.067 C 
HETATM   32  C1  UNL     1       3.795  52.958 -16.170  1.00  0.00     0.019 C 
BRANCH  31  33
HETATM   33  C28 UNL     1       1.670  51.689 -16.319  1.00  0.00     0.041 C 
BRANCH  33  34
HETATM   34  C29 UNL     1       1.245  52.768 -17.327  1.00  0.00     0.032 C 
BRANCH  34  35
HETATM   35  C30 UNL     1       0.456  52.169 -18.463  1.00  0.00    -0.024 C 
HETATM   36  C31 UNL     1       0.272  52.655 -19.706  1.00  0.00    -0.091 C 
HETATM   37  C32 UNL     1       0.826  53.950 -20.230  1.00  0.00     0.042 C 
HETATM   38  C33 UNL     1      -0.555  51.893 -20.709  1.00  0.00     0.042 C 
ENDBRANCH  34  35
ENDBRANCH  33  34
ENDBRANCH  31  33
ENDBRANCH  30  31
ENDBRANCH  28  29
BRANCH  27  39
HETATM   39  C7  UNL     1       4.230  49.470 -10.066  1.00  0.00     0.205 C 
BRANCH  39  40
HETATM   40  O1  UNL     1       5.292  50.026  -9.301  1.00  0.00    -0.363 OA
BRANCH  40  41
HETATM   41  C8  UNL     1       6.411  50.399 -10.080  1.00  0.00     0.334 C 
BRANCH  41  42
HETATM   42  O2  UNL     1       6.825  49.344 -10.919  1.00  0.00    -0.377 OA
HETATM   43  H10 UNL     1       7.064  48.628 -10.307  1.00  0.00     0.212 HD
ENDBRANCH  41  42
ENDBRANCH  40  41
ENDBRANCH  39  40
ENDBRANCH  27  39
ENDBRANCH   1  27
BRANCH   8  44
HETATM   44  C21 UNL     1       3.437  55.722  -7.210  1.00  0.00     0.265 C 
HETATM   45  O5  UNL     1       4.341  56.434  -7.617  1.00  0.00    -0.302 OA
ENDBRANCH   8  44
TORSDOF 20
ENDMDL
MODEL 2
REMARK minimizedAffinity -6.49361563
REMARK CNNscore 0.391356558
REMARK CNNaffinity 6.12229013
REMARK  20 active torsions:
REMARK  status: ('A' for Active; 'I' for Inactive)
REMARK    1  A    between atoms: C2_2  and  C3_3 
REMARK    2  A    between atoms: C2_2  and  C28_35 
REMARK    3  A    between atoms: C4_4  and  C5_5 
REMARK    4  A    between atoms: C6_6  and  C7_7 
REMARK    5  A    between atoms: C6_6  and  C9_11 
REMARK    6  A    between atoms: C7_7  and  O1_8 
REMARK    7  A    between atoms: O1_8  and  C8_9 
REMARK    8  A    between atoms: C8_9  and  O2_10 
REMARK    9  A    between atoms: C13_15  and  O3_16 
REMARK   10  A    between atoms: C14_17  and  C15_18 
REMARK   11  A    between atoms: C15_18  and  C16_19 
REMARK   12  A    between atoms: C16_19  and  C17_20 
REMARK   13  A    between atoms: C17_20  and  O4_21 
REMARK   14  A    between atoms: C19_23  and  C21_25 
REMARK   15  A    between atoms: C24_29  and  O6_30 
REMARK   16  A    between atoms: C24_29  and  C25_31 
REMARK   17  A    between atoms: C25_31  and  C26_32 
REMARK   18  A    between atoms: C26_32  and  N1_33 
REMARK   19  A    between atoms: C28_35  and  C29_36 
REMARK   20  A    between atoms: C29_36  and  C30_37 
ROOT
HETATM    1  C9  UNL     1      -8.758  46.254 -27.480  1.00  0.00     0.046 C 
HETATM    2  C10 UNL     1      -7.652  45.260 -27.836  1.00  0.00     0.013 C 
HETATM    3  C11 UNL     1      -8.024  44.747 -29.237  1.00  0.00     0.017 C 
HETATM    4  C12 UNL     1      -8.894  45.865 -29.924  1.00  0.00     0.025 C 
HETATM    5  C13 UNL     1      -8.881  47.003 -28.837  1.00  0.00     0.138 C 
HETATM    6  C14 UNL     1     -10.385  45.255 -30.045  1.00  0.00     0.029 C 
HETATM    7  C18 UNL     1     -10.423  44.106 -31.070  1.00  0.00    -0.066 C 
HETATM    8  C19 UNL     1     -10.845  42.844 -30.811  1.00  0.00    -0.021 C 
HETATM    9  C20 UNL     1     -10.813  41.708 -31.801  1.00  0.00     0.052 C 
HETATM   10  C22 UNL     1      -9.896  44.518 -32.429  1.00  0.00     0.038 C 
HETATM   11  C23 UNL     1      -8.475  45.074 -32.333  1.00  0.00     0.043 C 
HETATM   12  C24 UNL     1      -8.373  46.281 -31.368  1.00  0.00     0.070 C 
ENDROOT
BRANCH   5  13
HETATM   13  O3  UNL     1      -7.750  47.863 -28.982  1.00  0.00    -0.394 OA
HETATM   14  H17 UNL     1      -7.710  48.435 -28.196  1.00  0.00     0.210 HD
ENDBRANCH   5  13
BRANCH   6  15
HETATM   15  C15 UNL     1     -11.516  46.288 -30.330  1.00  0.00     0.012 C 
BRANCH  15  16
HETATM   16  C16 UNL     1     -12.247  46.736 -29.053  1.00  0.00     0.027 C 
BRANCH  16  17
HETATM   17  C17 UNL     1     -12.424  48.250 -28.990  1.00  0.00     0.164 C 
BRANCH  17  18
HETATM   18  O4  UNL     1     -12.565  48.700 -27.653  1.00  0.00    -0.401 OA
HETATM   19  H25 UNL     1     -13.439  48.408 -27.335  1.00  0.00     0.209 HD
ENDBRANCH  17  18
ENDBRANCH  16  17
ENDBRANCH  15  16
ENDBRANCH   6  15
BRANCH  12  20
HETATM   20  O6  UNL     1      -9.298  47.274 -31.888  1.00  0.00    -0.389 OA
HETATM   21  H34 UNL     1      -8.995  47.531 -32.776  1.00  0.00     0.210 HD
ENDBRANCH  12  20
BRANCH  12  22
HETATM   22  C25 UNL     1      -6.984  46.974 -31.542  1.00  0.00     0.068 C 
BRANCH  22  23
HETATM   23  C26 UNL     1      -6.575  47.629 -32.860  1.00  0.00     0.272 C 
BRANCH  23  24
HETATM   24  N1  UNL     1      -5.544  46.871 -33.575  1.00  0.00     0.079 N 
HETATM   25  C27 UNL     1      -4.442  46.527 -32.682  1.00  0.00     0.306 C 
HETATM   26  H39 UNL     1      -5.182  47.439 -34.340  1.00  0.00     0.315 HD
ENDBRANCH  23  24
ENDBRANCH  22  23
ENDBRANCH  12  22
BRANCH   1  27
HETATM   27  C6  UNL     1      -8.663  47.162 -26.248  1.00  0.00    -0.050 C 
HETATM   28  C5  UNL     1      -7.596  47.777 -25.692  1.00  0.00     0.005 C 
BRANCH  28  29
HETATM   29  C4  UNL     1      -6.204  47.780 -26.084  1.00  0.00     0.001 C 
HETATM   30  C3  UNL     1      -5.261  48.464 -25.414  1.00  0.00     0.006 C 
BRANCH  30  31
HETATM   31  C2  UNL     1      -3.840  48.524 -25.741  1.00  0.00    -0.067 C 
HETATM   32  C1  UNL     1      -3.451  48.417 -27.024  1.00  0.00     0.019 C 
BRANCH  31  33
HETATM   33  C28 UNL     1      -2.802  48.657 -24.643  1.00  0.00     0.041 C 
BRANCH  33  34
HETATM   34  C29 UNL     1      -3.396  49.135 -23.309  1.00  0.00     0.032 C 
BRANCH  34  35
HETATM   35  C30 UNL     1      -3.705  47.970 -22.404  1.00  0.00    -0.024 C 
HETATM   36  C31 UNL     1      -2.882  47.327 -21.551  1.00  0.00    -0.091 C 
HETATM   37  C32 UNL     1      -1.431  47.647 -21.328  1.00  0.00     0.042 C 
HETATM   38  C33 UNL     1      -3.390  46.177 -20.722  1.00  0.00     0.042 C 
ENDBRANCH  34  35
ENDBRANCH  33  34
ENDBRANCH  31  33
ENDBRANCH  30  31
ENDBRANCH  28  29
BRANCH  27  39
HETATM   39  C7  UNL     1     -10.006  47.359 -25.538  1.00  0.00     0.205 C 
BRANCH  39  40
HETATM   40  O1  UNL     1     -10.861  46.256 -25.813  1.00  0.00    -0.363 OA
BRANCH  40  41
HETATM   41  C8  UNL     1     -12.021  46.229 -25.004  1.00  0.00     0.334 C 
BRANCH  41  42
HETATM   42  O2  UNL     1     -12.770  47.415 -25.143  1.00  0.00    -0.377 OA
HETATM   43  H10 UNL     1     -12.169  48.117 -24.845  1.00  0.00     0.212 HD
ENDBRANCH  41  42
ENDBRANCH  40  41
ENDBRANCH  39  40
ENDBRANCH  27  39
ENDBRANCH   1  27
BRANCH   8  44
HETATM   44  C21 UNL     1     -11.369  42.429 -29.474  1.00  0.00     0.265 C 
HETATM   45  O5  UNL     1     -10.692  41.920 -28.595  1.00  0.00    -0.302 OA
ENDBRANCH   8  44
TORSDOF 20
ENDMDL
MODEL 3
REMARK minimizedAffinity -6.39575672
REMARK CNNscore 0.379293382
REMARK CNNaffinity 6.11622763
REMARK  20 active torsions:
REMARK  status: ('A' for Active; 'I' for Inactive)
REMARK    1  A    between atoms: C2_2  and  C3_3 
REMARK    2  A    between atoms: C2_2  and  C28_35 
REMARK    3  A    between atoms: C4_4  and  C5_5 
REMARK    4  A    between atoms: C6_6  and  C7_7 
REMARK    5  A    between atoms: C6_6  and  C9_11 
REMARK    6  A    between atoms: C7_7  and  O1_8 
REMARK    7  A    between atoms: O1_8  and  C8_9 
REMARK    8  A    between atoms: C8_9  and  O2_10 
REMARK    9  A    between atoms: C13_15  and  O3_16 
REMARK   10  A    between atoms: C14_17  and  C15_18 
REMARK   11  A    between atoms: C15_18  and  C16_19 
REMARK   12  A    between atoms: C16_19  and  C17_20 
REMARK   13  A    between atoms: C17_20  and  O4_21 
REMARK   14  A    between atoms: C19_23  and  C21_25 
REMARK   15  A    between atoms: C24_29  and  O6_30 
REMARK   16  A    between atoms: C24_29  and  C25_31 
REMARK   17  A    between atoms: C25_31  and  C26_32 
REMARK   18  A    between atoms: C26_32  and  N1_33 
REMARK   19  A    between atoms: C28_35  and  C29_36 
REMARK   20  A    between atoms: C29_36  and  C30_37 
ROOT
HETATM    1  C9  UNL     1      -8.988  46.709 -25.420  1.00  0.00     0.046 C 
HETATM    2  C10 UNL     1      -8.338  45.851 -26.505  1.00  0.00     0.013 C 
HETATM    3  C11 UNL     1      -9.481  45.524 -27.481  1.00  0.00     0.017 C 
HETATM    4  C12 UNL     1     -10.550  46.672 -27.342  1.00  0.00     0.025 C 
HETATM    5  C13 UNL     1      -9.862  47.638 -26.309  1.00  0.00     0.138 C 
HETATM    6  C14 UNL     1     -11.846  45.989 -26.659  1.00  0.00     0.029 C 
HETATM    7  C18 UNL     1     -12.520  45.002 -27.630  1.00  0.00    -0.066 C 
HETATM    8  C19 UNL     1     -12.750  43.690 -27.373  1.00  0.00    -0.021 C 
HETATM    9  C20 UNL     1     -13.345  42.715 -28.355  1.00  0.00     0.052 C 
HETATM   10  C22 UNL     1     -12.881  45.640 -28.955  1.00  0.00     0.038 C 
HETATM   11  C23 UNL     1     -11.659  46.267 -29.626  1.00  0.00     0.043 C 
HETATM   12  C24 UNL     1     -10.968  47.326 -28.731  1.00  0.00     0.070 C 
ENDROOT
BRANCH   5  13
HETATM   13  O3  UNL     1      -9.005  48.582 -26.954  1.00  0.00    -0.394 OA
HETATM   14  H17 UNL     1      -8.491  49.034 -26.263  1.00  0.00     0.210 HD
ENDBRANCH   5  13
BRANCH   6  15
HETATM   15  C15 UNL     1     -12.892  46.977 -26.061  1.00  0.00     0.012 C 
BRANCH  15  16
HETATM   16  C16 UNL     1     -13.576  46.426 -24.798  1.00  0.00     0.027 C 
BRANCH  16  17
HETATM   17  C17 UNL     1     -15.057  46.788 -24.739  1.00  0.00     0.164 C 
BRANCH  17  18
HETATM   18  O4  UNL     1     -15.270  47.981 -24.004  1.00  0.00    -0.401 OA
HETATM   19  H25 UNL     1     -15.101  47.783 -23.066  1.00  0.00     0.209 HD
ENDBRANCH  17  18
ENDBRANCH  16  17
ENDBRANCH  15  16
ENDBRANCH   6  15
BRANCH  12  20
HETATM   20  O6  UNL     1     -11.988  48.321 -28.447  1.00  0.00    -0.389 OA
HETATM   21  H34 UNL     1     -12.258  48.724 -29.290  1.00  0.00     0.210 HD
ENDBRANCH  12  20
BRANCH  12  22
HETATM   22  C25 UNL     1      -9.926  48.126 -29.576  1.00  0.00     0.068 C 
BRANCH  22  23
HETATM   23  C26 UNL     1      -8.651  47.471 -30.104  1.00  0.00     0.272 C 
BRANCH  23  24
HETATM   24  N1  UNL     1      -7.689  48.444 -30.632  1.00  0.00     0.079 N 
HETATM   25  C27 UNL     1      -8.328  49.738 -30.848  1.00  0.00     0.306 C 
HETATM   26  H39 UNL     1      -7.324  48.104 -31.520  1.00  0.00     0.315 HD
ENDBRANCH  23  24
ENDBRANCH  22  23
ENDBRANCH  12  22
BRANCH   1  27
HETATM   27  C6  UNL     1      -8.154  47.433 -24.354  1.00  0.00    -0.050 C 
HETATM   28  C5  UNL     1      -6.916  47.967 -24.425  1.00  0.00     0.005 C 
BRANCH  28  29
HETATM   29  C4  UNL     1      -5.983  48.033 -25.527  1.00  0.00     0.001 C 
HETATM   30  C3  UNL     1      -4.723  48.482 -25.388  1.00  0.00     0.006 C 
BRANCH  30  31
HETATM   31  C2  UNL     1      -3.720  48.584 -26.443  1.00  0.00    -0.067 C 
HETATM   32  C1  UNL     1      -4.088  48.408 -27.724  1.00  0.00     0.019 C 
BRANCH  31  33
HETATM   33  C28 UNL     1      -2.265  48.837 -26.099  1.00  0.00     0.041 C 
BRANCH  33  34
HETATM   34  C29 UNL     1      -1.952  50.322 -25.859  1.00  0.00     0.032 C 
BRANCH  34  35
HETATM   35  C30 UNL     1      -1.168  50.903 -27.007  1.00  0.00    -0.024 C 
HETATM   36  C31 UNL     1       0.054  51.472 -26.988  1.00  0.00    -0.091 C 
HETATM   37  C32 UNL     1       0.912  51.660 -25.768  1.00  0.00     0.042 C 
HETATM   38  C33 UNL     1       0.674  51.992 -28.258  1.00  0.00     0.042 C 
ENDBRANCH  34  35
ENDBRANCH  33  34
ENDBRANCH  31  33
ENDBRANCH  30  31
ENDBRANCH  28  29
BRANCH  27  39
HETATM   39  C7  UNL     1      -8.856  47.520 -22.996  1.00  0.00     0.205 C 
BRANCH  39  40
HETATM   40  O1  UNL     1      -7.949  47.157 -21.962  1.00  0.00    -0.363 OA
BRANCH  40  41
HETATM   41  C8  UNL     1      -8.094  45.817 -21.533  1.00  0.00     0.334 C 
BRANCH  41  42
HETATM   42  O2  UNL     1      -8.828  45.739 -20.333  1.00  0.00    -0.377 OA
HETATM   43  H10 UNL     1      -8.299  46.242 -19.692  1.00  0.00     0.212 HD
ENDBRANCH  41  42
ENDBRANCH  40  41
ENDBRANCH  39  40
ENDBRANCH  27  39
ENDBRANCH   1  27
BRANCH   8  44
HETATM   44  C21 UNL     1     -12.399  43.052 -26.068  1.00  0.00     0.265 C 
HETATM   45  O5  UNL     1     -12.030  41.895 -25.942  1.00  0.00    -0.302 OA
ENDBRANCH   8  44
TORSDOF 20
ENDMDL
MODEL 4
REMARK minimizedAffinity -6.3977623
REMARK CNNscore 0.369043678
REMARK CNNaffinity 5.95052099
REMARK  20 active torsions:
REMARK  status: ('A' for Active; 'I' for Inactive)
REMARK    1  A    between atoms: C2_2  and  C3_3 
REMARK    2  A    between atoms: C2_2  and  C28_35 
REMARK    3  A    between atoms: C4_4  and  C5_5 
REMARK    4  A    between atoms: C6_6  and  C7_7 
REMARK    5  A    between atoms: C6_6  and  C9_11 
REMARK    6  A    between atoms: C7_7  and  O1_8 
REMARK    7  A    between atoms: O1_8  and  C8_9 
REMARK    8  A    between atoms: C8_9  and  O2_10 
REMARK    9  A    between atoms: C13_15  and  O3_16 
REMARK   10  A    between atoms: C14_17  and  C15_18 
REMARK   11  A    between atoms: C15_18  and  C16_19 
REMARK   12  A    between atoms: C16_19  and  C17_20 
REMARK   13  A    between atoms: C17_20  and  O4_21 
REMARK   14  A    between atoms: C19_23  and  C21_25 
REMARK   15  A    between atoms: C24_29  and  O6_30 
REMARK   16  A    between atoms: C24_29  and  C25_31 
REMARK   17  A    between atoms: C25_31  and  C26_32 
REMARK   18  A    between atoms: C26_32  and  N1_33 
REMARK   19  A    between atoms: C28_35  and  C29_36 
REMARK   20  A    between atoms: C29_36  and  C30_37 
ROOT
HETATM    1  C9  UNL     1       8.864  64.190 -34.947  1.00  0.00     0.046 C 
HETATM    2  C10 UNL     1       8.307  64.601 -33.584  1.00  0.00     0.013 C 
HETATM    3  C11 UNL     1       7.082  65.472 -33.910  1.00  0.00     0.017 C 
HETATM    4  C12 UNL     1       6.566  65.032 -35.331  1.00  0.00     0.025 C 
HETATM    5  C13 UNL     1       7.536  63.844 -35.679  1.00  0.00     0.138 C 
HETATM    6  C14 UNL     1       6.866  66.277 -36.316  1.00  0.00     0.029 C 
HETATM    7  C18 UNL     1       5.962  67.476 -35.974  1.00  0.00    -0.066 C 
HETATM    8  C19 UNL     1       6.402  68.719 -35.658  1.00  0.00    -0.021 C 
HETATM    9  C20 UNL     1       5.513  69.868 -35.255  1.00  0.00     0.052 C 
HETATM   10  C22 UNL     1       4.490  67.120 -35.987  1.00  0.00     0.038 C 
HETATM   11  C23 UNL     1       4.186  65.960 -35.038  1.00  0.00     0.043 C 
HETATM   12  C24 UNL     1       5.012  64.691 -35.367  1.00  0.00     0.070 C 
ENDROOT
BRANCH   5  13
HETATM   13  O3  UNL     1       7.053  62.598 -35.172  1.00  0.00    -0.394 OA
HETATM   14  H17 UNL     1       7.765  61.942 -35.273  1.00  0.00     0.210 HD
ENDBRANCH   5  13
BRANCH   6  15
HETATM   15  C15 UNL     1       6.809  65.959 -37.841  1.00  0.00     0.012 C 
BRANCH  15  16
HETATM   16  C16 UNL     1       6.466  67.193 -38.693  1.00  0.00     0.027 C 
BRANCH  16  17
HETATM   17  C17 UNL     1       7.692  67.766 -39.398  1.00  0.00     0.164 C 
BRANCH  17  18
HETATM   18  O4  UNL     1       7.572  67.667 -40.808  1.00  0.00    -0.401 OA
HETATM   19  H25 UNL     1       7.658  66.727 -41.044  1.00  0.00     0.209 HD
ENDBRANCH  17  18
ENDBRANCH  16  17
ENDBRANCH  15  16
ENDBRANCH   6  15
BRANCH  12  20
HETATM   20  O6  UNL     1       4.679  64.356 -36.741  1.00  0.00    -0.389 OA
HETATM   21  H34 UNL     1       3.728  64.153 -36.779  1.00  0.00     0.210 HD
ENDBRANCH  12  20
BRANCH  12  22
HETATM   22  C25 UNL     1       4.447  63.476 -34.565  1.00  0.00     0.068 C 
BRANCH  22  23
HETATM   23  C26 UNL     1       4.801  63.252 -33.097  1.00  0.00     0.272 C 
BRANCH  23  24
HETATM   24  N1  UNL     1       3.632  63.313 -32.214  1.00  0.00     0.079 N 
HETATM   25  C27 UNL     1       3.646  64.536 -31.419  1.00  0.00     0.306 C 
HETATM   26  H39 UNL     1       3.646  62.511 -31.586  1.00  0.00     0.315 HD
ENDBRANCH  23  24
ENDBRANCH  22  23
ENDBRANCH  12  22
BRANCH   1  27
HETATM   27  C6  UNL     1       9.970  63.135 -35.084  1.00  0.00    -0.050 C 
HETATM   28  C5  UNL     1      11.168  63.197 -35.703  1.00  0.00     0.005 C 
BRANCH  28  29
HETATM   29  C4  UNL     1      11.795  64.278 -36.430  1.00  0.00     0.001 C 
HETATM   30  C3  UNL     1      13.124  64.481 -36.431  1.00  0.00     0.006 C 
BRANCH  30  31
HETATM   31  C2  UNL     1      13.837  65.544 -37.132  1.00  0.00    -0.067 C 
HETATM   32  C1  UNL     1      13.151  66.600 -37.605  1.00  0.00     0.019 C 
BRANCH  31  33
HETATM   33  C28 UNL     1      15.330  65.440 -37.373  1.00  0.00     0.041 C 
BRANCH  33  34
HETATM   34  C29 UNL     1      15.956  66.760 -37.850  1.00  0.00     0.032 C 
BRANCH  34  35
HETATM   35  C30 UNL     1      17.003  67.245 -36.880  1.00  0.00    -0.024 C 
HETATM   36  C31 UNL     1      16.894  68.197 -35.932  1.00  0.00    -0.091 C 
HETATM   37  C32 UNL     1      15.661  69.008 -35.644  1.00  0.00     0.042 C 
HETATM   38  C33 UNL     1      18.068  68.536 -35.051  1.00  0.00     0.042 C 
ENDBRANCH  34  35
ENDBRANCH  33  34
ENDBRANCH  31  33
ENDBRANCH  30  31
ENDBRANCH  28  29
BRANCH  27  39
HETATM   39  C7  UNL     1       9.613  61.798 -34.426  1.00  0.00     0.205 C 
BRANCH  39  40
HETATM   40  O1  UNL     1       9.396  61.990 -33.034  1.00  0.00    -0.363 OA
BRANCH  40  41
HETATM   41  C8  UNL     1      10.516  61.653 -32.239  1.00  0.00     0.334 C 
BRANCH  41  42
HETATM   42  O2  UNL     1      11.162  62.806 -31.750  1.00  0.00    -0.377 OA
HETATM   43  H10 UNL     1      11.447  63.280 -32.548  1.00  0.00     0.212 HD
ENDBRANCH  41  42
ENDBRANCH  40  41
ENDBRANCH  39  40
ENDBRANCH  27  39
ENDBRANCH   1  27
BRANCH   8  44
HETATM   44  C21 UNL     1       7.852  69.080 -35.645  1.00  0.00     0.265 C 
HETATM   45  O5  UNL     1       8.348  69.919 -34.910  1.00  0.00    -0.302 OA
ENDBRANCH   8  44
TORSDOF 20
ENDMDL
MODEL 5
REMARK minimizedAffinity -7.60231543
REMARK CNNscore 0.351778895
REMARK CNNaffinity 5.99048805
REMARK  20 active torsions:
REMARK  status: ('A' for Active; 'I' for Inactive)
REMARK    1  A    between atoms: C2_2  and  C3_3 
REMARK    2  A    between atoms: C2_2  and  C28_35 
REMARK    3  A    between atoms: C4_4  and  C5_5 
REMARK    4  A    between atoms: C6_6  and  C7_7 
REMARK    5  A    between atoms: C6_6  and  C9_11 
REMARK    6  A    between atoms: C7_7  and  O1_8 
REMARK    7  A    between atoms: O1_8  and  C8_9 
REMARK    8  A    between atoms: C8_9  and  O2_10 
REMARK    9  A    between atoms: C13_15  and  O3_16 
REMARK   10  A    between atoms: C14_17  and  C15_18 
REMARK   11  A    between atoms: C15_18  and  C16_19 
REMARK   12  A    between atoms: C16_19  and  C17_20 
REMARK   13  A    between atoms: C17_20  and  O4_21 
REMARK   14  A    between atoms: C19_23  and  C21_25 
REMARK   15  A    between atoms: C24_29  and  O6_30 
REMARK   16  A    between atoms: C24_29  and  C25_31 
REMARK   17  A    between atoms: C25_31  and  C26_32 
REMARK   18  A    between atoms: C26_32  and  N1_33 
REMARK   19  A    between atoms: C28_35  and  C29_36 
REMARK   20  A    between atoms: C29_36  and  C30_37 
ROOT
HETATM    1  C9  UNL     1      -8.217  46.584 -27.739  1.00  0.00     0.046 C 
HETATM    2  C10 UNL     1      -7.205  45.642 -28.393  1.00  0.00     0.013 C 
HETATM    3  C11 UNL     1      -7.582  45.640 -29.884  1.00  0.00     0.017 C 
HETATM    4  C12 UNL     1      -8.313  47.003 -30.179  1.00  0.00     0.025 C 
HETATM    5  C13 UNL     1      -8.221  47.732 -28.788  1.00  0.00     0.138 C 
HETATM    6  C14 UNL     1      -9.853  46.623 -30.485  1.00  0.00     0.029 C 
HETATM    7  C18 UNL     1      -9.974  45.867 -31.822  1.00  0.00    -0.066 C 
HETATM    8  C19 UNL     1     -10.529  44.639 -31.976  1.00  0.00    -0.021 C 
HETATM    9  C20 UNL     1     -10.579  43.877 -33.275  1.00  0.00     0.052 C 
HETATM   10  C22 UNL     1      -9.366  46.630 -32.981  1.00  0.00     0.038 C 
HETATM   11  C23 UNL     1      -7.900  46.974 -32.716  1.00  0.00     0.043 C 
HETATM   12  C24 UNL     1      -7.708  47.797 -31.418  1.00  0.00     0.070 C 
ENDROOT
BRANCH   5  13
HETATM   13  O3  UNL     1      -7.005  48.470 -28.654  1.00  0.00    -0.394 OA
HETATM   14  H17 UNL     1      -6.933  48.756 -27.727  1.00  0.00     0.210 HD
ENDBRANCH   5  13
BRANCH   6  15
HETATM   15  C15 UNL     1     -10.865  47.806 -30.425  1.00  0.00     0.012 C 
BRANCH  15  16
HETATM   16  C16 UNL     1     -12.283  47.357 -30.033  1.00  0.00     0.027 C 
BRANCH  16  17
HETATM   17  C17 UNL     1     -12.532  47.473 -28.532  1.00  0.00     0.164 C 
BRANCH  17  18
HETATM   18  O4  UNL     1     -12.071  46.324 -27.841  1.00  0.00    -0.401 OA
HETATM   19  H25 UNL     1     -12.670  45.588 -28.061  1.00  0.00     0.209 HD
ENDBRANCH  17  18
ENDBRANCH  16  17
ENDBRANCH  15  16
ENDBRANCH   6  15
BRANCH  12  20
HETATM   20  O6  UNL     1      -8.512  48.994 -31.594  1.00  0.00    -0.389 OA
HETATM   21  H34 UNL     1      -8.157  49.486 -32.355  1.00  0.00     0.210 HD
ENDBRANCH  12  20
BRANCH  12  22
HETATM   22  C25 UNL     1      -6.252  48.359 -31.365  1.00  0.00     0.068 C 
BRANCH  22  23
HETATM   23  C26 UNL     1      -5.090  47.639 -32.046  1.00  0.00     0.272 C 
BRANCH  23  24
HETATM   24  N1  UNL     1      -4.406  48.474 -33.038  1.00  0.00     0.079 N 
HETATM   25  C27 UNL     1      -3.465  47.682 -33.822  1.00  0.00     0.306 C 
HETATM   26  H39 UNL     1      -3.895  49.212 -32.557  1.00  0.00     0.315 HD
ENDBRANCH  23  24
ENDBRANCH  22  23
ENDBRANCH  12  22
BRANCH   1  27
HETATM   27  C6  UNL     1      -8.070  47.041 -26.282  1.00  0.00    -0.050 C 
HETATM   28  C5  UNL     1      -7.017  47.588 -25.637  1.00  0.00     0.005 C 
BRANCH  28  29
HETATM   29  C4  UNL     1      -5.694  47.922 -26.114  1.00  0.00     0.001 C 
HETATM   30  C3  UNL     1      -4.746  48.452 -25.321  1.00  0.00     0.006 C 
BRANCH  30  31
HETATM   31  C2  UNL     1      -3.391  48.821 -25.719  1.00  0.00    -0.067 C 
HETATM   32  C1  UNL     1      -2.951  48.494 -26.947  1.00  0.00     0.019 C 
BRANCH  31  33
HETATM   33  C28 UNL     1      -2.466  49.522 -24.743  1.00  0.00     0.041 C 
BRANCH  33  34
HETATM   34  C29 UNL     1      -2.649  49.047 -23.294  1.00  0.00     0.032 C 
BRANCH  34  35
HETATM   35  C30 UNL     1      -1.752  49.813 -22.355  1.00  0.00    -0.024 C 
HETATM   36  C31 UNL     1      -1.050  49.352 -21.301  1.00  0.00    -0.091 C 
HETATM   37  C32 UNL     1      -1.027  47.928 -20.820  1.00  0.00     0.042 C 
HETATM   38  C33 UNL     1      -0.199  50.288 -20.483  1.00  0.00     0.042 C 
ENDBRANCH  34  35
ENDBRANCH  33  34
ENDBRANCH  31  33
ENDBRANCH  30  31
ENDBRANCH  28  29
BRANCH  27  39
HETATM   39  C7  UNL     1      -9.328  46.797 -25.443  1.00  0.00     0.205 C 
BRANCH  39  40
HETATM   40  O1  UNL     1      -9.865  48.040 -25.007  1.00  0.00    -0.363 OA
BRANCH  40  41
HETATM   41  C8  UNL     1     -10.310  48.862 -26.068  1.00  0.00     0.334 C 
BRANCH  41  42
HETATM   42  O2  UNL     1      -9.682  50.124 -26.036  1.00  0.00    -0.377 OA
HETATM   43  H10 UNL     1      -9.946  50.504 -25.182  1.00  0.00     0.212 HD
ENDBRANCH  41  42
ENDBRANCH  40  41
ENDBRANCH  39  40
ENDBRANCH  27  39
ENDBRANCH   1  27
BRANCH   8  44
HETATM   44  C21 UNL     1     -11.134  43.881 -30.839  1.00  0.00     0.265 C 
HETATM   45  O5  UNL     1     -11.169  42.663 -30.762  1.00  0.00    -0.302 OA
ENDBRANCH   8  44
TORSDOF 20
ENDMDL
MODEL 6
REMARK minimizedAffinity -7.22318983
REMARK CNNscore 0.350471109
REMARK CNNaffinity 6.56629419
REMARK  20 active torsions:
REMARK  status: ('A' for Active; 'I' for Inactive)
REMARK    1  A    between atoms: C2_2  and  C3_3 
REMARK    2  A    between atoms: C2_2  and  C28_35 
REMARK    3  A    between atoms: C4_4  and  C5_5 
REMARK    4  A    between atoms: C6_6  and  C7_7 
REMARK    5  A    between atoms: C6_6  and  C9_11 
REMARK    6  A    between atoms: C7_7  and  O1_8 
REMARK    7  A    between atoms: O1_8  and  C8_9 
REMARK    8  A    between atoms: C8_9  and  O2_10 
REMARK    9  A    between atoms: C13_15  and  O3_16 
REMARK   10  A    between atoms: C14_17  and  C15_18 
REMARK   11  A    between atoms: C15_18  and  C16_19 
REMARK   12  A    between atoms: C16_19  and  C17_20 
REMARK   13  A    between atoms: C17_20  and  O4_21 
REMARK   14  A    between atoms: C19_23  and  C21_25 
REMARK   15  A    between atoms: C24_29  and  O6_30 
REMARK   16  A    between atoms: C24_29  and  C25_31 
REMARK   17  A    between atoms: C25_31  and  C26_32 
REMARK   18  A    between atoms: C26_32  and  N1_33 
REMARK   19  A    between atoms: C28_35  and  C29_36 
REMARK   20  A    between atoms: C29_36  and  C30_37 
ROOT
HETATM    1  C9  UNL     1       6.974  66.229 -35.164  1.00  0.00     0.046 C 
HETATM    2  C10 UNL     1       6.649  65.627 -36.531  1.00  0.00     0.013 C 
HETATM    3  C11 UNL     1       7.328  64.248 -36.522  1.00  0.00     0.017 C 
HETATM    4  C12 UNL     1       7.451  63.802 -35.017  1.00  0.00     0.025 C 
HETATM    5  C13 UNL     1       6.732  64.982 -34.266  1.00  0.00     0.138 C 
HETATM    6  C14 UNL     1       9.029  63.829 -34.674  1.00  0.00     0.029 C 
HETATM    7  C18 UNL     1       9.773  62.711 -35.429  1.00  0.00    -0.066 C 
HETATM    8  C19 UNL     1      10.819  62.901 -36.271  1.00  0.00    -0.021 C 
HETATM    9  C20 UNL     1      11.494  61.809 -37.060  1.00  0.00     0.052 C 
HETATM   10  C22 UNL     1       9.186  61.339 -35.166  1.00  0.00     0.038 C 
HETATM   11  C23 UNL     1       7.698  61.291 -35.511  1.00  0.00     0.043 C 
HETATM   12  C24 UNL     1       6.873  62.347 -34.734  1.00  0.00     0.070 C 
ENDROOT
BRANCH   5  13
HETATM   13  O3  UNL     1       5.323  64.767 -34.164  1.00  0.00    -0.394 OA
HETATM   14  H17 UNL     1       4.920  65.593 -33.843  1.00  0.00     0.210 HD
ENDBRANCH   5  13
BRANCH   6  15
HETATM   15  C15 UNL     1       9.391  63.808 -33.158  1.00  0.00     0.012 C 
BRANCH  15  16
HETATM   16  C16 UNL     1      10.809  63.273 -32.893  1.00  0.00     0.027 C 
BRANCH  16  17
HETATM   17  C17 UNL     1      10.800  62.025 -32.015  1.00  0.00     0.164 C 
BRANCH  17  18
HETATM   18  O4  UNL     1       9.483  61.529 -31.834  1.00  0.00    -0.401 OA
HETATM   19  H25 UNL     1       9.011  62.153 -31.255  1.00  0.00     0.209 HD
ENDBRANCH  17  18
ENDBRANCH  16  17
ENDBRANCH  15  16
ENDBRANCH   6  15
BRANCH  12  20
HETATM   20  O6  UNL     1       7.103  62.060 -33.328  1.00  0.00    -0.389 OA
HETATM   21  H34 UNL     1       6.761  61.169 -33.143  1.00  0.00     0.210 HD
ENDBRANCH  12  20
BRANCH  12  22
HETATM   22  C25 UNL     1       5.350  62.051 -34.905  1.00  0.00     0.068 C 
BRANCH  22  23
HETATM   23  C26 UNL     1       4.294  62.769 -34.067  1.00  0.00     0.272 C 
BRANCH  23  24
HETATM   24  N1  UNL     1       3.948  62.041 -32.843  1.00  0.00     0.079 N 
HETATM   25  C27 UNL     1       3.482  62.959 -31.809  1.00  0.00     0.306 C 
HETATM   26  H39 UNL     1       4.774  61.552 -32.500  1.00  0.00     0.315 HD
ENDBRANCH  23  24
ENDBRANCH  22  23
ENDBRANCH  12  22
BRANCH   1  27
HETATM   27  C6  UNL     1       6.308  67.519 -34.669  1.00  0.00    -0.050 C 
HETATM   28  C5  UNL     1       5.446  68.353 -35.290  1.00  0.00     0.005 C 
BRANCH  28  29
HETATM   29  C4  UNL     1       4.869  68.293 -36.614  1.00  0.00     0.001 C 
HETATM   30  C3  UNL     1       3.560  68.075 -36.829  1.00  0.00     0.006 C 
BRANCH  30  31
HETATM   31  C2  UNL     1       2.898  67.998 -38.127  1.00  0.00    -0.067 C 
HETATM   32  C1  UNL     1       3.506  67.360 -39.142  1.00  0.00     0.019 C 
BRANCH  31  33
HETATM   33  C28 UNL     1       1.557  68.671 -38.348  1.00  0.00     0.041 C 
BRANCH  33  34
HETATM   34  C29 UNL     1       0.429  68.060 -37.503  1.00  0.00     0.032 C 
BRANCH  34  35
HETATM   35  C30 UNL     1      -0.571  69.110 -37.094  1.00  0.00    -0.024 C 
HETATM   36  C31 UNL     1      -0.486  70.007 -36.092  1.00  0.00    -0.091 C 
HETATM   37  C32 UNL     1       0.665  70.142 -35.134  1.00  0.00     0.042 C 
HETATM   38  C33 UNL     1      -1.604  70.987 -35.847  1.00  0.00     0.042 C 
ENDBRANCH  34  35
ENDBRANCH  33  34
ENDBRANCH  31  33
ENDBRANCH  30  31
ENDBRANCH  28  29
BRANCH  27  39
HETATM   39  C7  UNL     1       6.735  67.914 -33.252  1.00  0.00     0.205 C 
BRANCH  39  40
HETATM   40  O1  UNL     1       7.585  66.911 -32.709  1.00  0.00    -0.363 OA
BRANCH  40  41
HETATM   41  C8  UNL     1       8.167  67.276 -31.473  1.00  0.00     0.334 C 
BRANCH  41  42
HETATM   42  O2  UNL     1       8.830  66.185 -30.877  1.00  0.00    -0.377 OA
HETATM   43  H10 UNL     1       8.132  65.524 -30.738  1.00  0.00     0.212 HD
ENDBRANCH  41  42
ENDBRANCH  40  41
ENDBRANCH  39  40
ENDBRANCH  27  39
ENDBRANCH   1  27
BRANCH   8  44
HETATM   44  C21 UNL     1      11.405  64.251 -36.534  1.00  0.00     0.265 C 
HETATM   45  O5  UNL     1      12.524  64.597 -36.187  1.00  0.00    -0.302 OA
ENDBRANCH   8  44
TORSDOF 20
ENDMDL
MODEL 7
REMARK minimizedAffinity -6.48663807
REMARK CNNscore 0.289768964
REMARK CNNaffinity 5.78866816
REMARK  20 active torsions:
REMARK  status: ('A' for Active; 'I' for Inactive)
REMARK    1  A    between atoms: C2_2  and  C3_3 
REMARK    2  A    between atoms: C2_2  and  C28_35 
REMARK    3  A    between atoms: C4_4  and  C5_5 
REMARK    4  A    between atoms: C6_6  and  C7_7 
REMARK    5  A    between atoms: C6_6  and  C9_11 
REMARK    6  A    between atoms: C7_7  and  O1_8 
REMARK    7  A    between atoms: O1_8  and  C8_9 
REMARK    8  A    between atoms: C8_9  and  O2_10 
REMARK    9  A    between atoms: C13_15  and  O3_16 
REMARK   10  A    between atoms: C14_17  and  C15_18 
REMARK   11  A    between atoms: C15_18  and  C16_19 
REMARK   12  A    between atoms: C16_19  and  C17_20 
REMARK   13  A    between atoms: C17_20  and  O4_21 
REMARK   14  A    between atoms: C19_23  and  C21_25 
REMARK   15  A    between atoms: C24_29  and  O6_30 
REMARK   16  A    between atoms: C24_29  and  C25_31 
REMARK   17  A    between atoms: C25_31  and  C26_32 
REMARK   18  A    between atoms: C26_32  and  N1_33 
REMARK   19  A    between atoms: C28_35  and  C29_36 
REMARK   20  A    between atoms: C29_36  and  C30_37 
ROOT
HETATM    1  C9  UNL     1       8.707  64.165 -35.147  1.00  0.00     0.046 C 
HETATM    2  C10 UNL     1       8.199  64.516 -33.748  1.00  0.00     0.013 C 
HETATM    3  C11 UNL     1       7.004  65.453 -33.992  1.00  0.00     0.017 C 
HETATM    4  C12 UNL     1       6.437  65.119 -35.422  1.00  0.00     0.025 C 
HETATM    5  C13 UNL     1       7.349  63.916 -35.863  1.00  0.00     0.138 C 
HETATM    6  C14 UNL     1       6.766  66.407 -36.341  1.00  0.00     0.029 C 
HETATM    7  C18 UNL     1       5.921  67.619 -35.906  1.00  0.00    -0.066 C 
HETATM    8  C19 UNL     1       6.419  68.823 -35.530  1.00  0.00    -0.021 C 
HETATM    9  C20 UNL     1       5.588  69.980 -35.038  1.00  0.00     0.052 C 
HETATM   10  C22 UNL     1       4.435  67.323 -35.903  1.00  0.00     0.038 C 
HETATM   11  C23 UNL     1       4.106  66.122 -35.016  1.00  0.00     0.043 C 
HETATM   12  C24 UNL     1       4.870  64.843 -35.439  1.00  0.00     0.070 C 
ENDROOT
BRANCH   5  13
HETATM   13  O3  UNL     1       6.827  62.663 -35.418  1.00  0.00    -0.394 OA
HETATM   14  H17 UNL     1       7.508  61.986 -35.575  1.00  0.00     0.210 HD
ENDBRANCH   5  13
BRANCH   6  15
HETATM   15  C15 UNL     1       6.662  66.183 -37.879  1.00  0.00     0.012 C 
BRANCH  15  16
HETATM   16  C16 UNL     1       7.487  67.200 -38.686  1.00  0.00     0.027 C 
BRANCH  16  17
HETATM   17  C17 UNL     1       6.606  68.206 -39.421  1.00  0.00     0.164 C 
BRANCH  17  18
HETATM   18  O4  UNL     1       6.821  69.525 -38.946  1.00  0.00    -0.401 OA
HETATM   19  H25 UNL     1       6.441  69.580 -38.051  1.00  0.00     0.209 HD
ENDBRANCH  17  18
ENDBRANCH  16  17
ENDBRANCH  15  16
ENDBRANCH   6  15
BRANCH  12  20
HETATM   20  O6  UNL     1       4.492  64.604 -36.821  1.00  0.00    -0.389 OA
HETATM   21  H34 UNL     1       3.533  64.442 -36.847  1.00  0.00     0.210 HD
ENDBRANCH  12  20
BRANCH  12  22
HETATM   22  C25 UNL     1       4.274  63.607 -34.695  1.00  0.00     0.068 C 
BRANCH  22  23
HETATM   23  C26 UNL     1       4.710  63.238 -33.279  1.00  0.00     0.272 C 
BRANCH  23  24
HETATM   24  N1  UNL     1       3.692  63.548 -32.271  1.00  0.00     0.079 N 
HETATM   25  C27 UNL     1       4.043  64.757 -31.535  1.00  0.00     0.306 C 
HETATM   26  H39 UNL     1       3.623  62.771 -31.615  1.00  0.00     0.315 HD
ENDBRANCH  23  24
ENDBRANCH  22  23
ENDBRANCH  12  22
BRANCH   1  27
HETATM   27  C6  UNL     1       9.765  63.077 -35.372  1.00  0.00    -0.050 C 
HETATM   28  C5  UNL     1      10.993  63.151 -35.929  1.00  0.00     0.005 C 
BRANCH  28  29
HETATM   29  C4  UNL     1      11.706  64.279 -36.484  1.00  0.00     0.001 C 
HETATM   30  C3  UNL     1      12.890  64.156 -37.109  1.00  0.00     0.006 C 
BRANCH  30  31
HETATM   31  C2  UNL     1      13.676  65.237 -37.694  1.00  0.00    -0.067 C 
HETATM   32  C1  UNL     1      13.368  66.513 -37.400  1.00  0.00     0.019 C 
BRANCH  31  33
HETATM   33  C28 UNL     1      14.801  64.933 -38.665  1.00  0.00     0.041 C 
BRANCH  33  34
HETATM   34  C29 UNL     1      14.299  64.552 -40.067  1.00  0.00     0.032 C 
BRANCH  34  35
HETATM   35  C30 UNL     1      13.491  63.281 -40.026  1.00  0.00    -0.024 C 
HETATM   36  C31 UNL     1      12.859  62.653 -41.038  1.00  0.00    -0.091 C 
HETATM   37  C32 UNL     1      12.822  63.117 -42.467  1.00  0.00     0.042 C 
HETATM   38  C33 UNL     1      12.101  61.375 -40.789  1.00  0.00     0.042 C 
ENDBRANCH  34  35
ENDBRANCH  33  34
ENDBRANCH  31  33
ENDBRANCH  30  31
ENDBRANCH  28  29
BRANCH  27  39
HETATM   39  C7  UNL     1       9.311  61.689 -34.908  1.00  0.00     0.205 C 
BRANCH  39  40
HETATM   40  O1  UNL     1       9.064  61.707 -33.508  1.00  0.00    -0.363 OA
BRANCH  40  41
HETATM   41  C8  UNL     1      10.241  61.621 -32.728  1.00  0.00     0.334 C 
BRANCH  41  42
HETATM   42  O2  UNL     1      10.396  62.757 -31.908  1.00  0.00    -0.377 OA
HETATM   43  H10 UNL     1      10.459  63.499 -32.532  1.00  0.00     0.212 HD
ENDBRANCH  41  42
ENDBRANCH  40  41
ENDBRANCH  39  40
ENDBRANCH  27  39
ENDBRANCH   1  27
BRANCH   8  44
HETATM   44  C21 UNL     1       7.883  69.124 -35.533  1.00  0.00     0.265 C 
HETATM   45  O5  UNL     1       8.460  69.737 -36.418  1.00  0.00    -0.302 OA
ENDBRANCH   8  44
TORSDOF 20
ENDMDL
MODEL 8
REMARK minimizedAffinity -7.82308483
REMARK CNNscore 0.286802083
REMARK CNNaffinity 5.80027246
REMARK  20 active torsions:
REMARK  status: ('A' for Active; 'I' for Inactive)
REMARK    1  A    between atoms: C2_2  and  C3_3 
REMARK    2  A    between atoms: C2_2  and  C28_35 
REMARK    3  A    between atoms: C4_4  and  C5_5 
REMARK    4  A    between atoms: C6_6  and  C7_7 
REMARK    5  A    between atoms: C6_6  and  C9_11 
REMARK    6  A    between atoms: C7_7  and  O1_8 
REMARK    7  A    between atoms: O1_8  and  C8_9 
REMARK    8  A    between atoms: C8_9  and  O2_10 
REMARK    9  A    between atoms: C13_15  and  O3_16 
REMARK   10  A    between atoms: C14_17  and  C15_18 
REMARK   11  A    between atoms: C15_18  and  C16_19 
REMARK   12  A    between atoms: C16_19  and  C17_20 
REMARK   13  A    between atoms: C17_20  and  O4_21 
REMARK   14  A    between atoms: C19_23  and  C21_25 
REMARK   15  A    between atoms: C24_29  and  O6_30 
REMARK   16  A    between atoms: C24_29  and  C25_31 
REMARK   17  A    between atoms: C25_31  and  C26_32 
REMARK   18  A    between atoms: C26_32  and  N1_33 
REMARK   19  A    between atoms: C28_35  and  C29_36 
REMARK   20  A    between atoms: C29_36  and  C30_37 
ROOT
HETATM    1  C9  UNL     1      -8.279  46.697 -27.429  1.00  0.00     0.046 C 
HETATM    2  C10 UNL     1      -7.373  45.699 -28.152  1.00  0.00     0.013 C 
HETATM    3  C11 UNL     1      -7.868  45.706 -29.607  1.00  0.00     0.017 C 
HETATM    4  C12 UNL     1      -8.550  47.103 -29.858  1.00  0.00     0.025 C 
HETATM    5  C13 UNL     1      -8.310  47.836 -28.488  1.00  0.00     0.138 C 
HETATM    6  C14 UNL     1     -10.127  46.800 -30.037  1.00  0.00     0.029 C 
HETATM    7  C18 UNL     1     -10.393  46.042 -31.350  1.00  0.00    -0.066 C 
HETATM    8  C19 UNL     1     -11.020  44.843 -31.446  1.00  0.00    -0.021 C 
HETATM    9  C20 UNL     1     -11.214  44.075 -32.728  1.00  0.00     0.052 C 
HETATM   10  C22 UNL     1      -9.842  46.763 -32.563  1.00  0.00     0.038 C 
HETATM   11  C23 UNL     1      -8.344  47.033 -32.420  1.00  0.00     0.043 C 
HETATM   12  C24 UNL     1      -8.006  47.855 -31.151  1.00  0.00     0.070 C 
ENDROOT
BRANCH   5  13
HETATM   13  O3  UNL     1      -7.050  48.511 -28.460  1.00  0.00    -0.394 OA
HETATM   14  H17 UNL     1      -6.890  48.800 -27.545  1.00  0.00     0.210 HD
ENDBRANCH   5  13
BRANCH   6  15
HETATM   15  C15 UNL     1     -11.069  48.034 -29.909  1.00  0.00     0.012 C 
BRANCH  15  16
HETATM   16  C16 UNL     1     -12.414  47.690 -29.248  1.00  0.00     0.027 C 
BRANCH  16  17
HETATM   17  C17 UNL     1     -12.311  47.633 -27.726  1.00  0.00     0.164 C 
BRANCH  17  18
HETATM   18  O4  UNL     1     -12.195  48.930 -27.166  1.00  0.00    -0.401 OA
HETATM   19  H25 UNL     1     -11.309  49.268 -27.389  1.00  0.00     0.209 HD
ENDBRANCH  17  18
ENDBRANCH  16  17
ENDBRANCH  15  16
ENDBRANCH   6  15
BRANCH  12  20
HETATM   20  O6  UNL     1      -8.760  49.091 -31.276  1.00  0.00    -0.389 OA
HETATM   21  H34 UNL     1      -8.442  49.557 -32.069  1.00  0.00     0.210 HD
ENDBRANCH  12  20
BRANCH  12  22
HETATM   22  C25 UNL     1      -6.524  48.341 -31.221  1.00  0.00     0.068 C 
BRANCH  22  23
HETATM   23  C26 UNL     1      -5.602  47.936 -32.369  1.00  0.00     0.272 C 
BRANCH  23  24
HETATM   24  N1  UNL     1      -5.391  46.487 -32.444  1.00  0.00     0.079 N 
HETATM   25  C27 UNL     1      -4.082  46.126 -31.910  1.00  0.00     0.306 C 
HETATM   26  H39 UNL     1      -5.441  46.193 -33.419  1.00  0.00     0.315 HD
ENDBRANCH  23  24
ENDBRANCH  22  23
ENDBRANCH  12  22
BRANCH   1  27
HETATM   27  C6  UNL     1      -7.993  47.157 -25.994  1.00  0.00    -0.050 C 
HETATM   28  C5  UNL     1      -6.859  47.635 -25.437  1.00  0.00     0.005 C 
BRANCH  28  29
HETATM   29  C4  UNL     1      -5.556  47.873 -26.016  1.00  0.00     0.001 C 
HETATM   30  C3  UNL     1      -4.593  48.563 -25.381  1.00  0.00     0.006 C 
BRANCH  30  31
HETATM   31  C2  UNL     1      -3.256  48.850 -25.890  1.00  0.00    -0.067 C 
HETATM   32  C1  UNL     1      -2.953  48.541 -27.163  1.00  0.00     0.019 C 
BRANCH  31  33
HETATM   33  C28 UNL     1      -2.198  49.447 -24.982  1.00  0.00     0.041 C 
BRANCH  33  34
HETATM   34  C29 UNL     1      -1.824  50.889 -25.360  1.00  0.00     0.032 C 
BRANCH  34  35
HETATM   35  C30 UNL     1      -0.329  51.061 -25.428  1.00  0.00    -0.024 C 
HETATM   36  C31 UNL     1       0.437  51.342 -26.502  1.00  0.00    -0.091 C 
HETATM   37  C32 UNL     1      -0.064  51.537 -27.906  1.00  0.00     0.042 C 
HETATM   38  C33 UNL     1       1.930  51.481 -26.360  1.00  0.00     0.042 C 
ENDBRANCH  34  35
ENDBRANCH  33  34
ENDBRANCH  31  33
ENDBRANCH  30  31
ENDBRANCH  28  29
BRANCH  27  39
HETATM   39  C7  UNL     1      -9.199  47.007 -25.061  1.00  0.00     0.205 C 
BRANCH  39  40
HETATM   40  O1  UNL     1     -10.006  48.176 -25.128  1.00  0.00    -0.363 OA
BRANCH  40  41
HETATM   41  C8  UNL     1      -9.257  49.372 -25.230  1.00  0.00     0.334 C 
BRANCH  41  42
HETATM   42  O2  UNL     1      -9.785  50.224 -26.220  1.00  0.00    -0.377 OA
HETATM   43  H10 UNL     1      -9.715  49.712 -27.043  1.00  0.00     0.212 HD
ENDBRANCH  41  42
ENDBRANCH  40  41
ENDBRANCH  39  40
ENDBRANCH  27  39
ENDBRANCH   1  27
BRANCH   8  44
HETATM   44  C21 UNL     1     -11.570  44.126 -30.255  1.00  0.00     0.265 C 
HETATM   45  O5  UNL     1     -10.918  43.390 -29.531  1.00  0.00    -0.302 OA
ENDBRANCH   8  44
TORSDOF 20
ENDMDL
MODEL 9
REMARK minimizedAffinity -7.11118841
REMARK CNNscore 0.285528243
REMARK CNNaffinity 5.77267027
REMARK  20 active torsions:
REMARK  status: ('A' for Active; 'I' for Inactive)
REMARK    1  A    between atoms: C2_2  and  C3_3 
REMARK    2  A    between atoms: C2_2  and  C28_35 
REMARK    3  A    between atoms: C4_4  and  C5_5 
REMARK    4  A    between atoms: C6_6  and  C7_7 
REMARK    5  A    between atoms: C6_6  and  C9_11 
REMARK    6  A    between atoms: C7_7  and  O1_8 
REMARK    7  A    between atoms: O1_8  and  C8_9 
REMARK    8  A    between atoms: C8_9  and  O2_10 
REMARK    9  A    between atoms: C13_15  and  O3_16 
REMARK   10  A    between atoms: C14_17  and  C15_18 
REMARK   11  A    between atoms: C15_18  and  C16_19 
REMARK   12  A    between atoms: C16_19  and  C17_20 
REMARK   13  A    between atoms: C17_20  and  O4_21 
REMARK   14  A    between atoms: C19_23  and  C21_25 
REMARK   15  A    between atoms: C24_29  and  O6_30 
REMARK   16  A    between atoms: C24_29  and  C25_31 
REMARK   17  A    between atoms: C25_31  and  C26_32 
REMARK   18  A    between atoms: C26_32  and  N1_33 
REMARK   19  A    between atoms: C28_35  and  C29_36 
REMARK   20  A    between atoms: C29_36  and  C30_37 
ROOT
HETATM    1  C9  UNL     1      -8.287  46.569 -26.742  1.00  0.00     0.046 C 
HETATM    2  C10 UNL     1      -7.265  46.252 -27.834  1.00  0.00     0.013 C 
HETATM    3  C11 UNL     1      -8.109  45.966 -29.087  1.00  0.00     0.017 C 
HETATM    4  C12 UNL     1      -9.475  46.730 -28.910  1.00  0.00     0.025 C 
HETATM    5  C13 UNL     1      -9.255  47.482 -27.547  1.00  0.00     0.138 C 
HETATM    6  C14 UNL     1     -10.601  45.587 -28.719  1.00  0.00     0.029 C 
HETATM    7  C18 UNL     1     -10.810  44.801 -30.026  1.00  0.00    -0.066 C 
HETATM    8  C19 UNL     1     -10.683  43.457 -30.156  1.00  0.00    -0.021 C 
HETATM    9  C20 UNL     1     -10.820  42.703 -31.454  1.00  0.00     0.052 C 
HETATM   10  C22 UNL     1     -11.145  45.697 -31.200  1.00  0.00     0.038 C 
HETATM   11  C23 UNL     1     -10.074  46.768 -31.410  1.00  0.00     0.043 C 
HETATM   12  C24 UNL     1      -9.858  47.647 -30.153  1.00  0.00     0.070 C 
ENDROOT
BRANCH   5  13
HETATM   13  O3  UNL     1      -8.625  48.751 -27.735  1.00  0.00    -0.394 OA
HETATM   14  H17 UNL     1      -8.371  49.088 -26.858  1.00  0.00     0.210 HD
ENDBRANCH   5  13
BRANCH   6  15
HETATM   15  C15 UNL     1     -11.964  46.074 -28.142  1.00  0.00     0.012 C 
BRANCH  15  16
HETATM   16  C16 UNL     1     -12.254  47.549 -28.464  1.00  0.00     0.027 C 
BRANCH  16  17
HETATM   17  C17 UNL     1     -12.740  48.322 -27.241  1.00  0.00     0.164 C 
BRANCH  17  18
HETATM   18  O4  UNL     1     -11.719  49.155 -26.717  1.00  0.00    -0.401 OA
HETATM   19  H25 UNL     1     -11.051  48.578 -26.305  1.00  0.00     0.209 HD
ENDBRANCH  17  18
ENDBRANCH  16  17
ENDBRANCH  15  16
ENDBRANCH   6  15
BRANCH  12  20
HETATM   20  O6  UNL     1     -11.153  48.239 -29.866  1.00  0.00    -0.389 OA
HETATM   21  H34 UNL     1     -11.403  48.797 -30.622  1.00  0.00     0.210 HD
ENDBRANCH  12  20
BRANCH  12  22
HETATM   22  C25 UNL     1      -8.983  48.885 -30.525  1.00  0.00     0.068 C 
BRANCH  22  23
HETATM   23  C26 UNL     1      -7.546  48.732 -31.020  1.00  0.00     0.272 C 
BRANCH  23  24
HETATM   24  N1  UNL     1      -7.469  48.228 -32.394  1.00  0.00     0.079 N 
HETATM   25  C27 UNL     1      -6.305  47.364 -32.564  1.00  0.00     0.306 C 
HETATM   26  H39 UNL     1      -7.391  49.016 -33.035  1.00  0.00     0.315 HD
ENDBRANCH  23  24
ENDBRANCH  22  23
ENDBRANCH  12  22
BRANCH   1  27
HETATM   27  C6  UNL     1      -7.864  47.122 -25.375  1.00  0.00    -0.050 C 
HETATM   28  C5  UNL     1      -6.735  47.762 -25.000  1.00  0.00     0.005 C 
BRANCH  28  29
HETATM   29  C4  UNL     1      -5.568  48.135 -25.767  1.00  0.00     0.001 C 
HETATM   30  C3  UNL     1      -4.408  48.503 -25.195  1.00  0.00     0.006 C 
BRANCH  30  31
HETATM   31  C2  UNL     1      -3.187  48.896 -25.891  1.00  0.00    -0.067 C 
HETATM   32  C1  UNL     1      -2.964  48.447 -27.139  1.00  0.00     0.019 C 
BRANCH  31  33
HETATM   33  C28 UNL     1      -2.152  49.761 -25.199  1.00  0.00     0.041 C 
BRANCH  33  34
HETATM   34  C29 UNL     1      -1.631  50.902 -26.087  1.00  0.00     0.032 C 
BRANCH  34  35
HETATM   35  C30 UNL     1      -0.145  50.781 -26.308  1.00  0.00    -0.024 C 
HETATM   36  C31 UNL     1       0.817  51.697 -26.076  1.00  0.00    -0.091 C 
HETATM   37  C32 UNL     1       0.593  53.083 -25.541  1.00  0.00     0.042 C 
HETATM   38  C33 UNL     1       2.260  51.377 -26.361  1.00  0.00     0.042 C 
ENDBRANCH  34  35
ENDBRANCH  33  34
ENDBRANCH  31  33
ENDBRANCH  30  31
ENDBRANCH  28  29
BRANCH  27  39
HETATM   39  C7  UNL     1      -8.897  46.864 -24.274  1.00  0.00     0.205 C 
BRANCH  39  40
HETATM   40  O1  UNL     1      -8.488  47.504 -23.071  1.00  0.00    -0.363 OA
BRANCH  40  41
HETATM   41  C8  UNL     1      -8.780  46.754 -21.908  1.00  0.00     0.334 C 
BRANCH  41  42
HETATM   42  O2  UNL     1      -9.951  47.221 -21.279  1.00  0.00    -0.377 OA
HETATM   43  H10 UNL     1      -9.750  48.142 -21.044  1.00  0.00     0.212 HD
ENDBRANCH  41  42
ENDBRANCH  40  41
ENDBRANCH  39  40
ENDBRANCH  27  39
ENDBRANCH   1  27
BRANCH   8  44
HETATM   44  C21 UNL     1     -10.355  42.564 -29.003  1.00  0.00     0.265 C 
HETATM   45  O5  UNL     1     -11.187  42.020 -28.293  1.00  0.00    -0.302 OA
ENDBRANCH   8  44
TORSDOF 20
ENDMDL
