MODEL 1
REMARK minimizedAffinity -9.12539005
REMARK CNNscore 0.431176424
REMARK CNNaffinity 7.0429368
REMARK  11 active torsions:
REMARK  status: ('A' for Active; 'I' for Inactive)
REMARK    1  A    between atoms: C3_3  and  O1_4 
REMARK    2  A    between atoms: N1_14  and  O2_16 
REMARK    3  A    between atoms: O2_16  and  C13_17 
REMARK    4  A    between atoms: C13_17  and  C14_18 
REMARK       I    between atoms: C14_18  and  N2_20 
REMARK    5  A    between atoms: N2_20  and  C15_21 
REMARK    6  A    between atoms: C15_21  and  C16_22 
REMARK    7  A    between atoms: C15_21  and  C17_25 
REMARK    8  A    between atoms: C16_22  and  O5_24 
REMARK    9  A    between atoms: C17_25  and  O6_26 
REMARK   10  A    between atoms: C17_25  and  C18_27 
REMARK   11  A    between atoms: C22_31  and  N3_32 
ROOT
HETATM    1  C1  UNL     1     -12.821   3.085  30.606  1.00  0.00     0.015 C 
HETATM    2  C2  UNL     1     -13.107   2.704  29.502  1.00  0.00    -0.078 C 
HETATM    3  C3  UNL     1     -13.459   2.229  28.154  1.00  0.00     0.128 C 
HETATM    4  C4  UNL     1     -12.220   1.971  27.288  1.00  0.00     0.052 C 
HETATM    5  C5  UNL     1     -12.665   2.201  25.837  1.00  0.00     0.010 C 
HETATM    6  C6  UNL     1     -14.137   2.653  25.892  1.00  0.00     0.002 C 
HETATM    7  C7  UNL     1     -14.593   3.593  24.755  1.00  0.00    -0.004 C 
HETATM    8  C8  UNL     1     -14.305   2.977  23.380  1.00  0.00     0.010 C 
HETATM    9  C9  UNL     1     -14.870   3.845  22.267  1.00  0.00     0.035 C 
HETATM   10  C10 UNL     1     -14.340   5.257  22.332  1.00  0.00    -0.069 C 
HETATM   11  C11 UNL     1     -13.862   5.833  21.215  1.00  0.00     0.030 C 
HETATM   12  C12 UNL     1     -13.488   7.268  21.164  1.00  0.00     0.032 C 
HETATM   13  N1  UNL     1     -13.138   7.754  20.006  1.00  0.00    -0.271 N 
ATOM     14  H1  UNL     1     -13.051   7.197  19.156  1.00  0.00     0.194 HD
HETATM   15  C24 UNL     1     -13.626   8.087  22.430  1.00  0.00     0.060 C 
HETATM   16  C25 UNL     1     -13.497   7.214  23.672  1.00  0.00     0.020 C 
HETATM   17  C26 UNL     1     -14.440   5.975  23.681  1.00  0.00    -0.016 C 
HETATM   18  C27 UNL     1     -15.900   6.449  23.860  1.00  0.00     0.020 C 
HETATM   19  C28 UNL     1     -13.983   5.016  24.854  1.00  0.00     0.002 C 
HETATM   20  C29 UNL     1     -14.243   5.596  26.257  1.00  0.00     0.007 C 
HETATM   21  C30 UNL     1     -13.729   4.682  27.372  1.00  0.00     0.014 C 
HETATM   22  C31 UNL     1     -14.301   3.240  27.316  1.00  0.00     0.003 C 
HETATM   23  C32 UNL     1     -15.783   3.245  27.742  1.00  0.00     0.020 C 
ENDROOT
BRANCH   3  24
HETATM   24  O1  UNL     1     -14.156   0.988  28.279  1.00  0.00    -0.377 OA
HETATM   25  H2  UNL     1     -13.662   0.453  28.923  1.00  0.00     0.211 HD
ENDBRANCH   3  24
BRANCH  13  26
HETATM   26  O2  UNL     1     -12.896   9.134  20.067  1.00  0.00    -0.271 OA
BRANCH  26  27
HETATM   27  C13 UNL     1     -11.755   9.424  19.266  1.00  0.00     0.303 C 
BRANCH  27  28
HETATM   28  C14 UNL     1     -12.166   9.495  17.804  1.00  0.00     0.244 C 
HETATM   29  O3  UNL     1     -13.216  10.012  17.434  1.00  0.00    -0.271 OA
HETATM   30  N2  UNL     1     -11.282   8.884  16.939  1.00  0.00    -0.342 N 
HETATM   31  H16 UNL     1     -10.327   8.767  17.275  1.00  0.00     0.163 HD
BRANCH  30  32
HETATM   32  C15 UNL     1     -11.466   8.935  15.482  1.00  0.00     0.216 C 
BRANCH  32  33
HETATM   33  C16 UNL     1     -10.665  10.111  14.921  1.00  0.00     0.166 C 
HETATM   34  O4  UNL     1      -9.781  10.717  15.511  1.00  0.00    -0.648 OA
BRANCH  33  35
HETATM   35  O5  UNL     1     -11.021  10.487  13.669  1.00  0.00    -0.775 OA
HETATM   36  H18 UNL     1     -10.402  11.216  13.446  1.00  0.00     0.167 HD
ENDBRANCH  33  35
ENDBRANCH  32  33
BRANCH  32  37
HETATM   37  C17 UNL     1     -10.975   7.663  14.739  1.00  0.00     0.184 C 
BRANCH  37  38
HETATM   38  O6  UNL     1     -11.809   6.532  15.031  1.00  0.00    -0.388 OA
HETATM   39  H20 UNL     1     -12.721   6.752  14.757  1.00  0.00     0.210 HD
ENDBRANCH  37  38
BRANCH  37  40
HETATM   40  C18 UNL     1      -9.562   7.241  15.096  1.00  0.00    -0.025 A 
HETATM   41  C19 UNL     1      -9.047   7.489  16.378  1.00  0.00     0.010 A 
HETATM   42  C20 UNL     1      -7.752   7.092  16.721  1.00  0.00     0.003 A 
HETATM   43  C21 UNL     1      -6.952   6.433  15.790  1.00  0.00     0.036 A 
HETATM   44  C22 UNL     1      -7.453   6.183  14.507  1.00  0.00     0.103 A 
HETATM   45  C23 UNL     1      -8.746   6.588  14.154  1.00  0.00     0.045 A 
BRANCH  44  46
HETATM   46  N3  UNL     1      -6.614   5.488  13.522  1.00  0.00    -0.116 N 
HETATM   47  O7  UNL     1      -5.388   5.481  13.703  1.00  0.00    -0.532 OA
HETATM   48  O8  UNL     1      -7.186   4.936  12.568  1.00  0.00    -0.532 OA
ENDBRANCH  44  46
ENDBRANCH  37  40
ENDBRANCH  32  37
ENDBRANCH  30  32
ENDBRANCH  27  28
ENDBRANCH  26  27
ENDBRANCH  13  26
TORSDOF 11
ENDMDL
MODEL 2
REMARK minimizedAffinity -10.0251064
REMARK CNNscore 0.418936402
REMARK CNNaffinity 6.77508211
REMARK  11 active torsions:
REMARK  status: ('A' for Active; 'I' for Inactive)
REMARK    1  A    between atoms: C3_3  and  O1_4 
REMARK    2  A    between atoms: N1_14  and  O2_16 
REMARK    3  A    between atoms: O2_16  and  C13_17 
REMARK    4  A    between atoms: C13_17  and  C14_18 
REMARK       I    between atoms: C14_18  and  N2_20 
REMARK    5  A    between atoms: N2_20  and  C15_21 
REMARK    6  A    between atoms: C15_21  and  C16_22 
REMARK    7  A    between atoms: C15_21  and  C17_25 
REMARK    8  A    between atoms: C16_22  and  O5_24 
REMARK    9  A    between atoms: C17_25  and  O6_26 
REMARK   10  A    between atoms: C17_25  and  C18_27 
REMARK   11  A    between atoms: C22_31  and  N3_32 
ROOT
HETATM    1  C1  UNL     1      -4.302  10.426  16.320  1.00  0.00     0.015 C 
HETATM    2  C2  UNL     1      -4.087   9.376  15.776  1.00  0.00    -0.078 C 
HETATM    3  C3  UNL     1      -3.832   8.087  15.113  1.00  0.00     0.128 C 
HETATM    4  C4  UNL     1      -2.911   7.181  15.941  1.00  0.00     0.052 C 
HETATM    5  C5  UNL     1      -2.174   6.293  14.928  1.00  0.00     0.010 C 
HETATM    6  C6  UNL     1      -2.631   6.746  13.528  1.00  0.00     0.002 C 
HETATM    7  C7  UNL     1      -1.598   6.565  12.394  1.00  0.00    -0.004 C 
HETATM    8  C8  UNL     1      -1.105   5.115  12.321  1.00  0.00     0.010 C 
HETATM    9  C9  UNL     1      -0.188   4.912  11.126  1.00  0.00     0.035 C 
HETATM   10  C10 UNL     1       0.983   5.865  11.149  1.00  0.00    -0.069 C 
HETATM   11  C11 UNL     1       2.224   5.387  10.950  1.00  0.00     0.030 C 
HETATM   12  C12 UNL     1       3.398   6.280  10.787  1.00  0.00     0.032 C 
HETATM   13  N1  UNL     1       4.538   5.721  10.491  1.00  0.00    -0.271 N 
ATOM     14  H1  UNL     1       4.679   4.713  10.424  1.00  0.00     0.194 HD
HETATM   15  C24 UNL     1       3.176   7.775  10.883  1.00  0.00     0.060 C 
HETATM   16  C25 UNL     1       1.968   8.102  11.751  1.00  0.00     0.020 C 
HETATM   17  C26 UNL     1       0.666   7.351  11.342  1.00  0.00    -0.016 C 
HETATM   18  C27 UNL     1       0.161   7.908   9.992  1.00  0.00     0.020 C 
HETATM   19  C28 UNL     1      -0.399   7.544  12.496  1.00  0.00     0.002 C 
HETATM   20  C29 UNL     1      -0.917   8.990  12.617  1.00  0.00     0.007 C 
HETATM   21  C30 UNL     1      -1.891   9.166  13.783  1.00  0.00     0.014 C 
HETATM   22  C31 UNL     1      -3.109   8.204  13.736  1.00  0.00     0.003 C 
HETATM   23  C32 UNL     1      -4.075   8.633  12.614  1.00  0.00     0.020 C 
ENDROOT
BRANCH   3  24
HETATM   24  O1  UNL     1      -5.077   7.402  14.961  1.00  0.00    -0.377 OA
HETATM   25  H2  UNL     1      -5.547   7.485  15.809  1.00  0.00     0.211 HD
ENDBRANCH   3  24
BRANCH  13  26
HETATM   26  O2  UNL     1       5.547   6.671  10.274  1.00  0.00    -0.271 OA
BRANCH  26  27
HETATM   27  C13 UNL     1       6.646   6.358  11.126  1.00  0.00     0.303 C 
BRANCH  27  28
HETATM   28  C14 UNL     1       6.901   7.520  12.072  1.00  0.00     0.244 C 
HETATM   29  O3  UNL     1       7.287   8.619  11.684  1.00  0.00    -0.271 OA
HETATM   30  N2  UNL     1       6.712   7.216  13.404  1.00  0.00    -0.342 N 
HETATM   31  H16 UNL     1       6.113   6.416  13.605  1.00  0.00     0.163 HD
BRANCH  30  32
HETATM   32  C15 UNL     1       6.820   8.238  14.454  1.00  0.00     0.216 C 
BRANCH  32  33
HETATM   33  C16 UNL     1       5.564   8.191  15.324  1.00  0.00     0.166 C 
HETATM   34  O4  UNL     1       5.020   9.156  15.843  1.00  0.00    -0.648 OA
BRANCH  33  35
HETATM   35  O5  UNL     1       5.065   6.948  15.524  1.00  0.00    -0.775 OA
HETATM   36  H18 UNL     1       4.257   7.091  16.063  1.00  0.00     0.167 HD
ENDBRANCH  33  35
ENDBRANCH  32  33
BRANCH  32  37
HETATM   37  C17 UNL     1       8.032   8.040  15.404  1.00  0.00     0.184 C 
BRANCH  37  38
HETATM   38  O6  UNL     1       7.620   8.002  16.778  1.00  0.00    -0.388 OA
HETATM   39  H20 UNL     1       6.985   7.266  16.883  1.00  0.00     0.210 HD
ENDBRANCH  37  38
BRANCH  37  40
HETATM   40  C18 UNL     1       9.078   9.135  15.314  1.00  0.00    -0.025 A 
HETATM   41  C19 UNL     1       9.194  10.094  16.333  1.00  0.00     0.010 A 
HETATM   42  C20 UNL     1      10.163  11.098  16.266  1.00  0.00     0.003 A 
HETATM   43  C21 UNL     1      11.038  11.157  15.183  1.00  0.00     0.036 A 
HETATM   44  C22 UNL     1      10.928  10.209  14.158  1.00  0.00     0.103 A 
HETATM   45  C23 UNL     1       9.952   9.207  14.215  1.00  0.00     0.045 A 
BRANCH  44  46
HETATM   46  N3  UNL     1      11.848  10.266  13.014  1.00  0.00    -0.116 N 
HETATM   47  O7  UNL     1      13.013   9.879  13.184  1.00  0.00    -0.532 OA
HETATM   48  O8  UNL     1      11.399  10.690  11.937  1.00  0.00    -0.532 OA
ENDBRANCH  44  46
ENDBRANCH  37  40
ENDBRANCH  32  37
ENDBRANCH  30  32
ENDBRANCH  27  28
ENDBRANCH  26  27
ENDBRANCH  13  26
TORSDOF 11
ENDMDL
MODEL 3
REMARK minimizedAffinity -7.70164299
REMARK CNNscore 0.293923736
REMARK CNNaffinity 6.34479904
REMARK  11 active torsions:
REMARK  status: ('A' for Active; 'I' for Inactive)
REMARK    1  A    between atoms: C3_3  and  O1_4 
REMARK    2  A    between atoms: N1_14  and  O2_16 
REMARK    3  A    between atoms: O2_16  and  C13_17 
REMARK    4  A    between atoms: C13_17  and  C14_18 
REMARK       I    between atoms: C14_18  and  N2_20 
REMARK    5  A    between atoms: N2_20  and  C15_21 
REMARK    6  A    between atoms: C15_21  and  C16_22 
REMARK    7  A    between atoms: C15_21  and  C17_25 
REMARK    8  A    between atoms: C16_22  and  O5_24 
REMARK    9  A    between atoms: C17_25  and  O6_26 
REMARK   10  A    between atoms: C17_25  and  C18_27 
REMARK   11  A    between atoms: C22_31  and  N3_32 
ROOT
HETATM    1  C1  UNL     1       3.440   8.851   8.067  1.00  0.00     0.015 C 
HETATM    2  C2  UNL     1       2.735   8.090   8.675  1.00  0.00    -0.078 C 
HETATM    3  C3  UNL     1       1.873   7.153   9.412  1.00  0.00     0.128 C 
HETATM    4  C4  UNL     1       0.383   7.456   9.214  1.00  0.00     0.052 C 
HETATM    5  C5  UNL     1      -0.318   6.967  10.490  1.00  0.00     0.010 C 
HETATM    6  C6  UNL     1       0.786   6.449  11.431  1.00  0.00     0.002 C 
HETATM    7  C7  UNL     1       0.493   6.577  12.942  1.00  0.00    -0.004 C 
HETATM    8  C8  UNL     1      -0.837   5.905  13.306  1.00  0.00     0.010 C 
HETATM    9  C9  UNL     1      -1.060   5.920  14.810  1.00  0.00     0.035 C 
HETATM   10  C10 UNL     1      -1.006   7.320  15.371  1.00  0.00    -0.069 C 
HETATM   11  C11 UNL     1      -1.979   7.733  16.203  1.00  0.00     0.030 C 
HETATM   12  C12 UNL     1      -1.904   9.027  16.927  1.00  0.00     0.032 C 
HETATM   13  N1  UNL     1      -2.845   9.284  17.791  1.00  0.00    -0.271 N 
ATOM     14  H1  UNL     1      -3.652   8.681  17.953  1.00  0.00     0.194 HD
HETATM   15  C24 UNL     1      -0.699   9.911  16.684  1.00  0.00     0.060 C 
HETATM   16  C25 UNL     1      -0.102   9.669  15.303  1.00  0.00     0.020 C 
HETATM   17  C26 UNL     1       0.209   8.174  14.997  1.00  0.00    -0.016 C 
HETATM   18  C27 UNL     1       1.400   7.713  15.867  1.00  0.00     0.020 C 
HETATM   19  C28 UNL     1       0.522   8.042  13.451  1.00  0.00     0.002 C 
HETATM   20  C29 UNL     1       1.845   8.712  13.034  1.00  0.00     0.007 C 
HETATM   21  C30 UNL     1       2.090   8.632  11.525  1.00  0.00     0.014 C 
HETATM   22  C31 UNL     1       2.064   7.186  10.959  1.00  0.00     0.003 C 
HETATM   23  C32 UNL     1       3.332   6.426  11.399  1.00  0.00     0.020 C 
ENDROOT
BRANCH   3  24
HETATM   24  O1  UNL     1       2.108   5.834   8.913  1.00  0.00    -0.377 OA
HETATM   25  H2  UNL     1       2.121   5.901   7.943  1.00  0.00     0.211 HD
ENDBRANCH   3  24
BRANCH  13  26
HETATM   26  O2  UNL     1      -2.616  10.488  18.473  1.00  0.00    -0.271 OA
BRANCH  26  27
HETATM   27  C13 UNL     1      -3.721  11.354  18.234  1.00  0.00     0.303 C 
BRANCH  27  28
HETATM   28  C14 UNL     1      -3.453  12.707  18.873  1.00  0.00     0.244 C 
HETATM   29  O3  UNL     1      -2.340  13.226  18.887  1.00  0.00    -0.271 OA
HETATM   30  N2  UNL     1      -4.555  13.275  19.477  1.00  0.00    -0.342 N 
HETATM   31  H16 UNL     1      -5.466  12.947  19.159  1.00  0.00     0.163 HD
BRANCH  30  32
HETATM   32  C15 UNL     1      -4.509  14.622  20.063  1.00  0.00     0.216 C 
BRANCH  32  33
HETATM   33  C16 UNL     1      -4.908  15.642  18.996  1.00  0.00     0.166 C 
HETATM   34  O4  UNL     1      -4.811  15.483  17.787  1.00  0.00    -0.648 OA
BRANCH  33  35
HETATM   35  O5  UNL     1      -5.383  16.811  19.487  1.00  0.00    -0.775 OA
HETATM   36  H18 UNL     1      -5.622  17.333  18.690  1.00  0.00     0.167 HD
ENDBRANCH  33  35
ENDBRANCH  32  33
BRANCH  32  37
HETATM   37  C17 UNL     1      -5.476  14.823  21.261  1.00  0.00     0.184 C 
BRANCH  37  38
HETATM   38  O6  UNL     1      -4.903  14.337  22.484  1.00  0.00    -0.388 OA
HETATM   39  H20 UNL     1      -4.068  14.821  22.639  1.00  0.00     0.210 HD
ENDBRANCH  37  38
BRANCH  37  40
HETATM   40  C18 UNL     1      -6.806  14.109  21.112  1.00  0.00    -0.025 A 
HETATM   41  C19 UNL     1      -7.422  14.006  19.855  1.00  0.00     0.010 A 
HETATM   42  C20 UNL     1      -8.641  13.339  19.706  1.00  0.00     0.003 A 
HETATM   43  C21 UNL     1      -9.261  12.756  20.809  1.00  0.00     0.036 A 
HETATM   44  C22 UNL     1      -8.658  12.856  22.069  1.00  0.00     0.103 A 
HETATM   45  C23 UNL     1      -7.442  13.532  22.227  1.00  0.00     0.045 A 
BRANCH  44  46
HETATM   46  N3  UNL     1      -9.306  12.242  23.235  1.00  0.00    -0.116 N 
HETATM   47  O7  UNL     1      -9.041  12.700  24.356  1.00  0.00    -0.532 OA
HETATM   48  O8  UNL     1     -10.093  11.305  23.028  1.00  0.00    -0.532 OA
ENDBRANCH  44  46
ENDBRANCH  37  40
ENDBRANCH  32  37
ENDBRANCH  30  32
ENDBRANCH  27  28
ENDBRANCH  26  27
ENDBRANCH  13  26
TORSDOF 11
ENDMDL
MODEL 4
REMARK minimizedAffinity -8.10742092
REMARK CNNscore 0.25576055
REMARK CNNaffinity 6.63076162
REMARK  11 active torsions:
REMARK  status: ('A' for Active; 'I' for Inactive)
REMARK    1  A    between atoms: C3_3  and  O1_4 
REMARK    2  A    between atoms: N1_14  and  O2_16 
REMARK    3  A    between atoms: O2_16  and  C13_17 
REMARK    4  A    between atoms: C13_17  and  C14_18 
REMARK       I    between atoms: C14_18  and  N2_20 
REMARK    5  A    between atoms: N2_20  and  C15_21 
REMARK    6  A    between atoms: C15_21  and  C16_22 
REMARK    7  A    between atoms: C15_21  and  C17_25 
REMARK    8  A    between atoms: C16_22  and  O5_24 
REMARK    9  A    between atoms: C17_25  and  O6_26 
REMARK   10  A    between atoms: C17_25  and  C18_27 
REMARK   11  A    between atoms: C22_31  and  N3_32 
ROOT
HETATM    1  C1  UNL     1     -12.796   2.838  30.668  1.00  0.00     0.015 C 
HETATM    2  C2  UNL     1     -13.097   2.484  29.560  1.00  0.00    -0.078 C 
HETATM    3  C3  UNL     1     -13.466   2.042  28.206  1.00  0.00     0.128 C 
HETATM    4  C4  UNL     1     -12.238   1.792  27.321  1.00  0.00     0.052 C 
HETATM    5  C5  UNL     1     -12.697   2.058  25.881  1.00  0.00     0.010 C 
HETATM    6  C6  UNL     1     -14.164   2.521  25.961  1.00  0.00     0.002 C 
HETATM    7  C7  UNL     1     -14.623   3.490  24.849  1.00  0.00    -0.004 C 
HETATM    8  C8  UNL     1     -14.354   2.902  23.458  1.00  0.00     0.010 C 
HETATM    9  C9  UNL     1     -14.923   3.798  22.370  1.00  0.00     0.035 C 
HETATM   10  C10 UNL     1     -14.381   5.204  22.461  1.00  0.00    -0.069 C 
HETATM   11  C11 UNL     1     -13.909   5.801  21.352  1.00  0.00     0.030 C 
HETATM   12  C12 UNL     1     -13.523   7.233  21.328  1.00  0.00     0.032 C 
HETATM   13  N1  UNL     1     -13.181   7.742  20.177  1.00  0.00    -0.271 N 
ATOM     14  H1  UNL     1     -13.108   7.202  19.314  1.00  0.00     0.194 HD
HETATM   15  C24 UNL     1     -13.642   8.025  22.613  1.00  0.00     0.060 C 
HETATM   16  C25 UNL     1     -13.508   7.124  23.834  1.00  0.00     0.020 C 
HETATM   17  C26 UNL     1     -14.461   5.893  23.826  1.00  0.00    -0.016 C 
HETATM   18  C27 UNL     1     -15.915   6.375  24.030  1.00  0.00     0.020 C 
HETATM   19  C28 UNL     1     -14.001   4.905  24.973  1.00  0.00     0.002 C 
HETATM   20  C29 UNL     1     -14.241   5.456  26.391  1.00  0.00     0.007 C 
HETATM   21  C30 UNL     1     -13.723   4.514  27.480  1.00  0.00     0.014 C 
HETATM   22  C31 UNL     1     -14.309   3.077  27.399  1.00  0.00     0.003 C 
HETATM   23  C32 UNL     1     -15.786   3.086  27.840  1.00  0.00     0.020 C 
ENDROOT
BRANCH   3  24
HETATM   24  O1  UNL     1     -14.173   0.804  28.311  1.00  0.00    -0.377 OA
HETATM   25  H2  UNL     1     -13.677   0.252  28.938  1.00  0.00     0.211 HD
ENDBRANCH   3  24
BRANCH  13  26
HETATM   26  O2  UNL     1     -12.927   9.118  20.266  1.00  0.00    -0.271 OA
BRANCH  26  27
HETATM   27  C13 UNL     1     -11.724   9.397  19.557  1.00  0.00     0.303 C 
BRANCH  27  28
HETATM   28  C14 UNL     1     -12.061   9.923  18.172  1.00  0.00     0.244 C 
HETATM   29  O3  UNL     1     -13.085   9.608  17.573  1.00  0.00    -0.271 OA
HETATM   30  N2  UNL     1     -11.093  10.742  17.628  1.00  0.00    -0.342 N 
HETATM   31  H16 UNL     1     -10.455  11.189  18.286  1.00  0.00     0.163 HD
BRANCH  30  32
HETATM   32  C15 UNL     1     -11.288  11.419  16.338  1.00  0.00     0.216 C 
BRANCH  32  33
HETATM   33  C16 UNL     1     -11.270  12.931  16.563  1.00  0.00     0.166 C 
HETATM   34  O4  UNL     1     -12.255  13.656  16.610  1.00  0.00    -0.648 OA
BRANCH  33  35
HETATM   35  O5  UNL     1     -10.033  13.466  16.691  1.00  0.00    -0.775 OA
HETATM   36  H18 UNL     1     -10.193  14.420  16.860  1.00  0.00     0.167 HD
ENDBRANCH  33  35
ENDBRANCH  32  33
BRANCH  32  37
HETATM   37  C17 UNL     1     -10.185  11.108  15.290  1.00  0.00     0.184 C 
BRANCH  37  38
HETATM   38  O6  UNL     1     -10.393  11.845  14.076  1.00  0.00    -0.388 OA
HETATM   39  H20 UNL     1     -10.390  12.798  14.298  1.00  0.00     0.210 HD
ENDBRANCH  37  38
BRANCH  37  40
HETATM   40  C18 UNL     1     -10.109   9.649  14.882  1.00  0.00    -0.025 A 
HETATM   41  C19 UNL     1     -11.108   9.083  14.074  1.00  0.00     0.010 A 
HETATM   42  C20 UNL     1     -11.040   7.744  13.681  1.00  0.00     0.003 A 
HETATM   43  C21 UNL     1      -9.969   6.949  14.083  1.00  0.00     0.036 A 
HETATM   44  C22 UNL     1      -8.968   7.501  14.893  1.00  0.00     0.103 A 
HETATM   45  C23 UNL     1      -9.037   8.839  15.299  1.00  0.00     0.045 A 
BRANCH  44  46
HETATM   46  N3  UNL     1      -7.837   6.668  15.320  1.00  0.00    -0.116 N 
HETATM   47  O7  UNL     1      -6.707   6.966  14.907  1.00  0.00    -0.532 OA
HETATM   48  O8  UNL     1      -8.078   5.718  16.082  1.00  0.00    -0.532 OA
ENDBRANCH  44  46
ENDBRANCH  37  40
ENDBRANCH  32  37
ENDBRANCH  30  32
ENDBRANCH  27  28
ENDBRANCH  26  27
ENDBRANCH  13  26
TORSDOF 11
ENDMDL
MODEL 5
REMARK minimizedAffinity -8.69445324
REMARK CNNscore 0.252720565
REMARK CNNaffinity 6.52997255
REMARK  11 active torsions:
REMARK  status: ('A' for Active; 'I' for Inactive)
REMARK    1  A    between atoms: C3_3  and  O1_4 
REMARK    2  A    between atoms: N1_14  and  O2_16 
REMARK    3  A    between atoms: O2_16  and  C13_17 
REMARK    4  A    between atoms: C13_17  and  C14_18 
REMARK       I    between atoms: C14_18  and  N2_20 
REMARK    5  A    between atoms: N2_20  and  C15_21 
REMARK    6  A    between atoms: C15_21  and  C16_22 
REMARK    7  A    between atoms: C15_21  and  C17_25 
REMARK    8  A    between atoms: C16_22  and  O5_24 
REMARK    9  A    between atoms: C17_25  and  O6_26 
REMARK   10  A    between atoms: C17_25  and  C18_27 
REMARK   11  A    between atoms: C22_31  and  N3_32 
ROOT
HETATM    1  C1  UNL     1     -12.971   3.113  30.746  1.00  0.00     0.015 C 
HETATM    2  C2  UNL     1     -13.236   2.727  29.638  1.00  0.00    -0.078 C 
HETATM    3  C3  UNL     1     -13.560   2.246  28.286  1.00  0.00     0.128 C 
HETATM    4  C4  UNL     1     -12.304   1.988  27.444  1.00  0.00     0.052 C 
HETATM    5  C5  UNL     1     -12.723   2.212  25.984  1.00  0.00     0.010 C 
HETATM    6  C6  UNL     1     -14.197   2.660  26.010  1.00  0.00     0.002 C 
HETATM    7  C7  UNL     1     -14.634   3.595  24.861  1.00  0.00    -0.004 C 
HETATM    8  C8  UNL     1     -14.318   2.975  23.494  1.00  0.00     0.010 C 
HETATM    9  C9  UNL     1     -14.864   3.837  22.367  1.00  0.00     0.035 C 
HETATM   10  C10 UNL     1     -14.340   5.251  22.438  1.00  0.00    -0.069 C 
HETATM   11  C11 UNL     1     -13.843   5.824  21.328  1.00  0.00     0.030 C 
HETATM   12  C12 UNL     1     -13.472   7.260  21.278  1.00  0.00     0.032 C 
HETATM   13  N1  UNL     1     -13.102   7.743  20.125  1.00  0.00    -0.271 N 
ATOM     14  H1  UNL     1     -12.997   7.183  19.279  1.00  0.00     0.194 HD
HETATM   15  C24 UNL     1     -13.636   8.083  22.539  1.00  0.00     0.060 C 
HETATM   16  C25 UNL     1     -13.528   7.215  23.786  1.00  0.00     0.020 C 
HETATM   17  C26 UNL     1     -14.468   5.973  23.782  1.00  0.00    -0.016 C 
HETATM   18  C27 UNL     1     -15.933   6.443  23.931  1.00  0.00     0.020 C 
HETATM   19  C28 UNL     1     -14.031   5.020  24.966  1.00  0.00     0.002 C 
HETATM   20  C29 UNL     1     -14.318   5.604  26.363  1.00  0.00     0.007 C 
HETATM   21  C30 UNL     1     -13.822   4.695  27.490  1.00  0.00     0.014 C 
HETATM   22  C31 UNL     1     -14.390   3.251  27.429  1.00  0.00     0.003 C 
HETATM   23  C32 UNL     1     -15.879   3.254  27.826  1.00  0.00     0.020 C 
ENDROOT
BRANCH   3  24
HETATM   24  O1  UNL     1     -14.257   1.003  28.402  1.00  0.00    -0.377 OA
HETATM   25  H2  UNL     1     -13.773   0.473  29.057  1.00  0.00     0.211 HD
ENDBRANCH   3  24
BRANCH  13  26
HETATM   26  O2  UNL     1     -12.865   9.124  20.186  1.00  0.00    -0.271 OA
BRANCH  26  27
HETATM   27  C13 UNL     1     -11.725   9.418  19.385  1.00  0.00     0.303 C 
BRANCH  27  28
HETATM   28  C14 UNL     1     -12.159   9.637  17.945  1.00  0.00     0.244 C 
HETATM   29  O3  UNL     1     -13.143  10.307  17.642  1.00  0.00    -0.271 OA
HETATM   30  N2  UNL     1     -11.383   8.978  17.015  1.00  0.00    -0.342 N 
HETATM   31  H16 UNL     1     -10.443   8.718  17.311  1.00  0.00     0.163 HD
BRANCH  30  32
HETATM   32  C15 UNL     1     -11.594   9.148  15.570  1.00  0.00     0.216 C 
BRANCH  32  33
HETATM   33  C16 UNL     1     -10.468  10.011  15.002  1.00  0.00     0.166 C 
HETATM   34  O4  UNL     1      -9.300   9.989  15.366  1.00  0.00    -0.648 OA
BRANCH  33  35
HETATM   35  O5  UNL     1     -10.855  10.872  14.031  1.00  0.00    -0.775 OA
HETATM   36  H18 UNL     1     -10.026  11.319  13.753  1.00  0.00     0.167 HD
ENDBRANCH  33  35
ENDBRANCH  32  33
BRANCH  32  37
HETATM   37  C17 UNL     1     -11.588   7.817  14.771  1.00  0.00     0.184 C 
BRANCH  37  38
HETATM   38  O6  UNL     1     -10.715   7.893  13.634  1.00  0.00    -0.388 OA
HETATM   39  H20 UNL     1      -9.815   8.098  13.957  1.00  0.00     0.210 HD
ENDBRANCH  37  38
BRANCH  37  40
HETATM   40  C18 UNL     1     -12.945   7.412  14.227  1.00  0.00    -0.025 A 
HETATM   41  C19 UNL     1     -13.549   6.215  14.642  1.00  0.00     0.010 A 
HETATM   42  C20 UNL     1     -14.805   5.840  14.158  1.00  0.00     0.003 A 
HETATM   43  C21 UNL     1     -15.481   6.657  13.255  1.00  0.00     0.036 A 
HETATM   44  C22 UNL     1     -14.886   7.852  12.830  1.00  0.00     0.103 A 
HETATM   45  C23 UNL     1     -13.623   8.228  13.304  1.00  0.00     0.045 A 
BRANCH  44  46
HETATM   46  N3  UNL     1     -15.595   8.718  11.879  1.00  0.00    -0.116 N 
HETATM   47  O7  UNL     1     -15.629   9.935  12.114  1.00  0.00    -0.532 OA
HETATM   48  O8  UNL     1     -16.110   8.180  10.886  1.00  0.00    -0.532 OA
ENDBRANCH  44  46
ENDBRANCH  37  40
ENDBRANCH  32  37
ENDBRANCH  30  32
ENDBRANCH  27  28
ENDBRANCH  26  27
ENDBRANCH  13  26
TORSDOF 11
ENDMDL
MODEL 6
REMARK minimizedAffinity -9.7502327
REMARK CNNscore 0.245498464
REMARK CNNaffinity 6.60522652
REMARK  11 active torsions:
REMARK  status: ('A' for Active; 'I' for Inactive)
REMARK    1  A    between atoms: C3_3  and  O1_4 
REMARK    2  A    between atoms: N1_14  and  O2_16 
REMARK    3  A    between atoms: O2_16  and  C13_17 
REMARK    4  A    between atoms: C13_17  and  C14_18 
REMARK       I    between atoms: C14_18  and  N2_20 
REMARK    5  A    between atoms: N2_20  and  C15_21 
REMARK    6  A    between atoms: C15_21  and  C16_22 
REMARK    7  A    between atoms: C15_21  and  C17_25 
REMARK    8  A    between atoms: C16_22  and  O5_24 
REMARK    9  A    between atoms: C17_25  and  O6_26 
REMARK   10  A    between atoms: C17_25  and  C18_27 
REMARK   11  A    between atoms: C22_31  and  N3_32 
ROOT
HETATM    1  C1  UNL     1      -4.310  10.252  16.388  1.00  0.00     0.015 C 
HETATM    2  C2  UNL     1      -4.085   9.222  15.810  1.00  0.00    -0.078 C 
HETATM    3  C3  UNL     1      -3.818   7.958  15.105  1.00  0.00     0.128 C 
HETATM    4  C4  UNL     1      -2.919   7.019  15.918  1.00  0.00     0.052 C 
HETATM    5  C5  UNL     1      -2.161   6.168  14.889  1.00  0.00     0.010 C 
HETATM    6  C6  UNL     1      -2.586   6.674  13.497  1.00  0.00     0.002 C 
HETATM    7  C7  UNL     1      -1.527   6.533  12.381  1.00  0.00    -0.004 C 
HETATM    8  C8  UNL     1      -1.037   5.084  12.264  1.00  0.00     0.010 C 
HETATM    9  C9  UNL     1      -0.093   4.924  11.083  1.00  0.00     0.035 C 
HETATM   10  C10 UNL     1       1.079   5.871  11.169  1.00  0.00    -0.069 C 
HETATM   11  C11 UNL     1       2.324   5.397  10.980  1.00  0.00     0.030 C 
HETATM   12  C12 UNL     1       3.503   6.292  10.877  1.00  0.00     0.032 C 
HETATM   13  N1  UNL     1       4.648   5.741  10.586  1.00  0.00    -0.271 N 
ATOM     14  H1  UNL     1       4.788   4.736  10.484  1.00  0.00     0.194 HD
HETATM   15  C24 UNL     1       3.282   7.783  11.024  1.00  0.00     0.060 C 
HETATM   16  C25 UNL     1       2.055   8.081  11.877  1.00  0.00     0.020 C 
HETATM   17  C26 UNL     1       0.762   7.350  11.410  1.00  0.00    -0.016 C 
HETATM   18  C27 UNL     1       0.289   7.959  10.071  1.00  0.00     0.020 C 
HETATM   19  C28 UNL     1      -0.328   7.503  12.547  1.00  0.00     0.002 C 
HETATM   20  C29 UNL     1      -0.845   8.945  12.710  1.00  0.00     0.007 C 
HETATM   21  C30 UNL     1      -1.845   9.080  13.861  1.00  0.00     0.014 C 
HETATM   22  C31 UNL     1      -3.065   8.125  13.750  1.00  0.00     0.003 C 
HETATM   23  C32 UNL     1      -4.004   8.599  12.623  1.00  0.00     0.020 C 
ENDROOT
BRANCH   3  24
HETATM   24  O1  UNL     1      -5.062   7.283  14.899  1.00  0.00    -0.377 OA
HETATM   25  H2  UNL     1      -5.550   7.336  15.738  1.00  0.00     0.211 HD
ENDBRANCH   3  24
BRANCH  13  26
HETATM   26  O2  UNL     1       5.664   6.694  10.428  1.00  0.00    -0.271 OA
BRANCH  26  27
HETATM   27  C13 UNL     1       6.686   6.422  11.382  1.00  0.00     0.303 C 
BRANCH  27  28
HETATM   28  C14 UNL     1       6.991   7.684  12.173  1.00  0.00     0.244 C 
HETATM   29  O3  UNL     1       7.228   8.763  11.637  1.00  0.00    -0.271 OA
HETATM   30  N2  UNL     1       7.029   7.499  13.539  1.00  0.00    -0.342 N 
HETATM   31  H16 UNL     1       6.530   6.686  13.901  1.00  0.00     0.163 HD
BRANCH  30  32
HETATM   32  C15 UNL     1       7.215   8.623  14.468  1.00  0.00     0.216 C 
BRANCH  32  33
HETATM   33  C16 UNL     1       5.860   9.007  15.061  1.00  0.00     0.166 C 
HETATM   34  O4  UNL     1       5.065   8.236  15.580  1.00  0.00    -0.648 OA
BRANCH  33  35
HETATM   35  O5  UNL     1       5.553  10.322  14.956  1.00  0.00    -0.775 OA
HETATM   36  H18 UNL     1       4.685  10.409  15.406  1.00  0.00     0.167 HD
ENDBRANCH  33  35
ENDBRANCH  32  33
BRANCH  32  37
HETATM   37  C17 UNL     1       8.154   8.305  15.662  1.00  0.00     0.184 C 
BRANCH  37  38
HETATM   38  O6  UNL     1       7.408   7.947  16.835  1.00  0.00    -0.388 OA
HETATM   39  H20 UNL     1       6.862   7.166  16.617  1.00  0.00     0.210 HD
ENDBRANCH  37  38
BRANCH  37  40
HETATM   40  C18 UNL     1       9.048   9.459  16.075  1.00  0.00    -0.025 A 
HETATM   41  C19 UNL     1       9.502  10.384  15.121  1.00  0.00     0.010 A 
HETATM   42  C20 UNL     1      10.315  11.458  15.493  1.00  0.00     0.003 A 
HETATM   43  C21 UNL     1      10.681  11.631  16.827  1.00  0.00     0.036 A 
HETATM   44  C22 UNL     1      10.237  10.713  17.786  1.00  0.00     0.103 A 
HETATM   45  C23 UNL     1       9.432   9.629  17.418  1.00  0.00     0.045 A 
BRANCH  44  46
HETATM   46  N3  UNL     1      10.619  10.891  19.193  1.00  0.00    -0.116 N 
HETATM   47  O7  UNL     1      11.727  10.467  19.554  1.00  0.00    -0.532 OA
HETATM   48  O8  UNL     1       9.812  11.469  19.939  1.00  0.00    -0.532 OA
ENDBRANCH  44  46
ENDBRANCH  37  40
ENDBRANCH  32  37
ENDBRANCH  30  32
ENDBRANCH  27  28
ENDBRANCH  26  27
ENDBRANCH  13  26
TORSDOF 11
ENDMDL
MODEL 7
REMARK minimizedAffinity -10.0757351
REMARK CNNscore 0.220882148
REMARK CNNaffinity 7.28770638
REMARK  11 active torsions:
REMARK  status: ('A' for Active; 'I' for Inactive)
REMARK    1  A    between atoms: C3_3  and  O1_4 
REMARK    2  A    between atoms: N1_14  and  O2_16 
REMARK    3  A    between atoms: O2_16  and  C13_17 
REMARK    4  A    between atoms: C13_17  and  C14_18 
REMARK       I    between atoms: C14_18  and  N2_20 
REMARK    5  A    between atoms: N2_20  and  C15_21 
REMARK    6  A    between atoms: C15_21  and  C16_22 
REMARK    7  A    between atoms: C15_21  and  C17_25 
REMARK    8  A    between atoms: C16_22  and  O5_24 
REMARK    9  A    between atoms: C17_25  and  O6_26 
REMARK   10  A    between atoms: C17_25  and  C18_27 
REMARK   11  A    between atoms: C22_31  and  N3_32 
ROOT
HETATM    1  C1  UNL     1       2.538   6.376   6.919  1.00  0.00     0.015 C 
HETATM    2  C2  UNL     1       2.650   6.196   8.102  1.00  0.00    -0.078 C 
HETATM    3  C3  UNL     1       2.794   5.971   9.549  1.00  0.00     0.128 C 
HETATM    4  C4  UNL     1       1.941   4.795  10.042  1.00  0.00     0.052 C 
HETATM    5  C5  UNL     1       1.606   5.105  11.508  1.00  0.00     0.010 C 
HETATM    6  C6  UNL     1       2.215   6.486  11.820  1.00  0.00     0.002 C 
HETATM    7  C7  UNL     1       1.471   7.321  12.885  1.00  0.00    -0.004 C 
HETATM    8  C8  UNL     1       1.311   6.533  14.191  1.00  0.00     0.010 C 
HETATM    9  C9  UNL     1       0.696   7.401  15.277  1.00  0.00     0.035 C 
HETATM   10  C10 UNL     1      -0.630   7.983  14.847  1.00  0.00    -0.069 C 
HETATM   11  C11 UNL     1      -1.686   7.896  15.675  1.00  0.00     0.030 C 
HETATM   12  C12 UNL     1      -2.967   8.592  15.397  1.00  0.00     0.032 C 
HETATM   13  N1  UNL     1      -3.891   8.533  16.314  1.00  0.00    -0.271 N 
ATOM     14  H1  UNL     1      -3.807   7.992  17.176  1.00  0.00     0.194 HD
HETATM   15  C24 UNL     1      -3.079   9.396  14.119  1.00  0.00     0.060 C 
HETATM   16  C25 UNL     1      -2.149   8.856  13.040  1.00  0.00     0.020 C 
HETATM   17  C26 UNL     1      -0.667   8.701  13.495  1.00  0.00    -0.016 C 
HETATM   18  C27 UNL     1      -0.044  10.102  13.683  1.00  0.00     0.020 C 
HETATM   19  C28 UNL     1       0.099   7.856  12.399  1.00  0.00     0.002 C 
HETATM   20  C29 UNL     1       0.276   8.602  11.062  1.00  0.00     0.007 C 
HETATM   21  C30 UNL     1       0.957   7.739   9.997  1.00  0.00     0.014 C 
HETATM   22  C31 UNL     1       2.334   7.169  10.435  1.00  0.00     0.003 C 
HETATM   23  C32 UNL     1       3.384   8.298  10.467  1.00  0.00     0.020 C 
ENDROOT
BRANCH   3  24
HETATM   24  O1  UNL     1       4.160   5.650   9.823  1.00  0.00    -0.377 OA
HETATM   25  H2  UNL     1       4.435   5.004   9.151  1.00  0.00     0.211 HD
ENDBRANCH   3  24
BRANCH  13  26
HETATM   26  O2  UNL     1      -5.015   9.300  15.977  1.00  0.00    -0.271 OA
BRANCH  26  27
HETATM   27  C13 UNL     1      -5.590   8.756  14.793  1.00  0.00     0.303 C 
BRANCH  27  28
HETATM   28  C14 UNL     1      -6.380   7.505  15.141  1.00  0.00     0.244 C 
HETATM   29  O3  UNL     1      -6.542   7.122  16.296  1.00  0.00    -0.271 OA
HETATM   30  N2  UNL     1      -6.853   6.813  14.045  1.00  0.00    -0.342 N 
HETATM   31  H16 UNL     1      -6.944   7.343  13.179  1.00  0.00     0.163 HD
BRANCH  30  32
HETATM   32  C15 UNL     1      -7.716   5.633  14.189  1.00  0.00     0.216 C 
BRANCH  32  33
HETATM   33  C16 UNL     1      -9.129   6.092  14.550  1.00  0.00     0.166 C 
HETATM   34  O4  UNL     1      -9.981   6.466  13.755  1.00  0.00    -0.648 OA
BRANCH  33  35
HETATM   35  O5  UNL     1      -9.400   6.087  15.876  1.00  0.00    -0.775 OA
HETATM   36  H18 UNL     1     -10.338   6.369  15.937  1.00  0.00     0.167 HD
ENDBRANCH  33  35
ENDBRANCH  32  33
BRANCH  32  37
HETATM   37  C17 UNL     1      -7.838   4.779  12.898  1.00  0.00     0.184 C 
BRANCH  37  38
HETATM   38  O6  UNL     1      -8.864   3.784  13.022  1.00  0.00    -0.388 OA
HETATM   39  H20 UNL     1      -9.708   4.243  13.205  1.00  0.00     0.210 HD
ENDBRANCH  37  38
BRANCH  37  40
HETATM   40  C18 UNL     1      -6.573   4.028  12.528  1.00  0.00    -0.025 A 
HETATM   41  C19 UNL     1      -6.647   2.775  11.898  1.00  0.00     0.010 A 
HETATM   42  C20 UNL     1      -5.488   2.082  11.541  1.00  0.00     0.003 A 
HETATM   43  C21 UNL     1      -4.234   2.631  11.800  1.00  0.00     0.036 A 
HETATM   44  C22 UNL     1      -4.147   3.879  12.431  1.00  0.00     0.103 A 
HETATM   45  C23 UNL     1      -5.305   4.573  12.801  1.00  0.00     0.045 A 
BRANCH  44  46
HETATM   46  N3  UNL     1      -2.829   4.463  12.706  1.00  0.00    -0.116 N 
HETATM   47  O7  UNL     1      -2.787   5.576  13.251  1.00  0.00    -0.532 OA
HETATM   48  O8  UNL     1      -1.828   3.801  12.385  1.00  0.00    -0.532 OA
ENDBRANCH  44  46
ENDBRANCH  37  40
ENDBRANCH  32  37
ENDBRANCH  30  32
ENDBRANCH  27  28
ENDBRANCH  26  27
ENDBRANCH  13  26
TORSDOF 11
ENDMDL
MODEL 8
REMARK minimizedAffinity -9.38079166
REMARK CNNscore 0.212911695
REMARK CNNaffinity 5.47278595
REMARK  11 active torsions:
REMARK  status: ('A' for Active; 'I' for Inactive)
REMARK    1  A    between atoms: C3_3  and  O1_4 
REMARK    2  A    between atoms: N1_14  and  O2_16 
REMARK    3  A    between atoms: O2_16  and  C13_17 
REMARK    4  A    between atoms: C13_17  and  C14_18 
REMARK       I    between atoms: C14_18  and  N2_20 
REMARK    5  A    between atoms: N2_20  and  C15_21 
REMARK    6  A    between atoms: C15_21  and  C16_22 
REMARK    7  A    between atoms: C15_21  and  C17_25 
REMARK    8  A    between atoms: C16_22  and  O5_24 
REMARK    9  A    between atoms: C17_25  and  O6_26 
REMARK   10  A    between atoms: C17_25  and  C18_27 
REMARK   11  A    between atoms: C22_31  and  N3_32 
ROOT
HETATM    1  C1  UNL     1      -4.483  -9.598   8.380  1.00  0.00     0.015 C 
HETATM    2  C2  UNL     1      -3.949 -10.024   7.390  1.00  0.00    -0.078 C 
HETATM    3  C3  UNL     1      -3.288 -10.547   6.184  1.00  0.00     0.128 C 
HETATM    4  C4  UNL     1      -2.526  -9.457   5.420  1.00  0.00     0.052 C 
HETATM    5  C5  UNL     1      -2.527  -9.896   3.949  1.00  0.00     0.010 C 
HETATM    6  C6  UNL     1      -3.347 -11.198   3.876  1.00  0.00     0.002 C 
HETATM    7  C7  UNL     1      -4.089 -11.449   2.545  1.00  0.00    -0.004 C 
HETATM    8  C8  UNL     1      -3.123 -11.393   1.355  1.00  0.00     0.010 C 
HETATM    9  C9  UNL     1      -3.831 -11.767   0.062  1.00  0.00     0.035 C 
HETATM   10  C10 UNL     1      -5.033 -10.889  -0.194  1.00  0.00    -0.069 C 
HETATM   11  C11 UNL     1      -5.195 -10.332  -1.407  1.00  0.00     0.030 C 
HETATM   12  C12 UNL     1      -6.432  -9.604  -1.784  1.00  0.00     0.032 C 
HETATM   13  N1  UNL     1      -6.533  -9.196  -3.017  1.00  0.00    -0.271 N 
ATOM     14  H1  UNL     1      -5.794  -9.294  -3.714  1.00  0.00     0.194 HD
HETATM   15  C24 UNL     1      -7.524  -9.469  -0.744  1.00  0.00     0.060 C 
HETATM   16  C25 UNL     1      -6.955  -9.511   0.669  1.00  0.00     0.020 C 
HETATM   17  C26 UNL     1      -6.040 -10.740   0.950  1.00  0.00    -0.016 C 
HETATM   18  C27 UNL     1      -6.906 -12.019   0.992  1.00  0.00     0.020 C 
HETATM   19  C28 UNL     1      -5.288 -10.491   2.320  1.00  0.00     0.002 C 
HETATM   20  C29 UNL     1      -6.220 -10.527   3.547  1.00  0.00     0.007 C 
HETATM   21  C30 UNL     1      -5.482 -10.214   4.850  1.00  0.00     0.014 C 
HETATM   22  C31 UNL     1      -4.265 -11.140   5.122  1.00  0.00     0.003 C 
HETATM   23  C32 UNL     1      -4.753 -12.549   5.513  1.00  0.00     0.020 C 
ENDROOT
BRANCH   3  24
HETATM   24  O1  UNL     1      -2.334 -11.534   6.583  1.00  0.00    -0.377 OA
HETATM   25  H2  UNL     1      -1.850 -11.164   7.341  1.00  0.00     0.211 HD
ENDBRANCH   3  24
BRANCH  13  26
HETATM   26  O2  UNL     1      -7.779  -8.605  -3.274  1.00  0.00    -0.271 OA
BRANCH  26  27
HETATM   27  C13 UNL     1      -7.771  -8.107  -4.608  1.00  0.00     0.303 C 
BRANCH  27  28
HETATM   28  C14 UNL     1      -8.734  -6.936  -4.719  1.00  0.00     0.244 C 
HETATM   29  O3  UNL     1      -9.425  -6.554  -3.779  1.00  0.00    -0.271 OA
HETATM   30  N2  UNL     1      -8.800  -6.376  -5.977  1.00  0.00    -0.342 N 
HETATM   31  H16 UNL     1      -8.000  -6.537  -6.588  1.00  0.00     0.163 HD
BRANCH  30  32
HETATM   32  C15 UNL     1      -9.604  -5.177  -6.250  1.00  0.00     0.216 C 
BRANCH  32  33
HETATM   33  C16 UNL     1     -11.022  -5.605  -6.632  1.00  0.00     0.166 C 
HETATM   34  O4  UNL     1     -11.680  -5.146  -7.555  1.00  0.00    -0.648 OA
BRANCH  33  35
HETATM   35  O5  UNL     1     -11.554  -6.560  -5.833  1.00  0.00    -0.775 OA
HETATM   36  H18 UNL     1     -12.435  -6.744  -6.225  1.00  0.00     0.167 HD
ENDBRANCH  33  35
ENDBRANCH  32  33
BRANCH  32  37
HETATM   37  C17 UNL     1      -9.737  -4.217  -5.036  1.00  0.00     0.184 C 
BRANCH  37  38
HETATM   38  O6  UNL     1     -11.058  -4.258  -4.478  1.00  0.00    -0.388 OA
HETATM   39  H20 UNL     1     -11.241  -5.178  -4.202  1.00  0.00     0.210 HD
ENDBRANCH  37  38
BRANCH  37  40
HETATM   40  C18 UNL     1      -9.469  -2.760  -5.364  1.00  0.00    -0.025 A 
HETATM   41  C19 UNL     1     -10.335  -1.756  -4.902  1.00  0.00     0.010 A 
HETATM   42  C20 UNL     1     -10.089  -0.410  -5.186  1.00  0.00     0.003 A 
HETATM   43  C21 UNL     1      -8.970  -0.044  -5.931  1.00  0.00     0.036 A 
HETATM   44  C22 UNL     1      -8.102  -1.037  -6.401  1.00  0.00     0.103 A 
HETATM   45  C23 UNL     1      -8.349  -2.388  -6.128  1.00  0.00     0.045 A 
BRANCH  44  46
HETATM   46  N3  UNL     1      -6.921  -0.657  -7.186  1.00  0.00    -0.116 N 
HETATM   47  O7  UNL     1      -6.960  -0.821  -8.414  1.00  0.00    -0.532 OA
HETATM   48  O8  UNL     1      -5.952  -0.180  -6.572  1.00  0.00    -0.532 OA
ENDBRANCH  44  46
ENDBRANCH  37  40
ENDBRANCH  32  37
ENDBRANCH  30  32
ENDBRANCH  27  28
ENDBRANCH  26  27
ENDBRANCH  13  26
TORSDOF 11
ENDMDL
MODEL 9
REMARK minimizedAffinity -7.98023224
REMARK CNNscore 0.195539847
REMARK CNNaffinity 5.73073196
REMARK  11 active torsions:
REMARK  status: ('A' for Active; 'I' for Inactive)
REMARK    1  A    between atoms: C3_3  and  O1_4 
REMARK    2  A    between atoms: N1_14  and  O2_16 
REMARK    3  A    between atoms: O2_16  and  C13_17 
REMARK    4  A    between atoms: C13_17  and  C14_18 
REMARK       I    between atoms: C14_18  and  N2_20 
REMARK    5  A    between atoms: N2_20  and  C15_21 
REMARK    6  A    between atoms: C15_21  and  C16_22 
REMARK    7  A    between atoms: C15_21  and  C17_25 
REMARK    8  A    between atoms: C16_22  and  O5_24 
REMARK    9  A    between atoms: C17_25  and  O6_26 
REMARK   10  A    between atoms: C17_25  and  C18_27 
REMARK   11  A    between atoms: C22_31  and  N3_32 
ROOT
HETATM    1  C1  UNL     1      -6.056  18.346  12.686  1.00  0.00     0.015 C 
HETATM    2  C2  UNL     1      -6.139  17.881  13.791  1.00  0.00    -0.078 C 
HETATM    3  C3  UNL     1      -6.247  17.317  15.146  1.00  0.00     0.128 C 
HETATM    4  C4  UNL     1      -5.222  17.926  16.112  1.00  0.00     0.052 C 
HETATM    5  C5  UNL     1      -4.939  16.842  17.162  1.00  0.00     0.010 C 
HETATM    6  C6  UNL     1      -5.755  15.602  16.749  1.00  0.00     0.002 C 
HETATM    7  C7  UNL     1      -5.150  14.238  17.150  1.00  0.00    -0.004 C 
HETATM    8  C8  UNL     1      -4.870  14.180  18.657  1.00  0.00     0.010 C 
HETATM    9  C9  UNL     1      -4.396  12.795  19.068  1.00  0.00     0.035 C 
HETATM   10  C10 UNL     1      -3.177  12.364  18.289  1.00  0.00    -0.069 C 
HETATM   11  C11 UNL     1      -2.121  11.856  18.948  1.00  0.00     0.030 C 
HETATM   12  C12 UNL     1      -0.963  11.254  18.241  1.00  0.00     0.032 C 
HETATM   13  N1  UNL     1      -0.041  10.694  18.972  1.00  0.00    -0.271 N 
ATOM     14  H1  UNL     1      -0.041  10.698  19.992  1.00  0.00     0.194 HD
HETATM   15  C24 UNL     1      -0.977  11.248  16.726  1.00  0.00     0.060 C 
HETATM   16  C25 UNL     1      -1.812  12.396  16.174  1.00  0.00     0.020 C 
HETATM   17  C26 UNL     1      -3.251  12.479  16.764  1.00  0.00    -0.016 C 
HETATM   18  C27 UNL     1      -4.085  11.289  16.237  1.00  0.00     0.020 C 
HETATM   19  C28 UNL     1      -3.878  13.870  16.344  1.00  0.00     0.002 C 
HETATM   20  C29 UNL     1      -4.168  13.981  14.834  1.00  0.00     0.007 C 
HETATM   21  C30 UNL     1      -4.707  15.359  14.443  1.00  0.00     0.014 C 
HETATM   22  C31 UNL     1      -5.979  15.783  15.227  1.00  0.00     0.003 C 
HETATM   23  C32 UNL     1      -7.191  14.960  14.747  1.00  0.00     0.020 C 
ENDROOT
BRANCH   3  24
HETATM   24  O1  UNL     1      -7.546  17.620  15.660  1.00  0.00    -0.377 OA
HETATM   25  H2  UNL     1      -7.717  18.554  15.453  1.00  0.00     0.211 HD
ENDBRANCH   3  24
BRANCH  13  26
HETATM   26  O2  UNL     1       0.950  10.084  18.190  1.00  0.00    -0.271 OA
BRANCH  26  27
HETATM   27  C13 UNL     1       2.178  10.774  18.404  1.00  0.00     0.303 C 
BRANCH  27  28
HETATM   28  C14 UNL     1       2.324  11.104  19.880  1.00  0.00     0.244 C 
HETATM   29  O3  UNL     1       1.909  12.151  20.371  1.00  0.00    -0.271 OA
HETATM   30  N2  UNL     1       3.006  10.151  20.608  1.00  0.00    -0.342 N 
HETATM   31  H16 UNL     1       3.034   9.213  20.211  1.00  0.00     0.163 HD
BRANCH  30  32
HETATM   32  C15 UNL     1       3.161  10.254  22.065  1.00  0.00     0.216 C 
BRANCH  32  33
HETATM   33  C16 UNL     1       2.544   9.018  22.719  1.00  0.00     0.166 C 
HETATM   34  O4  UNL     1       2.093   8.048  22.125  1.00  0.00    -0.648 OA
BRANCH  33  35
HETATM   35  O5  UNL     1       2.496   9.062  24.072  1.00  0.00    -0.775 OA
HETATM   36  H18 UNL     1       2.112   8.197  24.333  1.00  0.00     0.167 HD
ENDBRANCH  33  35
ENDBRANCH  32  33
BRANCH  32  37
HETATM   37  C17 UNL     1       4.637  10.324  22.540  1.00  0.00     0.184 C 
BRANCH  37  38
HETATM   38  O6  UNL     1       4.815   9.661  23.800  1.00  0.00    -0.388 OA
HETATM   39  H20 UNL     1       4.538   8.729  23.692  1.00  0.00     0.210 HD
ENDBRANCH  37  38
BRANCH  37  40
HETATM   40  C18 UNL     1       5.163  11.734  22.734  1.00  0.00    -0.025 A 
HETATM   41  C19 UNL     1       4.282  12.827  22.740  1.00  0.00     0.010 A 
HETATM   42  C20 UNL     1       4.754  14.128  22.932  1.00  0.00     0.003 A 
HETATM   43  C21 UNL     1       6.114  14.358  23.129  1.00  0.00     0.036 A 
HETATM   44  C22 UNL     1       7.003  13.275  23.120  1.00  0.00     0.103 A 
HETATM   45  C23 UNL     1       6.537  11.971  22.918  1.00  0.00     0.045 A 
BRANCH  44  46
HETATM   46  N3  UNL     1       8.438  13.512  23.328  1.00  0.00    -0.116 N 
HETATM   47  O7  UNL     1       8.772  14.413  24.111  1.00  0.00    -0.532 OA
HETATM   48  O8  UNL     1       9.235  12.785  22.713  1.00  0.00    -0.532 OA
ENDBRANCH  44  46
ENDBRANCH  37  40
ENDBRANCH  32  37
ENDBRANCH  30  32
ENDBRANCH  27  28
ENDBRANCH  26  27
ENDBRANCH  13  26
TORSDOF 11
ENDMDL
