MODEL 1
REMARK minimizedAffinity -7.88629293
REMARK CNNscore 0.489051372
REMARK CNNaffinity 6.7205987
REMARK  10 active torsions:
REMARK  status: ('A' for Active; 'I' for Inactive)
REMARK    1  A    between atoms: C3_3  and  O1_4 
REMARK    2  A    between atoms: N1_14  and  O2_16 
REMARK    3  A    between atoms: O2_16  and  C13_17 
REMARK    4  A    between atoms: C13_17  and  C14_18 
REMARK       I    between atoms: C14_18  and  N2_20 
REMARK    5  A    between atoms: N2_20  and  C15_21 
REMARK    6  A    between atoms: C15_21  and  C16_22 
REMARK       I    between atoms: C16_22  and  N3_24 
REMARK    7  A    between atoms: N3_24  and  C17_25 
REMARK    8  A    between atoms: C17_25  and  C18_26 
REMARK    9  A    between atoms: C17_25  and  C19_29 
REMARK   10  A    between atoms: C18_26  and  O6_28 
ROOT
HETATM    1  C1  UNL     1       6.785  58.894  -4.793  1.00  0.00     0.015 C 
HETATM    2  C2  UNL     1       5.787  58.234  -4.907  1.00  0.00    -0.078 C 
HETATM    3  C3  UNL     1       4.546  57.431  -5.021  1.00  0.00     0.128 C 
HETATM    4  C4  UNL     1       3.437  58.299  -5.616  1.00  0.00     0.052 C 
HETATM    5  C5  UNL     1       3.650  58.212  -7.120  1.00  0.00     0.010 C 
HETATM    6  C6  UNL     1       4.298  56.839  -7.400  1.00  0.00     0.002 C 
HETATM    7  C7  UNL     1       3.441  55.883  -8.260  1.00  0.00    -0.004 C 
HETATM    8  C8  UNL     1       3.214  56.426  -9.678  1.00  0.00     0.010 C 
HETATM    9  C9  UNL     1       2.468  55.408 -10.532  1.00  0.00     0.035 C 
HETATM   10  C10 UNL     1       1.171  54.965  -9.896  1.00  0.00    -0.069 C 
HETATM   11  C11 UNL     1       0.043  54.953 -10.631  1.00  0.00     0.030 C 
HETATM   12  C12 UNL     1      -1.230  54.391 -10.116  1.00  0.00     0.032 C 
HETATM   13  N1  UNL     1      -2.259  54.392 -10.916  1.00  0.00    -0.271 N 
ATOM     14  H1  UNL     1      -2.257  54.806 -11.848  1.00  0.00     0.194 HD
HETATM   15  C22 UNL     1      -1.225  53.782  -8.731  1.00  0.00     0.060 C 
HETATM   16  C23 UNL     1      -0.205  54.474  -7.836  1.00  0.00     0.020 C 
HETATM   17  C24 UNL     1       1.234  54.512  -8.430  1.00  0.00    -0.016 C 
HETATM   18  C25 UNL     1       1.845  53.093  -8.391  1.00  0.00     0.020 C 
HETATM   19  C26 UNL     1       2.084  55.545  -7.592  1.00  0.00     0.002 C 
HETATM   20  C27 UNL     1       2.253  55.178  -6.099  1.00  0.00     0.007 C 
HETATM   21  C28 UNL     1       3.706  55.030  -5.657  1.00  0.00     0.014 C 
HETATM   22  C29 UNL     1       4.653  56.221  -6.010  1.00  0.00     0.003 C 
HETATM   23  C30 UNL     1       6.078  55.614  -6.041  1.00  0.00     0.020 C 
ENDROOT
BRANCH   3  24
HETATM   24  O1  UNL     1       4.176  57.015  -3.715  1.00  0.00    -0.377 OA
HETATM   25  H2  UNL     1       4.187  57.806  -3.149  1.00  0.00     0.211 HD
ENDBRANCH   3  24
BRANCH  13  26
HETATM   26  O2  UNL     1      -3.368  53.757 -10.341  1.00  0.00    -0.271 OA
BRANCH  26  27
HETATM   27  C13 UNL     1      -4.002  52.959 -11.336  1.00  0.00     0.303 C 
BRANCH  27  28
HETATM   28  C14 UNL     1      -3.039  51.949 -11.956  1.00  0.00     0.244 C 
HETATM   29  O3  UNL     1      -2.530  51.040 -11.302  1.00  0.00    -0.271 OA
HETATM   30  N2  UNL     1      -2.809  52.112 -13.306  1.00  0.00    -0.350 N 
HETATM   31  H16 UNL     1      -2.996  53.041 -13.671  1.00  0.00     0.163 HD
BRANCH  30  32
HETATM   32  C15 UNL     1      -1.808  51.318 -13.987  1.00  0.00     0.225 C 
BRANCH  32  33
HETATM   33  C16 UNL     1      -0.424  51.960 -13.859  1.00  0.00     0.236 C 
HETATM   34  O4  UNL     1      -0.216  52.962 -13.177  1.00  0.00    -0.272 OA
HETATM   35  N3  UNL     1       0.542  51.356 -14.634  1.00  0.00    -0.345 N 
HETATM   36  H19 UNL     1       0.379  50.395 -14.926  1.00  0.00     0.163 HD
BRANCH  35  37
HETATM   37  C17 UNL     1       1.955  51.744 -14.567  1.00  0.00     0.185 C 
BRANCH  37  38
HETATM   38  C18 UNL     1       2.721  50.774 -13.652  1.00  0.00     0.163 C 
HETATM   39  O5  UNL     1       3.368  51.066 -12.659  1.00  0.00    -0.648 OA
BRANCH  38  40
HETATM   40  O6  UNL     1       2.659  49.485 -14.065  1.00  0.00    -0.775 OA
HETATM   41  H21 UNL     1       3.169  48.998 -13.382  1.00  0.00     0.167 HD
ENDBRANCH  38  40
ENDBRANCH  37  38
BRANCH  37  42
HETATM   42  C19 UNL     1       2.619  51.797 -15.961  1.00  0.00     0.010 C 
HETATM   43  C20 UNL     1       1.751  52.504 -17.011  1.00  0.00     0.012 C 
HETATM   44  C21 UNL     1       4.003  52.452 -15.906  1.00  0.00     0.012 C 
ENDBRANCH  37  42
ENDBRANCH  35  37
ENDBRANCH  32  33
ENDBRANCH  30  32
ENDBRANCH  27  28
ENDBRANCH  26  27
ENDBRANCH  13  26
TORSDOF 10
ENDMDL
MODEL 2
REMARK minimizedAffinity -8.24945068
REMARK CNNscore 0.433416903
REMARK CNNaffinity 6.45737219
REMARK  10 active torsions:
REMARK  status: ('A' for Active; 'I' for Inactive)
REMARK    1  A    between atoms: C3_3  and  O1_4 
REMARK    2  A    between atoms: N1_14  and  O2_16 
REMARK    3  A    between atoms: O2_16  and  C13_17 
REMARK    4  A    between atoms: C13_17  and  C14_18 
REMARK       I    between atoms: C14_18  and  N2_20 
REMARK    5  A    between atoms: N2_20  and  C15_21 
REMARK    6  A    between atoms: C15_21  and  C16_22 
REMARK       I    between atoms: C16_22  and  N3_24 
REMARK    7  A    between atoms: N3_24  and  C17_25 
REMARK    8  A    between atoms: C17_25  and  C18_26 
REMARK    9  A    between atoms: C17_25  and  C19_29 
REMARK   10  A    between atoms: C18_26  and  O6_28 
ROOT
HETATM    1  C1  UNL     1      -0.576  51.222 -22.746  1.00  0.00     0.015 C 
HETATM    2  C2  UNL     1      -1.751  50.972 -22.723  1.00  0.00    -0.078 C 
HETATM    3  C3  UNL     1      -3.204  50.686 -22.677  1.00  0.00     0.128 C 
HETATM    4  C4  UNL     1      -3.925  51.570 -23.696  1.00  0.00     0.052 C 
HETATM    5  C5  UNL     1      -3.802  50.814 -25.011  1.00  0.00     0.010 C 
HETATM    6  C6  UNL     1      -3.723  49.314 -24.657  1.00  0.00     0.002 C 
HETATM    7  C7  UNL     1      -4.899  48.462 -25.185  1.00  0.00    -0.004 C 
HETATM    8  C8  UNL     1      -4.947  48.427 -26.718  1.00  0.00     0.010 C 
HETATM    9  C9  UNL     1      -6.043  47.487 -27.204  1.00  0.00     0.035 C 
HETATM   10  C10 UNL     1      -7.393  47.828 -26.616  1.00  0.00    -0.069 C 
HETATM   11  C11 UNL     1      -8.463  47.918 -27.428  1.00  0.00     0.030 C 
HETATM   12  C12 UNL     1      -9.839  48.102 -26.904  1.00  0.00     0.032 C 
HETATM   13  N1  UNL     1     -10.815  48.143 -27.766  1.00  0.00    -0.271 N 
ATOM     14  H1  UNL     1     -10.685  48.115 -28.778  1.00  0.00     0.194 HD
HETATM   15  C22 UNL     1     -10.024  48.146 -25.402  1.00  0.00     0.060 C 
HETATM   16  C23 UNL     1      -8.794  48.731 -24.720  1.00  0.00     0.020 C 
HETATM   17  C24 UNL     1      -7.463  48.015 -25.095  1.00  0.00    -0.016 C 
HETATM   18  C25 UNL     1      -7.427  46.618 -24.435  1.00  0.00     0.020 C 
HETATM   19  C26 UNL     1      -6.265  48.926 -24.616  1.00  0.00     0.002 C 
HETATM   20  C27 UNL     1      -6.204  49.159 -23.089  1.00  0.00     0.007 C 
HETATM   21  C28 UNL     1      -4.900  48.700 -22.443  1.00  0.00     0.014 C 
HETATM   22  C29 UNL     1      -3.587  49.228 -23.102  1.00  0.00     0.003 C 
HETATM   23  C30 UNL     1      -2.493  48.200 -22.716  1.00  0.00     0.020 C 
ENDROOT
BRANCH   3  24
HETATM   24  O1  UNL     1      -3.667  50.993 -21.370  1.00  0.00    -0.377 OA
HETATM   25  H2  UNL     1      -3.345  51.886 -21.155  1.00  0.00     0.211 HD
ENDBRANCH   3  24
BRANCH  13  26
HETATM   26  O2  UNL     1     -12.065  48.230 -27.138  1.00  0.00    -0.271 OA
BRANCH  26  27
HETATM   27  C13 UNL     1     -13.007  47.472 -27.890  1.00  0.00     0.303 C 
BRANCH  27  28
HETATM   28  C14 UNL     1     -13.776  46.486 -27.013  1.00  0.00     0.244 C 
HETATM   29  O3  UNL     1     -14.877  46.042 -27.334  1.00  0.00    -0.271 OA
HETATM   30  N2  UNL     1     -13.131  46.108 -25.854  1.00  0.00    -0.350 N 
HETATM   31  H16 UNL     1     -12.416  46.750 -25.523  1.00  0.00     0.163 HD
BRANCH  30  32
HETATM   32  C15 UNL     1     -13.805  45.296 -24.863  1.00  0.00     0.225 C 
BRANCH  32  33
HETATM   33  C16 UNL     1     -14.833  46.125 -24.087  1.00  0.00     0.236 C 
HETATM   34  O4  UNL     1     -14.514  47.023 -23.310  1.00  0.00    -0.272 OA
HETATM   35  N3  UNL     1     -16.136  45.720 -24.285  1.00  0.00    -0.345 N 
HETATM   36  H19 UNL     1     -16.342  45.194 -25.130  1.00  0.00     0.163 HD
BRANCH  35  37
HETATM   37  C17 UNL     1     -17.277  46.453 -23.726  1.00  0.00     0.185 C 
BRANCH  37  38
HETATM   38  C18 UNL     1     -18.308  46.734 -24.830  1.00  0.00     0.163 C 
HETATM   39  O5  UNL     1     -19.248  47.511 -24.770  1.00  0.00    -0.648 OA
BRANCH  38  40
HETATM   40  O6  UNL     1     -18.120  45.984 -25.943  1.00  0.00    -0.775 OA
HETATM   41  H21 UNL     1     -18.832  46.285 -26.549  1.00  0.00     0.167 HD
ENDBRANCH  38  40
ENDBRANCH  37  38
BRANCH  37  42
HETATM   42  C19 UNL     1     -17.943  45.702 -22.552  1.00  0.00     0.010 C 
HETATM   43  C20 UNL     1     -18.614  46.644 -21.543  1.00  0.00     0.012 C 
HETATM   44  C21 UNL     1     -18.954  44.662 -23.043  1.00  0.00     0.012 C 
ENDBRANCH  37  42
ENDBRANCH  35  37
ENDBRANCH  32  33
ENDBRANCH  30  32
ENDBRANCH  27  28
ENDBRANCH  26  27
ENDBRANCH  13  26
TORSDOF 10
ENDMDL
MODEL 3
REMARK minimizedAffinity -7.91959047
REMARK CNNscore 0.421341062
REMARK CNNaffinity 6.59226227
REMARK  10 active torsions:
REMARK  status: ('A' for Active; 'I' for Inactive)
REMARK    1  A    between atoms: C3_3  and  O1_4 
REMARK    2  A    between atoms: N1_14  and  O2_16 
REMARK    3  A    between atoms: O2_16  and  C13_17 
REMARK    4  A    between atoms: C13_17  and  C14_18 
REMARK       I    between atoms: C14_18  and  N2_20 
REMARK    5  A    between atoms: N2_20  and  C15_21 
REMARK    6  A    between atoms: C15_21  and  C16_22 
REMARK       I    between atoms: C16_22  and  N3_24 
REMARK    7  A    between atoms: N3_24  and  C17_25 
REMARK    8  A    between atoms: C17_25  and  C18_26 
REMARK    9  A    between atoms: C17_25  and  C19_29 
REMARK   10  A    between atoms: C18_26  and  O6_28 
ROOT
HETATM    1  C1  UNL     1      -4.038  46.025 -17.192  1.00  0.00     0.015 C 
HETATM    2  C2  UNL     1      -3.697  46.424 -18.273  1.00  0.00    -0.078 C 
HETATM    3  C3  UNL     1      -3.250  46.907 -19.601  1.00  0.00     0.128 C 
HETATM    4  C4  UNL     1      -3.317  45.756 -20.605  1.00  0.00     0.052 C 
HETATM    5  C5  UNL     1      -4.763  45.746 -21.078  1.00  0.00     0.010 C 
HETATM    6  C6  UNL     1      -5.277  47.198 -20.973  1.00  0.00     0.002 C 
HETATM    7  C7  UNL     1      -5.666  47.846 -22.320  1.00  0.00    -0.004 C 
HETATM    8  C8  UNL     1      -6.852  47.134 -22.984  1.00  0.00     0.010 C 
HETATM    9  C9  UNL     1      -7.283  47.868 -24.248  1.00  0.00     0.035 C 
HETATM   10  C10 UNL     1      -6.140  48.061 -25.219  1.00  0.00    -0.069 C 
HETATM   11  C11 UNL     1      -6.313  47.744 -26.515  1.00  0.00     0.030 C 
HETATM   12  C12 UNL     1      -5.289  48.045 -27.546  1.00  0.00     0.032 C 
HETATM   13  N1  UNL     1      -5.563  47.733 -28.781  1.00  0.00    -0.271 N 
ATOM     14  H1  UNL     1      -6.409  47.244 -29.072  1.00  0.00     0.194 HD
HETATM   15  C22 UNL     1      -4.034  48.768 -27.105  1.00  0.00     0.060 C 
HETATM   16  C23 UNL     1      -3.681  48.416 -25.666  1.00  0.00     0.020 C 
HETATM   17  C24 UNL     1      -4.841  48.652 -24.655  1.00  0.00    -0.016 C 
HETATM   18  C25 UNL     1      -5.050  50.171 -24.457  1.00  0.00     0.020 C 
HETATM   19  C26 UNL     1      -4.469  47.926 -23.303  1.00  0.00     0.002 C 
HETATM   20  C27 UNL     1      -3.193  48.462 -22.614  1.00  0.00     0.007 C 
HETATM   21  C28 UNL     1      -3.423  48.980 -21.197  1.00  0.00     0.014 C 
HETATM   22  C29 UNL     1      -4.169  48.010 -20.227  1.00  0.00     0.003 C 
HETATM   23  C30 UNL     1      -4.807  48.922 -19.148  1.00  0.00     0.020 C 
ENDROOT
BRANCH   3  24
HETATM   24  O1  UNL     1      -1.906  47.349 -19.473  1.00  0.00    -0.377 OA
HETATM   25  H2  UNL     1      -1.414  46.638 -19.028  1.00  0.00     0.211 HD
ENDBRANCH   3  24
BRANCH  13  26
HETATM   26  O2  UNL     1      -4.554  48.148 -29.661  1.00  0.00    -0.271 OA
BRANCH  26  27
HETATM   27  C13 UNL     1      -5.160  48.797 -30.775  1.00  0.00     0.303 C 
BRANCH  27  28
HETATM   28  C14 UNL     1      -6.326  47.987 -31.341  1.00  0.00     0.244 C 
HETATM   29  O3  UNL     1      -6.180  46.850 -31.787  1.00  0.00    -0.271 OA
HETATM   30  N2  UNL     1      -7.554  48.612 -31.285  1.00  0.00    -0.350 N 
HETATM   31  H16 UNL     1      -7.525  49.625 -31.216  1.00  0.00     0.163 HD
BRANCH  30  32
HETATM   32  C15 UNL     1      -8.714  48.021 -31.917  1.00  0.00     0.225 C 
BRANCH  32  33
HETATM   33  C16 UNL     1      -9.423  47.057 -30.960  1.00  0.00     0.236 C 
HETATM   34  O4  UNL     1      -9.241  45.841 -30.986  1.00  0.00    -0.272 OA
HETATM   35  N3  UNL     1     -10.332  47.671 -30.127  1.00  0.00    -0.345 N 
HETATM   36  H19 UNL     1     -10.219  48.668 -29.958  1.00  0.00     0.163 HD
BRANCH  35  37
HETATM   37  C17 UNL     1     -11.031  46.946 -29.060  1.00  0.00     0.185 C 
BRANCH  37  38
HETATM   38  C18 UNL     1     -10.260  47.093 -27.738  1.00  0.00     0.163 C 
HETATM   39  O5  UNL     1      -9.634  48.071 -27.364  1.00  0.00    -0.648 OA
BRANCH  38  40
HETATM   40  O6  UNL     1     -10.290  45.975 -26.973  1.00  0.00    -0.775 OA
HETATM   41  H21 UNL     1      -9.780  46.228 -26.173  1.00  0.00     0.167 HD
ENDBRANCH  38  40
ENDBRANCH  37  38
BRANCH  37  42
HETATM   42  C19 UNL     1     -12.490  47.419 -28.883  1.00  0.00     0.010 C 
HETATM   43  C20 UNL     1     -13.502  46.266 -28.921  1.00  0.00     0.012 C 
HETATM   44  C21 UNL     1     -12.673  48.227 -27.594  1.00  0.00     0.012 C 
ENDBRANCH  37  42
ENDBRANCH  35  37
ENDBRANCH  32  33
ENDBRANCH  30  32
ENDBRANCH  27  28
ENDBRANCH  26  27
ENDBRANCH  13  26
TORSDOF 10
ENDMDL
MODEL 4
REMARK minimizedAffinity -8.69728661
REMARK CNNscore 0.410405099
REMARK CNNaffinity 6.33007669
REMARK  10 active torsions:
REMARK  status: ('A' for Active; 'I' for Inactive)
REMARK    1  A    between atoms: C3_3  and  O1_4 
REMARK    2  A    between atoms: N1_14  and  O2_16 
REMARK    3  A    between atoms: O2_16  and  C13_17 
REMARK    4  A    between atoms: C13_17  and  C14_18 
REMARK       I    between atoms: C14_18  and  N2_20 
REMARK    5  A    between atoms: N2_20  and  C15_21 
REMARK    6  A    between atoms: C15_21  and  C16_22 
REMARK       I    between atoms: C16_22  and  N3_24 
REMARK    7  A    between atoms: N3_24  and  C17_25 
REMARK    8  A    between atoms: C17_25  and  C18_26 
REMARK    9  A    between atoms: C17_25  and  C19_29 
REMARK   10  A    between atoms: C18_26  and  O6_28 
ROOT
HETATM    1  C1  UNL     1       0.593  51.880 -28.153  1.00  0.00     0.015 C 
HETATM    2  C2  UNL     1      -0.454  51.923 -27.564  1.00  0.00    -0.078 C 
HETATM    3  C3  UNL     1      -1.756  51.988 -26.860  1.00  0.00     0.128 C 
HETATM    4  C4  UNL     1      -2.627  50.811 -27.300  1.00  0.00     0.052 C 
HETATM    5  C5  UNL     1      -2.187  49.658 -26.411  1.00  0.00     0.010 C 
HETATM    6  C6  UNL     1      -1.694  50.279 -25.087  1.00  0.00     0.002 C 
HETATM    7  C7  UNL     1      -2.521  49.888 -23.841  1.00  0.00    -0.004 C 
HETATM    8  C8  UNL     1      -2.441  48.386 -23.540  1.00  0.00     0.010 C 
HETATM    9  C9  UNL     1      -3.169  48.054 -22.243  1.00  0.00     0.035 C 
HETATM   10  C10 UNL     1      -4.601  48.541 -22.248  1.00  0.00    -0.069 C 
HETATM   11  C11 UNL     1      -5.585  47.704 -21.873  1.00  0.00     0.030 C 
HETATM   12  C12 UNL     1      -6.989  48.157 -21.712  1.00  0.00     0.032 C 
HETATM   13  N1  UNL     1      -7.865  47.280 -21.310  1.00  0.00    -0.271 N 
ATOM     14  H1  UNL     1      -7.657  46.293 -21.156  1.00  0.00     0.194 HD
HETATM   15  C22 UNL     1      -7.291  49.621 -21.945  1.00  0.00     0.060 C 
HETATM   16  C23 UNL     1      -6.345  50.213 -22.982  1.00  0.00     0.020 C 
HETATM   17  C24 UNL     1      -4.837  50.002 -22.655  1.00  0.00    -0.016 C 
HETATM   18  C25 UNL     1      -4.438  50.904 -21.465  1.00  0.00     0.020 C 
HETATM   19  C26 UNL     1      -4.002  50.334 -23.954  1.00  0.00     0.002 C 
HETATM   20  C27 UNL     1      -4.128  51.795 -24.444  1.00  0.00     0.007 C 
HETATM   21  C28 UNL     1      -2.799  52.541 -24.519  1.00  0.00     0.014 C 
HETATM   22  C29 UNL     1      -1.656  51.825 -25.305  1.00  0.00     0.003 C 
HETATM   23  C30 UNL     1      -0.339  52.415 -24.739  1.00  0.00     0.020 C 
ENDROOT
BRANCH   3  24
HETATM   24  O1  UNL     1      -2.386  53.208 -27.224  1.00  0.00    -0.377 OA
HETATM   25  H2  UNL     1      -2.360  53.264 -28.194  1.00  0.00     0.211 HD
ENDBRANCH   3  24
BRANCH  13  26
HETATM   26  O2  UNL     1      -9.128  47.855 -21.115  1.00  0.00    -0.271 OA
BRANCH  26  27
HETATM   27  C13 UNL     1      -9.305  48.107 -19.724  1.00  0.00     0.303 C 
BRANCH  27  28
HETATM   28  C14 UNL     1     -10.682  47.662 -19.234  1.00  0.00     0.244 C 
HETATM   29  O3  UNL     1     -10.929  47.486 -18.042  1.00  0.00    -0.271 OA
HETATM   30  N2  UNL     1     -11.632  47.505 -20.222  1.00  0.00    -0.350 N 
HETATM   31  H16 UNL     1     -11.267  47.352 -21.157  1.00  0.00     0.163 HD
BRANCH  30  32
HETATM   32  C15 UNL     1     -12.932  46.949 -19.916  1.00  0.00     0.225 C 
BRANCH  32  33
HETATM   33  C16 UNL     1     -14.001  47.513 -20.857  1.00  0.00     0.236 C 
HETATM   34  O4  UNL     1     -14.269  48.712 -20.917  1.00  0.00    -0.272 OA
HETATM   35  N3  UNL     1     -14.679  46.548 -21.569  1.00  0.00    -0.345 N 
HETATM   36  H19 UNL     1     -14.225  45.646 -21.691  1.00  0.00     0.163 HD
BRANCH  35  37
HETATM   37  C17 UNL     1     -15.659  46.885 -22.607  1.00  0.00     0.185 C 
BRANCH  37  38
HETATM   38  C18 UNL     1     -15.072  46.587 -23.996  1.00  0.00     0.163 C 
HETATM   39  O5  UNL     1     -14.657  47.404 -24.803  1.00  0.00    -0.648 OA
BRANCH  38  40
HETATM   40  O6  UNL     1     -15.076  45.269 -24.309  1.00  0.00    -0.775 OA
HETATM   41  H21 UNL     1     -14.662  45.241 -25.199  1.00  0.00     0.167 HD
ENDBRANCH  38  40
ENDBRANCH  37  38
BRANCH  37  42
HETATM   42  C19 UNL     1     -16.997  46.134 -22.422  1.00  0.00     0.010 C 
HETATM   43  C20 UNL     1     -17.594  46.313 -21.020  1.00  0.00     0.012 C 
HETATM   44  C21 UNL     1     -18.027  46.540 -23.480  1.00  0.00     0.012 C 
ENDBRANCH  37  42
ENDBRANCH  35  37
ENDBRANCH  32  33
ENDBRANCH  30  32
ENDBRANCH  27  28
ENDBRANCH  26  27
ENDBRANCH  13  26
TORSDOF 10
ENDMDL
MODEL 5
REMARK minimizedAffinity -7.8030324
REMARK CNNscore 0.360907465
REMARK CNNaffinity 6.25431252
REMARK  10 active torsions:
REMARK  status: ('A' for Active; 'I' for Inactive)
REMARK    1  A    between atoms: C3_3  and  O1_4 
REMARK    2  A    between atoms: N1_14  and  O2_16 
REMARK    3  A    between atoms: O2_16  and  C13_17 
REMARK    4  A    between atoms: C13_17  and  C14_18 
REMARK       I    between atoms: C14_18  and  N2_20 
REMARK    5  A    between atoms: N2_20  and  C15_21 
REMARK    6  A    between atoms: C15_21  and  C16_22 
REMARK       I    between atoms: C16_22  and  N3_24 
REMARK    7  A    between atoms: N3_24  and  C17_25 
REMARK    8  A    between atoms: C17_25  and  C18_26 
REMARK    9  A    between atoms: C17_25  and  C19_29 
REMARK   10  A    between atoms: C18_26  and  O6_28 
ROOT
HETATM    1  C1  UNL     1       0.643  51.821 -28.179  1.00  0.00     0.015 C 
HETATM    2  C2  UNL     1      -0.400  51.894 -27.587  1.00  0.00    -0.078 C 
HETATM    3  C3  UNL     1      -1.698  51.997 -26.879  1.00  0.00     0.128 C 
HETATM    4  C4  UNL     1      -2.601  50.841 -27.310  1.00  0.00     0.052 C 
HETATM    5  C5  UNL     1      -2.188  49.681 -26.416  1.00  0.00     0.010 C 
HETATM    6  C6  UNL     1      -1.675  50.295 -25.097  1.00  0.00     0.002 C 
HETATM    7  C7  UNL     1      -2.507  49.933 -23.847  1.00  0.00    -0.004 C 
HETATM    8  C8  UNL     1      -2.466  48.430 -23.538  1.00  0.00     0.010 C 
HETATM    9  C9  UNL     1      -3.198  48.125 -22.237  1.00  0.00     0.035 C 
HETATM   10  C10 UNL     1      -4.616  48.649 -22.240  1.00  0.00    -0.069 C 
HETATM   11  C11 UNL     1      -5.620  47.840 -21.857  1.00  0.00     0.030 C 
HETATM   12  C12 UNL     1      -7.012  48.330 -21.693  1.00  0.00     0.032 C 
HETATM   13  N1  UNL     1      -7.909  47.479 -21.284  1.00  0.00    -0.271 N 
ATOM     14  H1  UNL     1      -7.726  46.488 -21.126  1.00  0.00     0.194 HD
HETATM   15  C22 UNL     1      -7.276  49.801 -21.934  1.00  0.00     0.060 C 
HETATM   16  C23 UNL     1      -6.318  50.362 -22.977  1.00  0.00     0.020 C 
HETATM   17  C24 UNL     1      -4.815  50.114 -22.653  1.00  0.00    -0.016 C 
HETATM   18  C25 UNL     1      -4.389  51.011 -21.469  1.00  0.00     0.020 C 
HETATM   19  C26 UNL     1      -3.977  50.417 -23.957  1.00  0.00     0.002 C 
HETATM   20  C27 UNL     1      -4.066  51.878 -24.454  1.00  0.00     0.007 C 
HETATM   21  C28 UNL     1      -2.718  52.589 -24.537  1.00  0.00     0.014 C 
HETATM   22  C29 UNL     1      -1.596  51.839 -25.324  1.00  0.00     0.003 C 
HETATM   23  C30 UNL     1      -0.263  52.397 -24.765  1.00  0.00     0.020 C 
ENDROOT
BRANCH   3  24
HETATM   24  O1  UNL     1      -2.297  53.231 -27.247  1.00  0.00    -0.377 OA
HETATM   25  H2  UNL     1      -2.272  53.282 -28.217  1.00  0.00     0.211 HD
ENDBRANCH   3  24
BRANCH  13  26
HETATM   26  O2  UNL     1      -9.156  48.088 -21.088  1.00  0.00    -0.271 OA
BRANCH  26  27
HETATM   27  C13 UNL     1      -9.492  48.004 -19.706  1.00  0.00     0.303 C 
BRANCH  27  28
HETATM   28  C14 UNL     1      -9.617  46.556 -19.236  1.00  0.00     0.244 C 
HETATM   29  O3  UNL     1      -8.649  45.910 -18.838  1.00  0.00    -0.271 OA
HETATM   30  N2  UNL     1     -10.896  46.041 -19.262  1.00  0.00    -0.350 N 
HETATM   31  H16 UNL     1     -11.542  46.509 -19.890  1.00  0.00     0.163 HD
BRANCH  30  32
HETATM   32  C15 UNL     1     -11.135  44.641 -18.984  1.00  0.00     0.225 C 
BRANCH  32  33
HETATM   33  C16 UNL     1     -11.656  44.451 -17.556  1.00  0.00     0.236 C 
HETATM   34  O4  UNL     1     -10.911  44.273 -16.594  1.00  0.00    -0.272 OA
HETATM   35  N3  UNL     1     -13.031  44.424 -17.465  1.00  0.00    -0.345 N 
HETATM   36  H19 UNL     1     -13.561  44.857 -18.218  1.00  0.00     0.163 HD
BRANCH  35  37
HETATM   37  C17 UNL     1     -13.730  44.367 -16.177  1.00  0.00     0.185 C 
BRANCH  37  38
HETATM   38  C18 UNL     1     -13.805  45.774 -15.562  1.00  0.00     0.163 C 
HETATM   39  O5  UNL     1     -13.954  46.826 -16.164  1.00  0.00    -0.648 OA
BRANCH  38  40
HETATM   40  O6  UNL     1     -13.648  45.780 -14.216  1.00  0.00    -0.775 OA
HETATM   41  H21 UNL     1     -13.738  46.728 -13.977  1.00  0.00     0.167 HD
ENDBRANCH  38  40
ENDBRANCH  37  38
BRANCH  37  42
HETATM   42  C19 UNL     1     -15.146  43.762 -16.300  1.00  0.00     0.010 C 
HETATM   43  C20 UNL     1     -15.578  43.539 -17.755  1.00  0.00     0.012 C 
HETATM   44  C21 UNL     1     -15.275  42.454 -15.514  1.00  0.00     0.012 C 
ENDBRANCH  37  42
ENDBRANCH  35  37
ENDBRANCH  32  33
ENDBRANCH  30  32
ENDBRANCH  27  28
ENDBRANCH  26  27
ENDBRANCH  13  26
TORSDOF 10
ENDMDL
MODEL 6
REMARK minimizedAffinity -8.48245621
REMARK CNNscore 0.325892001
REMARK CNNaffinity 6.27932501
REMARK  10 active torsions:
REMARK  status: ('A' for Active; 'I' for Inactive)
REMARK    1  A    between atoms: C3_3  and  O1_4 
REMARK    2  A    between atoms: N1_14  and  O2_16 
REMARK    3  A    between atoms: O2_16  and  C13_17 
REMARK    4  A    between atoms: C13_17  and  C14_18 
REMARK       I    between atoms: C14_18  and  N2_20 
REMARK    5  A    between atoms: N2_20  and  C15_21 
REMARK    6  A    between atoms: C15_21  and  C16_22 
REMARK       I    between atoms: C16_22  and  N3_24 
REMARK    7  A    between atoms: N3_24  and  C17_25 
REMARK    8  A    between atoms: C17_25  and  C18_26 
REMARK    9  A    between atoms: C17_25  and  C19_29 
REMARK   10  A    between atoms: C18_26  and  O6_28 
ROOT
HETATM    1  C1  UNL     1       0.624  51.764 -28.131  1.00  0.00     0.015 C 
HETATM    2  C2  UNL     1      -0.388  51.863 -27.491  1.00  0.00    -0.078 C 
HETATM    3  C3  UNL     1      -1.650  51.998 -26.725  1.00  0.00     0.128 C 
HETATM    4  C4  UNL     1      -2.587  50.846 -27.088  1.00  0.00     0.052 C 
HETATM    5  C5  UNL     1      -2.146  49.699 -26.190  1.00  0.00     0.010 C 
HETATM    6  C6  UNL     1      -1.562  50.334 -24.910  1.00  0.00     0.002 C 
HETATM    7  C7  UNL     1      -2.339  50.009 -23.614  1.00  0.00    -0.004 C 
HETATM    8  C8  UNL     1      -2.300  48.513 -23.275  1.00  0.00     0.010 C 
HETATM    9  C9  UNL     1      -2.973  48.245 -21.935  1.00  0.00     0.035 C 
HETATM   10  C10 UNL     1      -4.383  48.787 -21.881  1.00  0.00    -0.069 C 
HETATM   11  C11 UNL     1      -5.378  48.000 -21.434  1.00  0.00     0.030 C 
HETATM   12  C12 UNL     1      -6.754  48.512 -21.215  1.00  0.00     0.032 C 
HETATM   13  N1  UNL     1      -7.641  47.681 -20.745  1.00  0.00    -0.271 N 
ATOM     14  H1  UNL     1      -7.463  46.691 -20.574  1.00  0.00     0.194 HD
HETATM   15  C22 UNL     1      -7.011  49.980 -21.474  1.00  0.00     0.060 C 
HETATM   16  C23 UNL     1      -6.098  50.507 -22.573  1.00  0.00     0.020 C 
HETATM   17  C24 UNL     1      -4.584  50.245 -22.317  1.00  0.00    -0.016 C 
HETATM   18  C25 UNL     1      -4.091  51.161 -21.174  1.00  0.00     0.020 C 
HETATM   19  C26 UNL     1      -3.805  50.510 -23.665  1.00  0.00     0.002 C 
HETATM   20  C27 UNL     1      -3.900  51.961 -24.188  1.00  0.00     0.007 C 
HETATM   21  C28 UNL     1      -2.549  52.652 -24.351  1.00  0.00     0.014 C 
HETATM   22  C29 UNL     1      -1.476  51.872 -25.173  1.00  0.00     0.003 C 
HETATM   23  C30 UNL     1      -0.111  52.424 -24.690  1.00  0.00     0.020 C 
ENDROOT
BRANCH   3  24
HETATM   24  O1  UNL     1      -2.250  53.232 -27.090  1.00  0.00    -0.377 OA
HETATM   25  H2  UNL     1      -2.272  53.262 -28.062  1.00  0.00     0.211 HD
ENDBRANCH   3  24
BRANCH  13  26
HETATM   26  O2  UNL     1      -8.870  48.310 -20.503  1.00  0.00    -0.271 OA
BRANCH  26  27
HETATM   27  C13 UNL     1      -9.890  47.317 -20.460  1.00  0.00     0.303 C 
BRANCH  27  28
HETATM   28  C14 UNL     1     -10.589  47.276 -19.102  1.00  0.00     0.244 C 
HETATM   29  O3  UNL     1     -10.049  46.809 -18.101  1.00  0.00    -0.271 OA
HETATM   30  N2  UNL     1     -11.852  47.828 -19.078  1.00  0.00    -0.350 N 
HETATM   31  H16 UNL     1     -12.323  47.880 -19.976  1.00  0.00     0.163 HD
BRANCH  30  32
HETATM   32  C15 UNL     1     -12.682  47.725 -17.896  1.00  0.00     0.225 C 
BRANCH  32  33
HETATM   33  C16 UNL     1     -14.166  47.704 -18.273  1.00  0.00     0.236 C 
HETATM   34  O4  UNL     1     -15.056  48.038 -17.491  1.00  0.00    -0.272 OA
HETATM   35  N3  UNL     1     -14.412  47.209 -19.535  1.00  0.00    -0.345 N 
HETATM   36  H19 UNL     1     -13.648  47.233 -20.207  1.00  0.00     0.163 HD
BRANCH  35  37
HETATM   37  C17 UNL     1     -15.752  47.212 -20.130  1.00  0.00     0.185 C 
BRANCH  37  38
HETATM   38  C18 UNL     1     -15.774  46.306 -21.372  1.00  0.00     0.163 C 
HETATM   39  O5  UNL     1     -15.015  45.381 -21.613  1.00  0.00    -0.648 OA
BRANCH  38  40
HETATM   40  O6  UNL     1     -16.733  46.645 -22.267  1.00  0.00    -0.775 OA
HETATM   41  H21 UNL     1     -16.633  45.977 -22.979  1.00  0.00     0.167 HD
ENDBRANCH  38  40
ENDBRANCH  37  38
BRANCH  37  42
HETATM   42  C19 UNL     1     -16.844  46.773 -19.130  1.00  0.00     0.010 C 
HETATM   43  C20 UNL     1     -18.153  47.558 -19.288  1.00  0.00     0.012 C 
HETATM   44  C21 UNL     1     -17.126  45.270 -19.221  1.00  0.00     0.012 C 
ENDBRANCH  37  42
ENDBRANCH  35  37
ENDBRANCH  32  33
ENDBRANCH  30  32
ENDBRANCH  27  28
ENDBRANCH  26  27
ENDBRANCH  13  26
TORSDOF 10
ENDMDL
MODEL 7
REMARK minimizedAffinity -7.98854065
REMARK CNNscore 0.314858615
REMARK CNNaffinity 6.51842356
REMARK  10 active torsions:
REMARK  status: ('A' for Active; 'I' for Inactive)
REMARK    1  A    between atoms: C3_3  and  O1_4 
REMARK    2  A    between atoms: N1_14  and  O2_16 
REMARK    3  A    between atoms: O2_16  and  C13_17 
REMARK    4  A    between atoms: C13_17  and  C14_18 
REMARK       I    between atoms: C14_18  and  N2_20 
REMARK    5  A    between atoms: N2_20  and  C15_21 
REMARK    6  A    between atoms: C15_21  and  C16_22 
REMARK       I    between atoms: C16_22  and  N3_24 
REMARK    7  A    between atoms: N3_24  and  C17_25 
REMARK    8  A    between atoms: C17_25  and  C18_26 
REMARK    9  A    between atoms: C17_25  and  C19_29 
REMARK   10  A    between atoms: C18_26  and  O6_28 
ROOT
HETATM    1  C1  UNL     1      -7.866  48.536 -24.399  1.00  0.00     0.015 C 
HETATM    2  C2  UNL     1      -7.015  49.217 -23.894  1.00  0.00    -0.078 C 
HETATM    3  C3  UNL     1      -5.983  50.080 -23.273  1.00  0.00     0.128 C 
HETATM    4  C4  UNL     1      -6.289  50.242 -21.784  1.00  0.00     0.052 C 
HETATM    5  C5  UNL     1      -5.675  49.011 -21.132  1.00  0.00     0.010 C 
HETATM    6  C6  UNL     1      -4.477  48.593 -22.011  1.00  0.00     0.002 C 
HETATM    7  C7  UNL     1      -3.101  48.679 -21.313  1.00  0.00    -0.004 C 
HETATM    8  C8  UNL     1      -2.988  47.706 -20.132  1.00  0.00     0.010 C 
HETATM    9  C9  UNL     1      -1.584  47.732 -19.541  1.00  0.00     0.035 C 
HETATM   10  C10 UNL     1      -1.152  49.127 -19.150  1.00  0.00    -0.069 C 
HETATM   11  C11 UNL     1      -0.612  49.336 -17.935  1.00  0.00     0.030 C 
HETATM   12  C12 UNL     1      -0.032  50.644 -17.542  1.00  0.00     0.032 C 
HETATM   13  N1  UNL     1       0.500  50.739 -16.357  1.00  0.00    -0.271 N 
ATOM     14  H1  UNL     1       0.490  49.989 -15.665  1.00  0.00     0.194 HD
HETATM   15  C22 UNL     1      -0.024  51.752 -18.573  1.00  0.00     0.060 C 
HETATM   16  C23 UNL     1      -1.212  51.625 -19.518  1.00  0.00     0.020 C 
HETATM   17  C24 UNL     1      -1.328  50.231 -20.202  1.00  0.00    -0.016 C 
HETATM   18  C25 UNL     1      -0.204  50.078 -21.253  1.00  0.00     0.020 C 
HETATM   19  C26 UNL     1      -2.763  50.121 -20.852  1.00  0.00     0.002 C 
HETATM   20  C27 UNL     1      -3.048  51.161 -21.960  1.00  0.00     0.007 C 
HETATM   21  C28 UNL     1      -3.403  50.547 -23.312  1.00  0.00     0.014 C 
HETATM   22  C29 UNL     1      -4.538  49.475 -23.299  1.00  0.00     0.003 C 
HETATM   23  C30 UNL     1      -4.291  48.604 -24.558  1.00  0.00     0.020 C 
ENDROOT
BRANCH   3  24
HETATM   24  O1  UNL     1      -6.036  51.348 -23.910  1.00  0.00    -0.377 OA
HETATM   25  H2  UNL     1      -6.966  51.631 -23.905  1.00  0.00     0.211 HD
ENDBRANCH   3  24
BRANCH  13  26
HETATM   26  O2  UNL     1       1.087  51.994 -16.146  1.00  0.00    -0.271 OA
BRANCH  26  27
HETATM   27  C13 UNL     1       0.937  52.342 -14.773  1.00  0.00     0.303 C 
BRANCH  27  28
HETATM   28  C14 UNL     1       2.063  51.771 -13.913  1.00  0.00     0.244 C 
HETATM   29  O3  UNL     1       3.024  51.179 -14.400  1.00  0.00    -0.271 OA
HETATM   30  N2  UNL     1       1.937  51.997 -12.559  1.00  0.00    -0.350 N 
HETATM   31  H16 UNL     1       0.994  52.188 -12.234  1.00  0.00     0.163 HD
BRANCH  30  32
HETATM   32  C15 UNL     1       2.854  51.387 -11.619  1.00  0.00     0.225 C 
BRANCH  32  33
HETATM   33  C16 UNL     1       2.887  52.171 -10.303  1.00  0.00     0.236 C 
HETATM   34  O4  UNL     1       2.642  51.654  -9.214  1.00  0.00    -0.272 OA
HETATM   35  N3  UNL     1       3.140  53.516 -10.464  1.00  0.00    -0.345 N 
HETATM   36  H19 UNL     1       3.609  53.808 -11.319  1.00  0.00     0.163 HD
BRANCH  35  37
HETATM   37  C17 UNL     1       3.327  54.420  -9.324  1.00  0.00     0.185 C 
BRANCH  37  38
HETATM   38  C18 UNL     1       4.791  54.376  -8.858  1.00  0.00     0.163 C 
HETATM   39  O5  UNL     1       5.196  54.497  -7.713  1.00  0.00    -0.648 OA
BRANCH  38  40
HETATM   40  O6  UNL     1       5.674  54.221  -9.875  1.00  0.00    -0.775 OA
HETATM   41  H21 UNL     1       6.545  54.194  -9.423  1.00  0.00     0.167 HD
ENDBRANCH  38  40
ENDBRANCH  37  38
BRANCH  37  42
HETATM   42  C19 UNL     1       2.914  55.872  -9.649  1.00  0.00     0.010 C 
HETATM   43  C20 UNL     1       3.345  56.873  -8.569  1.00  0.00     0.012 C 
HETATM   44  C21 UNL     1       3.442  56.322 -11.014  1.00  0.00     0.012 C 
ENDBRANCH  37  42
ENDBRANCH  35  37
ENDBRANCH  32  33
ENDBRANCH  30  32
ENDBRANCH  27  28
ENDBRANCH  26  27
ENDBRANCH  13  26
TORSDOF 10
ENDMDL
MODEL 8
REMARK minimizedAffinity -8.67148209
REMARK CNNscore 0.309196591
REMARK CNNaffinity 6.39417267
REMARK  10 active torsions:
REMARK  status: ('A' for Active; 'I' for Inactive)
REMARK    1  A    between atoms: C3_3  and  O1_4 
REMARK    2  A    between atoms: N1_14  and  O2_16 
REMARK    3  A    between atoms: O2_16  and  C13_17 
REMARK    4  A    between atoms: C13_17  and  C14_18 
REMARK       I    between atoms: C14_18  and  N2_20 
REMARK    5  A    between atoms: N2_20  and  C15_21 
REMARK    6  A    between atoms: C15_21  and  C16_22 
REMARK       I    between atoms: C16_22  and  N3_24 
REMARK    7  A    between atoms: N3_24  and  C17_25 
REMARK    8  A    between atoms: C17_25  and  C18_26 
REMARK    9  A    between atoms: C17_25  and  C19_29 
REMARK   10  A    between atoms: C18_26  and  O6_28 
ROOT
HETATM    1  C1  UNL     1       0.716  51.907 -28.138  1.00  0.00     0.015 C 
HETATM    2  C2  UNL     1      -0.351  51.933 -27.585  1.00  0.00    -0.078 C 
HETATM    3  C3  UNL     1      -1.678  51.977 -26.927  1.00  0.00     0.128 C 
HETATM    4  C4  UNL     1      -2.505  50.772 -27.377  1.00  0.00     0.052 C 
HETATM    5  C5  UNL     1      -2.067  49.643 -26.455  1.00  0.00     0.010 C 
HETATM    6  C6  UNL     1      -1.635  50.296 -25.125  1.00  0.00     0.002 C 
HETATM    7  C7  UNL     1      -2.494  49.905 -23.902  1.00  0.00    -0.004 C 
HETATM    8  C8  UNL     1      -2.388  48.409 -23.574  1.00  0.00     0.010 C 
HETATM    9  C9  UNL     1      -3.152  48.080 -22.297  1.00  0.00     0.035 C 
HETATM   10  C10 UNL     1      -4.594  48.531 -22.359  1.00  0.00    -0.069 C 
HETATM   11  C11 UNL     1      -5.570  47.676 -22.003  1.00  0.00     0.030 C 
HETATM   12  C12 UNL     1      -6.989  48.096 -21.897  1.00  0.00     0.032 C 
HETATM   13  N1  UNL     1      -7.857  47.204 -21.510  1.00  0.00    -0.271 N 
ATOM     14  H1  UNL     1      -7.630  46.226 -21.334  1.00  0.00     0.194 HD
HETATM   15  C22 UNL     1      -7.318  49.549 -22.164  1.00  0.00     0.060 C 
HETATM   16  C23 UNL     1      -6.352  50.148 -23.178  1.00  0.00     0.020 C 
HETATM   17  C24 UNL     1      -4.852  49.980 -22.797  1.00  0.00    -0.016 C 
HETATM   18  C25 UNL     1      -4.515  50.909 -21.609  1.00  0.00     0.020 C 
HETATM   19  C26 UNL     1      -3.981  50.312 -24.072  1.00  0.00     0.002 C 
HETATM   20  C27 UNL     1      -4.125  51.761 -24.589  1.00  0.00     0.007 C 
HETATM   21  C28 UNL     1      -2.813  52.539 -24.631  1.00  0.00     0.014 C 
HETATM   22  C29 UNL     1      -1.627  51.840 -25.367  1.00  0.00     0.003 C 
HETATM   23  C30 UNL     1      -0.345  52.471 -24.766  1.00  0.00     0.020 C 
ENDROOT
BRANCH   3  24
HETATM   24  O1  UNL     1      -2.324  53.175 -27.331  1.00  0.00    -0.377 OA
HETATM   25  H2  UNL     1      -2.266  53.217 -28.301  1.00  0.00     0.211 HD
ENDBRANCH   3  24
BRANCH  13  26
HETATM   26  O2  UNL     1      -9.140  47.751 -21.367  1.00  0.00    -0.271 OA
BRANCH  26  27
HETATM   27  C13 UNL     1      -9.619  47.452 -20.060  1.00  0.00     0.303 C 
BRANCH  27  28
HETATM   28  C14 UNL     1     -11.024  46.852 -20.092  1.00  0.00     0.244 C 
HETATM   29  O3  UNL     1     -11.581  46.431 -19.079  1.00  0.00    -0.271 OA
HETATM   30  N2  UNL     1     -11.631  46.847 -21.330  1.00  0.00    -0.350 N 
HETATM   31  H16 UNL     1     -11.000  46.901 -22.125  1.00  0.00     0.163 HD
BRANCH  30  32
HETATM   32  C15 UNL     1     -12.899  46.179 -21.531  1.00  0.00     0.225 C 
BRANCH  32  33
HETATM   33  C16 UNL     1     -14.064  47.095 -21.146  1.00  0.00     0.236 C 
HETATM   34  O4  UNL     1     -14.440  48.027 -21.855  1.00  0.00    -0.272 OA
HETATM   35  N3  UNL     1     -14.597  46.824 -19.904  1.00  0.00    -0.345 N 
HETATM   36  H19 UNL     1     -14.445  45.894 -19.519  1.00  0.00     0.163 HD
BRANCH  35  37
HETATM   37  C17 UNL     1     -15.791  47.509 -19.397  1.00  0.00     0.185 C 
BRANCH  37  38
HETATM   38  C18 UNL     1     -16.974  46.528 -19.348  1.00  0.00     0.163 C 
HETATM   39  O5  UNL     1     -16.913  45.310 -19.386  1.00  0.00    -0.648 OA
BRANCH  38  40
HETATM   40  O6  UNL     1     -18.179  47.144 -19.294  1.00  0.00    -0.775 OA
HETATM   41  H21 UNL     1     -18.818  46.400 -19.250  1.00  0.00     0.167 HD
ENDBRANCH  38  40
ENDBRANCH  37  38
BRANCH  37  42
HETATM   42  C19 UNL     1     -15.563  48.140 -18.006  1.00  0.00     0.010 C 
HETATM   43  C20 UNL     1     -14.340  47.565 -17.280  1.00  0.00     0.012 C 
HETATM   44  C21 UNL     1     -15.450  49.665 -18.086  1.00  0.00     0.012 C 
ENDBRANCH  37  42
ENDBRANCH  35  37
ENDBRANCH  32  33
ENDBRANCH  30  32
ENDBRANCH  27  28
ENDBRANCH  26  27
ENDBRANCH  13  26
TORSDOF 10
ENDMDL
MODEL 9
REMARK minimizedAffinity -8.33895302
REMARK CNNscore 0.295366734
REMARK CNNaffinity 6.20619965
REMARK  10 active torsions:
REMARK  status: ('A' for Active; 'I' for Inactive)
REMARK    1  A    between atoms: C3_3  and  O1_4 
REMARK    2  A    between atoms: N1_14  and  O2_16 
REMARK    3  A    between atoms: O2_16  and  C13_17 
REMARK    4  A    between atoms: C13_17  and  C14_18 
REMARK       I    between atoms: C14_18  and  N2_20 
REMARK    5  A    between atoms: N2_20  and  C15_21 
REMARK    6  A    between atoms: C15_21  and  C16_22 
REMARK       I    between atoms: C16_22  and  N3_24 
REMARK    7  A    between atoms: N3_24  and  C17_25 
REMARK    8  A    between atoms: C17_25  and  C18_26 
REMARK    9  A    between atoms: C17_25  and  C19_29 
REMARK   10  A    between atoms: C18_26  and  O6_28 
ROOT
HETATM    1  C1  UNL     1       0.759  51.808 -28.145  1.00  0.00     0.015 C 
HETATM    2  C2  UNL     1      -0.271  51.906 -27.533  1.00  0.00    -0.078 C 
HETATM    3  C3  UNL     1      -1.553  52.040 -26.802  1.00  0.00     0.128 C 
HETATM    4  C4  UNL     1      -2.497  50.915 -27.226  1.00  0.00     0.052 C 
HETATM    5  C5  UNL     1      -2.102  49.735 -26.349  1.00  0.00     0.010 C 
HETATM    6  C6  UNL     1      -1.548  50.323 -25.034  1.00  0.00     0.002 C 
HETATM    7  C7  UNL     1      -2.369  49.975 -23.773  1.00  0.00    -0.004 C 
HETATM    8  C8  UNL     1      -2.366  48.469 -23.477  1.00  0.00     0.010 C 
HETATM    9  C9  UNL     1      -3.084  48.174 -22.166  1.00  0.00     0.035 C 
HETATM   10  C10 UNL     1      -4.486  48.739 -22.139  1.00  0.00    -0.069 C 
HETATM   11  C11 UNL     1      -5.507  47.956 -21.745  1.00  0.00     0.030 C 
HETATM   12  C12 UNL     1      -6.880  48.485 -21.553  1.00  0.00     0.032 C 
HETATM   13  N1  UNL     1      -7.794  47.657 -21.134  1.00  0.00    -0.271 N 
ATOM     14  H1  UNL     1      -7.638  46.660 -20.987  1.00  0.00     0.194 HD
HETATM   15  C22 UNL     1      -7.105  49.965 -21.777  1.00  0.00     0.060 C 
HETATM   16  C23 UNL     1      -6.150  50.507 -22.832  1.00  0.00     0.020 C 
HETATM   17  C24 UNL     1      -4.650  50.212 -22.537  1.00  0.00    -0.016 C 
HETATM   18  C25 UNL     1      -4.176  51.087 -21.354  1.00  0.00     0.020 C 
HETATM   19  C26 UNL     1      -3.825  50.502 -23.853  1.00  0.00     0.002 C 
HETATM   20  C27 UNL     1      -3.880  51.969 -24.336  1.00  0.00     0.007 C 
HETATM   21  C28 UNL     1      -2.514  52.641 -24.438  1.00  0.00     0.014 C 
HETATM   22  C29 UNL     1      -1.429  51.866 -25.250  1.00  0.00     0.003 C 
HETATM   23  C30 UNL     1      -0.070  52.380 -24.710  1.00  0.00     0.020 C 
ENDROOT
BRANCH   3  24
HETATM   24  O1  UNL     1      -2.121  53.295 -27.149  1.00  0.00    -0.377 OA
HETATM   25  H2  UNL     1      -2.113  53.353 -28.120  1.00  0.00     0.211 HD
ENDBRANCH   3  24
BRANCH  13  26
HETATM   26  O2  UNL     1      -9.020  48.300 -20.911  1.00  0.00    -0.271 OA
BRANCH  26  27
HETATM   27  C13 UNL     1      -9.748  47.566 -19.932  1.00  0.00     0.303 C 
BRANCH  27  28
HETATM   28  C14 UNL     1     -10.881  46.753 -20.557  1.00  0.00     0.244 C 
HETATM   29  O3  UNL     1     -10.724  46.084 -21.577  1.00  0.00    -0.271 OA
HETATM   30  N2  UNL     1     -12.079  46.799 -19.875  1.00  0.00    -0.350 N 
HETATM   31  H16 UNL     1     -12.203  47.602 -19.266  1.00  0.00     0.163 HD
BRANCH  30  32
HETATM   32  C15 UNL     1     -13.271  46.196 -20.432  1.00  0.00     0.225 C 
BRANCH  32  33
HETATM   33  C16 UNL     1     -13.726  46.947 -21.687  1.00  0.00     0.236 C 
HETATM   34  O4  UNL     1     -14.189  48.086 -21.650  1.00  0.00    -0.272 OA
HETATM   35  N3  UNL     1     -13.637  46.202 -22.843  1.00  0.00    -0.345 N 
HETATM   36  H19 UNL     1     -12.994  45.413 -22.847  1.00  0.00     0.163 HD
BRANCH  35  37
HETATM   37  C17 UNL     1     -13.913  46.773 -24.166  1.00  0.00     0.185 C 
BRANCH  37  38
HETATM   38  C18 UNL     1     -12.679  46.618 -25.069  1.00  0.00     0.163 C 
HETATM   39  O5  UNL     1     -11.946  45.645 -25.141  1.00  0.00    -0.648 OA
BRANCH  38  40
HETATM   40  O6  UNL     1     -12.414  47.722 -25.809  1.00  0.00    -0.775 OA
HETATM   41  H21 UNL     1     -11.626  47.465 -26.335  1.00  0.00     0.167 HD
ENDBRANCH  38  40
ENDBRANCH  37  38
BRANCH  37  42
HETATM   42  C19 UNL     1     -15.150  46.135 -24.837  1.00  0.00     0.010 C 
HETATM   43  C20 UNL     1     -16.473  46.743 -24.354  1.00  0.00     0.012 C 
HETATM   44  C21 UNL     1     -15.070  46.213 -26.365  1.00  0.00     0.012 C 
ENDBRANCH  37  42
ENDBRANCH  35  37
ENDBRANCH  32  33
ENDBRANCH  30  32
ENDBRANCH  27  28
ENDBRANCH  26  27
ENDBRANCH  13  26
TORSDOF 10
ENDMDL
