MODEL 1
REMARK minimizedAffinity -8.07390785
REMARK  7 active torsions:
REMARK  status: ('A' for Active; 'I' for Inactive)
REMARK    1  A    between atoms: N1_2  and  C2_3 
REMARK    2  A    between atoms: C2_3  and  C3_4 
REMARK    3  A    between atoms: C3_4  and  O1_5 
REMARK    4  A    between atoms: O1_5  and  C4_6 
REMARK    5  A    between atoms: C4_6  and  C5_8 
REMARK    6  A    between atoms: C19_23  and  C21_25 
REMARK    7  A    between atoms: C21_25  and  O5_27 
ROOT
HETATM    1  C5  UNL     1      -3.917   7.514  12.974  1.00  0.00     0.085 C 
HETATM    2  C6  UNL     1      -2.570   7.545  13.027  1.00  0.00    -0.070 C 
HETATM    3  C7  UNL     1      -1.839   8.857  12.857  1.00  0.00     0.035 C 
HETATM    4  C8  UNL     1      -0.897   8.767  11.657  1.00  0.00     0.010 C 
HETATM    5  C9  UNL     1       0.084   7.571  11.736  1.00  0.00     0.006 C 
HETATM    6  C10 UNL     1      -0.677   6.252  12.015  1.00  0.00     0.068 C 
HETATM    7  C11 UNL     1       0.312   5.109  12.212  1.00  0.00     0.132 C 
HETATM    8  O3  UNL     1      -0.002   4.056  12.769  1.00  0.00    -0.298 OA
HETATM    9  C12 UNL     1       1.711   5.303  11.670  1.00  0.00     0.085 C 
HETATM   10  C13 UNL     1       1.614   5.989  10.296  1.00  0.00     0.019 C 
HETATM   11  C14 UNL     1       1.078   7.470  10.489  1.00  0.00    -0.034 C 
HETATM   12  C15 UNL     1       0.368   7.912   9.185  1.00  0.00     0.016 C 
HETATM   13  C16 UNL     1       2.248   8.453  10.778  1.00  0.00     0.010 C 
HETATM   14  C17 UNL     1       3.425   8.328   9.825  1.00  0.00     0.002 C 
HETATM   15  C18 UNL     1       3.974   6.909   9.826  1.00  0.00     0.020 C 
HETATM   16  C19 UNL     1       2.926   5.848   9.427  1.00  0.00     0.049 C 
HETATM   17  C20 UNL     1       3.600   4.462   9.567  1.00  0.00     0.026 C 
HETATM   18  C23 UNL     1      -1.646   6.350  13.223  1.00  0.00     0.022 C 
HETATM   19  C24 UNL     1      -0.947   6.454  14.591  1.00  0.00     0.015 C 
ENDROOT
BRANCH   1  20
HETATM   20  C4  UNL     1      -4.815   6.341  13.037  1.00  0.00     0.283 C 
HETATM   21  O2  UNL     1      -5.990   6.433  13.354  1.00  0.00    -0.260 OA
BRANCH  20  22
HETATM   22  O1  UNL     1      -4.188   5.230  12.590  1.00  0.00    -0.316 OA
BRANCH  22  23
HETATM   23  C3  UNL     1      -5.003   4.050  12.494  1.00  0.00     0.209 C 
BRANCH  23  24
HETATM   24  C2  UNL     1      -4.433   3.046  11.479  1.00  0.00     0.295 C 
BRANCH  24  25
HETATM   25  N1  UNL     1      -5.434   2.394  10.616  1.00  0.00     0.081 N 
HETATM   26  C1  UNL     1      -5.972   1.172  11.199  1.00  0.00     0.306 C 
HETATM   27  H4  UNL     1      -4.987   2.162   9.730  1.00  0.00     0.315 HD
ENDBRANCH  24  25
ENDBRANCH  23  24
ENDBRANCH  22  23
ENDBRANCH  20  22
ENDBRANCH   1  20
BRANCH  16  28
HETATM   28  C21 UNL     1       2.626   5.952   7.917  1.00  0.00     0.267 C 
HETATM   29  O4  UNL     1       2.765   5.041   7.110  1.00  0.00    -0.264 OA
BRANCH  28  30
HETATM   30  O5  UNL     1       2.140   7.186   7.597  1.00  0.00    -0.326 OA
HETATM   31  C22 UNL     1       1.768   7.333   6.226  1.00  0.00     0.213 C 
ENDBRANCH  28  30
ENDBRANCH  16  28
TORSDOF 7
ENDMDL
MODEL 2
REMARK minimizedAffinity -7.89663887
REMARK  7 active torsions:
REMARK  status: ('A' for Active; 'I' for Inactive)
REMARK    1  A    between atoms: N1_2  and  C2_3 
REMARK    2  A    between atoms: C2_3  and  C3_4 
REMARK    3  A    between atoms: C3_4  and  O1_5 
REMARK    4  A    between atoms: O1_5  and  C4_6 
REMARK    5  A    between atoms: C4_6  and  C5_8 
REMARK    6  A    between atoms: C19_23  and  C21_25 
REMARK    7  A    between atoms: C21_25  and  O5_27 
ROOT
HETATM    1  C5  UNL     1      -9.456   7.160  14.428  1.00  0.00     0.085 C 
HETATM    2  C6  UNL     1      -8.273   6.626  14.792  1.00  0.00    -0.070 C 
HETATM    3  C7  UNL     1      -7.543   7.164  16.002  1.00  0.00     0.035 C 
HETATM    4  C8  UNL     1      -6.165   7.676  15.583  1.00  0.00     0.010 C 
HETATM    5  C9  UNL     1      -5.322   6.618  14.828  1.00  0.00     0.006 C 
HETATM    6  C10 UNL     1      -6.127   6.004  13.658  1.00  0.00     0.068 C 
HETATM    7  C11 UNL     1      -5.329   4.880  13.007  1.00  0.00     0.132 C 
HETATM    8  O3  UNL     1      -5.858   4.024  12.296  1.00  0.00    -0.298 OA
HETATM    9  C12 UNL     1      -3.835   4.865  13.244  1.00  0.00     0.085 C 
HETATM   10  C13 UNL     1      -3.311   6.309  13.163  1.00  0.00     0.019 C 
HETATM   11  C14 UNL     1      -3.876   7.141  14.391  1.00  0.00    -0.034 C 
HETATM   12  C15 UNL     1      -3.932   8.636  13.991  1.00  0.00     0.016 C 
HETATM   13  C16 UNL     1      -2.958   6.990  15.636  1.00  0.00     0.010 C 
HETATM   14  C17 UNL     1      -1.480   7.205  15.357  1.00  0.00     0.002 C 
HETATM   15  C18 UNL     1      -0.988   6.255  14.277  1.00  0.00     0.020 C 
HETATM   16  C19 UNL     1      -1.749   6.401  12.942  1.00  0.00     0.049 C 
HETATM   17  C20 UNL     1      -1.207   5.314  11.982  1.00  0.00     0.026 C 
HETATM   18  C23 UNL     1      -7.533   5.501  14.081  1.00  0.00     0.022 C 
HETATM   19  C24 UNL     1      -7.516   4.246  14.974  1.00  0.00     0.015 C 
ENDROOT
BRANCH   1  20
HETATM   20  C4  UNL     1     -10.288   6.839  13.248  1.00  0.00     0.283 C 
HETATM   21  O2  UNL     1      -9.822   6.345  12.234  1.00  0.00    -0.260 OA
BRANCH  20  22
HETATM   22  O1  UNL     1     -11.596   7.055  13.510  1.00  0.00    -0.316 OA
BRANCH  22  23
HETATM   23  C3  UNL     1     -12.016   8.430  13.499  1.00  0.00     0.209 C 
BRANCH  23  24
HETATM   24  C2  UNL     1     -11.675   9.119  12.169  1.00  0.00     0.295 C 
BRANCH  24  25
HETATM   25  N1  UNL     1     -12.681  10.083  11.688  1.00  0.00     0.081 N 
HETATM   26  C1  UNL     1     -13.834  10.184  12.573  1.00  0.00     0.306 C 
HETATM   27  H4  UNL     1     -13.002   9.777  10.770  1.00  0.00     0.315 HD
ENDBRANCH  24  25
ENDBRANCH  23  24
ENDBRANCH  22  23
ENDBRANCH  20  22
ENDBRANCH   1  20
BRANCH  16  28
HETATM   28  C21 UNL     1      -1.346   7.723  12.253  1.00  0.00     0.267 C 
HETATM   29  O4  UNL     1      -2.073   8.701  12.133  1.00  0.00    -0.264 OA
BRANCH  28  30
HETATM   30  O5  UNL     1      -0.050   7.679  11.829  1.00  0.00    -0.326 OA
HETATM   31  C22 UNL     1       0.744   8.789  12.252  1.00  0.00     0.213 C 
ENDBRANCH  28  30
ENDBRANCH  16  28
TORSDOF 7
ENDMDL
MODEL 3
REMARK minimizedAffinity -7.78531408
REMARK  7 active torsions:
REMARK  status: ('A' for Active; 'I' for Inactive)
REMARK    1  A    between atoms: N1_2  and  C2_3 
REMARK    2  A    between atoms: C2_3  and  C3_4 
REMARK    3  A    between atoms: C3_4  and  O1_5 
REMARK    4  A    between atoms: O1_5  and  C4_6 
REMARK    5  A    between atoms: C4_6  and  C5_8 
REMARK    6  A    between atoms: C19_23  and  C21_25 
REMARK    7  A    between atoms: C21_25  and  O5_27 
ROOT
HETATM    1  C5  UNL     1      -4.005   7.462  13.057  1.00  0.00     0.085 C 
HETATM    2  C6  UNL     1      -2.658   7.518  13.106  1.00  0.00    -0.070 C 
HETATM    3  C7  UNL     1      -1.953   8.844  12.941  1.00  0.00     0.035 C 
HETATM    4  C8  UNL     1      -1.012   8.778  11.737  1.00  0.00     0.010 C 
HETATM    5  C9  UNL     1      -0.009   7.600  11.807  1.00  0.00     0.006 C 
HETATM    6  C10 UNL     1      -0.744   6.266  12.082  1.00  0.00     0.068 C 
HETATM    7  C11 UNL     1       0.267   5.140  12.272  1.00  0.00     0.132 C 
HETATM    8  O3  UNL     1      -0.026   4.079  12.824  1.00  0.00    -0.298 OA
HETATM    9  C12 UNL     1       1.660   5.363  11.726  1.00  0.00     0.085 C 
HETATM   10  C13 UNL     1       1.546   6.054  10.356  1.00  0.00     0.019 C 
HETATM   11  C14 UNL     1       0.983   7.524  10.557  1.00  0.00    -0.034 C 
HETATM   12  C15 UNL     1       0.261   7.958   9.257  1.00  0.00     0.016 C 
HETATM   13  C16 UNL     1       2.135   8.527  10.848  1.00  0.00     0.010 C 
HETATM   14  C17 UNL     1       3.311   8.428   9.892  1.00  0.00     0.002 C 
HETATM   15  C18 UNL     1       3.887   7.020   9.884  1.00  0.00     0.020 C 
HETATM   16  C19 UNL     1       2.858   5.942   9.483  1.00  0.00     0.049 C 
HETATM   17  C20 UNL     1       3.558   4.568   9.614  1.00  0.00     0.026 C 
HETATM   18  C23 UNL     1      -1.712   6.340  13.294  1.00  0.00     0.022 C 
HETATM   19  C24 UNL     1      -1.011   6.450  14.660  1.00  0.00     0.015 C 
ENDROOT
BRANCH   1  20
HETATM   20  C4  UNL     1      -4.881   6.272  13.117  1.00  0.00     0.283 C 
HETATM   21  O2  UNL     1      -4.449   5.136  13.009  1.00  0.00    -0.260 OA
BRANCH  20  22
HETATM   22  O1  UNL     1      -6.150   6.624  13.421  1.00  0.00    -0.316 OA
BRANCH  22  23
HETATM   23  C3  UNL     1      -6.547   6.409  14.785  1.00  0.00     0.209 C 
BRANCH  23  24
HETATM   24  C2  UNL     1      -7.261   5.060  14.965  1.00  0.00     0.295 C 
BRANCH  24  25
HETATM   25  N1  UNL     1      -8.022   4.596  13.791  1.00  0.00     0.081 N 
HETATM   26  C1  UNL     1      -7.685   3.233  13.403  1.00  0.00     0.306 C 
HETATM   27  H4  UNL     1      -7.814   5.217  13.010  1.00  0.00     0.315 HD
ENDBRANCH  24  25
ENDBRANCH  23  24
ENDBRANCH  22  23
ENDBRANCH  20  22
ENDBRANCH   1  20
BRANCH  16  28
HETATM   28  C21 UNL     1       2.551   6.048   7.974  1.00  0.00     0.267 C 
HETATM   29  O4  UNL     1       2.658   5.129   7.171  1.00  0.00    -0.264 OA
BRANCH  28  30
HETATM   30  O5  UNL     1       2.100   7.294   7.650  1.00  0.00    -0.326 OA
HETATM   31  C22 UNL     1       1.756   7.455   6.274  1.00  0.00     0.213 C 
ENDBRANCH  28  30
ENDBRANCH  16  28
TORSDOF 7
ENDMDL
MODEL 4
REMARK minimizedAffinity -7.37215471
REMARK  7 active torsions:
REMARK  status: ('A' for Active; 'I' for Inactive)
REMARK    1  A    between atoms: N1_2  and  C2_3 
REMARK    2  A    between atoms: C2_3  and  C3_4 
REMARK    3  A    between atoms: C3_4  and  O1_5 
REMARK    4  A    between atoms: O1_5  and  C4_6 
REMARK    5  A    between atoms: C4_6  and  C5_8 
REMARK    6  A    between atoms: C19_23  and  C21_25 
REMARK    7  A    between atoms: C21_25  and  O5_27 
ROOT
HETATM    1  C5  UNL     1      -5.810   7.068  13.775  1.00  0.00     0.085 C 
HETATM    2  C6  UNL     1      -4.477   7.053  13.978  1.00  0.00    -0.070 C 
HETATM    3  C7  UNL     1      -3.769   8.312  14.424  1.00  0.00     0.035 C 
HETATM    4  C8  UNL     1      -2.705   8.694  13.395  1.00  0.00     0.010 C 
HETATM    5  C9  UNL     1      -1.705   7.550  13.093  1.00  0.00     0.006 C 
HETATM    6  C10 UNL     1      -2.454   6.242  12.742  1.00  0.00     0.068 C 
HETATM    7  C11 UNL     1      -1.459   5.099  12.571  1.00  0.00     0.132 C 
HETATM    8  O3  UNL     1      -1.800   3.916  12.625  1.00  0.00    -0.298 OA
HETATM    9  C12 UNL     1      -0.018   5.471  12.302  1.00  0.00     0.085 C 
HETATM   10  C13 UNL     1       0.009   6.650  11.314  1.00  0.00     0.019 C 
HETATM   11  C14 UNL     1      -0.584   7.939  12.023  1.00  0.00    -0.034 C 
HETATM   12  C15 UNL     1      -1.168   8.876  10.936  1.00  0.00     0.016 C 
HETATM   13  C16 UNL     1       0.521   8.706  12.802  1.00  0.00     0.010 C 
HETATM   14  C17 UNL     1       1.794   8.952  12.009  1.00  0.00     0.002 C 
HETATM   15  C18 UNL     1       2.379   7.643  11.503  1.00  0.00     0.020 C 
HETATM   16  C19 UNL     1       1.407   6.846  10.606  1.00  0.00     0.049 C 
HETATM   17  C20 UNL     1       2.102   5.509  10.251  1.00  0.00     0.026 C 
HETATM   18  C23 UNL     1      -3.545   5.865  13.778  1.00  0.00     0.022 C 
HETATM   19  C24 UNL     1      -2.995   5.403  15.140  1.00  0.00     0.015 C 
ENDROOT
BRANCH   1  20
HETATM   20  C4  UNL     1      -6.677   5.982  13.270  1.00  0.00     0.283 C 
HETATM   21  O2  UNL     1      -6.227   4.933  12.837  1.00  0.00    -0.260 OA
BRANCH  20  22
HETATM   22  O1  UNL     1      -7.981   6.274  13.472  1.00  0.00    -0.316 OA
BRANCH  22  23
HETATM   23  C3  UNL     1      -8.317   6.749  14.787  1.00  0.00     0.209 C 
BRANCH  23  24
HETATM   24  C2  UNL     1      -9.632   7.543  14.787  1.00  0.00     0.295 C 
BRANCH  24  25
HETATM   25  N1  UNL     1     -10.850   6.734  14.971  1.00  0.00     0.081 N 
HETATM   26  C1  UNL     1     -11.879   7.027  13.982  1.00  0.00     0.306 C 
HETATM   27  H4  UNL     1     -11.226   6.931  15.899  1.00  0.00     0.315 HD
ENDBRANCH  24  25
ENDBRANCH  23  24
ENDBRANCH  22  23
ENDBRANCH  20  22
ENDBRANCH   1  20
BRANCH  16  28
HETATM   28  C21 UNL     1       1.263   7.550   9.239  1.00  0.00     0.267 C 
HETATM   29  O4  UNL     1       0.299   8.223   8.896  1.00  0.00    -0.264 OA
BRANCH  28  30
HETATM   30  O5  UNL     1       2.374   7.362   8.470  1.00  0.00    -0.326 OA
HETATM   31  C22 UNL     1       2.917   8.563   7.921  1.00  0.00     0.213 C 
ENDBRANCH  28  30
ENDBRANCH  16  28
TORSDOF 7
ENDMDL
MODEL 5
REMARK minimizedAffinity -7.2664752
REMARK  7 active torsions:
REMARK  status: ('A' for Active; 'I' for Inactive)
REMARK    1  A    between atoms: N1_2  and  C2_3 
REMARK    2  A    between atoms: C2_3  and  C3_4 
REMARK    3  A    between atoms: C3_4  and  O1_5 
REMARK    4  A    between atoms: O1_5  and  C4_6 
REMARK    5  A    between atoms: C4_6  and  C5_8 
REMARK    6  A    between atoms: C19_23  and  C21_25 
REMARK    7  A    between atoms: C21_25  and  O5_27 
ROOT
HETATM    1  C5  UNL     1      -0.952   7.122  12.162  1.00  0.00     0.085 C 
HETATM    2  C6  UNL     1      -1.766   7.002  13.231  1.00  0.00    -0.070 C 
HETATM    3  C7  UNL     1      -2.063   5.634  13.801  1.00  0.00     0.035 C 
HETATM    4  C8  UNL     1      -3.569   5.375  13.752  1.00  0.00     0.010 C 
HETATM    5  C9  UNL     1      -4.404   6.479  14.447  1.00  0.00     0.006 C 
HETATM    6  C10 UNL     1      -4.007   7.881  13.923  1.00  0.00     0.068 C 
HETATM    7  C11 UNL     1      -4.748   8.960  14.705  1.00  0.00     0.132 C 
HETATM    8  O3  UNL     1      -4.373  10.134  14.724  1.00  0.00    -0.298 OA
HETATM    9  C12 UNL     1      -5.996   8.541  15.450  1.00  0.00     0.085 C 
HETATM   10  C13 UNL     1      -6.794   7.569  14.564  1.00  0.00     0.019 C 
HETATM   11  C14 UNL     1      -5.979   6.216  14.408  1.00  0.00    -0.034 C 
HETATM   12  C15 UNL     1      -6.389   5.544  13.073  1.00  0.00     0.016 C 
HETATM   13  C16 UNL     1      -6.292   5.240  15.576  1.00  0.00     0.010 C 
HETATM   14  C17 UNL     1      -7.773   5.054  15.861  1.00  0.00     0.002 C 
HETATM   15  C18 UNL     1      -8.440   6.389  16.156  1.00  0.00     0.020 C 
HETATM   16  C19 UNL     1      -8.302   7.408  15.004  1.00  0.00     0.049 C 
HETATM   17  C20 UNL     1      -8.939   8.734  15.486  1.00  0.00     0.026 C 
HETATM   18  C23 UNL     1      -2.477   8.136  13.957  1.00  0.00     0.022 C 
HETATM   19  C24 UNL     1      -1.891   8.294  15.372  1.00  0.00     0.015 C 
ENDROOT
BRANCH   1  20
HETATM   20  C4  UNL     1      -0.595   8.343  11.409  1.00  0.00     0.283 C 
HETATM   21  O2  UNL     1      -1.405   9.225  11.171  1.00  0.00    -0.260 OA
BRANCH  20  22
HETATM   22  O1  UNL     1       0.731   8.379  11.151  1.00  0.00    -0.316 OA
BRANCH  22  23
HETATM   23  C3  UNL     1       1.195   7.465  10.144  1.00  0.00     0.209 C 
BRANCH  23  24
HETATM   24  C2  UNL     1       1.317   8.144   8.771  1.00  0.00     0.295 C 
BRANCH  24  25
HETATM   25  N1  UNL     1       2.423   7.655   7.928  1.00  0.00     0.081 N 
HETATM   26  C1  UNL     1       2.630   6.218   8.046  1.00  0.00     0.306 C 
HETATM   27  H4  UNL     1       3.277   8.131   8.216  1.00  0.00     0.315 HD
ENDBRANCH  24  25
ENDBRANCH  23  24
ENDBRANCH  22  23
ENDBRANCH  20  22
ENDBRANCH   1  20
BRANCH  16  28
HETATM   28  C21 UNL     1      -9.201   6.984  13.823  1.00  0.00     0.267 C 
HETATM   29  O4  UNL     1      -8.896   6.159  12.971  1.00  0.00    -0.264 OA
BRANCH  28  30
HETATM   30  O5  UNL     1     -10.408   7.619  13.873  1.00  0.00    -0.326 OA
HETATM   31  C22 UNL     1     -11.213   7.441  12.707  1.00  0.00     0.213 C 
ENDBRANCH  28  30
ENDBRANCH  16  28
TORSDOF 7
ENDMDL
MODEL 6
REMARK minimizedAffinity -7.01425362
REMARK  7 active torsions:
REMARK  status: ('A' for Active; 'I' for Inactive)
REMARK    1  A    between atoms: N1_2  and  C2_3 
REMARK    2  A    between atoms: C2_3  and  C3_4 
REMARK    3  A    between atoms: C3_4  and  O1_5 
REMARK    4  A    between atoms: O1_5  and  C4_6 
REMARK    5  A    between atoms: C4_6  and  C5_8 
REMARK    6  A    between atoms: C19_23  and  C21_25 
REMARK    7  A    between atoms: C21_25  and  O5_27 
ROOT
HETATM    1  C5  UNL     1       5.536   7.120  10.791  1.00  0.00     0.085 C 
HETATM    2  C6  UNL     1       4.219   7.190  10.513  1.00  0.00    -0.070 C 
HETATM    3  C7  UNL     1       3.567   8.534  10.284  1.00  0.00     0.035 C 
HETATM    4  C8  UNL     1       2.449   8.742  11.306  1.00  0.00     0.010 C 
HETATM    5  C9  UNL     1       1.408   7.595  11.317  1.00  0.00     0.006 C 
HETATM    6  C10 UNL     1       2.106   6.219  11.446  1.00  0.00     0.068 C 
HETATM    7  C11 UNL     1       1.078   5.099  11.330  1.00  0.00     0.132 C 
HETATM    8  O3  UNL     1       1.397   3.939  11.063  1.00  0.00    -0.298 OA
HETATM    9  C12 UNL     1      -0.369   5.459  11.583  1.00  0.00     0.085 C 
HETATM   10  C13 UNL     1      -0.433   6.421  12.782  1.00  0.00     0.019 C 
HETATM   11  C14 UNL     1       0.231   7.805  12.377  1.00  0.00    -0.034 C 
HETATM   12  C15 UNL     1       0.764   8.490  13.660  1.00  0.00     0.016 C 
HETATM   13  C16 UNL     1      -0.807   8.745  11.702  1.00  0.00     0.010 C 
HETATM   14  C17 UNL     1      -2.121   8.873  12.454  1.00  0.00     0.002 C 
HETATM   15  C18 UNL     1      -2.765   7.510  12.657  1.00  0.00     0.020 C 
HETATM   16  C19 UNL     1      -1.869   6.522  13.434  1.00  0.00     0.049 C 
HETATM   17  C20 UNL     1      -2.612   5.165  13.476  1.00  0.00     0.026 C 
HETATM   18  C23 UNL     1       3.252   6.017  10.420  1.00  0.00     0.022 C 
HETATM   19  C24 UNL     1       2.778   5.849   8.964  1.00  0.00     0.015 C 
ENDROOT
BRANCH   1  20
HETATM   20  C4  UNL     1       6.347   5.928  11.121  1.00  0.00     0.283 C 
HETATM   21  O2  UNL     1       6.633   5.082  10.289  1.00  0.00    -0.260 OA
BRANCH  20  22
HETATM   22  O1  UNL     1       6.799   5.991  12.393  1.00  0.00    -0.316 OA
BRANCH  22  23
HETATM   23  C3  UNL     1       6.934   7.313  12.942  1.00  0.00     0.209 C 
BRANCH  23  24
HETATM   24  C2  UNL     1       6.344   7.404  14.358  1.00  0.00     0.295 C 
BRANCH  24  25
HETATM   25  N1  UNL     1       4.872   7.434  14.421  1.00  0.00     0.081 N 
HETATM   26  C1  UNL     1       4.350   8.732  14.829  1.00  0.00     0.306 C 
HETATM   27  H4  UNL     1       4.567   6.734  15.097  1.00  0.00     0.315 HD
ENDBRANCH  24  25
ENDBRANCH  23  24
ENDBRANCH  22  23
ENDBRANCH  20  22
ENDBRANCH   1  20
BRANCH  16  28
HETATM   28  C21 UNL     1      -1.795   6.938  14.918  1.00  0.00     0.267 C 
HETATM   29  O4  UNL     1      -0.806   6.822  15.631  1.00  0.00    -0.264 OA
BRANCH  28  30
HETATM   30  O5  UNL     1      -2.969   7.498  15.329  1.00  0.00    -0.326 OA
HETATM   31  C22 UNL     1      -2.812   8.642  16.171  1.00  0.00     0.213 C 
ENDBRANCH  28  30
ENDBRANCH  16  28
TORSDOF 7
ENDMDL
MODEL 7
REMARK minimizedAffinity -6.84980869
REMARK  7 active torsions:
REMARK  status: ('A' for Active; 'I' for Inactive)
REMARK    1  A    between atoms: N1_2  and  C2_3 
REMARK    2  A    between atoms: C2_3  and  C3_4 
REMARK    3  A    between atoms: C3_4  and  O1_5 
REMARK    4  A    between atoms: O1_5  and  C4_6 
REMARK    5  A    between atoms: C4_6  and  C5_8 
REMARK    6  A    between atoms: C19_23  and  C21_25 
REMARK    7  A    between atoms: C21_25  and  O5_27 
ROOT
HETATM    1  C5  UNL     1      -6.014   8.186  14.383  1.00  0.00     0.085 C 
HETATM    2  C6  UNL     1      -4.694   7.993  14.580  1.00  0.00    -0.070 C 
HETATM    3  C7  UNL     1      -3.799   9.169  14.894  1.00  0.00     0.035 C 
HETATM    4  C8  UNL     1      -2.710   9.283  13.827  1.00  0.00     0.010 C 
HETATM    5  C9  UNL     1      -1.897   7.978  13.638  1.00  0.00     0.006 C 
HETATM    6  C10 UNL     1      -2.839   6.768  13.424  1.00  0.00     0.068 C 
HETATM    7  C11 UNL     1      -2.029   5.478  13.365  1.00  0.00     0.132 C 
HETATM    8  O3  UNL     1      -2.541   4.371  13.540  1.00  0.00    -0.298 OA
HETATM    9  C12 UNL     1      -0.553   5.601  13.054  1.00  0.00     0.085 C 
HETATM   10  C13 UNL     1      -0.371   6.659  11.952  1.00  0.00     0.019 C 
HETATM   11  C14 UNL     1      -0.752   8.087  12.529  1.00  0.00    -0.034 C 
HETATM   12  C15 UNL     1      -1.211   8.988  11.355  1.00  0.00     0.016 C 
HETATM   13  C16 UNL     1       0.470   8.752  13.222  1.00  0.00     0.010 C 
HETATM   14  C17 UNL     1       1.749   8.725  12.403  1.00  0.00     0.002 C 
HETATM   15  C18 UNL     1       2.123   7.299  12.028  1.00  0.00     0.020 C 
HETATM   16  C19 UNL     1       1.027   6.572  11.221  1.00  0.00     0.049 C 
HETATM   17  C20 UNL     1       1.508   5.118  11.001  1.00  0.00     0.026 C 
HETATM   18  C23 UNL     1      -3.954   6.664  14.498  1.00  0.00     0.022 C 
HETATM   19  C24 UNL     1      -3.452   6.262  15.897  1.00  0.00     0.015 C 
ENDROOT
BRANCH   1  20
HETATM   20  C4  UNL     1      -7.043   7.198  13.994  1.00  0.00     0.283 C 
HETATM   21  O2  UNL     1      -8.163   7.195  14.477  1.00  0.00    -0.260 OA
BRANCH  20  22
HETATM   22  O1  UNL     1      -6.603   6.421  12.979  1.00  0.00    -0.316 OA
BRANCH  22  23
HETATM   23  C3  UNL     1      -7.154   5.094  12.926  1.00  0.00     0.209 C 
BRANCH  23  24
HETATM   24  C2  UNL     1      -6.054   4.022  12.890  1.00  0.00     0.295 C 
BRANCH  24  25
HETATM   25  N1  UNL     1      -6.024   3.199  11.668  1.00  0.00     0.081 N 
HETATM   26  C1  UNL     1      -4.755   2.508  11.483  1.00  0.00     0.306 C 
HETATM   27  H4  UNL     1      -6.180   3.812  10.868  1.00  0.00     0.315 HD
ENDBRANCH  24  25
ENDBRANCH  23  24
ENDBRANCH  22  23
ENDBRANCH  20  22
ENDBRANCH   1  20
BRANCH  16  28
HETATM   28  C21 UNL     1       0.962   7.150   9.791  1.00  0.00     0.267 C 
HETATM   29  O4  UNL     1      -0.027   7.671   9.290  1.00  0.00    -0.264 OA
BRANCH  28  30
HETATM   30  O5  UNL     1       2.169   7.047   9.165  1.00  0.00    -0.326 OA
HETATM   31  C22 UNL     1       2.490   8.154   8.321  1.00  0.00     0.213 C 
ENDBRANCH  28  30
ENDBRANCH  16  28
TORSDOF 7
ENDMDL
MODEL 8
REMARK minimizedAffinity -6.81974506
REMARK  7 active torsions:
REMARK  status: ('A' for Active; 'I' for Inactive)
REMARK    1  A    between atoms: N1_2  and  C2_3 
REMARK    2  A    between atoms: C2_3  and  C3_4 
REMARK    3  A    between atoms: C3_4  and  O1_5 
REMARK    4  A    between atoms: O1_5  and  C4_6 
REMARK    5  A    between atoms: C4_6  and  C5_8 
REMARK    6  A    between atoms: C19_23  and  C21_25 
REMARK    7  A    between atoms: C21_25  and  O5_27 
ROOT
HETATM    1  C5  UNL     1      -0.246   5.184  11.102  1.00  0.00     0.085 C 
HETATM    2  C6  UNL     1       0.454   6.334  11.040  1.00  0.00    -0.070 C 
HETATM    3  C7  UNL     1       1.129   6.738   9.749  1.00  0.00     0.035 C 
HETATM    4  C8  UNL     1       2.633   6.880   9.981  1.00  0.00     0.010 C 
HETATM    5  C9  UNL     1       2.987   7.847  11.138  1.00  0.00     0.006 C 
HETATM    6  C10 UNL     1       2.203   7.479  12.422  1.00  0.00     0.068 C 
HETATM    7  C11 UNL     1       2.468   8.513  13.510  1.00  0.00     0.132 C 
HETATM    8  O3  UNL     1       1.727   8.646  14.486  1.00  0.00    -0.298 OA
HETATM    9  C12 UNL     1       3.707   9.370  13.365  1.00  0.00     0.085 C 
HETATM   10  C13 UNL     1       4.861   8.482  12.869  1.00  0.00     0.019 C 
HETATM   11  C14 UNL     1       4.557   8.009  11.385  1.00  0.00    -0.034 C 
HETATM   12  C15 UNL     1       5.292   6.669  11.133  1.00  0.00     0.016 C 
HETATM   13  C16 UNL     1       5.060   9.056  10.352  1.00  0.00     0.010 C 
HETATM   14  C17 UNL     1       6.484   9.533  10.581  1.00  0.00     0.002 C 
HETATM   15  C18 UNL     1       6.642  10.117  11.977  1.00  0.00     0.020 C 
HETATM   16  C19 UNL     1       6.289   9.118  13.100  1.00  0.00     0.049 C 
HETATM   17  C20 UNL     1       6.404   9.879  14.443  1.00  0.00     0.026 C 
HETATM   18  C23 UNL     1       0.679   7.317  12.182  1.00  0.00     0.022 C 
HETATM   19  C24 UNL     1      -0.061   8.635  11.884  1.00  0.00     0.015 C 
ENDROOT
BRANCH   1  20
HETATM   20  C4  UNL     1      -0.911   4.571  12.272  1.00  0.00     0.283 C 
HETATM   21  O2  UNL     1      -0.916   5.099  13.372  1.00  0.00    -0.260 OA
BRANCH  20  22
HETATM   22  O1  UNL     1      -1.583   3.454  11.913  1.00  0.00    -0.316 OA
BRANCH  22  23
HETATM   23  C3  UNL     1      -2.390   3.566  10.729  1.00  0.00     0.209 C 
BRANCH  23  24
HETATM   24  C2  UNL     1      -3.888   3.435  11.047  1.00  0.00     0.295 C 
BRANCH  24  25
HETATM   25  N1  UNL     1      -4.370   2.053  11.224  1.00  0.00     0.081 N 
HETATM   26  C1  UNL     1      -5.823   1.956  11.209  1.00  0.00     0.306 C 
HETATM   27  H4  UNL     1      -4.031   1.710  12.122  1.00  0.00     0.315 HD
ENDBRANCH  24  25
ENDBRANCH  23  24
ENDBRANCH  22  23
ENDBRANCH  20  22
ENDBRANCH   1  20
BRANCH  16  28
HETATM   28  C21 UNL     1       7.387   8.038  13.203  1.00  0.00     0.267 C 
HETATM   29  O4  UNL     1       7.845   7.413  12.254  1.00  0.00    -0.264 OA
BRANCH  28  30
HETATM   30  O5  UNL     1       7.818   7.897  14.489  1.00  0.00    -0.326 OA
HETATM   31  C22 UNL     1       9.238   7.837  14.630  1.00  0.00     0.213 C 
ENDBRANCH  28  30
ENDBRANCH  16  28
TORSDOF 7
ENDMDL
MODEL 9
REMARK minimizedAffinity -6.77353954
REMARK  7 active torsions:
REMARK  status: ('A' for Active; 'I' for Inactive)
REMARK    1  A    between atoms: N1_2  and  C2_3 
REMARK    2  A    between atoms: C2_3  and  C3_4 
REMARK    3  A    between atoms: C3_4  and  O1_5 
REMARK    4  A    between atoms: O1_5  and  C4_6 
REMARK    5  A    between atoms: C4_6  and  C5_8 
REMARK    6  A    between atoms: C19_23  and  C21_25 
REMARK    7  A    between atoms: C21_25  and  O5_27 
ROOT
HETATM    1  C5  UNL     1       2.578   6.195  11.314  1.00  0.00     0.085 C 
HETATM    2  C6  UNL     1       1.715   6.754  12.187  1.00  0.00    -0.070 C 
HETATM    3  C7  UNL     1       1.671   6.269  13.618  1.00  0.00     0.035 C 
HETATM    4  C8  UNL     1       0.269   5.753  13.942  1.00  0.00     0.010 C 
HETATM    5  C9  UNL     1      -0.847   6.787  13.653  1.00  0.00     0.006 C 
HETATM    6  C10 UNL     1      -0.719   7.349  12.216  1.00  0.00     0.068 C 
HETATM    7  C11 UNL     1      -1.746   8.453  11.992  1.00  0.00     0.132 C 
HETATM    8  O3  UNL     1      -1.639   9.277  11.082  1.00  0.00    -0.298 OA
HETATM    9  C12 UNL     1      -2.937   8.490  12.925  1.00  0.00     0.085 C 
HETATM   10  C13 UNL     1      -3.417   7.048  13.164  1.00  0.00     0.019 C 
HETATM   11  C14 UNL     1      -2.317   6.261  13.993  1.00  0.00    -0.034 C 
HETATM   12  C15 UNL     1      -2.445   4.750  13.674  1.00  0.00     0.016 C 
HETATM   13  C16 UNL     1      -2.516   6.467  15.521  1.00  0.00     0.010 C 
HETATM   14  C17 UNL     1      -3.940   6.254  16.004  1.00  0.00     0.002 C 
HETATM   15  C18 UNL     1      -4.907   7.166  15.263  1.00  0.00     0.020 C 
HETATM   16  C19 UNL     1      -4.888   6.960  13.733  1.00  0.00     0.049 C 
HETATM   17  C20 UNL     1      -5.841   8.014  13.118  1.00  0.00     0.026 C 
HETATM   18  C23 UNL     1       0.709   7.856  11.883  1.00  0.00     0.022 C 
HETATM   19  C24 UNL     1       1.113   9.146  12.623  1.00  0.00     0.015 C 
ENDROOT
BRANCH   1  20
HETATM   20  C4  UNL     1       2.728   6.463   9.868  1.00  0.00     0.283 C 
HETATM   21  O2  UNL     1       1.950   6.024   9.037  1.00  0.00    -0.260 OA
BRANCH  20  22
HETATM   22  O1  UNL     1       3.740   7.330   9.642  1.00  0.00    -0.316 OA
BRANCH  22  23
HETATM   23  C3  UNL     1       4.655   7.519  10.735  1.00  0.00     0.209 C 
BRANCH  23  24
HETATM   24  C2  UNL     1       5.649   6.353  10.852  1.00  0.00     0.295 C 
BRANCH  24  25
HETATM   25  N1  UNL     1       6.156   6.099  12.213  1.00  0.00     0.081 N 
HETATM   26  C1  UNL     1       6.015   7.252  13.093  1.00  0.00     0.306 C 
HETATM   27  H4  UNL     1       7.145   5.861  12.145  1.00  0.00     0.315 HD
ENDBRANCH  24  25
ENDBRANCH  23  24
ENDBRANCH  22  23
ENDBRANCH  20  22
ENDBRANCH   1  20
BRANCH  16  28
HETATM   28  C21 UNL     1      -5.560   5.617  13.379  1.00  0.00     0.267 C 
HETATM   29  O4  UNL     1      -5.191   4.862  12.488  1.00  0.00    -0.264 OA
BRANCH  28  30
HETATM   30  O5  UNL     1      -6.601   5.352  14.219  1.00  0.00    -0.326 OA
HETATM   31  C22 UNL     1      -7.651   4.583  13.630  1.00  0.00     0.213 C 
ENDBRANCH  28  30
ENDBRANCH  16  28
TORSDOF 7
ENDMDL
