MODEL 1
REMARK minimizedAffinity -9.29695797
REMARK CNNscore 0.539110303
REMARK CNNaffinity 6.38126802
REMARK  12 active torsions:
REMARK  status: ('A' for Active; 'I' for Inactive)
REMARK    1  A    between atoms: C2_2  and  C31_37 
REMARK    2  A    between atoms: C3_3  and  C4_4 
REMARK    3  A    between atoms: C4_4  and  O1_5 
REMARK    4  A    between atoms: C4_4  and  C5_6 
REMARK    5  A    between atoms: C5_6  and  C6_7 
REMARK    6  A    between atoms: C6_7  and  C8_9 
REMARK    7  A    between atoms: C10_11  and  O2_12 
REMARK    8  A    between atoms: C11_13  and  C12_14 
REMARK    9  A    between atoms: C12_14  and  C13_15 
REMARK   10  A    between atoms: C13_15  and  O3_16 
REMARK   11  A    between atoms: C30_35  and  O6_36 
REMARK   12  A    between atoms: C31_37  and  O8_39 
ROOT
HETATM    1  C8  UNL     1      -5.468  48.355 -20.928  1.00  0.00     0.001 C 
HETATM    2  C9  UNL     1      -5.082  49.549 -20.022  1.00  0.00     0.038 C 
HETATM    3  C10 UNL     1      -4.296  50.540 -20.912  1.00  0.00     0.132 C 
HETATM    4  C11 UNL     1      -4.625  50.126 -22.382  1.00  0.00     0.022 C 
HETATM    5  C14 UNL     1      -3.636  50.452 -23.506  1.00  0.00    -0.029 C 
HETATM    6  C15 UNL     1      -3.579  49.683 -24.624  1.00  0.00     0.002 C 
HETATM    7  C16 UNL     1      -4.565  48.534 -24.734  1.00  0.00     0.157 C 
HETATM    8  O4  UNL     1      -4.932  48.128 -25.835  1.00  0.00    -0.293 OA
HETATM    9  C17 UNL     1      -5.114  47.877 -23.467  1.00  0.00     0.094 C 
HETATM   10  C18 UNL     1      -4.577  48.546 -22.195  1.00  0.00    -0.019 C 
HETATM   11  C19 UNL     1      -3.145  47.974 -21.951  1.00  0.00     0.017 C 
HETATM   12  C20 UNL     1      -2.612  49.975 -25.802  1.00  0.00    -0.008 C 
HETATM   13  C21 UNL     1      -2.123  48.648 -26.449  1.00  0.00     0.021 C 
HETATM   14  C22 UNL     1      -3.465  50.758 -26.836  1.00  0.00     0.022 C 
HETATM   15  C23 UNL     1      -2.670  51.432 -27.925  1.00  0.00     0.080 C 
HETATM   16  C24 UNL     1      -1.761  52.423 -27.261  1.00  0.00     0.135 C 
HETATM   17  O5  UNL     1      -1.866  53.624 -27.513  1.00  0.00    -0.297 OA
HETATM   18  C25 UNL     1      -0.692  51.854 -26.327  1.00  0.00     0.018 C 
HETATM   19  C26 UNL     1       0.008  53.035 -25.617  1.00  0.00     0.023 C 
HETATM   20  C27 UNL     1       0.389  51.224 -27.244  1.00  0.00     0.023 C 
HETATM   21  C28 UNL     1      -1.278  50.752 -25.341  1.00  0.00     0.016 C 
HETATM   22  C29 UNL     1      -1.292  51.119 -23.834  1.00  0.00     0.043 C 
HETATM   23  C30 UNL     1      -2.644  51.567 -23.307  1.00  0.00     0.149 C 
ENDROOT
BRANCH   1  24
HETATM   24  C6  UNL     1      -5.535  46.950 -20.248  1.00  0.00    -0.011 C 
HETATM   25  C7  UNL     1      -5.590  45.879 -21.353  1.00  0.00     0.010 C 
BRANCH  24  26
HETATM   26  C5  UNL     1      -6.716  46.754 -19.258  1.00  0.00     0.040 C 
BRANCH  26  27
HETATM   27  C4  UNL     1      -6.862  47.784 -18.119  1.00  0.00     0.142 C 
BRANCH  27  28
HETATM   28  C3  UNL     1      -8.089  47.622 -17.277  1.00  0.00     0.018 C 
HETATM   29  C2  UNL     1      -9.360  47.890 -17.643  1.00  0.00     0.010 C 
HETATM   30  C1  UNL     1      -9.797  48.371 -18.993  1.00  0.00     0.055 C 
BRANCH  29  31
HETATM   31  C31 UNL     1     -10.410  47.664 -16.617  1.00  0.00     0.171 C 
HETATM   32  O7  UNL     1     -11.614  47.620 -16.798  1.00  0.00    -0.646 OA
BRANCH  31  33
HETATM   33  O8  UNL     1      -9.892  47.509 -15.387  1.00  0.00    -0.773 OA
HETATM   34  H46 UNL     1     -10.684  47.371 -14.826  1.00  0.00     0.167 HD
ENDBRANCH  31  33
ENDBRANCH  29  31
ENDBRANCH  27  28
BRANCH  27  35
HETATM   35  O1  UNL     1      -5.739  47.735 -17.248  1.00  0.00    -0.392 OA
HETATM   36  H6  UNL     1      -4.958  48.001 -17.761  1.00  0.00     0.210 HD
ENDBRANCH  27  35
ENDBRANCH  26  27
ENDBRANCH  24  26
ENDBRANCH   1  24
BRANCH   3  37
HETATM   37  O2  UNL     1      -4.645  51.877 -20.609  1.00  0.00    -0.394 OA
HETATM   38  H17 UNL     1      -4.525  52.011 -19.651  1.00  0.00     0.210 HD
ENDBRANCH   3  37
BRANCH   4  39
HETATM   39  C12 UNL     1      -6.058  50.673 -22.762  1.00  0.00     0.043 C 
BRANCH  39  40
HETATM   40  C13 UNL     1      -7.204  49.667 -22.820  1.00  0.00     0.165 C 
BRANCH  40  41
HETATM   41  O3  UNL     1      -7.889  49.846 -24.059  1.00  0.00    -0.401 OA
HETATM   42  H22 UNL     1      -8.611  49.198 -24.076  1.00  0.00     0.209 HD
ENDBRANCH  40  41
ENDBRANCH  39  40
ENDBRANCH   4  39
BRANCH  23  43
HETATM   43  O6  UNL     1      -3.031  52.759 -23.962  1.00  0.00    -0.391 OA
HETATM   44  H45 UNL     1      -3.759  52.582 -24.571  1.00  0.00     0.210 HD
ENDBRANCH  23  43
TORSDOF 12
ENDMDL
MODEL 2
REMARK minimizedAffinity -7.83241081
REMARK CNNscore 0.517978072
REMARK CNNaffinity 6.1415081
REMARK  12 active torsions:
REMARK  status: ('A' for Active; 'I' for Inactive)
REMARK    1  A    between atoms: C2_2  and  C31_37 
REMARK    2  A    between atoms: C3_3  and  C4_4 
REMARK    3  A    between atoms: C4_4  and  O1_5 
REMARK    4  A    between atoms: C4_4  and  C5_6 
REMARK    5  A    between atoms: C5_6  and  C6_7 
REMARK    6  A    between atoms: C6_7  and  C8_9 
REMARK    7  A    between atoms: C10_11  and  O2_12 
REMARK    8  A    between atoms: C11_13  and  C12_14 
REMARK    9  A    between atoms: C12_14  and  C13_15 
REMARK   10  A    between atoms: C13_15  and  O3_16 
REMARK   11  A    between atoms: C30_35  and  O6_36 
REMARK   12  A    between atoms: C31_37  and  O8_39 
ROOT
HETATM    1  C8  UNL     1      -8.080  46.366 -33.239  1.00  0.00     0.001 C 
HETATM    2  C9  UNL     1      -7.352  47.729 -33.162  1.00  0.00     0.038 C 
HETATM    3  C10 UNL     1      -7.224  48.076 -31.660  1.00  0.00     0.132 C 
HETATM    4  C11 UNL     1      -7.469  46.732 -30.904  1.00  0.00     0.022 C 
HETATM    5  C14 UNL     1      -7.995  46.750 -29.465  1.00  0.00    -0.029 C 
HETATM    6  C15 UNL     1      -8.722  45.711 -28.978  1.00  0.00     0.002 C 
HETATM    7  C16 UNL     1      -8.938  44.520 -29.894  1.00  0.00     0.157 C 
HETATM    8  O4  UNL     1      -9.113  43.396 -29.427  1.00  0.00    -0.293 OA
HETATM    9  C17 UNL     1      -8.933  44.714 -31.410  1.00  0.00     0.094 C 
HETATM   10  C18 UNL     1      -8.657  46.171 -31.802  1.00  0.00    -0.019 C 
HETATM   11  C19 UNL     1     -10.002  46.947 -31.640  1.00  0.00     0.017 C 
HETATM   12  C20 UNL     1      -9.264  45.667 -27.525  1.00  0.00    -0.008 C 
HETATM   13  C21 UNL     1     -10.642  44.946 -27.478  1.00  0.00     0.021 C 
HETATM   14  C22 UNL     1      -8.226  44.824 -26.736  1.00  0.00     0.022 C 
HETATM   15  C23 UNL     1      -8.362  44.905 -25.236  1.00  0.00     0.080 C 
HETATM   16  C24 UNL     1      -8.155  46.339 -24.848  1.00  0.00     0.135 C 
HETATM   17  O5  UNL     1      -7.217  46.651 -24.113  1.00  0.00    -0.297 OA
HETATM   18  C25 UNL     1      -9.186  47.344 -25.363  1.00  0.00     0.018 C 
HETATM   19  C26 UNL     1      -8.694  48.765 -25.008  1.00  0.00     0.023 C 
HETATM   20  C27 UNL     1     -10.463  47.124 -24.511  1.00  0.00     0.023 C 
HETATM   21  C28 UNL     1      -9.517  47.131 -26.904  1.00  0.00     0.016 C 
HETATM   22  C29 UNL     1      -9.079  48.269 -27.863  1.00  0.00     0.043 C 
HETATM   23  C30 UNL     1      -7.799  47.988 -28.630  1.00  0.00     0.149 C 
ENDROOT
BRANCH   1  24
HETATM   24  C6  UNL     1      -9.011  46.135 -34.472  1.00  0.00    -0.011 C 
HETATM   25  C7  UNL     1      -8.906  44.656 -34.889  1.00  0.00     0.010 C 
BRANCH  24  26
HETATM   26  C5  UNL     1      -8.727  47.053 -35.692  1.00  0.00     0.040 C 
BRANCH  26  27
HETATM   27  C4  UNL     1      -9.339  46.640 -37.046  1.00  0.00     0.142 C 
BRANCH  27  28
HETATM   28  C3  UNL     1     -10.583  47.381 -37.427  1.00  0.00     0.018 C 
HETATM   29  C2  UNL     1     -11.845  47.086 -37.053  1.00  0.00     0.010 C 
HETATM   30  C1  UNL     1     -12.246  45.968 -36.140  1.00  0.00     0.055 C 
BRANCH  29  31
HETATM   31  C31 UNL     1     -12.919  47.967 -37.579  1.00  0.00     0.171 C 
HETATM   32  O7  UNL     1     -13.009  49.174 -37.444  1.00  0.00    -0.646 OA
BRANCH  31  33
HETATM   33  O8  UNL     1     -13.853  47.278 -38.256  1.00  0.00    -0.773 OA
HETATM   34  H46 UNL     1     -14.485  47.973 -38.538  1.00  0.00     0.167 HD
ENDBRANCH  31  33
ENDBRANCH  29  31
ENDBRANCH  27  28
BRANCH  27  35
HETATM   35  O1  UNL     1      -8.400  46.816 -38.098  1.00  0.00    -0.392 OA
HETATM   36  H6  UNL     1      -7.659  46.209 -37.935  1.00  0.00     0.210 HD
ENDBRANCH  27  35
ENDBRANCH  26  27
ENDBRANCH  24  26
ENDBRANCH   1  24
BRANCH   3  37
HETATM   37  O2  UNL     1      -5.968  48.662 -31.382  1.00  0.00    -0.394 OA
HETATM   38  H17 UNL     1      -5.847  49.419 -31.984  1.00  0.00     0.210 HD
ENDBRANCH   3  37
BRANCH   4  39
HETATM   39  C12 UNL     1      -6.156  45.854 -30.975  1.00  0.00     0.043 C 
BRANCH  39  40
HETATM   40  C13 UNL     1      -5.208  46.100 -32.147  1.00  0.00     0.165 C 
BRANCH  40  41
HETATM   41  O3  UNL     1      -3.961  46.551 -31.620  1.00  0.00    -0.401 OA
HETATM   42  H22 UNL     1      -3.374  46.700 -32.379  1.00  0.00     0.209 HD
ENDBRANCH  40  41
ENDBRANCH  39  40
ENDBRANCH   4  39
BRANCH  23  43
HETATM   43  O6  UNL     1      -6.724  47.862 -27.720  1.00  0.00    -0.391 OA
HETATM   44  H45 UNL     1      -6.439  46.940 -27.668  1.00  0.00     0.210 HD
ENDBRANCH  23  43
TORSDOF 12
ENDMDL
MODEL 3
REMARK minimizedAffinity -8.36113358
REMARK CNNscore 0.501216412
REMARK CNNaffinity 6.14137411
REMARK  12 active torsions:
REMARK  status: ('A' for Active; 'I' for Inactive)
REMARK    1  A    between atoms: C2_2  and  C31_37 
REMARK    2  A    between atoms: C3_3  and  C4_4 
REMARK    3  A    between atoms: C4_4  and  O1_5 
REMARK    4  A    between atoms: C4_4  and  C5_6 
REMARK    5  A    between atoms: C5_6  and  C6_7 
REMARK    6  A    between atoms: C6_7  and  C8_9 
REMARK    7  A    between atoms: C10_11  and  O2_12 
REMARK    8  A    between atoms: C11_13  and  C12_14 
REMARK    9  A    between atoms: C12_14  and  C13_15 
REMARK   10  A    between atoms: C13_15  and  O3_16 
REMARK   11  A    between atoms: C30_35  and  O6_36 
REMARK   12  A    between atoms: C31_37  and  O8_39 
ROOT
HETATM    1  C8  UNL     1       4.999  66.618 -36.990  1.00  0.00     0.001 C 
HETATM    2  C9  UNL     1       4.182  65.797 -35.964  1.00  0.00     0.038 C 
HETATM    3  C10 UNL     1       2.756  66.398 -35.957  1.00  0.00     0.132 C 
HETATM    4  C11 UNL     1       2.654  67.237 -37.270  1.00  0.00     0.022 C 
HETATM    5  C14 UNL     1       1.675  68.413 -37.351  1.00  0.00    -0.029 C 
HETATM    6  C15 UNL     1       1.917  69.462 -38.179  1.00  0.00     0.002 C 
HETATM    7  C16 UNL     1       3.157  69.390 -39.052  1.00  0.00     0.157 C 
HETATM    8  O4  UNL     1       3.198  69.983 -40.129  1.00  0.00    -0.293 OA
HETATM    9  C17 UNL     1       4.366  68.573 -38.595  1.00  0.00     0.094 C 
HETATM   10  C18 UNL     1       4.112  67.875 -37.254  1.00  0.00    -0.019 C 
HETATM   11  C19 UNL     1       4.329  68.944 -36.137  1.00  0.00     0.017 C 
HETATM   12  C20 UNL     1       0.954  70.670 -38.315  1.00  0.00    -0.008 C 
HETATM   13  C21 UNL     1       1.754  71.981 -38.561  1.00  0.00     0.021 C 
HETATM   14  C22 UNL     1       0.097  70.359 -39.571  1.00  0.00     0.022 C 
HETATM   15  C23 UNL     1      -1.125  71.227 -39.728  1.00  0.00     0.080 C 
HETATM   16  C24 UNL     1      -1.995  70.990 -38.529  1.00  0.00     0.135 C 
HETATM   17  O5  UNL     1      -3.127  70.525 -38.668  1.00  0.00    -0.297 OA
HETATM   18  C25 UNL     1      -1.422  71.407 -37.174  1.00  0.00     0.018 C 
HETATM   19  C26 UNL     1      -2.386  70.918 -36.070  1.00  0.00     0.023 C 
HETATM   20  C27 UNL     1      -1.500  72.956 -37.133  1.00  0.00     0.023 C 
HETATM   21  C28 UNL     1       0.085  70.933 -36.985  1.00  0.00     0.016 C 
HETATM   22  C29 UNL     1       0.335  69.866 -35.888  1.00  0.00     0.043 C 
HETATM   23  C30 UNL     1       0.498  68.450 -36.413  1.00  0.00     0.149 C 
ENDROOT
BRANCH   1  24
HETATM   24  C6  UNL     1       6.520  66.808 -36.686  1.00  0.00    -0.011 C 
HETATM   25  C7  UNL     1       7.284  66.824 -38.024  1.00  0.00     0.010 C 
BRANCH  24  26
HETATM   26  C5  UNL     1       7.138  65.749 -35.733  1.00  0.00     0.040 C 
BRANCH  26  27
HETATM   27  C4  UNL     1       7.730  64.479 -36.377  1.00  0.00     0.142 C 
BRANCH  27  28
HETATM   28  C3  UNL     1       8.532  63.618 -35.451  1.00  0.00     0.018 C 
HETATM   29  C2  UNL     1       8.060  62.874 -34.430  1.00  0.00     0.010 C 
HETATM   30  C1  UNL     1       6.619  62.733 -34.046  1.00  0.00     0.055 C 
BRANCH  29  31
HETATM   31  C31 UNL     1       9.062  62.114 -33.639  1.00  0.00     0.171 C 
HETATM   32  O7  UNL     1      10.275  62.212 -33.705  1.00  0.00    -0.646 OA
BRANCH  31  33
HETATM   33  O8  UNL     1       8.487  61.243 -32.794  1.00  0.00    -0.773 OA
HETATM   34  H46 UNL     1       9.253  60.822 -32.349  1.00  0.00     0.167 HD
ENDBRANCH  31  33
ENDBRANCH  29  31
ENDBRANCH  27  28
BRANCH  27  35
HETATM   35  O1  UNL     1       6.702  63.666 -36.929  1.00  0.00    -0.392 OA
HETATM   36  H6  UNL     1       6.285  64.170 -37.648  1.00  0.00     0.210 HD
ENDBRANCH  27  35
ENDBRANCH  26  27
ENDBRANCH  24  26
ENDBRANCH   1  24
BRANCH   3  37
HETATM   37  O2  UNL     1       1.779  65.379 -35.857  1.00  0.00    -0.394 OA
HETATM   38  H17 UNL     1       1.992  64.831 -35.080  1.00  0.00     0.210 HD
ENDBRANCH   3  37
BRANCH   4  39
HETATM   39  C12 UNL     1       2.407  66.259 -38.487  1.00  0.00     0.043 C 
BRANCH  39  40
HETATM   40  C13 UNL     1       1.136  66.462 -39.308  1.00  0.00     0.165 C 
BRANCH  40  41
HETATM   41  O3  UNL     1       1.484  66.383 -40.689  1.00  0.00    -0.401 OA
HETATM   42  H22 UNL     1       0.664  66.515 -41.192  1.00  0.00     0.209 HD
ENDBRANCH  40  41
ENDBRANCH  39  40
ENDBRANCH   4  39
BRANCH  23  43
HETATM   43  O6  UNL     1      -0.703  68.039 -37.035  1.00  0.00    -0.391 OA
HETATM   44  H45 UNL     1      -0.583  67.995 -37.993  1.00  0.00     0.210 HD
ENDBRANCH  23  43
TORSDOF 12
ENDMDL
MODEL 4
REMARK minimizedAffinity -9.08091736
REMARK CNNscore 0.487360507
REMARK CNNaffinity 6.39644432
REMARK  12 active torsions:
REMARK  status: ('A' for Active; 'I' for Inactive)
REMARK    1  A    between atoms: C2_2  and  C31_37 
REMARK    2  A    between atoms: C3_3  and  C4_4 
REMARK    3  A    between atoms: C4_4  and  O1_5 
REMARK    4  A    between atoms: C4_4  and  C5_6 
REMARK    5  A    between atoms: C5_6  and  C6_7 
REMARK    6  A    between atoms: C6_7  and  C8_9 
REMARK    7  A    between atoms: C10_11  and  O2_12 
REMARK    8  A    between atoms: C11_13  and  C12_14 
REMARK    9  A    between atoms: C12_14  and  C13_15 
REMARK   10  A    between atoms: C13_15  and  O3_16 
REMARK   11  A    between atoms: C30_35  and  O6_36 
REMARK   12  A    between atoms: C31_37  and  O8_39 
ROOT
HETATM    1  C8  UNL     1      -1.217  51.665 -22.916  1.00  0.00     0.001 C 
HETATM    2  C9  UNL     1      -1.579  50.961 -24.246  1.00  0.00     0.038 C 
HETATM    3  C10 UNL     1      -2.664  49.912 -23.907  1.00  0.00     0.132 C 
HETATM    4  C11 UNL     1      -3.219  50.329 -22.508  1.00  0.00     0.022 C 
HETATM    5  C14 UNL     1      -3.851  49.275 -21.593  1.00  0.00    -0.029 C 
HETATM    6  C15 UNL     1      -3.835  49.428 -20.243  1.00  0.00     0.002 C 
HETATM    7  C16 UNL     1      -3.221  50.704 -19.693  1.00  0.00     0.157 C 
HETATM    8  O4  UNL     1      -3.591  51.158 -18.611  1.00  0.00    -0.293 OA
HETATM    9  C17 UNL     1      -2.138  51.433 -20.487  1.00  0.00     0.094 C 
HETATM   10  C18 UNL     1      -1.843  50.742 -21.824  1.00  0.00    -0.019 C 
HETATM   11  C19 UNL     1      -0.897  49.539 -21.514  1.00  0.00     0.017 C 
HETATM   12  C20 UNL     1      -4.473  48.404 -19.269  1.00  0.00    -0.008 C 
HETATM   13  C21 UNL     1      -3.647  48.312 -17.954  1.00  0.00     0.021 C 
HETATM   14  C22 UNL     1      -5.876  48.983 -18.943  1.00  0.00     0.022 C 
HETATM   15  C23 UNL     1      -6.814  48.014 -18.269  1.00  0.00     0.080 C 
HETATM   16  C24 UNL     1      -7.018  46.865 -19.212  1.00  0.00     0.135 C 
HETATM   17  O5  UNL     1      -8.142  46.616 -19.650  1.00  0.00    -0.297 OA
HETATM   18  C25 UNL     1      -5.786  46.017 -19.535  1.00  0.00     0.018 C 
HETATM   19  C26 UNL     1      -6.168  45.015 -20.647  1.00  0.00     0.023 C 
HETATM   20  C27 UNL     1      -5.517  45.153 -18.275  1.00  0.00     0.023 C 
HETATM   21  C28 UNL     1      -4.511  46.909 -19.866  1.00  0.00     0.016 C 
HETATM   22  C29 UNL     1      -3.982  46.834 -21.321  1.00  0.00     0.043 C 
HETATM   23  C30 UNL     1      -4.387  48.005 -22.199  1.00  0.00     0.149 C 
ENDROOT
BRANCH   1  24
HETATM   24  C6  UNL     1       0.262  52.143 -22.754  1.00  0.00    -0.011 C 
HETATM   25  C7  UNL     1       0.765  51.700 -21.367  1.00  0.00     0.010 C 
BRANCH  24  26
HETATM   26  C5  UNL     1       0.483  53.669 -22.937  1.00  0.00     0.040 C 
BRANCH  26  27
HETATM   27  C4  UNL     1       1.040  54.145 -24.295  1.00  0.00     0.142 C 
BRANCH  27  28
HETATM   28  C3  UNL     1       0.117  53.952 -25.457  1.00  0.00     0.018 C 
HETATM   29  C2  UNL     1       0.249  53.049 -26.452  1.00  0.00     0.010 C 
HETATM   30  C1  UNL     1       1.339  52.028 -26.565  1.00  0.00     0.055 C 
BRANCH  29  31
HETATM   31  C31 UNL     1      -0.795  53.065 -27.508  1.00  0.00     0.171 C 
HETATM   32  O7  UNL     1      -1.927  53.506 -27.414  1.00  0.00    -0.646 OA
BRANCH  31  33
HETATM   33  O8  UNL     1      -0.366  52.506 -28.653  1.00  0.00    -0.773 OA
HETATM   34  H46 UNL     1      -1.143  52.585 -29.246  1.00  0.00     0.167 HD
ENDBRANCH  31  33
ENDBRANCH  29  31
ENDBRANCH  27  28
BRANCH  27  35
HETATM   35  O1  UNL     1       1.378  55.525 -24.245  1.00  0.00    -0.392 OA
HETATM   36  H6  UNL     1       2.098  55.627 -23.601  1.00  0.00     0.210 HD
ENDBRANCH  27  35
ENDBRANCH  26  27
ENDBRANCH  24  26
ENDBRANCH   1  24
BRANCH   3  37
HETATM   37  O2  UNL     1      -3.652  49.863 -24.918  1.00  0.00    -0.394 OA
HETATM   38  H17 UNL     1      -3.205  49.722 -25.772  1.00  0.00     0.210 HD
ENDBRANCH   3  37
BRANCH   4  39
HETATM   39  C12 UNL     1      -4.220  51.538 -22.692  1.00  0.00     0.043 C 
BRANCH  39  40
HETATM   40  C13 UNL     1      -5.079  51.557 -23.954  1.00  0.00     0.165 C 
BRANCH  40  41
HETATM   41  O3  UNL     1      -6.204  50.706 -23.736  1.00  0.00    -0.401 OA
HETATM   42  H22 UNL     1      -6.736  50.733 -24.548  1.00  0.00     0.209 HD
ENDBRANCH  40  41
ENDBRANCH  39  40
ENDBRANCH   4  39
BRANCH  23  43
HETATM   43  O6  UNL     1      -5.793  48.024 -22.338  1.00  0.00    -0.391 OA
HETATM   44  H45 UNL     1      -6.167  48.765 -21.843  1.00  0.00     0.210 HD
ENDBRANCH  23  43
TORSDOF 12
ENDMDL
MODEL 5
REMARK minimizedAffinity -8.3833456
REMARK CNNscore 0.469657212
REMARK CNNaffinity 6.50631332
REMARK  12 active torsions:
REMARK  status: ('A' for Active; 'I' for Inactive)
REMARK    1  A    between atoms: C2_2  and  C31_37 
REMARK    2  A    between atoms: C3_3  and  C4_4 
REMARK    3  A    between atoms: C4_4  and  O1_5 
REMARK    4  A    between atoms: C4_4  and  C5_6 
REMARK    5  A    between atoms: C5_6  and  C6_7 
REMARK    6  A    between atoms: C6_7  and  C8_9 
REMARK    7  A    between atoms: C10_11  and  O2_12 
REMARK    8  A    between atoms: C11_13  and  C12_14 
REMARK    9  A    between atoms: C12_14  and  C13_15 
REMARK   10  A    between atoms: C13_15  and  O3_16 
REMARK   11  A    between atoms: C30_35  and  O6_36 
REMARK   12  A    between atoms: C31_37  and  O8_39 
ROOT
HETATM    1  C8  UNL     1      -4.163  48.379 -21.819  1.00  0.00     0.001 C 
HETATM    2  C9  UNL     1      -4.750  46.996 -21.447  1.00  0.00     0.038 C 
HETATM    3  C10 UNL     1      -4.617  46.861 -19.912  1.00  0.00     0.132 C 
HETATM    4  C11 UNL     1      -4.378  48.312 -19.388  1.00  0.00     0.022 C 
HETATM    5  C14 UNL     1      -3.640  48.534 -18.063  1.00  0.00    -0.029 C 
HETATM    6  C15 UNL     1      -2.941  49.677 -17.841  1.00  0.00     0.002 C 
HETATM    7  C16 UNL     1      -2.971  50.736 -18.928  1.00  0.00     0.157 C 
HETATM    8  O4  UNL     1      -2.825  51.924 -18.647  1.00  0.00    -0.293 OA
HETATM    9  C17 UNL     1      -3.189  50.328 -20.385  1.00  0.00     0.094 C 
HETATM   10  C18 UNL     1      -3.393  48.815 -20.533  1.00  0.00    -0.019 C 
HETATM   11  C19 UNL     1      -1.977  48.159 -20.491  1.00  0.00     0.017 C 
HETATM   12  C20 UNL     1      -2.190  49.963 -16.515  1.00  0.00    -0.008 C 
HETATM   13  C21 UNL     1      -0.889  50.771 -16.786  1.00  0.00     0.021 C 
HETATM   14  C22 UNL     1      -3.165  50.841 -15.684  1.00  0.00     0.022 C 
HETATM   15  C23 UNL     1      -2.797  50.984 -14.229  1.00  0.00     0.080 C 
HETATM   16  C24 UNL     1      -2.817  49.610 -13.629  1.00  0.00     0.135 C 
HETATM   17  O5  UNL     1      -3.601  49.346 -12.716  1.00  0.00    -0.297 OA
HETATM   18  C25 UNL     1      -1.793  48.611 -14.168  1.00  0.00     0.018 C 
HETATM   19  C26 UNL     1      -2.099  47.226 -13.555  1.00  0.00     0.023 C 
HETATM   20  C27 UNL     1      -0.425  49.033 -13.571  1.00  0.00     0.023 C 
HETATM   21  C28 UNL     1      -1.719  48.622 -15.757  1.00  0.00     0.016 C 
HETATM   22  C29 UNL     1      -2.198  47.333 -16.474  1.00  0.00     0.043 C 
HETATM   23  C30 UNL     1      -3.599  47.418 -17.053  1.00  0.00     0.149 C 
ENDROOT
BRANCH   1  24
HETATM   24  C6  UNL     1      -3.453  48.492 -23.206  1.00  0.00    -0.011 C 
HETATM   25  C7  UNL     1      -2.162  49.311 -23.025  1.00  0.00     0.010 C 
BRANCH  24  26
HETATM   26  C5  UNL     1      -4.319  49.107 -24.339  1.00  0.00     0.040 C 
BRANCH  26  27
HETATM   27  C4  UNL     1      -4.305  50.642 -24.486  1.00  0.00     0.142 C 
BRANCH  27  28
HETATM   28  C3  UNL     1      -3.679  51.149 -25.747  1.00  0.00     0.018 C 
HETATM   29  C2  UNL     1      -2.652  52.019 -25.845  1.00  0.00     0.010 C 
HETATM   30  C1  UNL     1      -1.906  52.623 -24.695  1.00  0.00     0.055 C 
BRANCH  29  31
HETATM   31  C31 UNL     1      -2.218  52.385 -27.218  1.00  0.00     0.171 C 
HETATM   32  O7  UNL     1      -1.977  53.503 -27.637  1.00  0.00    -0.646 OA
BRANCH  31  33
HETATM   33  O8  UNL     1      -2.112  51.311 -28.019  1.00  0.00    -0.773 OA
HETATM   34  H46 UNL     1      -1.824  51.696 -28.874  1.00  0.00     0.167 HD
ENDBRANCH  31  33
ENDBRANCH  29  31
ENDBRANCH  27  28
BRANCH  27  35
HETATM   35  O1  UNL     1      -5.626  51.166 -24.426  1.00  0.00    -0.392 OA
HETATM   36  H6  UNL     1      -5.976  50.978 -23.540  1.00  0.00     0.210 HD
ENDBRANCH  27  35
ENDBRANCH  26  27
ENDBRANCH  24  26
ENDBRANCH   1  24
BRANCH   3  37
HETATM   37  O2  UNL     1      -5.761  46.239 -19.359  1.00  0.00    -0.394 OA
HETATM   38  H17 UNL     1      -5.906  45.398 -19.829  1.00  0.00     0.210 HD
ENDBRANCH   3  37
BRANCH   4  39
HETATM   39  C12 UNL     1      -5.758  49.082 -19.360  1.00  0.00     0.043 C 
BRANCH  39  40
HETATM   40  C13 UNL     1      -6.507  49.235 -20.681  1.00  0.00     0.165 C 
BRANCH  40  41
HETATM   41  O3  UNL     1      -6.658  50.628 -20.946  1.00  0.00    -0.401 OA
HETATM   42  H22 UNL     1      -7.135  50.703 -21.788  1.00  0.00     0.209 HD
ENDBRANCH  40  41
ENDBRANCH  39  40
ENDBRANCH   4  39
BRANCH  23  43
HETATM   43  O6  UNL     1      -4.529  47.602 -16.005  1.00  0.00    -0.391 OA
HETATM   44  H45 UNL     1      -4.883  48.501 -16.029  1.00  0.00     0.210 HD
ENDBRANCH  23  43
TORSDOF 12
ENDMDL
MODEL 6
REMARK minimizedAffinity -7.56258106
REMARK CNNscore 0.458789468
REMARK CNNaffinity 5.9235692
REMARK  12 active torsions:
REMARK  status: ('A' for Active; 'I' for Inactive)
REMARK    1  A    between atoms: C2_2  and  C31_37 
REMARK    2  A    between atoms: C3_3  and  C4_4 
REMARK    3  A    between atoms: C4_4  and  O1_5 
REMARK    4  A    between atoms: C4_4  and  C5_6 
REMARK    5  A    between atoms: C5_6  and  C6_7 
REMARK    6  A    between atoms: C6_7  and  C8_9 
REMARK    7  A    between atoms: C10_11  and  O2_12 
REMARK    8  A    between atoms: C11_13  and  C12_14 
REMARK    9  A    between atoms: C12_14  and  C13_15 
REMARK   10  A    between atoms: C13_15  and  O3_16 
REMARK   11  A    between atoms: C30_35  and  O6_36 
REMARK   12  A    between atoms: C31_37  and  O8_39 
ROOT
HETATM    1  C8  UNL     1      -9.277  46.692 -28.486  1.00  0.00     0.001 C 
HETATM    2  C9  UNL     1     -10.020  48.049 -28.457  1.00  0.00     0.038 C 
HETATM    3  C10 UNL     1     -11.484  47.741 -28.063  1.00  0.00     0.132 C 
HETATM    4  C11 UNL     1     -11.453  46.306 -27.448  1.00  0.00     0.022 C 
HETATM    5  C14 UNL     1     -12.713  45.434 -27.479  1.00  0.00    -0.029 C 
HETATM    6  C15 UNL     1     -12.619  44.079 -27.486  1.00  0.00     0.002 C 
HETATM    7  C16 UNL     1     -11.229  43.474 -27.405  1.00  0.00     0.157 C 
HETATM    8  O4  UNL     1     -11.060  42.359 -26.914  1.00  0.00    -0.293 OA
HETATM    9  C17 UNL     1     -10.026  44.256 -27.933  1.00  0.00     0.094 C 
HETATM   10  C18 UNL     1     -10.427  45.637 -28.465  1.00  0.00    -0.019 C 
HETATM   11  C19 UNL     1     -11.000  45.421 -29.901  1.00  0.00     0.017 C 
HETATM   12  C20 UNL     1     -13.859  43.147 -27.499  1.00  0.00    -0.008 C 
HETATM   13  C21 UNL     1     -13.568  41.863 -28.328  1.00  0.00     0.021 C 
HETATM   14  C22 UNL     1     -14.077  42.750 -26.014  1.00  0.00     0.022 C 
HETATM   15  C23 UNL     1     -15.409  42.107 -25.725  1.00  0.00     0.080 C 
HETATM   16  C24 UNL     1     -16.471  43.107 -26.077  1.00  0.00     0.135 C 
HETATM   17  O5  UNL     1     -17.236  43.528 -25.209  1.00  0.00    -0.297 OA
HETATM   18  C25 UNL     1     -16.571  43.511 -27.549  1.00  0.00     0.018 C 
HETATM   19  C26 UNL     1     -17.590  44.667 -27.664  1.00  0.00     0.023 C 
HETATM   20  C27 UNL     1     -17.226  42.310 -28.280  1.00  0.00     0.023 C 
HETATM   21  C28 UNL     1     -15.148  43.826 -28.185  1.00  0.00     0.016 C 
HETATM   22  C29 UNL     1     -14.895  45.298 -28.604  1.00  0.00     0.043 C 
HETATM   23  C30 UNL     1     -14.057  46.096 -27.621  1.00  0.00     0.149 C 
ENDROOT
BRANCH   1  24
HETATM   24  C6  UNL     1      -8.125  46.544 -29.531  1.00  0.00    -0.011 C 
HETATM   25  C7  UNL     1      -7.086  45.555 -28.970  1.00  0.00     0.010 C 
BRANCH  24  26
HETATM   26  C5  UNL     1      -7.431  47.872 -29.938  1.00  0.00     0.040 C 
BRANCH  26  27
HETATM   27  C4  UNL     1      -5.903  47.838 -30.142  1.00  0.00     0.142 C 
BRANCH  27  28
HETATM   28  C3  UNL     1      -5.449  48.068 -31.549  1.00  0.00     0.018 C 
HETATM   29  C2  UNL     1      -4.828  47.180 -32.352  1.00  0.00     0.010 C 
HETATM   30  C1  UNL     1      -4.501  45.762 -31.998  1.00  0.00     0.055 C 
BRANCH  29  31
HETATM   31  C31 UNL     1      -4.460  47.654 -33.711  1.00  0.00     0.171 C 
HETATM   32  O7  UNL     1      -3.367  48.048 -34.080  1.00  0.00    -0.646 OA
BRANCH  31  33
HETATM   33  O8  UNL     1      -5.502  47.621 -34.559  1.00  0.00    -0.773 OA
HETATM   34  H46 UNL     1      -5.119  47.954 -35.398  1.00  0.00     0.167 HD
ENDBRANCH  31  33
ENDBRANCH  29  31
ENDBRANCH  27  28
BRANCH  27  35
HETATM   35  O1  UNL     1      -5.264  48.811 -29.325  1.00  0.00    -0.392 OA
HETATM   36  H6  UNL     1      -5.423  48.566 -28.398  1.00  0.00     0.210 HD
ENDBRANCH  27  35
ENDBRANCH  26  27
ENDBRANCH  24  26
ENDBRANCH   1  24
BRANCH   3  37
HETATM   37  O2  UNL     1     -11.988  48.725 -27.182  1.00  0.00    -0.394 OA
HETATM   38  H17 UNL     1     -11.855  49.597 -27.594  1.00  0.00     0.210 HD
ENDBRANCH   3  37
BRANCH   4  39
HETATM   39  C12 UNL     1     -10.906  46.393 -25.967  1.00  0.00     0.043 C 
BRANCH  39  40
HETATM   40  C13 UNL     1     -11.904  46.170 -24.834  1.00  0.00     0.165 C 
BRANCH  40  41
HETATM   41  O3  UNL     1     -12.660  47.368 -24.667  1.00  0.00    -0.401 OA
HETATM   42  H22 UNL     1     -13.287  47.205 -23.944  1.00  0.00     0.209 HD
ENDBRANCH  40  41
ENDBRANCH  39  40
ENDBRANCH   4  39
BRANCH  23  43
HETATM   43  O6  UNL     1     -14.745  46.195 -26.390  1.00  0.00    -0.391 OA
HETATM   44  H45 UNL     1     -14.310  45.649 -25.722  1.00  0.00     0.210 HD
ENDBRANCH  23  43
TORSDOF 12
ENDMDL
MODEL 7
REMARK minimizedAffinity -7.8711257
REMARK CNNscore 0.45513016
REMARK CNNaffinity 5.79580498
REMARK  12 active torsions:
REMARK  status: ('A' for Active; 'I' for Inactive)
REMARK    1  A    between atoms: C2_2  and  C31_37 
REMARK    2  A    between atoms: C3_3  and  C4_4 
REMARK    3  A    between atoms: C4_4  and  O1_5 
REMARK    4  A    between atoms: C4_4  and  C5_6 
REMARK    5  A    between atoms: C5_6  and  C6_7 
REMARK    6  A    between atoms: C6_7  and  C8_9 
REMARK    7  A    between atoms: C10_11  and  O2_12 
REMARK    8  A    between atoms: C11_13  and  C12_14 
REMARK    9  A    between atoms: C12_14  and  C13_15 
REMARK   10  A    between atoms: C13_15  and  O3_16 
REMARK   11  A    between atoms: C30_35  and  O6_36 
REMARK   12  A    between atoms: C31_37  and  O8_39 
ROOT
HETATM    1  C8  UNL     1       6.221  66.881 -35.418  1.00  0.00     0.001 C 
HETATM    2  C9  UNL     1       7.193  67.851 -36.131  1.00  0.00     0.038 C 
HETATM    3  C10 UNL     1       6.383  68.536 -37.258  1.00  0.00     0.132 C 
HETATM    4  C11 UNL     1       4.884  68.290 -36.896  1.00  0.00     0.022 C 
HETATM    5  C14 UNL     1       3.823  68.286 -38.001  1.00  0.00    -0.029 C 
HETATM    6  C15 UNL     1       2.678  67.568 -37.861  1.00  0.00     0.002 C 
HETATM    7  C16 UNL     1       2.474  66.827 -36.552  1.00  0.00     0.157 C 
HETATM    8  O4  UNL     1       1.340  66.594 -36.136  1.00  0.00    -0.293 OA
HETATM    9  C17 UNL     1       3.684  66.368 -35.739  1.00  0.00     0.094 C 
HETATM   10  C18 UNL     1       5.007  66.785 -36.394  1.00  0.00    -0.019 C 
HETATM   11  C19 UNL     1       5.296  65.754 -37.531  1.00  0.00     0.017 C 
HETATM   12  C20 UNL     1       1.562  67.540 -38.938  1.00  0.00    -0.008 C 
HETATM   13  C21 UNL     1       0.884  66.141 -38.986  1.00  0.00     0.021 C 
HETATM   14  C22 UNL     1       0.521  68.589 -38.463  1.00  0.00     0.022 C 
HETATM   15  C23 UNL     1      -0.500  68.976 -39.503  1.00  0.00     0.080 C 
HETATM   16  C24 UNL     1       0.247  69.583 -40.654  1.00  0.00     0.135 C 
HETATM   17  O5  UNL     1       0.040  70.753 -40.977  1.00  0.00    -0.297 OA
HETATM   18  C25 UNL     1       1.208  68.663 -41.409  1.00  0.00     0.018 C 
HETATM   19  C26 UNL     1       1.998  69.519 -42.424  1.00  0.00     0.023 C 
HETATM   20  C27 UNL     1       0.319  67.723 -42.265  1.00  0.00     0.023 C 
HETATM   21  C28 UNL     1       2.118  67.806 -40.426  1.00  0.00     0.016 C 
HETATM   22  C29 UNL     1       3.636  68.121 -40.448  1.00  0.00     0.043 C 
HETATM   23  C30 UNL     1       4.115  68.991 -39.300  1.00  0.00     0.149 C 
ENDROOT
BRANCH   1  24
HETATM   24  C6  UNL     1       6.839  65.568 -34.838  1.00  0.00    -0.011 C 
HETATM   25  C7  UNL     1       7.180  65.806 -33.355  1.00  0.00     0.010 C 
BRANCH  24  26
HETATM   26  C5  UNL     1       8.088  65.040 -35.594  1.00  0.00     0.040 C 
BRANCH  26  27
HETATM   27  C4  UNL     1       8.487  63.568 -35.360  1.00  0.00     0.142 C 
BRANCH  27  28
HETATM   28  C3  UNL     1       9.156  63.298 -34.048  1.00  0.00     0.018 C 
HETATM   29  C2  UNL     1      10.479  63.148 -33.833  1.00  0.00     0.010 C 
HETATM   30  C1  UNL     1      11.551  63.264 -34.873  1.00  0.00     0.055 C 
BRANCH  29  31
HETATM   31  C31 UNL     1      10.900  62.868 -32.436  1.00  0.00     0.171 C 
HETATM   32  O7  UNL     1      11.046  63.678 -31.537  1.00  0.00    -0.646 OA
BRANCH  31  33
HETATM   33  O8  UNL     1      11.131  61.560 -32.230  1.00  0.00    -0.773 OA
HETATM   34  H46 UNL     1      11.395  61.525 -31.286  1.00  0.00     0.167 HD
ENDBRANCH  31  33
ENDBRANCH  29  31
ENDBRANCH  27  28
BRANCH  27  35
HETATM   35  O1  UNL     1       7.349  62.719 -35.439  1.00  0.00    -0.392 OA
HETATM   36  H6  UNL     1       7.008  62.770 -36.348  1.00  0.00     0.210 HD
ENDBRANCH  27  35
ENDBRANCH  26  27
ENDBRANCH  24  26
ENDBRANCH   1  24
BRANCH   3  37
HETATM   37  O2  UNL     1       6.724  69.904 -37.366  1.00  0.00    -0.394 OA
HETATM   38  H17 UNL     1       7.691  69.968 -37.466  1.00  0.00     0.210 HD
ENDBRANCH   3  37
BRANCH   4  39
HETATM   39  C12 UNL     1       4.457  69.302 -35.758  1.00  0.00     0.043 C 
BRANCH  39  40
HETATM   40  C13 UNL     1       4.875  70.761 -35.921  1.00  0.00     0.165 C 
BRANCH  40  41
HETATM   41  O3  UNL     1       3.936  71.397 -36.787  1.00  0.00    -0.401 OA
HETATM   42  H22 UNL     1       4.219  72.321 -36.876  1.00  0.00     0.209 HD
ENDBRANCH  40  41
ENDBRANCH  39  40
ENDBRANCH   4  39
BRANCH  23  43
HETATM   43  O6  UNL     1       3.492  70.257 -39.379  1.00  0.00    -0.391 OA
HETATM   44  H45 UNL     1       2.841  70.353 -38.671  1.00  0.00     0.210 HD
ENDBRANCH  23  43
TORSDOF 12
ENDMDL
MODEL 8
REMARK minimizedAffinity -8.83978558
REMARK CNNscore 0.426422447
REMARK CNNaffinity 6.30053139
REMARK  12 active torsions:
REMARK  status: ('A' for Active; 'I' for Inactive)
REMARK    1  A    between atoms: C2_2  and  C31_37 
REMARK    2  A    between atoms: C3_3  and  C4_4 
REMARK    3  A    between atoms: C4_4  and  O1_5 
REMARK    4  A    between atoms: C4_4  and  C5_6 
REMARK    5  A    between atoms: C5_6  and  C6_7 
REMARK    6  A    between atoms: C6_7  and  C8_9 
REMARK    7  A    between atoms: C10_11  and  O2_12 
REMARK    8  A    between atoms: C11_13  and  C12_14 
REMARK    9  A    between atoms: C12_14  and  C13_15 
REMARK   10  A    between atoms: C13_15  and  O3_16 
REMARK   11  A    between atoms: C30_35  and  O6_36 
REMARK   12  A    between atoms: C31_37  and  O8_39 
ROOT
HETATM    1  C8  UNL     1      -5.632  48.334 -20.997  1.00  0.00     0.001 C 
HETATM    2  C9  UNL     1      -5.219  49.492 -20.057  1.00  0.00     0.038 C 
HETATM    3  C10 UNL     1      -4.385  50.475 -20.912  1.00  0.00     0.132 C 
HETATM    4  C11 UNL     1      -4.703  50.106 -22.395  1.00  0.00     0.022 C 
HETATM    5  C14 UNL     1      -3.685  50.423 -23.496  1.00  0.00    -0.029 C 
HETATM    6  C15 UNL     1      -3.637  49.678 -24.631  1.00  0.00     0.002 C 
HETATM    7  C16 UNL     1      -4.661  48.568 -24.783  1.00  0.00     0.157 C 
HETATM    8  O4  UNL     1      -5.023  48.200 -25.899  1.00  0.00    -0.293 OA
HETATM    9  C17 UNL     1      -5.253  47.902 -23.541  1.00  0.00     0.094 C 
HETATM   10  C18 UNL     1      -4.714  48.522 -22.245  1.00  0.00    -0.019 C 
HETATM   11  C19 UNL     1      -3.307  47.894 -21.992  1.00  0.00     0.017 C 
HETATM   12  C20 UNL     1      -2.641  49.963 -25.786  1.00  0.00    -0.008 C 
HETATM   13  C21 UNL     1      -2.188  48.634 -26.457  1.00  0.00     0.021 C 
HETATM   14  C22 UNL     1      -3.449  50.798 -26.815  1.00  0.00     0.022 C 
HETATM   15  C23 UNL     1      -2.613  51.468 -27.875  1.00  0.00     0.080 C 
HETATM   16  C24 UNL     1      -1.680  52.412 -27.174  1.00  0.00     0.135 C 
HETATM   17  O5  UNL     1      -1.739  53.621 -27.400  1.00  0.00    -0.297 OA
HETATM   18  C25 UNL     1      -0.647  51.784 -26.237  1.00  0.00     0.018 C 
HETATM   19  C26 UNL     1       0.081  52.922 -25.489  1.00  0.00     0.023 C 
HETATM   20  C27 UNL     1       0.426  51.137 -27.151  1.00  0.00     0.023 C 
HETATM   21  C28 UNL     1      -1.289  50.681 -25.286  1.00  0.00     0.016 C 
HETATM   22  C29 UNL     1      -1.314  51.013 -23.772  1.00  0.00     0.043 C 
HETATM   23  C30 UNL     1      -2.658  51.497 -23.256  1.00  0.00     0.149 C 
ENDROOT
BRANCH   1  24
HETATM   24  C6  UNL     1      -5.759  46.917 -20.351  1.00  0.00    -0.011 C 
HETATM   25  C7  UNL     1      -6.265  47.086 -18.906  1.00  0.00     0.010 C 
BRANCH  24  26
HETATM   26  C5  UNL     1      -4.458  46.069 -20.363  1.00  0.00     0.040 C 
BRANCH  26  27
HETATM   27  C4  UNL     1      -4.011  45.441 -19.027  1.00  0.00     0.142 C 
BRANCH  27  28
HETATM   28  C3  UNL     1      -3.736  43.971 -19.083  1.00  0.00     0.018 C 
HETATM   29  C2  UNL     1      -4.366  43.005 -18.381  1.00  0.00     0.010 C 
HETATM   30  C1  UNL     1      -5.501  43.218 -17.428  1.00  0.00     0.055 C 
BRANCH  29  31
HETATM   31  C31 UNL     1      -3.899  41.612 -18.599  1.00  0.00     0.171 C 
HETATM   32  O7  UNL     1      -4.441  40.589 -18.218  1.00  0.00    -0.646 OA
BRANCH  31  33
HETATM   33  O8  UNL     1      -2.747  41.565 -19.289  1.00  0.00    -0.773 OA
HETATM   34  H46 UNL     1      -2.563  40.604 -19.354  1.00  0.00     0.167 HD
ENDBRANCH  31  33
ENDBRANCH  29  31
ENDBRANCH  27  28
BRANCH  27  35
HETATM   35  O1  UNL     1      -2.835  46.075 -18.541  1.00  0.00    -0.392 OA
HETATM   36  H6  UNL     1      -3.058  47.001 -18.348  1.00  0.00     0.210 HD
ENDBRANCH  27  35
ENDBRANCH  26  27
ENDBRANCH  24  26
ENDBRANCH   1  24
BRANCH   3  37
HETATM   37  O2  UNL     1      -4.691  51.816 -20.582  1.00  0.00    -0.394 OA
HETATM   38  H17 UNL     1      -4.583  51.924 -19.620  1.00  0.00     0.210 HD
ENDBRANCH   3  37
BRANCH   4  39
HETATM   39  C12 UNL     1      -6.110  50.713 -22.785  1.00  0.00     0.043 C 
BRANCH  39  40
HETATM   40  C13 UNL     1      -7.294  49.752 -22.864  1.00  0.00     0.165 C 
BRANCH  40  41
HETATM   41  O3  UNL     1      -7.927  49.932 -24.130  1.00  0.00    -0.401 OA
HETATM   42  H22 UNL     1      -8.674  49.314 -24.159  1.00  0.00     0.209 HD
ENDBRANCH  40  41
ENDBRANCH  39  40
ENDBRANCH   4  39
BRANCH  23  43
HETATM   43  O6  UNL     1      -2.992  52.716 -23.888  1.00  0.00    -0.391 OA
HETATM   44  H45 UNL     1      -3.716  52.579 -24.513  1.00  0.00     0.210 HD
ENDBRANCH  23  43
TORSDOF 12
ENDMDL
MODEL 9
REMARK minimizedAffinity -9.0427742
REMARK CNNscore 0.419943899
REMARK CNNaffinity 6.23329592
REMARK  12 active torsions:
REMARK  status: ('A' for Active; 'I' for Inactive)
REMARK    1  A    between atoms: C2_2  and  C31_37 
REMARK    2  A    between atoms: C3_3  and  C4_4 
REMARK    3  A    between atoms: C4_4  and  O1_5 
REMARK    4  A    between atoms: C4_4  and  C5_6 
REMARK    5  A    between atoms: C5_6  and  C6_7 
REMARK    6  A    between atoms: C6_7  and  C8_9 
REMARK    7  A    between atoms: C10_11  and  O2_12 
REMARK    8  A    between atoms: C11_13  and  C12_14 
REMARK    9  A    between atoms: C12_14  and  C13_15 
REMARK   10  A    between atoms: C13_15  and  O3_16 
REMARK   11  A    between atoms: C30_35  and  O6_36 
REMARK   12  A    between atoms: C31_37  and  O8_39 
ROOT
HETATM    1  C8  UNL     1      -4.202  49.573 -24.899  1.00  0.00     0.001 C 
HETATM    2  C9  UNL     1      -5.358  48.626 -24.497  1.00  0.00     0.038 C 
HETATM    3  C10 UNL     1      -5.290  48.478 -22.958  1.00  0.00     0.132 C 
HETATM    4  C11 UNL     1      -4.404  49.667 -22.468  1.00  0.00     0.022 C 
HETATM    5  C14 UNL     1      -3.636  49.552 -21.147  1.00  0.00    -0.029 C 
HETATM    6  C15 UNL     1      -2.487  50.249 -20.949  1.00  0.00     0.002 C 
HETATM    7  C16 UNL     1      -2.033  51.178 -22.061  1.00  0.00     0.157 C 
HETATM    8  O4  UNL     1      -1.353  52.171 -21.807  1.00  0.00    -0.293 OA
HETATM    9  C17 UNL     1      -2.427  50.884 -23.508  1.00  0.00     0.094 C 
HETATM   10  C18 UNL     1      -3.308  49.633 -23.621  1.00  0.00    -0.019 C 
HETATM   11  C19 UNL     1      -2.354  48.399 -23.560  1.00  0.00     0.017 C 
HETATM   12  C20 UNL     1      -1.677  50.186 -19.628  1.00  0.00    -0.008 C 
HETATM   13  C21 UNL     1      -0.152  50.296 -19.915  1.00  0.00     0.021 C 
HETATM   14  C22 UNL     1      -2.131  51.432 -18.821  1.00  0.00     0.022 C 
HETATM   15  C23 UNL     1      -1.725  51.422 -17.369  1.00  0.00     0.080 C 
HETATM   16  C24 UNL     1      -2.373  50.226 -16.736  1.00  0.00     0.135 C 
HETATM   17  O5  UNL     1      -3.182  50.373 -15.820  1.00  0.00    -0.297 OA
HETATM   18  C25 UNL     1      -1.929  48.855 -17.249  1.00  0.00     0.018 C 
HETATM   19  C26 UNL     1      -2.835  47.782 -16.605  1.00  0.00     0.023 C 
HETATM   20  C27 UNL     1      -0.515  48.612 -16.658  1.00  0.00     0.023 C 
HETATM   21  C28 UNL     1      -1.872  48.796 -18.837  1.00  0.00     0.016 C 
HETATM   22  C29 UNL     1      -2.897  47.857 -19.526  1.00  0.00     0.043 C 
HETATM   23  C30 UNL     1      -4.106  48.566 -20.110  1.00  0.00     0.149 C 
ENDROOT
BRANCH   1  24
HETATM   24  C6  UNL     1      -3.532  49.315 -26.287  1.00  0.00    -0.011 C 
HETATM   25  C7  UNL     1      -2.259  48.478 -26.062  1.00  0.00     0.010 C 
BRANCH  24  26
HETATM   26  C5  UNL     1      -3.192  50.593 -27.101  1.00  0.00     0.040 C 
BRANCH  26  27
HETATM   27  C4  UNL     1      -2.204  51.593 -26.467  1.00  0.00     0.142 C 
BRANCH  27  28
HETATM   28  C3  UNL     1      -0.831  51.586 -27.063  1.00  0.00     0.018 C 
HETATM   29  C2  UNL     1       0.313  51.970 -26.460  1.00  0.00     0.010 C 
HETATM   30  C1  UNL     1       0.437  52.448 -25.046  1.00  0.00     0.055 C 
BRANCH  29  31
HETATM   31  C31 UNL     1       1.555  51.886 -27.272  1.00  0.00     0.171 C 
HETATM   32  O7  UNL     1       1.633  51.737 -28.479  1.00  0.00    -0.646 OA
BRANCH  31  33
HETATM   33  O8  UNL     1       2.661  51.986 -26.516  1.00  0.00    -0.773 OA
HETATM   34  H46 UNL     1       3.388  51.915 -27.172  1.00  0.00     0.167 HD
ENDBRANCH  31  33
ENDBRANCH  29  31
ENDBRANCH  27  28
BRANCH  27  35
HETATM   35  O1  UNL     1      -2.701  52.922 -26.561  1.00  0.00    -0.392 OA
HETATM   36  H6  UNL     1      -3.515  52.968 -26.033  1.00  0.00     0.210 HD
ENDBRANCH  27  35
ENDBRANCH  26  27
ENDBRANCH  24  26
ENDBRANCH   1  24
BRANCH   3  37
HETATM   37  O2  UNL     1      -6.587  48.467 -22.394  1.00  0.00    -0.394 OA
HETATM   38  H17 UNL     1      -7.107  47.777 -22.844  1.00  0.00     0.210 HD
ENDBRANCH   3  37
BRANCH   4  39
HETATM   39  C12 UNL     1      -5.273  50.987 -22.461  1.00  0.00     0.043 C 
BRANCH  39  40
HETATM   40  C13 UNL     1      -4.762  52.171 -23.279  1.00  0.00     0.165 C 
BRANCH  40  41
HETATM   41  O3  UNL     1      -5.627  52.339 -24.402  1.00  0.00    -0.401 OA
HETATM   42  H22 UNL     1      -5.285  53.095 -24.906  1.00  0.00     0.209 HD
ENDBRANCH  40  41
ENDBRANCH  39  40
ENDBRANCH   4  39
BRANCH  23  43
HETATM   43  O6  UNL     1      -4.837  49.182 -19.070  1.00  0.00    -0.391 OA
HETATM   44  H45 UNL     1      -4.736  50.142 -19.115  1.00  0.00     0.210 HD
ENDBRANCH  23  43
TORSDOF 12
ENDMDL
