MODEL 1
REMARK minimizedAffinity -6.10816431
REMARK CNNscore 0.594158292
REMARK CNNaffinity 6.6817584
REMARK  8 active torsions:
REMARK  status: ('A' for Active; 'I' for Inactive)
REMARK    1  A    between atoms: N1_2  and  C2_3 
REMARK    2  A    between atoms: C2_3  and  C3_4 
REMARK    3  A    between atoms: C5_6  and  O1_7 
REMARK    4  A    between atoms: C20_22  and  N2_23 
REMARK    5  A    between atoms: C20_22  and  C21_24 
REMARK    6  A    between atoms: C21_24  and  C22_25 
REMARK    7  A    between atoms: C22_25  and  O2_26 
REMARK    8  A    between atoms: C27_31  and  C29_33 
ROOT
HETATM    1  C3  UNL     1      -8.969  -6.951  -4.439  1.00  0.00    -0.021 A 
HETATM    2  C4  UNL     1      -8.678  -7.304  -5.771  1.00  0.00     0.045 A 
HETATM    3  C5  UNL     1      -8.069  -8.507  -6.065  1.00  0.00     0.066 A 
HETATM    4  C6  UNL     1      -7.747  -9.394  -5.050  1.00  0.00     0.045 A 
HETATM    5  C7  UNL     1      -8.019  -9.098  -3.689  1.00  0.00    -0.037 A 
HETATM    6  C8  UNL     1      -8.640  -7.847  -3.373  1.00  0.00    -0.042 A 
HETATM    7  C9  UNL     1      -8.951  -7.425  -1.945  1.00  0.00     0.044 C 
HETATM    8  C10 UNL     1     -10.336  -7.778  -1.340  1.00  0.00    -0.010 C 
HETATM    9  C11 UNL     1     -11.054  -8.981  -1.971  1.00  0.00     0.005 C 
HETATM   10  C12 UNL     1     -11.907  -9.752  -0.980  1.00  0.00     0.001 C 
HETATM   11  C13 UNL     1     -11.006 -10.265   0.132  1.00  0.00     0.007 C 
HETATM   12  C14 UNL     1     -10.419  -9.113   0.971  1.00  0.00     0.022 C 
HETATM   13  C15 UNL     1     -10.307  -7.765   0.214  1.00  0.00     0.012 C 
HETATM   14  C16 UNL     1      -9.181  -9.535   1.859  1.00  0.00     0.082 C 
HETATM   15  C17 UNL     1      -9.259  -8.788   3.220  1.00  0.00     0.040 C 
HETATM   16  C18 UNL     1      -8.169  -9.284   4.174  1.00  0.00     0.013 C 
HETATM   17  C19 UNL     1      -7.347 -10.397   3.461  1.00  0.00     0.060 C 
HETATM   18  C20 UNL     1      -6.621  -9.719   2.223  1.00  0.00     0.180 C 
HETATM   19  C23 UNL     1      -7.759  -9.277   1.233  1.00  0.00     0.139 C 
HETATM   20  C24 UNL     1      -7.647  -9.831  -0.130  1.00  0.00    -0.096 C 
HETATM   21  C25 UNL     1      -7.626 -10.068  -1.308  1.00  0.00    -0.101 C 
HETATM   22  C26 UNL     1      -7.673 -10.266  -2.757  1.00  0.00     0.133 C 
HETATM   23  C27 UNL     1      -8.370 -11.521   3.038  1.00  0.00     0.068 C 
HETATM   24  C28 UNL     1      -7.710 -12.676   2.268  1.00  0.00     0.047 C 
HETATM   25  O3  UNL     1      -9.346 -10.948   2.148  1.00  0.00    -0.367 OA
ENDROOT
BRANCH  18  26
HETATM   26  N2  UNL     1      -5.943  -8.497   2.758  1.00  0.00     0.090 N 
HETATM   27  H27 UNL     1      -5.270  -8.783   3.472  1.00  0.00     0.313 HD
HETATM   28  H28 UNL     1      -5.331  -8.108   2.030  1.00  0.00     0.313 HD
ENDBRANCH  18  26
BRANCH  18  29
HETATM   29  C21 UNL     1      -5.462 -10.591   1.628  1.00  0.00     0.069 C 
BRANCH  29  30
HETATM   30  C22 UNL     1      -4.027 -10.285   2.092  1.00  0.00     0.166 C 
BRANCH  30  31
HETATM   31  O2  UNL     1      -3.863 -10.586   3.474  1.00  0.00    -0.401 OA
HETATM   32  H33 UNL     1      -2.919 -10.464   3.679  1.00  0.00     0.209 HD
ENDBRANCH  30  31
ENDBRANCH  29  30
ENDBRANCH  18  29
BRANCH  23  33
HETATM   33  C29 UNL     1      -9.175 -12.091   4.254  1.00  0.00     0.020 C 
HETATM   34  C30 UNL     1     -10.684 -11.809   4.241  1.00  0.00     0.007 C 
HETATM   35  C31 UNL     1     -11.118 -11.755   5.709  1.00  0.00     0.000 C 
HETATM   36  C32 UNL     1      -9.887 -12.124   6.528  1.00  0.00     0.000 C 
HETATM   37  C33 UNL     1      -8.723 -11.666   5.661  1.00  0.00     0.007 C 
ENDBRANCH  23  33
BRANCH   3  38
HETATM   38  O1  UNL     1      -7.812  -8.789  -7.373  1.00  0.00    -0.361 OA
HETATM   39  H8  UNL     1      -7.408  -9.670  -7.428  1.00  0.00     0.217 HD
ENDBRANCH   3  38
BRANCH   1  40
HETATM   40  C2  UNL     1      -9.668  -5.614  -4.242  1.00  0.00     0.308 C 
BRANCH  40  41
HETATM   41  N1  UNL     1      -8.726  -4.507  -4.390  1.00  0.00     0.083 N 
HETATM   42  C1  UNL     1      -9.323  -3.399  -5.116  1.00  0.00     0.307 C 
HETATM   43  H4  UNL     1      -8.436  -4.198  -3.462  1.00  0.00     0.315 HD
ENDBRANCH  40  41
ENDBRANCH   1  40
TORSDOF 8
ENDMDL
MODEL 2
REMARK minimizedAffinity -8.75810719
REMARK CNNscore 0.561810613
REMARK CNNaffinity 7.91714621
REMARK  8 active torsions:
REMARK  status: ('A' for Active; 'I' for Inactive)
REMARK    1  A    between atoms: N1_2  and  C2_3 
REMARK    2  A    between atoms: C2_3  and  C3_4 
REMARK    3  A    between atoms: C5_6  and  O1_7 
REMARK    4  A    between atoms: C20_22  and  N2_23 
REMARK    5  A    between atoms: C20_22  and  C21_24 
REMARK    6  A    between atoms: C21_24  and  C22_25 
REMARK    7  A    between atoms: C22_25  and  O2_26 
REMARK    8  A    between atoms: C27_31  and  C29_33 
ROOT
HETATM    1  C3  UNL     1      -0.012   5.633  13.839  1.00  0.00    -0.021 A 
HETATM    2  C4  UNL     1       0.923   5.180  12.889  1.00  0.00     0.045 A 
HETATM    3  C5  UNL     1       0.504   4.606  11.706  1.00  0.00     0.066 A 
HETATM    4  C6  UNL     1      -0.847   4.480  11.430  1.00  0.00     0.045 A 
HETATM    5  C7  UNL     1      -1.838   4.923  12.344  1.00  0.00    -0.037 A 
HETATM    6  C8  UNL     1      -1.414   5.510  13.579  1.00  0.00    -0.042 A 
HETATM    7  C9  UNL     1      -2.395   5.993  14.637  1.00  0.00     0.044 C 
HETATM    8  C10 UNL     1      -2.879   7.467  14.597  1.00  0.00    -0.010 C 
HETATM    9  C11 UNL     1      -2.808   8.157  13.226  1.00  0.00     0.005 C 
HETATM   10  C12 UNL     1      -3.907   9.183  13.018  1.00  0.00     0.001 C 
HETATM   11  C13 UNL     1      -5.249   8.477  13.127  1.00  0.00     0.007 C 
HETATM   12  C14 UNL     1      -5.505   7.949  14.552  1.00  0.00     0.022 C 
HETATM   13  C15 UNL     1      -4.218   7.655  15.364  1.00  0.00     0.012 C 
HETATM   14  C16 UNL     1      -6.661   6.874  14.637  1.00  0.00     0.082 C 
HETATM   15  C17 UNL     1      -7.462   7.099  15.950  1.00  0.00     0.040 C 
HETATM   16  C18 UNL     1      -8.689   6.184  16.000  1.00  0.00     0.013 C 
HETATM   17  C19 UNL     1      -8.735   5.335  14.696  1.00  0.00     0.060 C 
HETATM   18  C20 UNL     1      -7.449   4.405  14.700  1.00  0.00     0.180 C 
HETATM   19  C23 UNL     1      -6.210   5.366  14.585  1.00  0.00     0.139 C 
HETATM   20  C24 UNL     1      -5.319   5.096  13.440  1.00  0.00    -0.096 C 
HETATM   21  C25 UNL     1      -4.420   4.924  12.661  1.00  0.00    -0.101 C 
HETATM   22  C26 UNL     1      -3.258   4.778  11.783  1.00  0.00     0.133 C 
HETATM   23  C27 UNL     1      -8.758   6.351  13.490  1.00  0.00     0.068 C 
HETATM   24  C28 UNL     1      -8.752   5.657  12.119  1.00  0.00     0.047 C 
HETATM   25  O3  UNL     1      -7.568   7.158  13.540  1.00  0.00    -0.367 OA
ENDROOT
BRANCH  18  26
HETATM   26  N2  UNL     1      -7.422   3.740  16.041  1.00  0.00     0.090 N 
HETATM   27  H27 UNL     1      -8.277   3.191  16.150  1.00  0.00     0.313 HD
HETATM   28  H28 UNL     1      -6.698   3.011  16.038  1.00  0.00     0.313 HD
ENDBRANCH  18  26
BRANCH  18  29
HETATM   29  C21 UNL     1      -7.531   3.226  13.671  1.00  0.00     0.069 C 
BRANCH  29  30
HETATM   30  C22 UNL     1      -6.330   3.011  12.733  1.00  0.00     0.166 C 
BRANCH  30  31
HETATM   31  O2  UNL     1      -6.501   1.832  11.950  1.00  0.00    -0.401 OA
HETATM   32  H33 UNL     1      -5.762   1.807  11.316  1.00  0.00     0.209 HD
ENDBRANCH  30  31
ENDBRANCH  29  30
ENDBRANCH  18  29
BRANCH  23  33
HETATM   33  C29 UNL     1      -9.962   7.350  13.568  1.00  0.00     0.020 C 
HETATM   34  C30 UNL     1     -10.997   7.058  14.664  1.00  0.00     0.007 C 
HETATM   35  C31 UNL     1     -12.331   7.595  14.141  1.00  0.00     0.000 C 
HETATM   36  C32 UNL     1     -12.021   8.289  12.821  1.00  0.00     0.000 C 
HETATM   37  C33 UNL     1     -10.804   7.542  12.295  1.00  0.00     0.007 C 
ENDBRANCH  23  33
BRANCH   3  38
HETATM   38  O1  UNL     1       1.458   4.184  10.828  1.00  0.00    -0.361 OA
HETATM   39  H8  UNL     1       1.019   3.827  10.039  1.00  0.00     0.217 HD
ENDBRANCH   3  38
BRANCH   1  40
HETATM   40  C2  UNL     1       0.569   6.276  15.090  1.00  0.00     0.308 C 
BRANCH  40  41
HETATM   41  N1  UNL     1       1.986   6.586  14.906  1.00  0.00     0.083 N 
HETATM   42  C1  UNL     1       2.356   7.800  15.613  1.00  0.00     0.307 C 
HETATM   43  H4  UNL     1       2.540   5.802  15.248  1.00  0.00     0.315 HD
ENDBRANCH  40  41
ENDBRANCH   1  40
TORSDOF 8
ENDMDL
MODEL 3
REMARK minimizedAffinity -7.48305368
REMARK CNNscore 0.49593401
REMARK CNNaffinity 6.51463842
REMARK  8 active torsions:
REMARK  status: ('A' for Active; 'I' for Inactive)
REMARK    1  A    between atoms: N1_2  and  C2_3 
REMARK    2  A    between atoms: C2_3  and  C3_4 
REMARK    3  A    between atoms: C5_6  and  O1_7 
REMARK    4  A    between atoms: C20_22  and  N2_23 
REMARK    5  A    between atoms: C20_22  and  C21_24 
REMARK    6  A    between atoms: C21_24  and  C22_25 
REMARK    7  A    between atoms: C22_25  and  O2_26 
REMARK    8  A    between atoms: C27_31  and  C29_33 
ROOT
HETATM    1  C3  UNL     1       1.935  10.971  20.760  1.00  0.00    -0.021 A 
HETATM    2  C4  UNL     1       1.530   9.697  21.200  1.00  0.00     0.045 A 
HETATM    3  C5  UNL     1       2.271   9.006  22.137  1.00  0.00     0.066 A 
HETATM    4  C6  UNL     1       3.421   9.565  22.669  1.00  0.00     0.045 A 
HETATM    5  C7  UNL     1       3.879  10.848  22.270  1.00  0.00    -0.037 A 
HETATM    6  C8  UNL     1       3.123  11.568  21.290  1.00  0.00    -0.042 A 
HETATM    7  C9  UNL     1       3.541  12.938  20.777  1.00  0.00     0.044 C 
HETATM    8  C10 UNL     1       3.009  14.206  21.497  1.00  0.00    -0.010 C 
HETATM    9  C11 UNL     1       2.592  14.016  22.964  1.00  0.00     0.005 C 
HETATM   10  C12 UNL     1       2.828  15.252  23.814  1.00  0.00     0.001 C 
HETATM   11  C13 UNL     1       4.310  15.583  23.779  1.00  0.00     0.007 C 
HETATM   12  C14 UNL     1       4.769  16.013  22.372  1.00  0.00     0.022 C 
HETATM   13  C15 UNL     1       3.904  15.446  21.218  1.00  0.00     0.012 C 
HETATM   14  C16 UNL     1       6.337  15.973  22.170  1.00  0.00     0.082 C 
HETATM   15  C17 UNL     1       6.761  17.180  21.286  1.00  0.00     0.040 C 
HETATM   16  C18 UNL     1       8.287  17.275  21.195  1.00  0.00     0.013 C 
HETATM   17  C19 UNL     1       8.913  16.128  22.042  1.00  0.00     0.060 C 
HETATM   18  C20 UNL     1       8.481  14.759  21.364  1.00  0.00     0.180 C 
HETATM   19  C23 UNL     1       6.920  14.660  21.528  1.00  0.00     0.139 C 
HETATM   20  C24 UNL     1       6.445  13.447  22.223  1.00  0.00    -0.096 C 
HETATM   21  C25 UNL     1       5.885  12.464  22.628  1.00  0.00    -0.101 C 
HETATM   22  C26 UNL     1       5.108  11.304  23.065  1.00  0.00     0.133 C 
HETATM   23  C27 UNL     1       8.360  16.291  23.510  1.00  0.00     0.068 C 
HETATM   24  C28 UNL     1       8.852  15.189  24.463  1.00  0.00     0.047 C 
HETATM   25  O3  UNL     1       6.925  16.188  23.480  1.00  0.00    -0.367 OA
ENDROOT
BRANCH  18  26
HETATM   26  N2  UNL     1       8.807  14.896  19.909  1.00  0.00     0.090 N 
HETATM   27  H27 UNL     1       9.811  15.057  19.814  1.00  0.00     0.313 HD
HETATM   28  H28 UNL     1       8.691  13.983  19.454  1.00  0.00     0.313 HD
ENDBRANCH  18  26
BRANCH  18  29
HETATM   29  C21 UNL     1       9.326  13.531  21.849  1.00  0.00     0.069 C 
BRANCH  29  30
HETATM   30  C22 UNL     1       8.966  12.909  23.209  1.00  0.00     0.166 C 
BRANCH  30  31
HETATM   31  O2  UNL     1       9.117  11.492  23.176  1.00  0.00    -0.401 OA
HETATM   32  H33 UNL     1       8.970  11.173  24.084  1.00  0.00     0.209 HD
ENDBRANCH  30  31
ENDBRANCH  29  30
ENDBRANCH  18  29
BRANCH  23  33
HETATM   33  C29 UNL     1       8.680  17.697  24.122  1.00  0.00     0.020 C 
HETATM   34  C30 UNL     1      10.169  18.063  24.198  1.00  0.00     0.007 C 
HETATM   35  C31 UNL     1      10.313  19.005  25.396  1.00  0.00     0.000 C 
HETATM   36  C32 UNL     1       8.901  19.258  25.908  1.00  0.00     0.000 C 
HETATM   37  C33 UNL     1       8.146  17.991  25.534  1.00  0.00     0.007 C 
ENDBRANCH  23  33
BRANCH   3  38
HETATM   38  O1  UNL     1       1.828   7.775  22.520  1.00  0.00    -0.361 OA
HETATM   39  H8  UNL     1       2.431   7.423  23.195  1.00  0.00     0.217 HD
ENDBRANCH   3  38
BRANCH   1  40
HETATM   40  C2  UNL     1       1.021  11.648  19.749  1.00  0.00     0.308 C 
BRANCH  40  41
HETATM   41  N1  UNL     1      -0.260  10.949  19.656  1.00  0.00     0.083 N 
HETATM   42  C1  UNL     1      -0.972  11.312  18.443  1.00  0.00     0.307 C 
HETATM   43  H4  UNL     1      -0.087   9.944  19.670  1.00  0.00     0.315 HD
ENDBRANCH  40  41
ENDBRANCH   1  40
TORSDOF 8
ENDMDL
MODEL 4
REMARK minimizedAffinity -9.30117226
REMARK CNNscore 0.435809493
REMARK CNNaffinity 7.35567284
REMARK  8 active torsions:
REMARK  status: ('A' for Active; 'I' for Inactive)
REMARK    1  A    between atoms: N1_2  and  C2_3 
REMARK    2  A    between atoms: C2_3  and  C3_4 
REMARK    3  A    between atoms: C5_6  and  O1_7 
REMARK    4  A    between atoms: C20_22  and  N2_23 
REMARK    5  A    between atoms: C20_22  and  C21_24 
REMARK    6  A    between atoms: C21_24  and  C22_25 
REMARK    7  A    between atoms: C22_25  and  O2_26 
REMARK    8  A    between atoms: C27_31  and  C29_33 
ROOT
HETATM    1  C3  UNL     1       2.412   6.082   9.015  1.00  0.00    -0.021 A 
HETATM    2  C4  UNL     1       2.525   6.390   7.646  1.00  0.00     0.045 A 
HETATM    3  C5  UNL     1       1.742   7.375   7.078  1.00  0.00     0.066 A 
HETATM    4  C6  UNL     1       0.842   8.087   7.854  1.00  0.00     0.045 A 
HETATM    5  C7  UNL     1       0.686   7.827   9.240  1.00  0.00    -0.037 A 
HETATM    6  C8  UNL     1       1.485   6.799   9.836  1.00  0.00    -0.042 A 
HETATM    7  C9  UNL     1       1.376   6.427  11.308  1.00  0.00     0.044 C 
HETATM    8  C10 UNL     1       2.294   7.143  12.335  1.00  0.00    -0.010 C 
HETATM    9  C11 UNL     1       2.812   8.528  11.917  1.00  0.00     0.005 C 
HETATM   10  C12 UNL     1       2.999   9.472  13.091  1.00  0.00     0.001 C 
HETATM   11  C13 UNL     1       1.657   9.653  13.779  1.00  0.00     0.007 C 
HETATM   12  C14 UNL     1       1.166   8.348  14.434  1.00  0.00     0.022 C 
HETATM   13  C15 UNL     1       1.721   7.058  13.777  1.00  0.00     0.012 C 
HETATM   14  C16 UNL     1      -0.371   8.354  14.801  1.00  0.00     0.082 C 
HETATM   15  C17 UNL     1      -0.570   7.606  16.150  1.00  0.00     0.040 C 
HETATM   16  C18 UNL     1      -2.021   7.724  16.626  1.00  0.00     0.013 C 
HETATM   17  C19 UNL     1      -2.819   8.578  15.598  1.00  0.00     0.060 C 
HETATM   18  C20 UNL     1      -2.832   7.770  14.232  1.00  0.00     0.180 C 
HETATM   19  C23 UNL     1      -1.341   7.719  13.735  1.00  0.00     0.139 C 
HETATM   20  C24 UNL     1      -1.117   8.273  12.386  1.00  0.00    -0.096 C 
HETATM   21  C25 UNL     1      -0.785   8.542  11.262  1.00  0.00    -0.101 C 
HETATM   22  C26 UNL     1      -0.286   8.804   9.912  1.00  0.00     0.133 C 
HETATM   23  C27 UNL     1      -2.079   9.967  15.486  1.00  0.00     0.068 C 
HETATM   24  C28 UNL     1      -2.725  10.911  14.459  1.00  0.00     0.047 C 
HETATM   25  O3  UNL     1      -0.732   9.740  15.035  1.00  0.00    -0.367 OA
ENDROOT
BRANCH  18  26
HETATM   26  N2  UNL     1      -3.275   6.382  14.575  1.00  0.00     0.090 N 
HETATM   27  H27 UNL     1      -4.209   6.430  14.987  1.00  0.00     0.313 HD
HETATM   28  H28 UNL     1      -3.450   5.863  13.706  1.00  0.00     0.313 HD
ENDBRANCH  18  26
BRANCH  18  29
HETATM   29  C21 UNL     1      -3.903   8.290  13.212  1.00  0.00     0.069 C 
BRANCH  29  30
HETATM   30  C22 UNL     1      -5.373   7.912  13.463  1.00  0.00     0.166 C 
BRANCH  30  31
HETATM   31  O2  UNL     1      -5.983   8.822  14.374  1.00  0.00    -0.401 OA
HETATM   32  H33 UNL     1      -6.927   8.588  14.414  1.00  0.00     0.209 HD
ENDBRANCH  30  31
ENDBRANCH  29  30
ENDBRANCH  18  29
BRANCH  23  33
HETATM   33  C29 UNL     1      -1.957  10.696  16.867  1.00  0.00     0.020 C 
HETATM   34  C30 UNL     1      -3.257  10.806  17.676  1.00  0.00     0.007 C 
HETATM   35  C31 UNL     1      -3.128  12.081  18.515  1.00  0.00     0.000 C 
HETATM   36  C32 UNL     1      -1.721  12.610  18.268  1.00  0.00     0.000 C 
HETATM   37  C33 UNL     1      -1.393  12.127  16.862  1.00  0.00     0.007 C 
ENDBRANCH  23  33
BRANCH   3  38
HETATM   38  O1  UNL     1       1.896   7.624   5.747  1.00  0.00    -0.361 OA
HETATM   39  H8  UNL     1       1.304   8.350   5.495  1.00  0.00     0.217 HD
ENDBRANCH   3  38
BRANCH   1  40
HETATM   40  C2  UNL     1       3.348   5.000   9.533  1.00  0.00     0.308 C 
BRANCH  40  41
HETATM   41  N1  UNL     1       4.018   4.318   8.427  1.00  0.00     0.083 N 
HETATM   42  C1  UNL     1       4.734   3.141   8.889  1.00  0.00     0.307 C 
HETATM   43  H4  UNL     1       3.317   4.049   7.736  1.00  0.00     0.315 HD
ENDBRANCH  40  41
ENDBRANCH   1  40
TORSDOF 8
ENDMDL
MODEL 5
REMARK minimizedAffinity -7.1281929
REMARK CNNscore 0.305744231
REMARK CNNaffinity 6.85005236
REMARK  8 active torsions:
REMARK  status: ('A' for Active; 'I' for Inactive)
REMARK    1  A    between atoms: N1_2  and  C2_3 
REMARK    2  A    between atoms: C2_3  and  C3_4 
REMARK    3  A    between atoms: C5_6  and  O1_7 
REMARK    4  A    between atoms: C20_22  and  N2_23 
REMARK    5  A    between atoms: C20_22  and  C21_24 
REMARK    6  A    between atoms: C21_24  and  C22_25 
REMARK    7  A    between atoms: C22_25  and  O2_26 
REMARK    8  A    between atoms: C27_31  and  C29_33 
ROOT
HETATM    1  C3  UNL     1       1.579  12.828  19.099  1.00  0.00    -0.021 A 
HETATM    2  C4  UNL     1       2.413  13.938  18.868  1.00  0.00     0.045 A 
HETATM    3  C5  UNL     1       2.685  14.359  17.583  1.00  0.00     0.066 A 
HETATM    4  C6  UNL     1       2.128  13.702  16.498  1.00  0.00     0.045 A 
HETATM    5  C7  UNL     1       1.275  12.580  16.666  1.00  0.00    -0.037 A 
HETATM    6  C8  UNL     1       0.996  12.128  17.996  1.00  0.00    -0.042 A 
HETATM    7  C9  UNL     1       0.116  10.920  18.283  1.00  0.00     0.044 C 
HETATM    8  C10 UNL     1      -1.408  11.133  18.493  1.00  0.00    -0.010 C 
HETATM    9  C11 UNL     1      -2.001  12.396  17.851  1.00  0.00     0.005 C 
HETATM   10  C12 UNL     1      -3.438  12.214  17.396  1.00  0.00     0.001 C 
HETATM   11  C13 UNL     1      -3.477  11.095  16.369  1.00  0.00     0.007 C 
HETATM   12  C14 UNL     1      -3.113   9.732  16.991  1.00  0.00     0.022 C 
HETATM   13  C15 UNL     1      -2.212   9.825  18.248  1.00  0.00     0.012 C 
HETATM   14  C16 UNL     1      -2.739   8.623  15.928  1.00  0.00     0.082 C 
HETATM   15  C17 UNL     1      -3.302   7.255  16.408  1.00  0.00     0.040 C 
HETATM   16  C18 UNL     1      -3.103   6.181  15.336  1.00  0.00     0.013 C 
HETATM   17  C19 UNL     1      -2.411   6.827  14.099  1.00  0.00     0.060 C 
HETATM   18  C20 UNL     1      -0.971   7.302  14.568  1.00  0.00     0.180 C 
HETATM   19  C23 UNL     1      -1.206   8.447  15.621  1.00  0.00     0.139 C 
HETATM   20  C24 UNL     1      -0.556   9.732  15.296  1.00  0.00    -0.096 C 
HETATM   21  C25 UNL     1       0.018  10.787  15.263  1.00  0.00    -0.101 C 
HETATM   22  C26 UNL     1       0.696  12.082  15.337  1.00  0.00     0.133 C 
HETATM   23  C27 UNL     1      -3.333   8.019  13.632  1.00  0.00     0.068 C 
HETATM   24  C28 UNL     1      -2.751   8.796  12.440  1.00  0.00     0.047 C 
HETATM   25  O3  UNL     1      -3.453   8.964  14.711  1.00  0.00    -0.367 OA
ENDROOT
BRANCH  18  26
HETATM   26  N2  UNL     1      -0.351   6.129  15.260  1.00  0.00     0.090 N 
HETATM   27  H27 UNL     1      -0.289   5.354  14.596  1.00  0.00     0.313 HD
HETATM   28  H28 UNL     1       0.638   6.334  15.444  1.00  0.00     0.313 HD
ENDBRANCH  18  26
BRANCH  18  29
HETATM   29  C21 UNL     1      -0.003   7.621  13.377  1.00  0.00     0.069 C 
BRANCH  29  30
HETATM   30  C22 UNL     1       1.497   7.351  13.583  1.00  0.00     0.166 C 
BRANCH  30  31
HETATM   31  O2  UNL     1       1.840   6.035  13.159  1.00  0.00    -0.401 OA
HETATM   32  H33 UNL     1       2.809   5.962  13.224  1.00  0.00     0.209 HD
ENDBRANCH  30  31
ENDBRANCH  29  30
ENDBRANCH  18  29
BRANCH  23  33
HETATM   33  C29 UNL     1      -4.791   7.557  13.297  1.00  0.00     0.020 C 
HETATM   34  C30 UNL     1      -5.893   8.136  14.195  1.00  0.00     0.007 C 
HETATM   35  C31 UNL     1      -7.010   7.089  14.224  1.00  0.00     0.000 C 
HETATM   36  C32 UNL     1      -6.588   5.992  13.255  1.00  0.00     0.000 C 
HETATM   37  C33 UNL     1      -5.067   6.044  13.288  1.00  0.00     0.007 C 
ENDBRANCH  23  33
BRANCH   3  38
HETATM   38  O1  UNL     1       3.502  15.439  17.424  1.00  0.00    -0.361 OA
HETATM   39  H8  UNL     1       3.583  15.632  16.476  1.00  0.00     0.217 HD
ENDBRANCH   3  38
BRANCH   1  40
HETATM   40  C2  UNL     1       1.328  12.477  20.559  1.00  0.00     0.308 C 
BRANCH  40  41
HETATM   41  N1  UNL     1       2.474  11.773  21.130  1.00  0.00     0.083 N 
HETATM   42  C1  UNL     1       2.174  10.368  21.349  1.00  0.00     0.307 C 
HETATM   43  H4  UNL     1       3.265  11.864  20.493  1.00  0.00     0.315 HD
ENDBRANCH  40  41
ENDBRANCH   1  40
TORSDOF 8
ENDMDL
MODEL 6
REMARK minimizedAffinity -8.46411037
REMARK CNNscore 0.285084844
REMARK CNNaffinity 6.78031349
REMARK  8 active torsions:
REMARK  status: ('A' for Active; 'I' for Inactive)
REMARK    1  A    between atoms: N1_2  and  C2_3 
REMARK    2  A    between atoms: C2_3  and  C3_4 
REMARK    3  A    between atoms: C5_6  and  O1_7 
REMARK    4  A    between atoms: C20_22  and  N2_23 
REMARK    5  A    between atoms: C20_22  and  C21_24 
REMARK    6  A    between atoms: C21_24  and  C22_25 
REMARK    7  A    between atoms: C22_25  and  O2_26 
REMARK    8  A    between atoms: C27_31  and  C29_33 
ROOT
HETATM    1  C3  UNL     1      -7.558   5.279  12.974  1.00  0.00    -0.021 A 
HETATM    2  C4  UNL     1      -8.190   4.029  12.829  1.00  0.00     0.045 A 
HETATM    3  C5  UNL     1      -7.448   2.881  12.645  1.00  0.00     0.066 A 
HETATM    4  C6  UNL     1      -6.064   2.940  12.616  1.00  0.00     0.045 A 
HETATM    5  C7  UNL     1      -5.368   4.168  12.762  1.00  0.00    -0.037 A 
HETATM    6  C8  UNL     1      -6.130   5.367  12.942  1.00  0.00    -0.042 A 
HETATM    7  C9  UNL     1      -5.482   6.736  13.083  1.00  0.00     0.044 C 
HETATM    8  C10 UNL     1      -5.127   7.258  14.501  1.00  0.00    -0.010 C 
HETATM    9  C11 UNL     1      -4.916   6.181  15.577  1.00  0.00     0.005 C 
HETATM   10  C12 UNL     1      -3.889   6.577  16.621  1.00  0.00     0.001 C 
HETATM   11  C13 UNL     1      -2.562   6.817  15.922  1.00  0.00     0.007 C 
HETATM   12  C14 UNL     1      -2.620   8.039  14.985  1.00  0.00     0.022 C 
HETATM   13  C15 UNL     1      -4.038   8.366  14.452  1.00  0.00     0.012 C 
HETATM   14  C16 UNL     1      -1.435   8.100  13.940  1.00  0.00     0.082 C 
HETATM   15  C17 UNL     1      -1.002   9.583  13.757  1.00  0.00     0.040 C 
HETATM   16  C18 UNL     1       0.247   9.677  12.876  1.00  0.00     0.013 C 
HETATM   17  C19 UNL     1       0.682   8.240  12.466  1.00  0.00     0.060 C 
HETATM   18  C20 UNL     1      -0.484   7.637  11.573  1.00  0.00     0.180 C 
HETATM   19  C23 UNL     1      -1.732   7.492  12.519  1.00  0.00     0.139 C 
HETATM   20  C24 UNL     1      -2.290   6.128  12.607  1.00  0.00    -0.096 C 
HETATM   21  C25 UNL     1      -2.953   5.129  12.678  1.00  0.00    -0.101 C 
HETATM   22  C26 UNL     1      -3.847   3.977  12.802  1.00  0.00     0.133 C 
HETATM   23  C27 UNL     1       0.916   7.435  13.802  1.00  0.00     0.068 C 
HETATM   24  C28 UNL     1       1.304   5.967  13.560  1.00  0.00     0.047 C 
HETATM   25  O3  UNL     1      -0.313   7.410  14.550  1.00  0.00    -0.367 OA
ENDROOT
BRANCH  18  26
HETATM   26  N2  UNL     1      -0.784   8.667  10.530  1.00  0.00     0.090 N 
HETATM   27  H27 UNL     1       0.061   8.828   9.978  1.00  0.00     0.313 HD
HETATM   28  H28 UNL     1      -1.422   8.263   9.834  1.00  0.00     0.313 HD
ENDBRANCH  18  26
BRANCH  18  29
HETATM   29  C21 UNL     1      -0.054   6.364  10.765  1.00  0.00     0.069 C 
BRANCH  29  30
HETATM   30  C22 UNL     1       1.239   6.447   9.936  1.00  0.00     0.166 C 
BRANCH  30  31
HETATM   31  O2  UNL     1       2.009   5.256  10.075  1.00  0.00    -0.401 OA
HETATM   32  H33 UNL     1       2.757   5.332   9.456  1.00  0.00     0.209 HD
ENDBRANCH  30  31
ENDBRANCH  29  30
ENDBRANCH  18  29
BRANCH  23  33
HETATM   33  C29 UNL     1       1.976   8.112  14.735  1.00  0.00     0.020 C 
HETATM   34  C30 UNL     1       1.446   8.618  16.083  1.00  0.00     0.007 C 
HETATM   35  C31 UNL     1       2.332   9.806  16.468  1.00  0.00     0.000 C 
HETATM   36  C32 UNL     1       3.421   9.885  15.405  1.00  0.00     0.000 C 
HETATM   37  C33 UNL     1       2.758   9.307  14.163  1.00  0.00     0.007 C 
ENDBRANCH  23  33
BRANCH   3  38
HETATM   38  O1  UNL     1      -8.118   1.702  12.508  1.00  0.00    -0.361 OA
HETATM   39  H8  UNL     1      -7.471   0.985  12.411  1.00  0.00     0.217 HD
ENDBRANCH   3  38
BRANCH   1  40
HETATM   40  C2  UNL     1      -8.480   6.468  13.202  1.00  0.00     0.308 C 
BRANCH  40  41
HETATM   41  N1  UNL     1      -9.560   6.121  14.124  1.00  0.00     0.083 N 
HETATM   42  C1  UNL     1      -9.838   7.210  15.044  1.00  0.00     0.307 C 
HETATM   43  H4  UNL     1     -10.395   5.902  13.581  1.00  0.00     0.315 HD
ENDBRANCH  40  41
ENDBRANCH   1  40
TORSDOF 8
ENDMDL
MODEL 7
REMARK minimizedAffinity -5.83348465
REMARK CNNscore 0.214407831
REMARK CNNaffinity 5.86345482
REMARK  8 active torsions:
REMARK  status: ('A' for Active; 'I' for Inactive)
REMARK    1  A    between atoms: N1_2  and  C2_3 
REMARK    2  A    between atoms: C2_3  and  C3_4 
REMARK    3  A    between atoms: C5_6  and  O1_7 
REMARK    4  A    between atoms: C20_22  and  N2_23 
REMARK    5  A    between atoms: C20_22  and  C21_24 
REMARK    6  A    between atoms: C21_24  and  C22_25 
REMARK    7  A    between atoms: C22_25  and  O2_26 
REMARK    8  A    between atoms: C27_31  and  C29_33 
ROOT
HETATM    1  C3  UNL     1     -14.409  12.785  23.029  1.00  0.00    -0.021 A 
HETATM    2  C4  UNL     1     -14.562  13.908  23.865  1.00  0.00     0.045 A 
HETATM    3  C5  UNL     1     -14.887  13.756  25.197  1.00  0.00     0.066 A 
HETATM    4  C6  UNL     1     -15.055  12.491  25.736  1.00  0.00     0.045 A 
HETATM    5  C7  UNL     1     -14.910  11.320  24.947  1.00  0.00    -0.037 A 
HETATM    6  C8  UNL     1     -14.583  11.468  23.561  1.00  0.00    -0.042 A 
HETATM    7  C9  UNL     1     -14.430  10.279  22.624  1.00  0.00     0.044 C 
HETATM    8  C10 UNL     1     -13.028   9.637  22.446  1.00  0.00    -0.010 C 
HETATM    9  C11 UNL     1     -12.045   9.846  23.608  1.00  0.00     0.005 C 
HETATM   10  C12 UNL     1     -11.090   8.682  23.797  1.00  0.00     0.001 C 
HETATM   11  C13 UNL     1     -11.907   7.433  24.084  1.00  0.00     0.007 C 
HETATM   12  C14 UNL     1     -12.760   7.014  22.871  1.00  0.00     0.022 C 
HETATM   13  C15 UNL     1     -13.124   8.179  21.916  1.00  0.00     0.012 C 
HETATM   14  C16 UNL     1     -13.916   5.995  23.223  1.00  0.00     0.082 C 
HETATM   15  C17 UNL     1     -14.056   4.971  22.061  1.00  0.00     0.040 C 
HETATM   16  C18 UNL     1     -15.054   3.870  22.427  1.00  0.00     0.013 C 
HETATM   17  C19 UNL     1     -15.590   4.135  23.865  1.00  0.00     0.060 C 
HETATM   18  C20 UNL     1     -16.391   5.504  23.818  1.00  0.00     0.180 C 
HETATM   19  C23 UNL     1     -15.332   6.623  23.503  1.00  0.00     0.139 C 
HETATM   20  C24 UNL     1     -15.267   7.713  24.496  1.00  0.00    -0.096 C 
HETATM   21  C25 UNL     1     -15.187   8.740  25.115  1.00  0.00    -0.101 C 
HETATM   22  C26 UNL     1     -15.038  10.037  25.776  1.00  0.00     0.133 C 
HETATM   23  C27 UNL     1     -14.334   4.187  24.818  1.00  0.00     0.068 C 
HETATM   24  C28 UNL     1     -14.700   4.496  26.278  1.00  0.00     0.047 C 
HETATM   25  O3  UNL     1     -13.466   5.250  24.385  1.00  0.00    -0.367 OA
ENDROOT
BRANCH  18  26
HETATM   26  N2  UNL     1     -17.336   5.393  22.662  1.00  0.00     0.090 N 
HETATM   27  H27 UNL     1     -17.962   4.602  22.827  1.00  0.00     0.313 HD
HETATM   28  H28 UNL     1     -17.985   6.189  22.683  1.00  0.00     0.313 HD
ENDBRANCH  18  26
BRANCH  18  29
HETATM   29  C21 UNL     1     -17.312   5.729  25.066  1.00  0.00     0.069 C 
BRANCH  29  30
HETATM   30  C22 UNL     1     -18.351   4.643  25.393  1.00  0.00     0.166 C 
BRANCH  30  31
HETATM   31  O2  UNL     1     -18.891   4.832  26.698  1.00  0.00    -0.401 OA
HETATM   32  H33 UNL     1     -19.604   4.178  26.804  1.00  0.00     0.209 HD
ENDBRANCH  30  31
ENDBRANCH  29  30
ENDBRANCH  18  29
BRANCH  23  33
HETATM   33  C29 UNL     1     -13.477   2.877  24.757  1.00  0.00     0.020 C 
HETATM   34  C30 UNL     1     -13.371   2.092  26.072  1.00  0.00     0.007 C 
HETATM   35  C31 UNL     1     -12.021   1.372  26.027  1.00  0.00     0.000 C 
HETATM   36  C32 UNL     1     -11.435   1.653  24.649  1.00  0.00     0.000 C 
HETATM   37  C33 UNL     1     -12.022   3.007  24.275  1.00  0.00     0.007 C 
ENDBRANCH  23  33
BRANCH   3  38
HETATM   38  O1  UNL     1     -15.024  14.882  25.954  1.00  0.00    -0.361 OA
HETATM   39  H8  UNL     1     -15.228  14.621  26.866  1.00  0.00     0.217 HD
ENDBRANCH   3  38
BRANCH   1  40
HETATM   40  C2  UNL     1     -14.019  13.077  21.588  1.00  0.00     0.308 C 
BRANCH  40  41
HETATM   41  N1  UNL     1     -12.577  13.282  21.470  1.00  0.00     0.083 N 
HETATM   42  C1  UNL     1     -11.935  13.276  22.773  1.00  0.00     0.307 C 
HETATM   43  H4  UNL     1     -12.187  12.541  20.887  1.00  0.00     0.315 HD
ENDBRANCH  40  41
ENDBRANCH   1  40
TORSDOF 8
ENDMDL
MODEL 8
REMARK minimizedAffinity -7.10554886
REMARK CNNscore 0.213066638
REMARK CNNaffinity 6.29495859
REMARK  8 active torsions:
REMARK  status: ('A' for Active; 'I' for Inactive)
REMARK    1  A    between atoms: N1_2  and  C2_3 
REMARK    2  A    between atoms: C2_3  and  C3_4 
REMARK    3  A    between atoms: C5_6  and  O1_7 
REMARK    4  A    between atoms: C20_22  and  N2_23 
REMARK    5  A    between atoms: C20_22  and  C21_24 
REMARK    6  A    between atoms: C21_24  and  C22_25 
REMARK    7  A    between atoms: C22_25  and  O2_26 
REMARK    8  A    between atoms: C27_31  and  C29_33 
ROOT
HETATM    1  C3  UNL     1       4.721   7.880  13.765  1.00  0.00    -0.021 A 
HETATM    2  C4  UNL     1       5.200   7.606  12.469  1.00  0.00     0.045 A 
HETATM    3  C5  UNL     1       4.390   7.783  11.366  1.00  0.00     0.066 A 
HETATM    4  C6  UNL     1       3.094   8.250  11.518  1.00  0.00     0.045 A 
HETATM    5  C7  UNL     1       2.555   8.549  12.797  1.00  0.00    -0.037 A 
HETATM    6  C8  UNL     1       3.385   8.357  13.948  1.00  0.00    -0.042 A 
HETATM    7  C9  UNL     1       2.895   8.624  15.364  1.00  0.00     0.044 C 
HETATM    8  C10 UNL     1       3.104  10.035  15.978  1.00  0.00    -0.010 C 
HETATM    9  C11 UNL     1       3.249  11.187  14.973  1.00  0.00     0.005 C 
HETATM   10  C12 UNL     1       2.691  12.501  15.488  1.00  0.00     0.001 C 
HETATM   11  C13 UNL     1       1.213  12.311  15.784  1.00  0.00     0.007 C 
HETATM   12  C14 UNL     1       0.982  11.332  16.951  1.00  0.00     0.022 C 
HETATM   13  C15 UNL     1       2.123  10.302  17.154  1.00  0.00     0.012 C 
HETATM   14  C16 UNL     1      -0.497  10.781  17.041  1.00  0.00     0.082 C 
HETATM   15  C17 UNL     1      -0.899  10.661  18.539  1.00  0.00     0.040 C 
HETATM   16  C18 UNL     1      -2.377  10.284  18.674  1.00  0.00     0.013 C 
HETATM   17  C19 UNL     1      -2.997  10.161  17.251  1.00  0.00     0.060 C 
HETATM   18  C20 UNL     1      -2.263   8.954  16.527  1.00  0.00     0.180 C 
HETATM   19  C23 UNL     1      -0.764   9.395  16.345  1.00  0.00     0.139 C 
HETATM   20  C24 UNL     1      -0.276   9.373  14.952  1.00  0.00    -0.096 C 
HETATM   21  C25 UNL     1       0.321   9.271  13.914  1.00  0.00    -0.101 C 
HETATM   22  C26 UNL     1       1.146   9.147  12.712  1.00  0.00     0.133 C 
HETATM   23  C27 UNL     1      -2.765  11.545  16.531  1.00  0.00     0.068 C 
HETATM   24  C28 UNL     1      -3.281  11.563  15.084  1.00  0.00     0.047 C 
HETATM   25  O3  UNL     1      -1.351  11.801  16.460  1.00  0.00    -0.367 OA
ENDROOT
BRANCH  18  26
HETATM   26  N2  UNL     1      -2.316   7.803  17.482  1.00  0.00     0.090 N 
HETATM   27  H27 UNL     1      -3.295   7.581  17.672  1.00  0.00     0.313 HD
HETATM   28  H28 UNL     1      -1.993   6.954  17.001  1.00  0.00     0.313 HD
ENDBRANCH  18  26
BRANCH  18  29
HETATM   29  C21 UNL     1      -3.014   8.447  15.248  1.00  0.00     0.069 C 
BRANCH  29  30
HETATM   30  C22 UNL     1      -3.296   6.939  15.135  1.00  0.00     0.166 C 
BRANCH  30  31
HETATM   31  O2  UNL     1      -2.084   6.191  15.171  1.00  0.00    -0.401 OA
HETATM   32  H33 UNL     1      -2.335   5.250  15.194  1.00  0.00     0.209 HD
ENDBRANCH  30  31
ENDBRANCH  29  30
ENDBRANCH  18  29
BRANCH  23  33
HETATM   33  C29 UNL     1      -3.383  12.747  17.325  1.00  0.00     0.020 C 
HETATM   34  C30 UNL     1      -2.379  13.789  17.836  1.00  0.00     0.007 C 
HETATM   35  C31 UNL     1      -2.996  14.386  19.104  1.00  0.00     0.000 C 
HETATM   36  C32 UNL     1      -4.383  13.769  19.230  1.00  0.00     0.000 C 
HETATM   37  C33 UNL     1      -4.240  12.412  18.557  1.00  0.00     0.007 C 
ENDBRANCH  23  33
BRANCH   3  38
HETATM   38  O1  UNL     1       4.910   7.498  10.139  1.00  0.00    -0.361 OA
HETATM   39  H8  UNL     1       4.240   7.691   9.464  1.00  0.00     0.217 HD
ENDBRANCH   3  38
BRANCH   1  40
HETATM   40  C2  UNL     1       5.716   7.676  14.898  1.00  0.00     0.308 C 
BRANCH  40  41
HETATM   41  N1  UNL     1       6.923   7.006  14.418  1.00  0.00     0.083 N 
HETATM   42  C1  UNL     1       8.120   7.725  14.817  1.00  0.00     0.307 C 
HETATM   43  H4  UNL     1       6.944   6.058  14.795  1.00  0.00     0.315 HD
ENDBRANCH  40  41
ENDBRANCH   1  40
TORSDOF 8
ENDMDL
MODEL 9
REMARK minimizedAffinity -7.50345325
REMARK CNNscore 0.172187805
REMARK CNNaffinity 6.28699875
REMARK  8 active torsions:
REMARK  status: ('A' for Active; 'I' for Inactive)
REMARK    1  A    between atoms: N1_2  and  C2_3 
REMARK    2  A    between atoms: C2_3  and  C3_4 
REMARK    3  A    between atoms: C5_6  and  O1_7 
REMARK    4  A    between atoms: C20_22  and  N2_23 
REMARK    5  A    between atoms: C20_22  and  C21_24 
REMARK    6  A    between atoms: C21_24  and  C22_25 
REMARK    7  A    between atoms: C22_25  and  O2_26 
REMARK    8  A    between atoms: C27_31  and  C29_33 
ROOT
HETATM    1  C3  UNL     1      -0.505   9.483  15.954  1.00  0.00    -0.021 A 
HETATM    2  C4  UNL     1      -1.895   9.336  15.791  1.00  0.00     0.045 A 
HETATM    3  C5  UNL     1      -2.764   9.664  16.812  1.00  0.00     0.066 A 
HETATM    4  C6  UNL     1      -2.278  10.160  18.011  1.00  0.00     0.045 A 
HETATM    5  C7  UNL     1      -0.888  10.336  18.235  1.00  0.00    -0.037 A 
HETATM    6  C8  UNL     1       0.022   9.987  17.185  1.00  0.00    -0.042 A 
HETATM    7  C9  UNL     1       1.531  10.115  17.333  1.00  0.00     0.044 C 
HETATM    8  C10 UNL     1       2.219  11.440  16.908  1.00  0.00    -0.010 C 
HETATM    9  C11 UNL     1       1.326  12.690  16.917  1.00  0.00     0.005 C 
HETATM   10  C12 UNL     1       2.082  13.959  17.266  1.00  0.00     0.001 C 
HETATM   11  C13 UNL     1       2.683  13.794  18.652  1.00  0.00     0.007 C 
HETATM   12  C14 UNL     1       3.769  12.701  18.679  1.00  0.00     0.022 C 
HETATM   13  C15 UNL     1       3.607  11.613  17.587  1.00  0.00     0.012 C 
HETATM   14  C16 UNL     1       4.136  12.200  20.133  1.00  0.00     0.082 C 
HETATM   15  C17 UNL     1       5.667  11.931  20.201  1.00  0.00     0.040 C 
HETATM   16  C18 UNL     1       6.094  11.597  21.633  1.00  0.00     0.013 C 
HETATM   17  C19 UNL     1       4.843  11.655  22.558  1.00  0.00     0.060 C 
HETATM   18  C20 UNL     1       3.856  10.508  22.077  1.00  0.00     0.180 C 
HETATM   19  C23 UNL     1       3.384  10.910  20.632  1.00  0.00     0.139 C 
HETATM   20  C24 UNL     1       1.922  11.023  20.465  1.00  0.00    -0.096 C 
HETATM   21  C25 UNL     1       0.772  11.014  20.119  1.00  0.00    -0.101 C 
HETATM   22  C26 UNL     1      -0.592  10.992  19.589  1.00  0.00     0.133 C 
HETATM   23  C27 UNL     1       4.230  13.100  22.406  1.00  0.00     0.068 C 
HETATM   24  C28 UNL     1       2.946  13.297  23.227  1.00  0.00     0.047 C 
HETATM   25  O3  UNL     1       3.867  13.309  21.030  1.00  0.00    -0.367 OA
ENDROOT
BRANCH  18  26
HETATM   26  N2  UNL     1       4.679   9.261  21.989  1.00  0.00     0.090 N 
HETATM   27  H27 UNL     1       5.063   9.058  22.914  1.00  0.00     0.313 HD
HETATM   28  H28 UNL     1       4.056   8.460  21.833  1.00  0.00     0.313 HD
ENDBRANCH  18  26
BRANCH  18  29
HETATM   29  C21 UNL     1       2.736  10.174  23.122  1.00  0.00     0.069 C 
BRANCH  29  30
HETATM   30  C22 UNL     1       2.424   8.691  23.386  1.00  0.00     0.166 C 
BRANCH  30  31
HETATM   31  O2  UNL     1       1.772   8.101  22.265  1.00  0.00    -0.401 OA
HETATM   32  H33 UNL     1       1.691   7.150  22.456  1.00  0.00     0.209 HD
ENDBRANCH  30  31
ENDBRANCH  29  30
ENDBRANCH  18  29
BRANCH  23  33
HETATM   33  C29 UNL     1       5.258  14.229  22.758  1.00  0.00     0.020 C 
HETATM   34  C30 UNL     1       5.543  15.239  21.638  1.00  0.00     0.007 C 
HETATM   35  C31 UNL     1       6.977  15.727  21.863  1.00  0.00     0.000 C 
HETATM   36  C32 UNL     1       7.443  15.089  23.165  1.00  0.00     0.000 C 
HETATM   37  C33 UNL     1       6.652  13.790  23.236  1.00  0.00     0.007 C 
ENDBRANCH  23  33
BRANCH   3  38
HETATM   38  O1  UNL     1      -4.099   9.497  16.593  1.00  0.00    -0.361 OA
HETATM   39  H8  UNL     1      -4.583   9.789  17.383  1.00  0.00     0.217 HD
ENDBRANCH   3  38
BRANCH   1  40
HETATM   40  C2  UNL     1       0.349   9.118  14.748  1.00  0.00     0.308 C 
BRANCH  40  41
HETATM   41  N1  UNL     1      -0.136   9.790  13.544  1.00  0.00     0.083 N 
HETATM   42  C1  UNL     1      -0.456   8.834  12.499  1.00  0.00     0.307 C 
HETATM   43  H4  UNL     1      -0.965  10.334  13.784  1.00  0.00     0.315 HD
ENDBRANCH  40  41
ENDBRANCH   1  40
TORSDOF 8
ENDMDL
