MODEL 1
REMARK minimizedAffinity -3.93299937
REMARK  3 active torsions:
REMARK  status: ('A' for Active; 'I' for Inactive)
REMARK    1  A    between atoms: N1_2  and  C4_5 
REMARK    2  A    between atoms: C4_5  and  C5_6 
REMARK    3  A    between atoms: C5_6  and  O2_8 
ROOT
HETATM    1  C4  UNL     1       0.366  52.727 -27.946  1.00  0.00     0.345 C 
ENDROOT
BRANCH   1   2
HETATM    2  N1  UNL     1       0.801  51.973 -26.644  1.00  0.00    -0.069 N 
HETATM    3  C1  UNL     1       0.543  52.837 -25.415  1.00  0.00     0.272 C 
HETATM    4  C2  UNL     1       2.279  51.605 -26.707  1.00  0.00     0.272 C 
HETATM    5  C3  UNL     1      -0.024  50.696 -26.535  1.00  0.00     0.272 C 
ENDBRANCH   1   2
BRANCH   1   6
HETATM    6  C5  UNL     1      -0.587  53.908 -27.778  1.00  0.00     0.166 C 
HETATM    7  O1  UNL     1      -0.285  55.057 -27.508  1.00  0.00    -0.649 OA
BRANCH   6   8
HETATM    8  O2  UNL     1      -1.872  53.551 -27.966  1.00  0.00    -0.775 OA
HETATM    9  H12 UNL     1      -2.410  54.366 -27.839  1.00  0.00     0.167 HD
ENDBRANCH   6   8
ENDBRANCH   1   6
TORSDOF 3
ENDMDL
MODEL 2
REMARK minimizedAffinity -3.91889644
REMARK  3 active torsions:
REMARK  status: ('A' for Active; 'I' for Inactive)
REMARK    1  A    between atoms: N1_2  and  C4_5 
REMARK    2  A    between atoms: C4_5  and  C5_6 
REMARK    3  A    between atoms: C5_6  and  O2_8 
ROOT
HETATM    1  C4  UNL     1       0.387  52.772 -27.946  1.00  0.00     0.345 C 
ENDROOT
BRANCH   1   2
HETATM    2  N1  UNL     1       0.770  51.971 -26.656  1.00  0.00    -0.069 N 
HETATM    3  C1  UNL     1       2.246  51.588 -26.682  1.00  0.00     0.272 C 
HETATM    4  C2  UNL     1      -0.080  50.711 -26.536  1.00  0.00     0.272 C 
HETATM    5  C3  UNL     1       0.510  52.861 -25.447  1.00  0.00     0.272 C 
ENDBRANCH   1   2
BRANCH   1   6
HETATM    6  C5  UNL     1      -0.585  53.936 -27.776  1.00  0.00     0.166 C 
HETATM    7  O1  UNL     1      -0.303  55.088 -27.498  1.00  0.00    -0.649 OA
BRANCH   6   8
HETATM    8  O2  UNL     1      -1.863  53.561 -27.971  1.00  0.00    -0.775 OA
HETATM    9  H12 UNL     1      -2.414  54.366 -27.842  1.00  0.00     0.167 HD
ENDBRANCH   6   8
ENDBRANCH   1   6
TORSDOF 3
ENDMDL
MODEL 3
REMARK minimizedAffinity -3.83626842
REMARK  3 active torsions:
REMARK  status: ('A' for Active; 'I' for Inactive)
REMARK    1  A    between atoms: N1_2  and  C4_5 
REMARK    2  A    between atoms: C4_5  and  C5_6 
REMARK    3  A    between atoms: C5_6  and  O2_8 
ROOT
HETATM    1  C4  UNL     1       1.038  51.943 -27.867  1.00  0.00     0.345 C 
ENDROOT
BRANCH   1   2
HETATM    2  N1  UNL     1      -0.318  52.497 -27.312  1.00  0.00    -0.069 N 
HETATM    3  C1  UNL     1      -0.187  52.846 -25.833  1.00  0.00     0.272 C 
HETATM    4  C2  UNL     1      -1.431  51.472 -27.496  1.00  0.00     0.272 C 
HETATM    5  C3  UNL     1      -0.671  53.758 -28.090  1.00  0.00     0.272 C 
ENDBRANCH   1   2
BRANCH   1   6
HETATM    6  C5  UNL     1       2.197  51.831 -26.881  1.00  0.00     0.166 C 
HETATM    7  O1  UNL     1       2.153  52.021 -25.678  1.00  0.00    -0.649 OA
BRANCH   6   8
HETATM    8  O2  UNL     1       3.347  51.483 -27.489  1.00  0.00    -0.775 OA
HETATM    9  H12 UNL     1       4.033  51.435 -26.784  1.00  0.00     0.167 HD
ENDBRANCH   6   8
ENDBRANCH   1   6
TORSDOF 3
ENDMDL
MODEL 4
REMARK minimizedAffinity -3.79325461
REMARK  3 active torsions:
REMARK  status: ('A' for Active; 'I' for Inactive)
REMARK    1  A    between atoms: N1_2  and  C4_5 
REMARK    2  A    between atoms: C4_5  and  C5_6 
REMARK    3  A    between atoms: C5_6  and  O2_8 
ROOT
HETATM    1  C4  UNL     1       4.334  63.708 -34.084  1.00  0.00     0.345 C 
ENDROOT
BRANCH   1   2
HETATM    2  N1  UNL     1       5.645  63.339 -34.858  1.00  0.00    -0.069 N 
HETATM    3  C1  UNL     1       6.870  63.855 -34.111  1.00  0.00     0.272 C 
HETATM    4  C2  UNL     1       5.620  63.930 -36.263  1.00  0.00     0.272 C 
HETATM    5  C3  UNL     1       5.727  61.821 -34.959  1.00  0.00     0.272 C 
ENDBRANCH   1   2
BRANCH   1   6
HETATM    6  C5  UNL     1       4.379  63.617 -32.561  1.00  0.00     0.166 C 
HETATM    7  O1  UNL     1       4.663  64.513 -31.785  1.00  0.00    -0.649 OA
BRANCH   6   8
HETATM    8  O2  UNL     1       4.060  62.387 -32.118  1.00  0.00    -0.775 OA
HETATM    9  H12 UNL     1       4.116  62.420 -31.135  1.00  0.00     0.167 HD
ENDBRANCH   6   8
ENDBRANCH   1   6
TORSDOF 3
ENDMDL
MODEL 5
REMARK minimizedAffinity -3.73680377
REMARK  3 active torsions:
REMARK  status: ('A' for Active; 'I' for Inactive)
REMARK    1  A    between atoms: N1_2  and  C4_5 
REMARK    2  A    between atoms: C4_5  and  C5_6 
REMARK    3  A    between atoms: C5_6  and  O2_8 
ROOT
HETATM    1  C4  UNL     1       1.581  51.841 -25.906  1.00  0.00     0.345 C 
ENDROOT
BRANCH   1   2
HETATM    2  N1  UNL     1       0.249  52.623 -25.647  1.00  0.00    -0.069 N 
HETATM    3  C1  UNL     1      -0.952  51.693 -25.779  1.00  0.00     0.272 C 
HETATM    4  C2  UNL     1       0.108  53.779 -26.631  1.00  0.00     0.272 C 
HETATM    5  C3  UNL     1       0.291  53.180 -24.230  1.00  0.00     0.272 C 
ENDBRANCH   1   2
BRANCH   1   6
HETATM    6  C5  UNL     1       2.019  51.677 -27.359  1.00  0.00     0.166 C 
HETATM    7  O1  UNL     1       1.293  51.594 -28.334  1.00  0.00    -0.649 OA
BRANCH   6   8
HETATM    8  O2  UNL     1       3.358  51.629 -27.482  1.00  0.00    -0.775 OA
HETATM    9  H12 UNL     1       3.548  51.523 -28.442  1.00  0.00     0.167 HD
ENDBRANCH   6   8
ENDBRANCH   1   6
TORSDOF 3
ENDMDL
MODEL 6
REMARK minimizedAffinity -3.64676356
REMARK  3 active torsions:
REMARK  status: ('A' for Active; 'I' for Inactive)
REMARK    1  A    between atoms: N1_2  and  C4_5 
REMARK    2  A    between atoms: C4_5  and  C5_6 
REMARK    3  A    between atoms: C5_6  and  O2_8 
ROOT
HETATM    1  C4  UNL     1       0.937  52.726 -25.214  1.00  0.00     0.345 C 
ENDROOT
BRANCH   1   2
HETATM    2  N1  UNL     1       1.048  51.879 -26.528  1.00  0.00    -0.069 N 
HETATM    3  C1  UNL     1       0.590  52.696 -27.731  1.00  0.00     0.272 C 
HETATM    4  C2  UNL     1       0.206  50.613 -26.421  1.00  0.00     0.272 C 
HETATM    5  C3  UNL     1       2.508  51.488 -26.720  1.00  0.00     0.272 C 
ENDBRANCH   1   2
BRANCH   1   6
HETATM    6  C5  UNL     1      -0.038  53.901 -25.227  1.00  0.00     0.166 C 
HETATM    7  O1  UNL     1       0.235  55.073 -25.416  1.00  0.00    -0.649 OA
BRANCH   6   8
HETATM    8  O2  UNL     1      -1.305  53.509 -24.998  1.00  0.00    -0.775 OA
HETATM    9  H12 UNL     1      -1.858  54.323 -25.024  1.00  0.00     0.167 HD
ENDBRANCH   6   8
ENDBRANCH   1   6
TORSDOF 3
ENDMDL
MODEL 7
REMARK minimizedAffinity -3.57675624
REMARK  3 active torsions:
REMARK  status: ('A' for Active; 'I' for Inactive)
REMARK    1  A    between atoms: N1_2  and  C4_5 
REMARK    2  A    between atoms: C4_5  and  C5_6 
REMARK    3  A    between atoms: C5_6  and  O2_8 
ROOT
HETATM    1  C4  UNL     1       0.023  53.551 -26.481  1.00  0.00     0.345 C 
ENDROOT
BRANCH   1   2
HETATM    2  N1  UNL     1      -0.289  52.348 -25.528  1.00  0.00    -0.069 N 
HETATM    3  C1  UNL     1       0.643  52.365 -24.321  1.00  0.00     0.272 C 
HETATM    4  C2  UNL     1      -0.137  51.025 -26.269  1.00  0.00     0.272 C 
HETATM    5  C3  UNL     1      -1.728  52.483 -25.046  1.00  0.00     0.272 C 
ENDBRANCH   1   2
BRANCH   1   6
HETATM    6  C5  UNL     1      -0.727  53.595 -27.810  1.00  0.00     0.166 C 
HETATM    7  O1  UNL     1      -1.861  54.000 -27.995  1.00  0.00    -0.649 OA
BRANCH   6   8
HETATM    8  O2  UNL     1       0.017  53.120 -28.826  1.00  0.00    -0.775 OA
HETATM    9  H12 UNL     1      -0.540  53.185 -29.635  1.00  0.00     0.167 HD
ENDBRANCH   6   8
ENDBRANCH   1   6
TORSDOF 3
ENDMDL
MODEL 8
REMARK minimizedAffinity -3.57665515
REMARK  3 active torsions:
REMARK  status: ('A' for Active; 'I' for Inactive)
REMARK    1  A    between atoms: N1_2  and  C4_5 
REMARK    2  A    between atoms: C4_5  and  C5_6 
REMARK    3  A    between atoms: C5_6  and  O2_8 
ROOT
HETATM    1  C4  UNL     1      -1.054  51.478 -26.435  1.00  0.00     0.345 C 
ENDROOT
BRANCH   1   2
HETATM    2  N1  UNL     1       0.254  52.240 -26.839  1.00  0.00    -0.069 N 
HETATM    3  C1  UNL     1      -0.015  53.736 -26.959  1.00  0.00     0.272 C 
HETATM    4  C2  UNL     1       0.794  51.711 -28.163  1.00  0.00     0.272 C 
HETATM    5  C3  UNL     1       1.295  52.008 -25.751  1.00  0.00     0.272 C 
ENDBRANCH   1   2
BRANCH   1   6
HETATM    6  C5  UNL     1      -2.381  52.111 -26.847  1.00  0.00     0.166 C 
HETATM    7  O1  UNL     1      -3.081  52.843 -26.170  1.00  0.00    -0.649 OA
BRANCH   6   8
HETATM    8  O2  UNL     1      -2.735  51.771 -28.100  1.00  0.00    -0.775 OA
HETATM    9  H12 UNL     1      -3.594  52.219 -28.279  1.00  0.00     0.167 HD
ENDBRANCH   6   8
ENDBRANCH   1   6
TORSDOF 3
ENDMDL
MODEL 9
REMARK minimizedAffinity -3.56637144
REMARK  3 active torsions:
REMARK  status: ('A' for Active; 'I' for Inactive)
REMARK    1  A    between atoms: N1_2  and  C4_5 
REMARK    2  A    between atoms: C4_5  and  C5_6 
REMARK    3  A    between atoms: C5_6  and  O2_8 
ROOT
HETATM    1  C4  UNL     1       5.668  62.686 -34.173  1.00  0.00     0.345 C 
ENDROOT
BRANCH   1   2
HETATM    2  N1  UNL     1       6.356  63.889 -34.902  1.00  0.00    -0.069 N 
HETATM    3  C1  UNL     1       5.808  64.042 -36.316  1.00  0.00     0.272 C 
HETATM    4  C2  UNL     1       7.866  63.687 -34.961  1.00  0.00     0.272 C 
HETATM    5  C3  UNL     1       6.056  65.158 -34.113  1.00  0.00     0.272 C 
ENDBRANCH   1   2
BRANCH   1   6
HETATM    6  C5  UNL     1       4.482  63.009 -33.268  1.00  0.00     0.166 C 
HETATM    7  O1  UNL     1       4.517  63.232 -32.071  1.00  0.00    -0.649 OA
BRANCH   6   8
HETATM    8  O2  UNL     1       3.319  63.029 -33.947  1.00  0.00    -0.775 OA
HETATM    9  H12 UNL     1       2.616  63.243 -33.291  1.00  0.00     0.167 HD
ENDBRANCH   6   8
ENDBRANCH   1   6
TORSDOF 3
ENDMDL
