MODEL 1
REMARK minimizedAffinity -8.06989956
REMARK CNNscore 0.441753387
REMARK CNNaffinity 6.8275609
REMARK  10 active torsions:
REMARK  status: ('A' for Active; 'I' for Inactive)
REMARK    1  A    between atoms: C14_14  and  C15_15 
REMARK    2  A    between atoms: C15_15  and  C17_17 
REMARK    3  A    between atoms: C17_17  and  C18_18 
REMARK    4  A    between atoms: C18_18  and  C19_19 
REMARK    5  A    between atoms: C20_20  and  C22_22 
REMARK    6  A    between atoms: C22_22  and  O2_24 
REMARK    7  A    between atoms: C27_29  and  C28_30 
REMARK    8  A    between atoms: C28_30  and  C29_31 
REMARK    9  A    between atoms: C29_31  and  C30_32 
REMARK   10  A    between atoms: C30_32  and  O3_33 
ROOT
HETATM    1  C1  UNL     1      -5.316   5.147  13.274  1.00  0.00     0.043 C 
HETATM    2  C2  UNL     1      -4.649   6.461  13.623  1.00  0.00    -0.085 C 
HETATM    3  C3  UNL     1      -5.595   7.629  13.464  1.00  0.00     0.043 C 
HETATM    4  C4  UNL     1      -3.357   6.562  14.038  1.00  0.00    -0.073 C 
HETATM    5  C5  UNL     1      -2.477   5.337  14.159  1.00  0.00     0.035 C 
HETATM    6  C6  UNL     1      -0.972   5.582  14.247  1.00  0.00     0.010 C 
HETATM    7  C7  UNL     1      -0.414   6.802  13.489  1.00  0.00     0.003 C 
HETATM    8  C8  UNL     1      -1.314   8.115  13.602  1.00  0.00    -0.032 C 
HETATM    9  C9  UNL     1      -0.551   9.268  14.316  1.00  0.00     0.016 C 
HETATM   10  C10 UNL     1      -1.679   8.685  12.180  1.00  0.00     0.011 C 
HETATM   11  C11 UNL     1      -0.580   8.737  11.098  1.00  0.00     0.011 C 
HETATM   12  C12 UNL     1       0.576   7.746  11.295  1.00  0.00    -0.032 C 
HETATM   13  C13 UNL     1       1.740   8.434  12.070  1.00  0.00     0.016 C 
HETATM   14  C14 UNL     1       1.158   7.142   9.976  1.00  0.00    -0.002 C 
HETATM   15  C23 UNL     1       1.829   5.827  10.456  1.00  0.00     0.006 C 
HETATM   16  C24 UNL     1       1.280   5.543  11.878  1.00  0.00     0.011 C 
HETATM   17  C25 UNL     1       0.035   6.456  12.017  1.00  0.00    -0.032 C 
HETATM   18  C26 UNL     1      -1.115   5.704  11.268  1.00  0.00     0.016 C 
HETATM   19  C27 UNL     1      -2.681   7.885  14.384  1.00  0.00     0.023 C 
ENDROOT
BRANCH  14  20
HETATM   20  C15 UNL     1       1.900   8.011   8.919  1.00  0.00    -0.014 C 
HETATM   21  C16 UNL     1       1.476   7.570   7.505  1.00  0.00     0.010 C 
BRANCH  20  22
HETATM   22  C17 UNL     1       3.430   8.218   8.962  1.00  0.00     0.008 C 
BRANCH  22  23
HETATM   23  C18 UNL     1       4.261   7.247   9.807  1.00  0.00     0.028 C 
BRANCH  23  24
HETATM   24  C19 UNL     1       5.136   8.005  10.770  1.00  0.00    -0.013 C 
HETATM   25  C20 UNL     1       6.277   7.592  11.356  1.00  0.00     0.008 C 
HETATM   26  C21 UNL     1       6.924   6.251  11.189  1.00  0.00     0.055 C 
BRANCH  25  27
HETATM   27  C22 UNL     1       6.942   8.567  12.260  1.00  0.00     0.171 C 
HETATM   28  O1  UNL     1       8.140   8.709  12.423  1.00  0.00    -0.646 OA
BRANCH  27  29
HETATM   29  O2  UNL     1       6.060   9.327  12.933  1.00  0.00    -0.773 OA
HETATM   30  H35 UNL     1       6.633   9.910  13.473  1.00  0.00     0.167 HD
ENDBRANCH  27  29
ENDBRANCH  25  27
ENDBRANCH  23  24
ENDBRANCH  22  23
ENDBRANCH  20  22
ENDBRANCH  14  20
BRANCH  19  31
HETATM   31  C28 UNL     1      -2.762   8.184  15.915  1.00  0.00     0.012 C 
BRANCH  31  32
HETATM   32  C29 UNL     1      -3.201   9.573  16.376  1.00  0.00     0.027 C 
BRANCH  32  33
HETATM   33  C30 UNL     1      -4.503  10.025  15.717  1.00  0.00     0.164 C 
BRANCH  33  34
HETATM   34  O3  UNL     1      -4.516  11.431  15.514  1.00  0.00    -0.401 OA
HETATM   35  H50 UNL     1      -4.674  11.848  16.379  1.00  0.00     0.209 HD
ENDBRANCH  33  34
ENDBRANCH  32  33
ENDBRANCH  31  32
ENDBRANCH  19  31
TORSDOF 10
ENDMDL
MODEL 2
REMARK minimizedAffinity -6.86410761
REMARK CNNscore 0.339378655
REMARK CNNaffinity 6.35379934
REMARK  10 active torsions:
REMARK  status: ('A' for Active; 'I' for Inactive)
REMARK    1  A    between atoms: C14_14  and  C15_15 
REMARK    2  A    between atoms: C15_15  and  C17_17 
REMARK    3  A    between atoms: C17_17  and  C18_18 
REMARK    4  A    between atoms: C18_18  and  C19_19 
REMARK    5  A    between atoms: C20_20  and  C22_22 
REMARK    6  A    between atoms: C22_22  and  O2_24 
REMARK    7  A    between atoms: C27_29  and  C28_30 
REMARK    8  A    between atoms: C28_30  and  C29_31 
REMARK    9  A    between atoms: C29_31  and  C30_32 
REMARK   10  A    between atoms: C30_32  and  O3_33 
ROOT
HETATM    1  C1  UNL     1      19.783  -2.417   1.078  1.00  0.00     0.043 C 
HETATM    2  C2  UNL     1      18.847  -1.697   2.024  1.00  0.00    -0.085 C 
HETATM    3  C3  UNL     1      19.583  -1.130   3.217  1.00  0.00     0.043 C 
HETATM    4  C4  UNL     1      17.509  -1.572   1.810  1.00  0.00    -0.073 C 
HETATM    5  C5  UNL     1      16.853  -2.182   0.591  1.00  0.00     0.035 C 
HETATM    6  C6  UNL     1      15.333  -2.330   0.633  1.00  0.00     0.010 C 
HETATM    7  C7  UNL     1      14.692  -2.596   2.009  1.00  0.00     0.003 C 
HETATM    8  C8  UNL     1      15.316  -1.738   3.202  1.00  0.00    -0.032 C 
HETATM    9  C9  UNL     1      14.258  -0.787   3.832  1.00  0.00     0.016 C 
HETATM   10  C10 UNL     1      15.790  -2.662   4.386  1.00  0.00     0.011 C 
HETATM   11  C11 UNL     1      14.882  -3.830   4.824  1.00  0.00     0.011 C 
HETATM   12  C12 UNL     1      13.904  -4.334   3.753  1.00  0.00    -0.032 C 
HETATM   13  C13 UNL     1      12.530  -3.615   3.907  1.00  0.00     0.016 C 
HETATM   14  C14 UNL     1      13.651  -5.876   3.764  1.00  0.00    -0.002 C 
HETATM   15  C23 UNL     1      13.159  -6.164   2.320  1.00  0.00     0.006 C 
HETATM   16  C24 UNL     1      13.521  -4.917   1.472  1.00  0.00     0.011 C 
HETATM   17  C25 UNL     1      14.546  -4.133   2.331  1.00  0.00    -0.032 C 
HETATM   18  C26 UNL     1      15.914  -4.859   2.106  1.00  0.00     0.016 C 
HETATM   19  C27 UNL     1      16.563  -0.851   2.765  1.00  0.00     0.023 C 
ENDROOT
BRANCH  14  20
HETATM   20  C15 UNL     1      12.941  -6.595   4.947  1.00  0.00    -0.014 C 
HETATM   21  C16 UNL     1      13.246  -8.104   4.888  1.00  0.00     0.010 C 
BRANCH  20  22
HETATM   22  C17 UNL     1      11.442  -6.379   5.252  1.00  0.00     0.008 C 
BRANCH  22  23
HETATM   23  C18 UNL     1      11.071  -5.680   6.564  1.00  0.00     0.028 C 
BRANCH  23  24
HETATM   24  C19 UNL     1      12.313  -5.272   7.311  1.00  0.00    -0.013 C 
HETATM   25  C20 UNL     1      12.609  -5.488   8.608  1.00  0.00     0.008 C 
HETATM   26  C21 UNL     1      11.738  -6.176   9.614  1.00  0.00     0.055 C 
BRANCH  25  27
HETATM   27  C22 UNL     1      13.926  -4.979   9.075  1.00  0.00     0.171 C 
HETATM   28  O1  UNL     1      14.216  -3.821   9.316  1.00  0.00    -0.646 OA
BRANCH  27  29
HETATM   29  O2  UNL     1      14.835  -5.960   9.214  1.00  0.00    -0.773 OA
HETATM   30  H35 UNL     1      15.633  -5.484   9.524  1.00  0.00     0.167 HD
ENDBRANCH  27  29
ENDBRANCH  25  27
ENDBRANCH  23  24
ENDBRANCH  22  23
ENDBRANCH  20  22
ENDBRANCH  14  20
BRANCH  19  31
HETATM   31  C28 UNL     1      16.349   0.637   2.343  1.00  0.00     0.012 C 
BRANCH  31  32
HETATM   32  C29 UNL     1      16.705   1.746   3.332  1.00  0.00     0.027 C 
BRANCH  32  33
HETATM   33  C30 UNL     1      18.186   1.745   3.706  1.00  0.00     0.164 C 
BRANCH  33  34
HETATM   34  O3  UNL     1      18.893   2.764   3.013  1.00  0.00    -0.401 OA
HETATM   35  H50 UNL     1      19.005   2.467   2.093  1.00  0.00     0.209 HD
ENDBRANCH  33  34
ENDBRANCH  32  33
ENDBRANCH  31  32
ENDBRANCH  19  31
TORSDOF 10
ENDMDL
MODEL 3
REMARK minimizedAffinity -7.46879864
REMARK CNNscore 0.337323546
REMARK CNNaffinity 6.17868805
REMARK  10 active torsions:
REMARK  status: ('A' for Active; 'I' for Inactive)
REMARK    1  A    between atoms: C14_14  and  C15_15 
REMARK    2  A    between atoms: C15_15  and  C17_17 
REMARK    3  A    between atoms: C17_17  and  C18_18 
REMARK    4  A    between atoms: C18_18  and  C19_19 
REMARK    5  A    between atoms: C20_20  and  C22_22 
REMARK    6  A    between atoms: C22_22  and  O2_24 
REMARK    7  A    between atoms: C27_29  and  C28_30 
REMARK    8  A    between atoms: C28_30  and  C29_31 
REMARK    9  A    between atoms: C29_31  and  C30_32 
REMARK   10  A    between atoms: C30_32  and  O3_33 
ROOT
HETATM    1  C1  UNL     1      -2.772   5.233  12.940  1.00  0.00     0.043 C 
HETATM    2  C2  UNL     1      -1.323   5.657  12.829  1.00  0.00    -0.085 C 
HETATM    3  C3  UNL     1      -0.387   4.471  12.876  1.00  0.00     0.043 C 
HETATM    4  C4  UNL     1      -0.927   6.952  12.692  1.00  0.00    -0.073 C 
HETATM    5  C5  UNL     1      -1.935   8.080  12.665  1.00  0.00     0.035 C 
HETATM    6  C6  UNL     1      -1.393   9.488  12.901  1.00  0.00     0.010 C 
HETATM    7  C7  UNL     1      -0.179   9.625  13.842  1.00  0.00     0.003 C 
HETATM    8  C8  UNL     1       0.937   8.501  13.642  1.00  0.00    -0.032 C 
HETATM    9  C9  UNL     1       2.288   9.119  13.182  1.00  0.00     0.016 C 
HETATM   10  C10 UNL     1       1.263   7.769  14.998  1.00  0.00     0.011 C 
HETATM   11  C11 UNL     1       1.406   8.614  16.281  1.00  0.00     0.011 C 
HETATM   12  C12 UNL     1       0.689   9.972  16.252  1.00  0.00    -0.032 C 
HETATM   13  C13 UNL     1       1.672  11.084  15.780  1.00  0.00     0.016 C 
HETATM   14  C14 UNL     1       0.066  10.417  17.614  1.00  0.00    -0.002 C 
HETATM   15  C23 UNL     1      -1.031  11.429  17.188  1.00  0.00     0.006 C 
HETATM   16  C24 UNL     1      -1.256  11.223  15.667  1.00  0.00     0.011 C 
HETATM   17  C25 UNL     1      -0.593   9.860  15.345  1.00  0.00    -0.032 C 
HETATM   18  C26 UNL     1      -1.634   8.779  15.790  1.00  0.00     0.016 C 
HETATM   19  C27 UNL     1       0.533   7.382  12.585  1.00  0.00     0.023 C 
ENDROOT
BRANCH  14  20
HETATM   20  C15 UNL     1       0.939  10.750  18.859  1.00  0.00    -0.014 C 
HETATM   21  C16 UNL     1       0.128  11.624  19.836  1.00  0.00     0.010 C 
BRANCH  20  22
HETATM   22  C17 UNL     1       2.370  11.314  18.724  1.00  0.00     0.008 C 
BRANCH  22  23
HETATM   23  C18 UNL     1       3.399  10.921  19.790  1.00  0.00     0.028 C 
BRANCH  23  24
HETATM   24  C19 UNL     1       2.814   9.903  20.733  1.00  0.00    -0.013 C 
HETATM   25  C20 UNL     1       3.140   9.683  22.023  1.00  0.00     0.008 C 
HETATM   26  C21 UNL     1       4.193  10.406  22.806  1.00  0.00     0.055 C 
BRANCH  25  27
HETATM   27  C22 UNL     1       2.381   8.612  22.719  1.00  0.00     0.171 C 
HETATM   28  O1  UNL     1       1.773   7.694  22.198  1.00  0.00    -0.646 OA
BRANCH  27  29
HETATM   29  O2  UNL     1       2.414   8.744  24.056  1.00  0.00    -0.773 OA
HETATM   30  H35 UNL     1       1.886   7.982  24.371  1.00  0.00     0.167 HD
ENDBRANCH  27  29
ENDBRANCH  25  27
ENDBRANCH  23  24
ENDBRANCH  22  23
ENDBRANCH  20  22
ENDBRANCH  14  20
BRANCH  19  31
HETATM   31  C28 UNL     1       0.980   7.522  11.096  1.00  0.00     0.012 C 
BRANCH  31  32
HETATM   32  C29 UNL     1       1.778   6.388  10.452  1.00  0.00     0.027 C 
BRANCH  32  33
HETATM   33  C30 UNL     1       2.080   6.649   8.978  1.00  0.00     0.164 C 
BRANCH  33  34
HETATM   34  O3  UNL     1       3.476   6.586   8.719  1.00  0.00    -0.401 OA
HETATM   35  H50 UNL     1       3.873   7.405   9.065  1.00  0.00     0.209 HD
ENDBRANCH  33  34
ENDBRANCH  32  33
ENDBRANCH  31  32
ENDBRANCH  19  31
TORSDOF 10
ENDMDL
MODEL 4
REMARK minimizedAffinity -8.607584
REMARK CNNscore 0.270299733
REMARK CNNaffinity 6.91083336
REMARK  10 active torsions:
REMARK  status: ('A' for Active; 'I' for Inactive)
REMARK    1  A    between atoms: C14_14  and  C15_15 
REMARK    2  A    between atoms: C15_15  and  C17_17 
REMARK    3  A    between atoms: C17_17  and  C18_18 
REMARK    4  A    between atoms: C18_18  and  C19_19 
REMARK    5  A    between atoms: C20_20  and  C22_22 
REMARK    6  A    between atoms: C22_22  and  O2_24 
REMARK    7  A    between atoms: C27_29  and  C28_30 
REMARK    8  A    between atoms: C28_30  and  C29_31 
REMARK    9  A    between atoms: C29_31  and  C30_32 
REMARK   10  A    between atoms: C30_32  and  O3_33 
ROOT
HETATM    1  C1  UNL     1      -8.460   4.052  12.580  1.00  0.00     0.043 C 
HETATM    2  C2  UNL     1      -8.287   5.505  12.967  1.00  0.00    -0.085 C 
HETATM    3  C3  UNL     1      -9.067   6.425  12.054  1.00  0.00     0.043 C 
HETATM    4  C4  UNL     1      -7.529   5.919  14.019  1.00  0.00    -0.073 C 
HETATM    5  C5  UNL     1      -6.773   4.927  14.875  1.00  0.00     0.035 C 
HETATM    6  C6  UNL     1      -5.664   5.493  15.760  1.00  0.00     0.010 C 
HETATM    7  C7  UNL     1      -4.899   6.721  15.229  1.00  0.00     0.003 C 
HETATM    8  C8  UNL     1      -5.823   7.818  14.528  1.00  0.00    -0.032 C 
HETATM    9  C9  UNL     1      -5.778   9.172  15.292  1.00  0.00     0.016 C 
HETATM   10  C10 UNL     1      -5.315   8.152  13.075  1.00  0.00     0.011 C 
HETATM   11  C11 UNL     1      -3.799   8.325  12.841  1.00  0.00     0.011 C 
HETATM   12  C12 UNL     1      -2.897   7.627  13.868  1.00  0.00    -0.032 C 
HETATM   13  C13 UNL     1      -2.521   8.621  15.008  1.00  0.00     0.016 C 
HETATM   14  C14 UNL     1      -1.575   7.030  13.286  1.00  0.00    -0.002 C 
HETATM   15  C23 UNL     1      -1.191   5.942  14.324  1.00  0.00     0.006 C 
HETATM   16  C24 UNL     1      -2.452   5.693  15.191  1.00  0.00     0.011 C 
HETATM   17  C25 UNL     1      -3.618   6.332  14.395  1.00  0.00    -0.032 C 
HETATM   18  C26 UNL     1      -3.992   5.281  13.297  1.00  0.00     0.016 C 
HETATM   19  C27 UNL     1      -7.350   7.384  14.407  1.00  0.00     0.023 C 
ENDROOT
BRANCH  14  20
HETATM   20  C15 UNL     1      -0.446   7.925  12.697  1.00  0.00    -0.014 C 
HETATM   21  C16 UNL     1      -1.068   9.002  11.786  1.00  0.00     0.010 C 
BRANCH  20  22
HETATM   22  C17 UNL     1       0.799   7.322  12.011  1.00  0.00     0.008 C 
BRANCH  22  23
HETATM   23  C18 UNL     1       0.577   6.360  10.839  1.00  0.00     0.028 C 
BRANCH  23  24
HETATM   24  C19 UNL     1       1.397   6.784   9.649  1.00  0.00    -0.013 C 
HETATM   25  C20 UNL     1       1.073   7.680   8.694  1.00  0.00     0.008 C 
HETATM   26  C21 UNL     1      -0.210   8.446   8.598  1.00  0.00     0.055 C 
BRANCH  25  27
HETATM   27  C22 UNL     1       2.092   7.910   7.638  1.00  0.00     0.171 C 
HETATM   28  O1  UNL     1       2.874   8.843   7.570  1.00  0.00    -0.646 OA
BRANCH  27  29
HETATM   29  O2  UNL     1       2.083   6.951   6.697  1.00  0.00    -0.773 OA
HETATM   30  H35 UNL     1       2.794   7.230   6.084  1.00  0.00     0.167 HD
ENDBRANCH  27  29
ENDBRANCH  25  27
ENDBRANCH  23  24
ENDBRANCH  22  23
ENDBRANCH  20  22
ENDBRANCH  14  20
BRANCH  19  31
HETATM   31  C28 UNL     1      -8.369   7.812  15.508  1.00  0.00     0.012 C 
BRANCH  31  32
HETATM   32  C29 UNL     1      -9.508   8.761  15.136  1.00  0.00     0.027 C 
BRANCH  32  33
HETATM   33  C30 UNL     1     -10.841   8.037  14.962  1.00  0.00     0.164 C 
BRANCH  33  34
HETATM   34  O3  UNL     1     -10.715   6.651  15.248  1.00  0.00    -0.401 OA
HETATM   35  H50 UNL     1     -10.260   6.238  14.494  1.00  0.00     0.209 HD
ENDBRANCH  33  34
ENDBRANCH  32  33
ENDBRANCH  31  32
ENDBRANCH  19  31
TORSDOF 10
ENDMDL
MODEL 5
REMARK minimizedAffinity -8.43354893
REMARK CNNscore 0.26818037
REMARK CNNaffinity 6.92173195
REMARK  10 active torsions:
REMARK  status: ('A' for Active; 'I' for Inactive)
REMARK    1  A    between atoms: C14_14  and  C15_15 
REMARK    2  A    between atoms: C15_15  and  C17_17 
REMARK    3  A    between atoms: C17_17  and  C18_18 
REMARK    4  A    between atoms: C18_18  and  C19_19 
REMARK    5  A    between atoms: C20_20  and  C22_22 
REMARK    6  A    between atoms: C22_22  and  O2_24 
REMARK    7  A    between atoms: C27_29  and  C28_30 
REMARK    8  A    between atoms: C28_30  and  C29_31 
REMARK    9  A    between atoms: C29_31  and  C30_32 
REMARK   10  A    between atoms: C30_32  and  O3_33 
ROOT
HETATM    1  C1  UNL     1      -7.361   7.525  16.450  1.00  0.00     0.043 C 
HETATM    2  C2  UNL     1      -6.687   6.428  15.655  1.00  0.00    -0.085 C 
HETATM    3  C3  UNL     1      -6.881   5.072  16.294  1.00  0.00     0.043 C 
HETATM    4  C4  UNL     1      -6.003   6.648  14.498  1.00  0.00    -0.073 C 
HETATM    5  C5  UNL     1      -5.851   8.043  13.934  1.00  0.00     0.035 C 
HETATM    6  C6  UNL     1      -4.763   8.240  12.880  1.00  0.00     0.010 C 
HETATM    7  C7  UNL     1      -3.499   7.366  13.004  1.00  0.00     0.003 C 
HETATM    8  C8  UNL     1      -3.786   5.846  13.396  1.00  0.00    -0.032 C 
HETATM    9  C9  UNL     1      -3.326   4.873  12.273  1.00  0.00     0.016 C 
HETATM   10  C10 UNL     1      -2.964   5.418  14.669  1.00  0.00     0.011 C 
HETATM   11  C11 UNL     1      -1.489   5.856  14.782  1.00  0.00     0.011 C 
HETATM   12  C12 UNL     1      -1.114   7.100  13.964  1.00  0.00    -0.032 C 
HETATM   13  C13 UNL     1      -0.558   6.673  12.572  1.00  0.00     0.016 C 
HETATM   14  C14 UNL     1      -0.066   8.042  14.639  1.00  0.00    -0.002 C 
HETATM   15  C23 UNL     1      -0.316   9.407  13.944  1.00  0.00     0.006 C 
HETATM   16  C24 UNL     1      -1.691   9.297  13.237  1.00  0.00     0.011 C 
HETATM   17  C25 UNL     1      -2.365   8.049  13.862  1.00  0.00    -0.032 C 
HETATM   18  C26 UNL     1      -2.948   8.536  15.230  1.00  0.00     0.016 C 
HETATM   19  C27 UNL     1      -5.319   5.544  13.698  1.00  0.00     0.023 C 
ENDROOT
BRANCH  14  20
HETATM   20  C15 UNL     1       1.404   7.600  14.900  1.00  0.00    -0.014 C 
HETATM   21  C16 UNL     1       2.100   8.640  15.800  1.00  0.00     0.010 C 
BRANCH  20  22
HETATM   22  C17 UNL     1       2.350   7.193  13.749  1.00  0.00     0.008 C 
BRANCH  22  23
HETATM   23  C18 UNL     1       3.500   8.143  13.397  1.00  0.00     0.028 C 
BRANCH  23  24
HETATM   24  C19 UNL     1       4.339   7.564  12.289  1.00  0.00    -0.013 C 
HETATM   25  C20 UNL     1       5.625   7.162  12.345  1.00  0.00     0.008 C 
HETATM   26  C21 UNL     1       6.522   7.229  13.544  1.00  0.00     0.055 C 
BRANCH  25  27
HETATM   27  C22 UNL     1       6.197   6.613  11.089  1.00  0.00     0.171 C 
HETATM   28  O1  UNL     1       7.171   7.032  10.488  1.00  0.00    -0.646 OA
BRANCH  27  29
HETATM   29  O2  UNL     1       5.510   5.552  10.632  1.00  0.00    -0.773 OA
HETATM   30  H35 UNL     1       5.997   5.302   9.819  1.00  0.00     0.167 HD
ENDBRANCH  27  29
ENDBRANCH  25  27
ENDBRANCH  23  24
ENDBRANCH  22  23
ENDBRANCH  20  22
ENDBRANCH  14  20
BRANCH  19  31
HETATM   31  C28 UNL     1      -6.244   5.005  12.562  1.00  0.00     0.012 C 
BRANCH  31  32
HETATM   32  C29 UNL     1      -6.479   3.499  12.449  1.00  0.00     0.027 C 
BRANCH  32  33
HETATM   33  C30 UNL     1      -7.851   3.080  12.972  1.00  0.00     0.164 C 
BRANCH  33  34
HETATM   34  O3  UNL     1      -8.147   1.735  12.621  1.00  0.00    -0.401 OA
HETATM   35  H50 UNL     1      -8.375   1.724  11.675  1.00  0.00     0.209 HD
ENDBRANCH  33  34
ENDBRANCH  32  33
ENDBRANCH  31  32
ENDBRANCH  19  31
TORSDOF 10
ENDMDL
MODEL 6
REMARK minimizedAffinity -6.79243231
REMARK CNNscore 0.263580024
REMARK CNNaffinity 6.25294733
REMARK  10 active torsions:
REMARK  status: ('A' for Active; 'I' for Inactive)
REMARK    1  A    between atoms: C14_14  and  C15_15 
REMARK    2  A    between atoms: C15_15  and  C17_17 
REMARK    3  A    between atoms: C17_17  and  C18_18 
REMARK    4  A    between atoms: C18_18  and  C19_19 
REMARK    5  A    between atoms: C20_20  and  C22_22 
REMARK    6  A    between atoms: C22_22  and  O2_24 
REMARK    7  A    between atoms: C27_29  and  C28_30 
REMARK    8  A    between atoms: C28_30  and  C29_31 
REMARK    9  A    between atoms: C29_31  and  C30_32 
REMARK   10  A    between atoms: C30_32  and  O3_33 
ROOT
HETATM    1  C1  UNL     1      -4.868   5.589  13.290  1.00  0.00     0.043 C 
HETATM    2  C2  UNL     1      -3.366   5.756  13.381  1.00  0.00    -0.085 C 
HETATM    3  C3  UNL     1      -2.682   4.464  13.767  1.00  0.00     0.043 C 
HETATM    4  C4  UNL     1      -2.722   6.929  13.132  1.00  0.00    -0.073 C 
HETATM    5  C5  UNL     1      -3.490   8.178  12.762  1.00  0.00     0.035 C 
HETATM    6  C6  UNL     1      -2.742   9.504  12.886  1.00  0.00     0.010 C 
HETATM    7  C7  UNL     1      -1.682   9.610  14.000  1.00  0.00     0.003 C 
HETATM    8  C8  UNL     1      -0.774   8.308  14.169  1.00  0.00    -0.032 C 
HETATM    9  C9  UNL     1       0.722   8.618  13.875  1.00  0.00     0.016 C 
HETATM   10  C10 UNL     1      -0.798   7.780  15.652  1.00  0.00     0.011 C 
HETATM   11  C11 UNL     1      -0.700   8.802  16.805  1.00  0.00     0.011 C 
HETATM   12  C12 UNL     1      -1.143  10.229  16.452  1.00  0.00    -0.032 C 
HETATM   13  C13 UNL     1       0.088  11.075  16.009  1.00  0.00     0.016 C 
HETATM   14  C14 UNL     1      -1.874  10.996  17.600  1.00  0.00    -0.002 C 
HETATM   15  C23 UNL     1      -2.689  12.077  16.842  1.00  0.00     0.006 C 
HETATM   16  C24 UNL     1      -2.713  11.649  15.352  1.00  0.00     0.011 C 
HETATM   17  C25 UNL     1      -2.270  10.163  15.355  1.00  0.00    -0.032 C 
HETATM   18  C26 UNL     1      -3.547   9.353  15.756  1.00  0.00     0.016 C 
HETATM   19  C27 UNL     1      -1.210   7.100  13.229  1.00  0.00     0.023 C 
ENDROOT
BRANCH  14  20
HETATM   20  C15 UNL     1      -1.155  11.398  18.921  1.00  0.00    -0.014 C 
HETATM   21  C16 UNL     1      -1.046  12.933  18.998  1.00  0.00     0.010 C 
BRANCH  20  22
HETATM   22  C17 UNL     1       0.186  10.761  19.347  1.00  0.00     0.008 C 
BRANCH  22  23
HETATM   23  C18 UNL     1       1.077  11.546  20.314  1.00  0.00     0.028 C 
BRANCH  23  24
HETATM   24  C19 UNL     1       1.952  10.607  21.102  1.00  0.00    -0.013 C 
HETATM   25  C20 UNL     1       2.782  10.905  22.122  1.00  0.00     0.008 C 
HETATM   26  C21 UNL     1       3.034  12.269  22.690  1.00  0.00     0.055 C 
BRANCH  25  27
HETATM   27  C22 UNL     1       3.518   9.764  22.725  1.00  0.00     0.171 C 
HETATM   28  O1  UNL     1       4.636   9.791  23.208  1.00  0.00    -0.646 OA
BRANCH  27  29
HETATM   29  O2  UNL     1       2.811   8.621  22.692  1.00  0.00    -0.773 OA
HETATM   30  H35 UNL     1       3.409   7.974  23.118  1.00  0.00     0.167 HD
ENDBRANCH  27  29
ENDBRANCH  25  27
ENDBRANCH  23  24
ENDBRANCH  22  23
ENDBRANCH  20  22
ENDBRANCH  14  20
BRANCH  19  31
HETATM   31  C28 UNL     1      -0.523   6.908  11.840  1.00  0.00     0.012 C 
BRANCH  31  32
HETATM   32  C29 UNL     1       0.004   5.525  11.459  1.00  0.00     0.027 C 
BRANCH  32  33
HETATM   33  C30 UNL     1       1.529   5.482  11.378  1.00  0.00     0.164 C 
BRANCH  33  34
HETATM   34  O3  UNL     1       1.979   4.259  10.811  1.00  0.00    -0.401 OA
HETATM   35  H50 UNL     1       1.881   3.569  11.491  1.00  0.00     0.209 HD
ENDBRANCH  33  34
ENDBRANCH  32  33
ENDBRANCH  31  32
ENDBRANCH  19  31
TORSDOF 10
ENDMDL
MODEL 7
REMARK minimizedAffinity -7.83632088
REMARK CNNscore 0.238906771
REMARK CNNaffinity 6.29036856
REMARK  10 active torsions:
REMARK  status: ('A' for Active; 'I' for Inactive)
REMARK    1  A    between atoms: C14_14  and  C15_15 
REMARK    2  A    between atoms: C15_15  and  C17_17 
REMARK    3  A    between atoms: C17_17  and  C18_18 
REMARK    4  A    between atoms: C18_18  and  C19_19 
REMARK    5  A    between atoms: C20_20  and  C22_22 
REMARK    6  A    between atoms: C22_22  and  O2_24 
REMARK    7  A    between atoms: C27_29  and  C28_30 
REMARK    8  A    between atoms: C28_30  and  C29_31 
REMARK    9  A    between atoms: C29_31  and  C30_32 
REMARK   10  A    between atoms: C30_32  and  O3_33 
ROOT
HETATM    1  C1  UNL     1       2.679   5.950   7.685  1.00  0.00     0.043 C 
HETATM    2  C2  UNL     1       3.020   5.753   9.147  1.00  0.00    -0.085 C 
HETATM    3  C3  UNL     1       3.597   4.381   9.407  1.00  0.00     0.043 C 
HETATM    4  C4  UNL     1       2.835   6.709  10.099  1.00  0.00    -0.073 C 
HETATM    5  C5  UNL     1       2.240   8.055   9.749  1.00  0.00     0.035 C 
HETATM    6  C6  UNL     1       1.716   8.894  10.913  1.00  0.00     0.010 C 
HETATM    7  C7  UNL     1       1.128   8.134  12.118  1.00  0.00     0.003 C 
HETATM    8  C8  UNL     1       1.957   6.839  12.546  1.00  0.00    -0.032 C 
HETATM    9  C9  UNL     1       2.529   6.980  13.985  1.00  0.00     0.016 C 
HETATM   10  C10 UNL     1       1.038   5.560  12.595  1.00  0.00     0.011 C 
HETATM   11  C11 UNL     1      -0.365   5.679  13.228  1.00  0.00     0.011 C 
HETATM   12  C12 UNL     1      -0.956   7.096  13.242  1.00  0.00    -0.032 C 
HETATM   13  C13 UNL     1      -0.625   7.798  14.594  1.00  0.00     0.016 C 
HETATM   14  C14 UNL     1      -2.501   7.168  13.020  1.00  0.00    -0.002 C 
HETATM   15  C23 UNL     1      -2.719   8.616  12.505  1.00  0.00     0.006 C 
HETATM   16  C24 UNL     1      -1.325   9.149  12.085  1.00  0.00     0.011 C 
HETATM   17  C25 UNL     1      -0.425   7.891  11.991  1.00  0.00    -0.032 C 
HETATM   18  C26 UNL     1      -0.755   7.250  10.602  1.00  0.00     0.016 C 
HETATM   19  C27 UNL     1       3.173   6.510  11.573  1.00  0.00     0.023 C 
ENDROOT
BRANCH  14  20
HETATM   20  C15 UNL     1      -3.517   6.585  14.046  1.00  0.00    -0.014 C 
HETATM   21  C16 UNL     1      -2.947   6.730  15.470  1.00  0.00     0.010 C 
BRANCH  20  22
HETATM   22  C17 UNL     1      -4.134   5.179  13.874  1.00  0.00     0.008 C 
BRANCH  22  23
HETATM   23  C18 UNL     1      -5.615   5.089  13.492  1.00  0.00     0.028 C 
BRANCH  23  24
HETATM   24  C19 UNL     1      -5.857   3.895  12.608  1.00  0.00    -0.013 C 
HETATM   25  C20 UNL     1      -5.045   3.386  11.659  1.00  0.00     0.008 C 
HETATM   26  C21 UNL     1      -3.706   3.925  11.257  1.00  0.00     0.055 C 
BRANCH  25  27
HETATM   27  C22 UNL     1      -5.542   2.181  10.946  1.00  0.00     0.171 C 
HETATM   28  O1  UNL     1      -5.818   1.102  11.441  1.00  0.00    -0.646 OA
BRANCH  27  29
HETATM   29  O2  UNL     1      -5.669   2.383   9.623  1.00  0.00    -0.773 OA
HETATM   30  H35 UNL     1      -6.002   1.522   9.295  1.00  0.00     0.167 HD
ENDBRANCH  27  29
ENDBRANCH  25  27
ENDBRANCH  23  24
ENDBRANCH  22  23
ENDBRANCH  20  22
ENDBRANCH  14  20
BRANCH  19  31
HETATM   31  C28 UNL     1       4.602   7.041  11.908  1.00  0.00     0.012 C 
BRANCH  31  32
HETATM   32  C29 UNL     1       5.596   7.265  10.768  1.00  0.00     0.027 C 
BRANCH  32  33
HETATM   33  C30 UNL     1       6.232   8.653  10.811  1.00  0.00     0.164 C 
BRANCH  33  34
HETATM   34  O3  UNL     1       5.388   9.625  10.210  1.00  0.00    -0.401 OA
HETATM   35  H50 UNL     1       5.443   9.502   9.246  1.00  0.00     0.209 HD
ENDBRANCH  33  34
ENDBRANCH  32  33
ENDBRANCH  31  32
ENDBRANCH  19  31
TORSDOF 10
ENDMDL
MODEL 8
REMARK minimizedAffinity -6.89371109
REMARK CNNscore 0.224213198
REMARK CNNaffinity 6.2247448
REMARK  10 active torsions:
REMARK  status: ('A' for Active; 'I' for Inactive)
REMARK    1  A    between atoms: C14_14  and  C15_15 
REMARK    2  A    between atoms: C15_15  and  C17_17 
REMARK    3  A    between atoms: C17_17  and  C18_18 
REMARK    4  A    between atoms: C18_18  and  C19_19 
REMARK    5  A    between atoms: C20_20  and  C22_22 
REMARK    6  A    between atoms: C22_22  and  O2_24 
REMARK    7  A    between atoms: C27_29  and  C28_30 
REMARK    8  A    between atoms: C28_30  and  C29_31 
REMARK    9  A    between atoms: C29_31  and  C30_32 
REMARK   10  A    between atoms: C30_32  and  O3_33 
ROOT
HETATM    1  C1  UNL     1       3.078   8.094  10.024  1.00  0.00     0.043 C 
HETATM    2  C2  UNL     1       1.640   7.628  10.115  1.00  0.00    -0.085 C 
HETATM    3  C3  UNL     1       0.879   7.907   8.840  1.00  0.00     0.043 C 
HETATM    4  C4  UNL     1       1.114   7.023  11.215  1.00  0.00    -0.073 C 
HETATM    5  C5  UNL     1       1.948   6.792  12.455  1.00  0.00     0.035 C 
HETATM    6  C6  UNL     1       1.189   6.476  13.742  1.00  0.00     0.010 C 
HETATM    7  C7  UNL     1      -0.200   7.122  13.914  1.00  0.00     0.003 C 
HETATM    8  C8  UNL     1      -1.093   7.123  12.591  1.00  0.00    -0.032 C 
HETATM    9  C9  UNL     1      -2.389   6.284  12.781  1.00  0.00     0.016 C 
HETATM   10  C10 UNL     1      -1.593   8.574  12.238  1.00  0.00     0.011 C 
HETATM   11  C11 UNL     1      -2.108   9.479  13.376  1.00  0.00     0.011 C 
HETATM   12  C12 UNL     1      -1.585   9.127  14.777  1.00  0.00    -0.032 C 
HETATM   13  C13 UNL     1      -2.588   8.176  15.496  1.00  0.00     0.016 C 
HETATM   14  C14 UNL     1      -1.321  10.354  15.709  1.00  0.00    -0.002 C 
HETATM   15  C23 UNL     1      -0.303   9.802  16.741  1.00  0.00     0.006 C 
HETATM   16  C24 UNL     1       0.257   8.482  16.148  1.00  0.00     0.011 C 
HETATM   17  C25 UNL     1      -0.140   8.516  14.650  1.00  0.00    -0.032 C 
HETATM   18  C26 UNL     1       0.919   9.440  13.963  1.00  0.00     0.016 C 
HETATM   19  C27 UNL     1      -0.336   6.558  11.310  1.00  0.00     0.023 C 
ENDROOT
BRANCH  14  20
HETATM   20  C15 UNL     1      -2.469  11.274  16.217  1.00  0.00    -0.014 C 
HETATM   21  C16 UNL     1      -2.038  12.748  16.094  1.00  0.00     0.010 C 
BRANCH  20  22
HETATM   22  C17 UNL     1      -3.153  11.046  17.584  1.00  0.00     0.008 C 
BRANCH  22  23
HETATM   23  C18 UNL     1      -2.965  12.114  18.666  1.00  0.00     0.028 C 
BRANCH  23  24
HETATM   24  C19 UNL     1      -4.290  12.471  19.286  1.00  0.00    -0.013 C 
HETATM   25  C20 UNL     1      -5.066  13.543  19.027  1.00  0.00     0.008 C 
HETATM   26  C21 UNL     1      -4.759  14.645  18.059  1.00  0.00     0.055 C 
BRANCH  25  27
HETATM   27  C22 UNL     1      -6.340  13.632  19.788  1.00  0.00     0.171 C 
HETATM   28  O1  UNL     1      -6.503  13.376  20.968  1.00  0.00    -0.646 OA
BRANCH  27  29
HETATM   29  O2  UNL     1      -7.368  14.038  19.023  1.00  0.00    -0.773 OA
HETATM   30  H35 UNL     1      -8.121  14.052  19.649  1.00  0.00     0.167 HD
ENDBRANCH  27  29
ENDBRANCH  25  27
ENDBRANCH  23  24
ENDBRANCH  22  23
ENDBRANCH  20  22
ENDBRANCH  14  20
BRANCH  19  31
HETATM   31  C28 UNL     1      -0.480   5.052  10.924  1.00  0.00     0.012 C 
BRANCH  31  32
HETATM   32  C29 UNL     1      -0.261   3.987  11.998  1.00  0.00     0.027 C 
BRANCH  32  33
HETATM   33  C30 UNL     1      -0.764   2.610  11.568  1.00  0.00     0.164 C 
BRANCH  33  34
HETATM   34  O3  UNL     1       0.239   1.895  10.860  1.00  0.00    -0.401 OA
HETATM   35  H50 UNL     1       0.297   2.280   9.968  1.00  0.00     0.209 HD
ENDBRANCH  33  34
ENDBRANCH  32  33
ENDBRANCH  31  32
ENDBRANCH  19  31
TORSDOF 10
ENDMDL
MODEL 9
REMARK minimizedAffinity -6.3465414
REMARK CNNscore 0.220558286
REMARK CNNaffinity 5.45046616
REMARK  10 active torsions:
REMARK  status: ('A' for Active; 'I' for Inactive)
REMARK    1  A    between atoms: C14_14  and  C15_15 
REMARK    2  A    between atoms: C15_15  and  C17_17 
REMARK    3  A    between atoms: C17_17  and  C18_18 
REMARK    4  A    between atoms: C18_18  and  C19_19 
REMARK    5  A    between atoms: C20_20  and  C22_22 
REMARK    6  A    between atoms: C22_22  and  O2_24 
REMARK    7  A    between atoms: C27_29  and  C28_30 
REMARK    8  A    between atoms: C28_30  and  C29_31 
REMARK    9  A    between atoms: C29_31  and  C30_32 
REMARK   10  A    between atoms: C30_32  and  O3_33 
ROOT
HETATM    1  C1  UNL     1      -3.664  14.992  19.066  1.00  0.00     0.043 C 
HETATM    2  C2  UNL     1      -3.175  13.647  18.574  1.00  0.00    -0.085 C 
HETATM    3  C3  UNL     1      -4.185  12.553  18.838  1.00  0.00     0.043 C 
HETATM    4  C4  UNL     1      -1.975  13.460  17.959  1.00  0.00    -0.073 C 
HETATM    5  C5  UNL     1      -1.020  14.613  17.744  1.00  0.00     0.035 C 
HETATM    6  C6  UNL     1       0.428  14.251  17.415  1.00  0.00     0.010 C 
HETATM    7  C7  UNL     1       0.985  12.955  18.036  1.00  0.00     0.003 C 
HETATM    8  C8  UNL     1      -0.034  11.727  18.019  1.00  0.00    -0.032 C 
HETATM    9  C9  UNL     1       0.508  10.551  17.158  1.00  0.00     0.016 C 
HETATM   10  C10 UNL     1      -0.226  11.123  19.461  1.00  0.00     0.011 C 
HETATM   11  C11 UNL     1       1.016  10.932  20.357  1.00  0.00     0.011 C 
HETATM   12  C12 UNL     1       2.211  11.833  20.016  1.00  0.00    -0.032 C 
HETATM   13  C13 UNL     1       3.179  11.089  19.047  1.00  0.00     0.016 C 
HETATM   14  C14 UNL     1       3.038  12.326  21.247  1.00  0.00    -0.002 C 
HETATM   15  C23 UNL     1       3.740  13.603  20.714  1.00  0.00     0.006 C 
HETATM   16  C24 UNL     1       3.008  13.997  19.405  1.00  0.00     0.011 C 
HETATM   17  C25 UNL     1       1.682  13.195  19.431  1.00  0.00    -0.032 C 
HETATM   18  C26 UNL     1       0.729  14.003  20.374  1.00  0.00     0.016 C 
HETATM   19  C27 UNL     1      -1.478  12.104  17.468  1.00  0.00     0.023 C 
ENDROOT
BRANCH  14  20
HETATM   20  C15 UNL     1       3.852  11.351  22.146  1.00  0.00    -0.014 C 
HETATM   21  C16 UNL     1       2.886  10.403  22.882  1.00  0.00     0.010 C 
BRANCH  20  22
HETATM   22  C17 UNL     1       4.931  11.857  23.129  1.00  0.00     0.008 C 
BRANCH  22  23
HETATM   23  C18 UNL     1       6.393  11.817  22.670  1.00  0.00     0.028 C 
BRANCH  23  24
HETATM   24  C19 UNL     1       7.110  13.072  23.091  1.00  0.00    -0.013 C 
HETATM   25  C20 UNL     1       8.416  13.373  22.939  1.00  0.00     0.008 C 
HETATM   26  C21 UNL     1       9.461  12.494  22.324  1.00  0.00     0.055 C 
BRANCH  25  27
HETATM   27  C22 UNL     1       8.846  14.703  23.443  1.00  0.00     0.171 C 
HETATM   28  O1  UNL     1       8.777  15.105  24.591  1.00  0.00    -0.646 OA
BRANCH  27  29
HETATM   29  O2  UNL     1       9.346  15.484  22.470  1.00  0.00    -0.773 OA
HETATM   30  H35 UNL     1       9.586  16.308  22.944  1.00  0.00     0.167 HD
ENDBRANCH  27  29
ENDBRANCH  25  27
ENDBRANCH  23  24
ENDBRANCH  22  23
ENDBRANCH  20  22
ENDBRANCH  14  20
BRANCH  19  31
HETATM   31  C28 UNL     1      -1.816  11.884  15.960  1.00  0.00     0.012 C 
BRANCH  31  32
HETATM   32  C29 UNL     1      -2.788  10.770  15.573  1.00  0.00     0.027 C 
BRANCH  32  33
HETATM   33  C30 UNL     1      -2.369  10.044  14.296  1.00  0.00     0.164 C 
BRANCH  33  34
HETATM   34  O3  UNL     1      -1.436  10.813  13.550  1.00  0.00    -0.401 OA
HETATM   35  H50 UNL     1      -1.931  11.531  13.117  1.00  0.00     0.209 HD
ENDBRANCH  33  34
ENDBRANCH  32  33
ENDBRANCH  31  32
ENDBRANCH  19  31
TORSDOF 10
ENDMDL
