MODEL 1
REMARK minimizedAffinity -9.11067104
REMARK CNNscore 0.822830796
REMARK CNNaffinity 7.44686699
REMARK  10 active torsions:
REMARK  status: ('A' for Active; 'I' for Inactive)
REMARK    1  A    between atoms: N1_6  and  O1_8 
REMARK    2  A    between atoms: O1_8  and  C6_9 
REMARK    3  A    between atoms: C6_9  and  C7_10 
REMARK       I    between atoms: C7_10  and  N2_12 
REMARK    4  A    between atoms: N2_12  and  C8_13 
REMARK    5  A    between atoms: C8_13  and  C9_14 
REMARK    6  A    between atoms: C20_27  and  O3_28 
REMARK    7  A    between atoms: C27_35  and  O4_36 
REMARK    8  A    between atoms: C27_35  and  C28_37 
REMARK    9  A    between atoms: C28_37  and  C29_39 
REMARK   10  A    between atoms: C29_39  and  O6_40 
ROOT
HETATM    1  C1  UNL     1      -3.518   4.331  10.472  1.00  0.00     0.020 C 
HETATM    2  C2  UNL     1      -3.453   4.059  11.995  1.00  0.00    -0.014 C 
HETATM    3  C3  UNL     1      -3.421   2.526  12.234  1.00  0.00     0.020 C 
HETATM    4  C4  UNL     1      -4.688   1.821  11.762  1.00  0.00     0.060 C 
HETATM    5  C5  UNL     1      -5.953   2.480  12.280  1.00  0.00     0.032 C 
HETATM    6  N1  UNL     1      -7.035   1.758  12.249  1.00  0.00    -0.271 N 
ATOM      7  H1  UNL     1      -7.070   0.794  11.918  1.00  0.00     0.194 HD
HETATM    8  C14 UNL     1      -5.859   3.889  12.765  1.00  0.00     0.030 C 
HETATM    9  C15 UNL     1      -4.727   4.608  12.649  1.00  0.00    -0.069 C 
HETATM   10  C16 UNL     1      -4.668   5.985  13.274  1.00  0.00     0.035 C 
HETATM   11  C17 UNL     1      -3.644   6.910  12.627  1.00  0.00     0.010 C 
HETATM   12  C18 UNL     1      -2.238   6.289  12.481  1.00  0.00    -0.002 C 
HETATM   13  C19 UNL     1      -2.228   4.749  12.693  1.00  0.00     0.031 C 
HETATM   14  C20 UNL     1      -0.830   4.171  12.385  1.00  0.00     0.124 C 
HETATM   15  C21 UNL     1       0.266   4.875  13.203  1.00  0.00     0.045 C 
HETATM   16  C22 UNL     1       0.256   6.437  13.190  1.00  0.00     0.001 C 
HETATM   17  C23 UNL     1       0.919   6.932  11.890  1.00  0.00     0.019 C 
HETATM   18  C24 UNL     1      -1.179   7.003  13.347  1.00  0.00     0.002 C 
HETATM   19  C25 UNL     1      -1.454   6.995  14.863  1.00  0.00     0.009 C 
HETATM   20  C26 UNL     1      -0.098   6.871  15.561  1.00  0.00     0.047 C 
HETATM   21  C27 UNL     1       0.970   7.009  14.462  1.00  0.00     0.128 C 
ENDROOT
BRANCH   6  22
HETATM   22  O1  UNL     1      -8.148   2.468  12.729  1.00  0.00    -0.271 OA
BRANCH  22  23
HETATM   23  C6  UNL     1      -7.707   3.716  13.237  1.00  0.00     0.303 C 
BRANCH  23  24
HETATM   24  C7  UNL     1      -8.562   4.866  12.706  1.00  0.00     0.244 C 
HETATM   25  O2  UNL     1      -8.611   5.199  11.525  1.00  0.00    -0.271 OA
HETATM   26  N2  UNL     1      -9.292   5.502  13.696  1.00  0.00    -0.355 N 
HETATM   27  H10 UNL     1      -9.085   5.298  14.664  1.00  0.00     0.162 HD
BRANCH  26  28
HETATM   28  C8  UNL     1     -10.109   6.660  13.411  1.00  0.00     0.161 C 
BRANCH  28  29
HETATM   29  C9  UNL     1     -10.322   7.485  14.651  1.00  0.00    -0.038 A 
HETATM   30  C10 UNL     1      -9.342   7.532  15.646  1.00  0.00     0.025 A 
HETATM   31  C11 UNL     1      -9.582   8.289  16.782  1.00  0.00     0.088 A 
HETATM   32  N3  UNL     1     -10.719   8.987  16.991  1.00  0.00    -0.375 N 
HETATM   33  C12 UNL     1     -11.657   8.921  16.023  1.00  0.00     0.088 A 
ATOM     34  H3  UNL     1     -10.861   9.537  17.839  1.00  0.00     0.164 HD
HETATM   35  C13 UNL     1     -11.510   8.191  14.853  1.00  0.00     0.025 A 
ENDBRANCH  28  29
ENDBRANCH  26  28
ENDBRANCH  23  24
ENDBRANCH  22  23
ENDBRANCH   6  22
BRANCH  14  36
HETATM   36  O3  UNL     1      -0.505   4.174  11.004  1.00  0.00    -0.395 OA
HETATM   37  H25 UNL     1      -0.797   5.005  10.599  1.00  0.00     0.210 HD
ENDBRANCH  14  36
BRANCH  21  38
HETATM   38  O4  UNL     1       2.108   6.225  14.807  1.00  0.00    -0.381 OA
HETATM   39  H36 UNL     1       2.269   6.316  15.763  1.00  0.00     0.211 HD
ENDBRANCH  21  38
BRANCH  21  40
HETATM   40  C28 UNL     1       1.384   8.500  14.336  1.00  0.00     0.184 C 
HETATM   41  O5  UNL     1       0.562   9.414  14.201  1.00  0.00    -0.292 OA
BRANCH  40  42
HETATM   42  C29 UNL     1       2.875   8.825  14.384  1.00  0.00     0.245 C 
BRANCH  42  43
HETATM   43  O6  UNL     1       3.393   9.079  13.084  1.00  0.00    -0.393 OA
HETATM   44  H39 UNL     1       2.619   9.240  12.506  1.00  0.00     0.209 HD
ENDBRANCH  42  43
ENDBRANCH  40  42
ENDBRANCH  21  40
TORSDOF 10
ENDMDL
MODEL 2
REMARK minimizedAffinity -8.73698521
REMARK CNNscore 0.713320374
REMARK CNNaffinity 7.26601362
REMARK  10 active torsions:
REMARK  status: ('A' for Active; 'I' for Inactive)
REMARK    1  A    between atoms: N1_6  and  O1_8 
REMARK    2  A    between atoms: O1_8  and  C6_9 
REMARK    3  A    between atoms: C6_9  and  C7_10 
REMARK       I    between atoms: C7_10  and  N2_12 
REMARK    4  A    between atoms: N2_12  and  C8_13 
REMARK    5  A    between atoms: C8_13  and  C9_14 
REMARK    6  A    between atoms: C20_27  and  O3_28 
REMARK    7  A    between atoms: C27_35  and  O4_36 
REMARK    8  A    between atoms: C27_35  and  C28_37 
REMARK    9  A    between atoms: C28_37  and  C29_39 
REMARK   10  A    between atoms: C29_39  and  O6_40 
ROOT
HETATM    1  C1  UNL     1      -0.192   6.060  10.884  1.00  0.00     0.020 C 
HETATM    2  C2  UNL     1      -0.732   5.770  12.305  1.00  0.00    -0.014 C 
HETATM    3  C3  UNL     1      -0.508   4.271  12.635  1.00  0.00     0.020 C 
HETATM    4  C4  UNL     1      -1.289   3.335  11.719  1.00  0.00     0.060 C 
HETATM    5  C5  UNL     1      -2.756   3.710  11.609  1.00  0.00     0.032 C 
HETATM    6  N1  UNL     1      -3.558   2.785  11.172  1.00  0.00    -0.271 N 
ATOM      7  H1  UNL     1      -3.261   1.842  10.920  1.00  0.00     0.194 HD
HETATM    8  C14 UNL     1      -3.153   5.096  11.996  1.00  0.00     0.030 C 
HETATM    9  C15 UNL     1      -2.243   6.033  12.322  1.00  0.00    -0.069 C 
HETATM   10  C16 UNL     1      -2.725   7.378  12.821  1.00  0.00     0.035 C 
HETATM   11  C17 UNL     1      -1.723   8.507  12.609  1.00  0.00     0.010 C 
HETATM   12  C18 UNL     1      -0.299   8.188  13.112  1.00  0.00    -0.002 C 
HETATM   13  C19 UNL     1      -0.083   6.678  13.409  1.00  0.00     0.031 C 
HETATM   14  C20 UNL     1       1.396   6.404  13.759  1.00  0.00     0.124 C 
HETATM   15  C21 UNL     1       1.878   7.296  14.916  1.00  0.00     0.045 C 
HETATM   16  C22 UNL     1       1.572   8.823  14.797  1.00  0.00     0.001 C 
HETATM   17  C23 UNL     1       2.617   9.474  13.870  1.00  0.00     0.019 C 
HETATM   18  C24 UNL     1       0.129   9.082  14.296  1.00  0.00     0.002 C 
HETATM   19  C25 UNL     1      -0.761   8.981  15.550  1.00  0.00     0.009 C 
HETATM   20  C26 UNL     1       0.163   9.120  16.762  1.00  0.00     0.047 C 
HETATM   21  C27 UNL     1       1.549   9.498  16.211  1.00  0.00     0.128 C 
ENDROOT
BRANCH   6  22
HETATM   22  O1  UNL     1      -4.884   3.241  11.088  1.00  0.00    -0.271 OA
BRANCH  22  23
HETATM   23  C6  UNL     1      -5.743   2.242  11.612  1.00  0.00     0.303 C 
BRANCH  23  24
HETATM   24  C7  UNL     1      -6.937   2.859  12.337  1.00  0.00     0.244 C 
HETATM   25  O2  UNL     1      -7.885   2.213  12.775  1.00  0.00    -0.271 OA
HETATM   26  N2  UNL     1      -6.844   4.234  12.464  1.00  0.00    -0.355 N 
HETATM   27  H10 UNL     1      -6.134   4.727  11.942  1.00  0.00     0.162 HD
BRANCH  26  28
HETATM   28  C8  UNL     1      -7.906   5.015  13.058  1.00  0.00     0.161 C 
BRANCH  28  29
HETATM   29  C9  UNL     1      -7.382   5.869  14.180  1.00  0.00    -0.038 A 
HETATM   30  C10 UNL     1      -6.301   6.730  13.969  1.00  0.00     0.025 A 
HETATM   31  C11 UNL     1      -5.835   7.487  15.031  1.00  0.00     0.088 A 
HETATM   32  N3  UNL     1      -6.363   7.441  16.274  1.00  0.00    -0.375 N 
HETATM   33  C12 UNL     1      -7.399   6.597  16.460  1.00  0.00     0.088 A 
ATOM     34  H3  UNL     1      -5.996   8.015  17.033  1.00  0.00     0.164 HD
HETATM   35  C13 UNL     1      -7.935   5.798  15.461  1.00  0.00     0.025 A 
ENDBRANCH  28  29
ENDBRANCH  26  28
ENDBRANCH  23  24
ENDBRANCH  22  23
ENDBRANCH   6  22
BRANCH  14  36
HETATM   36  O3  UNL     1       2.272   6.506  12.648  1.00  0.00    -0.395 OA
HETATM   37  H25 UNL     1       2.027   7.270  12.105  1.00  0.00     0.210 HD
ENDBRANCH  14  36
BRANCH  21  38
HETATM   38  O4  UNL     1       2.558   8.953  17.055  1.00  0.00    -0.381 OA
HETATM   39  H36 UNL     1       2.274   9.052  17.982  1.00  0.00     0.211 HD
ENDBRANCH  21  38
BRANCH  21  40
HETATM   40  C28 UNL     1       1.679  11.045  16.175  1.00  0.00     0.184 C 
HETATM   41  O5  UNL     1       0.774  11.783  15.769  1.00  0.00    -0.292 OA
BRANCH  40  42
HETATM   42  C29 UNL     1       2.990  11.654  16.666  1.00  0.00     0.245 C 
BRANCH  42  43
HETATM   43  O6  UNL     1       4.003  10.664  16.804  1.00  0.00    -0.393 OA
HETATM   44  H39 UNL     1       3.692   9.881  16.304  1.00  0.00     0.209 HD
ENDBRANCH  42  43
ENDBRANCH  40  42
ENDBRANCH  21  40
TORSDOF 10
ENDMDL
MODEL 3
REMARK minimizedAffinity -10.2846413
REMARK CNNscore 0.656382859
REMARK CNNaffinity 7.55269241
REMARK  10 active torsions:
REMARK  status: ('A' for Active; 'I' for Inactive)
REMARK    1  A    between atoms: N1_6  and  O1_8 
REMARK    2  A    between atoms: O1_8  and  C6_9 
REMARK    3  A    between atoms: C6_9  and  C7_10 
REMARK       I    between atoms: C7_10  and  N2_12 
REMARK    4  A    between atoms: N2_12  and  C8_13 
REMARK    5  A    between atoms: C8_13  and  C9_14 
REMARK    6  A    between atoms: C20_27  and  O3_28 
REMARK    7  A    between atoms: C27_35  and  O4_36 
REMARK    8  A    between atoms: C27_35  and  C28_37 
REMARK    9  A    between atoms: C28_37  and  C29_39 
REMARK   10  A    between atoms: C29_39  and  O6_40 
ROOT
HETATM    1  C1  UNL     1      -2.224   8.892  15.336  1.00  0.00     0.020 C 
HETATM    2  C2  UNL     1      -2.769   8.014  14.183  1.00  0.00    -0.014 C 
HETATM    3  C3  UNL     1      -4.006   8.711  13.557  1.00  0.00     0.020 C 
HETATM    4  C4  UNL     1      -5.171   8.847  14.532  1.00  0.00     0.060 C 
HETATM    5  C5  UNL     1      -5.509   7.542  15.229  1.00  0.00     0.032 C 
HETATM    6  N1  UNL     1      -6.687   7.466  15.774  1.00  0.00    -0.271 N 
ATOM      7  H1  UNL     1      -7.381   8.214  15.745  1.00  0.00     0.194 HD
HETATM    8  C14 UNL     1      -4.472   6.468  15.243  1.00  0.00     0.030 C 
HETATM    9  C15 UNL     1      -3.231   6.670  14.762  1.00  0.00    -0.069 C 
HETATM   10  C16 UNL     1      -2.273   5.501  14.696  1.00  0.00     0.035 C 
HETATM   11  C17 UNL     1      -0.804   5.909  14.707  1.00  0.00     0.010 C 
HETATM   12  C18 UNL     1      -0.446   6.999  13.674  1.00  0.00    -0.002 C 
HETATM   13  C19 UNL     1      -1.695   7.708  13.080  1.00  0.00     0.031 C 
HETATM   14  C20 UNL     1      -1.268   8.884  12.175  1.00  0.00     0.124 C 
HETATM   15  C21 UNL     1      -0.286   8.429  11.081  1.00  0.00     0.045 C 
HETATM   16  C22 UNL     1       0.932   7.569  11.548  1.00  0.00     0.001 C 
HETATM   17  C23 UNL     1       2.015   8.503  12.121  1.00  0.00     0.019 C 
HETATM   18  C24 UNL     1       0.511   6.489  12.576  1.00  0.00     0.002 C 
HETATM   19  C25 UNL     1      -0.021   5.313  11.735  1.00  0.00     0.009 C 
HETATM   20  C26 UNL     1       0.493   5.518  10.308  1.00  0.00     0.047 C 
HETATM   21  C27 UNL     1       1.481   6.696  10.368  1.00  0.00     0.128 C 
ENDROOT
BRANCH   6  22
HETATM   22  O1  UNL     1      -6.889   6.229  16.408  1.00  0.00    -0.271 OA
BRANCH  22  23
HETATM   23  C6  UNL     1      -8.143   5.708  15.999  1.00  0.00     0.303 C 
BRANCH  23  24
HETATM   24  C7  UNL     1      -8.167   5.433  14.496  1.00  0.00     0.244 C 
HETATM   25  O2  UNL     1      -8.339   6.298  13.641  1.00  0.00    -0.271 OA
HETATM   26  N2  UNL     1      -7.967   4.099  14.184  1.00  0.00    -0.355 N 
HETATM   27  H10 UNL     1      -8.001   3.413  14.925  1.00  0.00     0.162 HD
BRANCH  26  28
HETATM   28  C8  UNL     1      -8.025   3.621  12.821  1.00  0.00     0.161 C 
BRANCH  28  29
HETATM   29  C9  UNL     1      -6.678   3.129  12.367  1.00  0.00    -0.038 A 
HETATM   30  C10 UNL     1      -6.548   1.868  11.777  1.00  0.00     0.025 A 
HETATM   31  C11 UNL     1      -5.288   1.442  11.389  1.00  0.00     0.088 A 
HETATM   32  N3  UNL     1      -4.165   2.174  11.552  1.00  0.00    -0.375 N 
HETATM   33  C12 UNL     1      -4.309   3.384  12.132  1.00  0.00     0.088 A 
ATOM     34  H3  UNL     1      -3.252   1.830  11.251  1.00  0.00     0.164 HD
HETATM   35  C13 UNL     1      -5.526   3.898  12.555  1.00  0.00     0.025 A 
ENDBRANCH  28  29
ENDBRANCH  26  28
ENDBRANCH  23  24
ENDBRANCH  22  23
ENDBRANCH   6  22
BRANCH  14  36
HETATM   36  O3  UNL     1      -0.744   9.991  12.890  1.00  0.00    -0.395 OA
HETATM   37  H25 UNL     1      -0.164   9.679  13.601  1.00  0.00     0.210 HD
ENDBRANCH  14  36
BRANCH  21  38
HETATM   38  O4  UNL     1       1.439   7.412   9.138  1.00  0.00    -0.381 OA
HETATM   39  H36 UNL     1       1.371   6.771   8.408  1.00  0.00     0.211 HD
ENDBRANCH  21  38
BRANCH  21  40
HETATM   40  C28 UNL     1       2.915   6.148  10.602  1.00  0.00     0.184 C 
HETATM   41  O5  UNL     1       3.631   6.527  11.536  1.00  0.00    -0.292 OA
BRANCH  40  42
HETATM   42  C29 UNL     1       3.438   5.100   9.625  1.00  0.00     0.245 C 
BRANCH  42  43
HETATM   43  O6  UNL     1       3.116   3.782  10.055  1.00  0.00    -0.393 OA
HETATM   44  H39 UNL     1       2.415   3.878  10.732  1.00  0.00     0.209 HD
ENDBRANCH  42  43
ENDBRANCH  40  42
ENDBRANCH  21  40
TORSDOF 10
ENDMDL
MODEL 4
REMARK minimizedAffinity -7.06681204
REMARK CNNscore 0.636292219
REMARK CNNaffinity 7.29935312
REMARK  10 active torsions:
REMARK  status: ('A' for Active; 'I' for Inactive)
REMARK    1  A    between atoms: N1_6  and  O1_8 
REMARK    2  A    between atoms: O1_8  and  C6_9 
REMARK    3  A    between atoms: C6_9  and  C7_10 
REMARK       I    between atoms: C7_10  and  N2_12 
REMARK    4  A    between atoms: N2_12  and  C8_13 
REMARK    5  A    between atoms: C8_13  and  C9_14 
REMARK    6  A    between atoms: C20_27  and  O3_28 
REMARK    7  A    between atoms: C27_35  and  O4_36 
REMARK    8  A    between atoms: C27_35  and  C28_37 
REMARK    9  A    between atoms: C28_37  and  C29_39 
REMARK   10  A    between atoms: C29_39  and  O6_40 
ROOT
HETATM    1  C1  UNL     1      -8.905   9.721  15.149  1.00  0.00     0.020 C 
HETATM    2  C2  UNL     1      -9.819   8.515  15.473  1.00  0.00    -0.014 C 
HETATM    3  C3  UNL     1      -9.157   7.663  16.589  1.00  0.00     0.020 C 
HETATM    4  C4  UNL     1      -7.829   7.047  16.161  1.00  0.00     0.060 C 
HETATM    5  C5  UNL     1      -7.921   6.322  14.831  1.00  0.00     0.032 C 
HETATM    6  N1  UNL     1      -6.975   5.468  14.571  1.00  0.00    -0.271 N 
ATOM      7  H1  UNL     1      -6.204   5.257  15.206  1.00  0.00     0.194 HD
HETATM    8  C14 UNL     1      -9.068   6.650  13.934  1.00  0.00     0.030 C 
HETATM    9  C15 UNL     1      -9.939   7.635  14.222  1.00  0.00    -0.069 C 
HETATM   10  C16 UNL     1     -11.146   7.829  13.330  1.00  0.00     0.035 C 
HETATM   11  C17 UNL     1     -11.717   9.242  13.368  1.00  0.00     0.010 C 
HETATM   12  C18 UNL     1     -11.967   9.783  14.791  1.00  0.00    -0.002 C 
HETATM   13  C19 UNL     1     -11.271   8.937  15.895  1.00  0.00     0.031 C 
HETATM   14  C20 UNL     1     -11.431   9.613  17.273  1.00  0.00     0.124 C 
HETATM   15  C21 UNL     1     -12.908   9.888  17.601  1.00  0.00     0.045 C 
HETATM   16  C22 UNL     1     -13.751  10.598  16.494  1.00  0.00     0.001 C 
HETATM   17  C23 UNL     1     -13.466  12.112  16.540  1.00  0.00     0.019 C 
HETATM   18  C24 UNL     1     -13.464  10.010  15.089  1.00  0.00     0.002 C 
HETATM   19  C25 UNL     1     -14.352   8.755  14.986  1.00  0.00     0.009 C 
HETATM   20  C26 UNL     1     -15.422   8.876  16.072  1.00  0.00     0.047 C 
HETATM   21  C27 UNL     1     -15.276  10.287  16.669  1.00  0.00     0.128 C 
ENDROOT
BRANCH   6  22
HETATM   22  O1  UNL     1      -7.143   4.871  13.311  1.00  0.00    -0.271 OA
BRANCH  22  23
HETATM   23  C6  UNL     1      -7.299   3.473  13.488  1.00  0.00     0.303 C 
BRANCH  23  24
HETATM   24  C7  UNL     1      -6.504   2.688  12.445  1.00  0.00     0.244 C 
HETATM   25  O2  UNL     1      -6.873   1.623  11.957  1.00  0.00    -0.271 OA
HETATM   26  N2  UNL     1      -5.316   3.303  12.092  1.00  0.00    -0.355 N 
HETATM   27  H10 UNL     1      -4.985   4.082  12.644  1.00  0.00     0.162 HD
BRANCH  26  28
HETATM   28  C8  UNL     1      -4.386   2.687  11.173  1.00  0.00     0.161 C 
BRANCH  28  29
HETATM   29  C9  UNL     1      -2.978   3.140  11.449  1.00  0.00    -0.038 A 
HETATM   30  C10 UNL     1      -1.903   2.266  11.261  1.00  0.00     0.025 A 
HETATM   31  C11 UNL     1      -0.623   2.714  11.543  1.00  0.00     0.088 A 
HETATM   32  N3  UNL     1      -0.346   3.955  11.999  1.00  0.00    -0.375 N 
HETATM   33  C12 UNL     1      -1.397   4.781  12.184  1.00  0.00     0.088 A 
ATOM     34  H3  UNL     1       0.610   4.253  12.194  1.00  0.00     0.164 HD
HETATM   35  C13 UNL     1      -2.714   4.425  11.932  1.00  0.00     0.025 A 
ENDBRANCH  28  29
ENDBRANCH  26  28
ENDBRANCH  23  24
ENDBRANCH  22  23
ENDBRANCH   6  22
BRANCH  14  36
HETATM   36  O3  UNL     1     -10.656  10.792  17.423  1.00  0.00    -0.395 OA
HETATM   37  H25 UNL     1     -10.694  11.315  16.608  1.00  0.00     0.210 HD
ENDBRANCH  14  36
BRANCH  21  38
HETATM   38  O4  UNL     1     -15.638  10.258  18.046  1.00  0.00    -0.381 OA
HETATM   39  H36 UNL     1     -16.415   9.680  18.150  1.00  0.00     0.211 HD
ENDBRANCH  21  38
BRANCH  21  40
HETATM   40  C28 UNL     1     -16.212  11.264  15.906  1.00  0.00     0.184 C 
HETATM   41  O5  UNL     1     -16.261  12.474  16.153  1.00  0.00    -0.292 OA
BRANCH  40  42
HETATM   42  C29 UNL     1     -17.097  10.679  14.809  1.00  0.00     0.245 C 
BRANCH  42  43
HETATM   43  O6  UNL     1     -16.649  11.070  13.516  1.00  0.00    -0.393 OA
HETATM   44  H39 UNL     1     -15.735  11.402  13.631  1.00  0.00     0.209 HD
ENDBRANCH  42  43
ENDBRANCH  40  42
ENDBRANCH  21  40
TORSDOF 10
ENDMDL
MODEL 5
REMARK minimizedAffinity -8.56267166
REMARK CNNscore 0.619062424
REMARK CNNaffinity 7.20364714
REMARK  10 active torsions:
REMARK  status: ('A' for Active; 'I' for Inactive)
REMARK    1  A    between atoms: N1_6  and  O1_8 
REMARK    2  A    between atoms: O1_8  and  C6_9 
REMARK    3  A    between atoms: C6_9  and  C7_10 
REMARK       I    between atoms: C7_10  and  N2_12 
REMARK    4  A    between atoms: N2_12  and  C8_13 
REMARK    5  A    between atoms: C8_13  and  C9_14 
REMARK    6  A    between atoms: C20_27  and  O3_28 
REMARK    7  A    between atoms: C27_35  and  O4_36 
REMARK    8  A    between atoms: C27_35  and  C28_37 
REMARK    9  A    between atoms: C28_37  and  C29_39 
REMARK   10  A    between atoms: C29_39  and  O6_40 
ROOT
HETATM    1  C1  UNL     1      -2.356   5.639  11.903  1.00  0.00     0.020 C 
HETATM    2  C2  UNL     1      -1.661   6.410  13.051  1.00  0.00    -0.014 C 
HETATM    3  C3  UNL     1      -1.789   5.590  14.362  1.00  0.00     0.020 C 
HETATM    4  C4  UNL     1      -3.234   5.420  14.821  1.00  0.00     0.060 C 
HETATM    5  C5  UNL     1      -3.995   6.732  14.860  1.00  0.00     0.032 C 
HETATM    6  N1  UNL     1      -5.081   6.748  15.576  1.00  0.00    -0.271 N 
ATOM      7  H1  UNL     1      -5.428   5.951  16.108  1.00  0.00     0.194 HD
HETATM    8  C14 UNL     1      -3.452   7.879  14.075  1.00  0.00     0.030 C 
HETATM    9  C15 UNL     1      -2.388   7.745  13.261  1.00  0.00    -0.069 C 
HETATM   10  C16 UNL     1      -1.818   8.977  12.593  1.00  0.00     0.035 C 
HETATM   11  C17 UNL     1      -1.052   8.681  11.308  1.00  0.00     0.010 C 
HETATM   12  C18 UNL     1       0.007   7.567  11.449  1.00  0.00    -0.002 C 
HETATM   13  C19 UNL     1      -0.155   6.735  12.753  1.00  0.00     0.031 C 
HETATM   14  C20 UNL     1       0.832   5.548  12.760  1.00  0.00     0.124 C 
HETATM   15  C21 UNL     1       2.282   6.015  12.548  1.00  0.00     0.045 C 
HETATM   16  C22 UNL     1       2.536   6.988  11.352  1.00  0.00     0.001 C 
HETATM   17  C23 UNL     1       2.617   6.170  10.049  1.00  0.00     0.019 C 
HETATM   18  C24 UNL     1       1.448   8.088  11.265  1.00  0.00     0.002 C 
HETATM   19  C25 UNL     1       1.887   9.173  12.266  1.00  0.00     0.009 C 
HETATM   20  C26 UNL     1       3.368   8.930  12.564  1.00  0.00     0.047 C 
HETATM   21  C27 UNL     1       3.833   7.834  11.589  1.00  0.00     0.128 C 
ENDROOT
BRANCH   6  22
HETATM   22  O1  UNL     1      -5.718   7.999  15.526  1.00  0.00    -0.271 OA
BRANCH  22  23
HETATM   23  C6  UNL     1      -6.972   7.897  16.182  1.00  0.00     0.303 C 
BRANCH  23  24
HETATM   24  C7  UNL     1      -7.857   6.837  15.528  1.00  0.00     0.244 C 
HETATM   25  O2  UNL     1      -8.490   5.990  16.151  1.00  0.00    -0.271 OA
HETATM   26  N2  UNL     1      -7.884   6.928  14.147  1.00  0.00    -0.355 N 
HETATM   27  H10 UNL     1      -7.218   7.530  13.683  1.00  0.00     0.162 HD
BRANCH  26  28
HETATM   28  C8  UNL     1      -8.607   5.974  13.337  1.00  0.00     0.161 C 
BRANCH  28  29
HETATM   29  C9  UNL     1      -7.733   4.802  12.980  1.00  0.00    -0.038 A 
HETATM   30  C10 UNL     1      -8.267   3.512  12.925  1.00  0.00     0.025 A 
HETATM   31  C11 UNL     1      -7.426   2.456  12.610  1.00  0.00     0.088 A 
HETATM   32  N3  UNL     1      -6.108   2.597  12.356  1.00  0.00    -0.375 N 
HETATM   33  C12 UNL     1      -5.609   3.849  12.423  1.00  0.00     0.088 A 
ATOM     34  H3  UNL     1      -5.518   1.797  12.124  1.00  0.00     0.164 HD
HETATM   35  C13 UNL     1      -6.368   4.968  12.731  1.00  0.00     0.025 A 
ENDBRANCH  28  29
ENDBRANCH  26  28
ENDBRANCH  23  24
ENDBRANCH  22  23
ENDBRANCH   6  22
BRANCH  14  36
HETATM   36  O3  UNL     1       0.496   4.523  11.839  1.00  0.00    -0.395 OA
HETATM   37  H25 UNL     1       0.201   4.915  11.003  1.00  0.00     0.210 HD
ENDBRANCH  14  36
BRANCH  21  38
HETATM   38  O4  UNL     1       4.850   7.052  12.207  1.00  0.00    -0.381 OA
HETATM   39  H36 UNL     1       5.437   7.646  12.708  1.00  0.00     0.211 HD
ENDBRANCH  21  38
BRANCH  21  40
HETATM   40  C28 UNL     1       4.397   8.500  10.304  1.00  0.00     0.184 C 
HETATM   41  O5  UNL     1       3.864   8.372   9.196  1.00  0.00    -0.292 OA
BRANCH  40  42
HETATM   42  C29 UNL     1       5.662   9.341  10.443  1.00  0.00     0.245 C 
BRANCH  42  43
HETATM   43  O6  UNL     1       6.788   8.535  10.771  1.00  0.00    -0.393 OA
HETATM   44  H39 UNL     1       6.532   7.611  10.573  1.00  0.00     0.209 HD
ENDBRANCH  42  43
ENDBRANCH  40  42
ENDBRANCH  21  40
TORSDOF 10
ENDMDL
MODEL 6
REMARK minimizedAffinity -7.45401716
REMARK CNNscore 0.615063071
REMARK CNNaffinity 7.24838829
REMARK  10 active torsions:
REMARK  status: ('A' for Active; 'I' for Inactive)
REMARK    1  A    between atoms: N1_6  and  O1_8 
REMARK    2  A    between atoms: O1_8  and  C6_9 
REMARK    3  A    between atoms: C6_9  and  C7_10 
REMARK       I    between atoms: C7_10  and  N2_12 
REMARK    4  A    between atoms: N2_12  and  C8_13 
REMARK    5  A    between atoms: C8_13  and  C9_14 
REMARK    6  A    between atoms: C20_27  and  O3_28 
REMARK    7  A    between atoms: C27_35  and  O4_36 
REMARK    8  A    between atoms: C27_35  and  C28_37 
REMARK    9  A    between atoms: C28_37  and  C29_39 
REMARK   10  A    between atoms: C29_39  and  O6_40 
ROOT
HETATM    1  C1  UNL     1      -9.961   9.800  14.824  1.00  0.00     0.020 C 
HETATM    2  C2  UNL     1     -10.622   8.406  14.947  1.00  0.00    -0.014 C 
HETATM    3  C3  UNL     1     -10.217   7.773  16.304  1.00  0.00     0.020 C 
HETATM    4  C4  UNL     1      -8.719   7.509  16.417  1.00  0.00     0.060 C 
HETATM    5  C5  UNL     1      -8.163   6.761  15.219  1.00  0.00     0.032 C 
HETATM    6  N1  UNL     1      -7.015   6.174  15.387  1.00  0.00    -0.271 N 
ATOM      7  H1  UNL     1      -6.492   6.179  16.262  1.00  0.00     0.194 HD
HETATM    8  C14 UNL     1      -8.962   6.769  13.958  1.00  0.00     0.030 C 
HETATM    9  C15 UNL     1     -10.083   7.503  13.830  1.00  0.00    -0.069 C 
HETATM   10  C16 UNL     1     -10.906   7.366  12.568  1.00  0.00     0.035 C 
HETATM   11  C17 UNL     1     -11.767   8.587  12.260  1.00  0.00     0.010 C 
HETATM   12  C18 UNL     1     -12.623   9.070  13.450  1.00  0.00    -0.002 C 
HETATM   13  C19 UNL     1     -12.185   8.450  14.806  1.00  0.00     0.031 C 
HETATM   14  C20 UNL     1     -12.974   9.086  15.970  1.00  0.00     0.124 C 
HETATM   15  C21 UNL     1     -14.493   8.980  15.749  1.00  0.00     0.045 C 
HETATM   16  C22 UNL     1     -15.031   9.431  14.353  1.00  0.00     0.001 C 
HETATM   17  C23 UNL     1     -15.143  10.968  14.332  1.00  0.00     0.019 C 
HETATM   18  C24 UNL     1     -14.137   8.911  13.198  1.00  0.00     0.002 C 
HETATM   19  C25 UNL     1     -14.611   7.469  12.936  1.00  0.00     0.009 C 
HETATM   20  C26 UNL     1     -15.993   7.331  13.578  1.00  0.00     0.047 C 
HETATM   21  C27 UNL     1     -16.402   8.743  14.036  1.00  0.00     0.128 C 
ENDROOT
BRANCH   6  22
HETATM   22  O1  UNL     1      -6.582   5.532  14.215  1.00  0.00    -0.271 OA
BRANCH  22  23
HETATM   23  C6  UNL     1      -6.904   4.154  14.306  1.00  0.00     0.303 C 
BRANCH  23  24
HETATM   24  C7  UNL     1      -6.506   3.404  13.036  1.00  0.00     0.244 C 
HETATM   25  O2  UNL     1      -7.215   2.570  12.479  1.00  0.00    -0.271 OA
HETATM   26  N2  UNL     1      -5.257   3.765  12.561  1.00  0.00    -0.355 N 
HETATM   27  H10 UNL     1      -4.654   4.325  13.147  1.00  0.00     0.162 HD
BRANCH  26  28
HETATM   28  C8  UNL     1      -4.667   3.120  11.410  1.00  0.00     0.161 C 
BRANCH  28  29
HETATM   29  C9  UNL     1      -3.165   3.177  11.472  1.00  0.00    -0.038 A 
HETATM   30  C10 UNL     1      -2.403   2.028  11.240  1.00  0.00     0.025 A 
HETATM   31  C11 UNL     1      -1.023   2.117  11.325  1.00  0.00     0.088 A 
HETATM   32  N3  UNL     1      -0.361   3.254  11.627  1.00  0.00    -0.375 N 
HETATM   33  C12 UNL     1      -1.115   4.350  11.858  1.00  0.00     0.088 A 
ATOM     34  H3  UNL     1       0.657   3.284  11.678  1.00  0.00     0.164 HD
HETATM   35  C13 UNL     1      -2.500   4.362  11.798  1.00  0.00     0.025 A 
ENDBRANCH  28  29
ENDBRANCH  26  28
ENDBRANCH  23  24
ENDBRANCH  22  23
ENDBRANCH   6  22
BRANCH  14  36
HETATM   36  O3  UNL     1     -12.601  10.427  16.246  1.00  0.00    -0.395 OA
HETATM   37  H25 UNL     1     -12.470  10.909  15.415  1.00  0.00     0.210 HD
ENDBRANCH  14  36
BRANCH  21  38
HETATM   38  O4  UNL     1     -17.209   8.646  15.205  1.00  0.00    -0.381 OA
HETATM   39  H36 UNL     1     -17.815   7.890  15.102  1.00  0.00     0.211 HD
ENDBRANCH  21  38
BRANCH  21  40
HETATM   40  C28 UNL     1     -17.208   9.434  12.902  1.00  0.00     0.184 C 
HETATM   41  O5  UNL     1     -17.787  10.515  13.056  1.00  0.00    -0.292 OA
BRANCH  40  42
HETATM   42  C29 UNL     1     -17.271   8.727  11.551  1.00  0.00     0.245 C 
BRANCH  42  43
HETATM   43  O6  UNL     1     -16.439   9.368  10.590  1.00  0.00    -0.393 OA
HETATM   44  H39 UNL     1     -15.831   9.946  11.095  1.00  0.00     0.209 HD
ENDBRANCH  42  43
ENDBRANCH  40  42
ENDBRANCH  21  40
TORSDOF 10
ENDMDL
MODEL 7
REMARK minimizedAffinity -8.34021282
REMARK CNNscore 0.572531939
REMARK CNNaffinity 7.3435173
REMARK  10 active torsions:
REMARK  status: ('A' for Active; 'I' for Inactive)
REMARK    1  A    between atoms: N1_6  and  O1_8 
REMARK    2  A    between atoms: O1_8  and  C6_9 
REMARK    3  A    between atoms: C6_9  and  C7_10 
REMARK       I    between atoms: C7_10  and  N2_12 
REMARK    4  A    between atoms: N2_12  and  C8_13 
REMARK    5  A    between atoms: C8_13  and  C9_14 
REMARK    6  A    between atoms: C20_27  and  O3_28 
REMARK    7  A    between atoms: C27_35  and  O4_36 
REMARK    8  A    between atoms: C27_35  and  C28_37 
REMARK    9  A    between atoms: C28_37  and  C29_39 
REMARK   10  A    between atoms: C29_39  and  O6_40 
ROOT
HETATM    1  C1  UNL     1      -6.415   5.796  15.763  1.00  0.00     0.020 C 
HETATM    2  C2  UNL     1      -6.492   6.194  14.269  1.00  0.00    -0.014 C 
HETATM    3  C3  UNL     1      -6.734   7.723  14.165  1.00  0.00     0.020 C 
HETATM    4  C4  UNL     1      -8.071   8.157  14.757  1.00  0.00     0.060 C 
HETATM    5  C5  UNL     1      -9.236   7.331  14.244  1.00  0.00     0.032 C 
HETATM    6  N1  UNL     1     -10.420   7.849  14.389  1.00  0.00    -0.271 N 
ATOM      7  H1  UNL     1     -10.598   8.763  14.806  1.00  0.00     0.194 HD
HETATM    8  C14 UNL     1      -8.935   6.003  13.632  1.00  0.00     0.030 C 
HETATM    9  C15 UNL     1      -7.693   5.485  13.630  1.00  0.00    -0.069 C 
HETATM   10  C16 UNL     1      -7.440   4.192  12.884  1.00  0.00     0.035 C 
HETATM   11  C17 UNL     1      -6.236   3.412  13.398  1.00  0.00     0.010 C 
HETATM   12  C18 UNL     1      -4.949   4.254  13.530  1.00  0.00    -0.002 C 
HETATM   13  C19 UNL     1      -5.214   5.784  13.454  1.00  0.00     0.031 C 
HETATM   14  C20 UNL     1      -3.917   6.570  13.746  1.00  0.00     0.124 C 
HETATM   15  C21 UNL     1      -2.770   6.135  12.817  1.00  0.00     0.045 C 
HETATM   16  C22 UNL     1      -2.515   4.599  12.693  1.00  0.00     0.001 C 
HETATM   17  C23 UNL     1      -1.699   4.126  13.912  1.00  0.00     0.019 C 
HETATM   18  C24 UNL     1      -3.840   3.806  12.556  1.00  0.00     0.002 C 
HETATM   19  C25 UNL     1      -4.207   3.885  11.061  1.00  0.00     0.009 C 
HETATM   20  C26 UNL     1      -2.937   4.297  10.313  1.00  0.00     0.047 C 
HETATM   21  C27 UNL     1      -1.795   4.261  11.343  1.00  0.00     0.128 C 
ENDROOT
BRANCH   6  22
HETATM   22  O1  UNL     1     -11.425   6.996  13.903  1.00  0.00    -0.271 OA
BRANCH  22  23
HETATM   23  C6  UNL     1     -12.110   7.655  12.851  1.00  0.00     0.303 C 
BRANCH  23  24
HETATM   24  C7  UNL     1     -13.591   7.839  13.180  1.00  0.00     0.244 C 
HETATM   25  O2  UNL     1     -14.143   8.931  13.282  1.00  0.00    -0.271 OA
HETATM   26  N2  UNL     1     -14.263   6.640  13.346  1.00  0.00    -0.355 N 
HETATM   27  H10 UNL     1     -13.728   5.785  13.417  1.00  0.00     0.162 HD
BRANCH  26  28
HETATM   28  C8  UNL     1     -15.655   6.597  13.731  1.00  0.00     0.161 C 
BRANCH  28  29
HETATM   29  C9  UNL     1     -16.095   5.184  14.000  1.00  0.00    -0.038 A 
HETATM   30  C10 UNL     1     -17.331   4.727  13.533  1.00  0.00     0.025 A 
HETATM   31  C11 UNL     1     -17.709   3.424  13.818  1.00  0.00     0.088 A 
HETATM   32  N3  UNL     1     -16.953   2.562  14.530  1.00  0.00    -0.375 N 
HETATM   33  C12 UNL     1     -15.768   3.025  14.981  1.00  0.00     0.088 A 
ATOM     34  H3  UNL     1     -17.261   1.608  14.718  1.00  0.00     0.164 HD
HETATM   35  C13 UNL     1     -15.302   4.311  14.750  1.00  0.00     0.025 A 
ENDBRANCH  28  29
ENDBRANCH  26  28
ENDBRANCH  23  24
ENDBRANCH  22  23
ENDBRANCH   6  22
BRANCH  14  36
HETATM   36  O3  UNL     1      -3.511   6.516  15.104  1.00  0.00    -0.395 OA
HETATM   37  H25 UNL     1      -3.632   5.618  15.447  1.00  0.00     0.210 HD
ENDBRANCH  14  36
BRANCH  21  38
HETATM   38  O4  UNL     1      -0.830   5.256  11.015  1.00  0.00    -0.381 OA
HETATM   39  H36 UNL     1      -0.716   5.270  10.047  1.00  0.00     0.211 HD
ENDBRANCH  21  38
BRANCH  21  40
HETATM   40  C28 UNL     1      -1.127   2.860  11.317  1.00  0.00     0.184 C 
HETATM   41  O5  UNL     1       0.083   2.692  11.505  1.00  0.00    -0.292 OA
BRANCH  40  42
HETATM   42  C29 UNL     1      -2.025   1.656  11.045  1.00  0.00     0.245 C 
BRANCH  42  43
HETATM   43  O6  UNL     1      -1.335   0.649  10.314  1.00  0.00    -0.393 OA
HETATM   44  H39 UNL     1      -0.381   0.859  10.389  1.00  0.00     0.209 HD
ENDBRANCH  42  43
ENDBRANCH  40  42
ENDBRANCH  21  40
TORSDOF 10
ENDMDL
MODEL 8
REMARK minimizedAffinity -6.90085697
REMARK CNNscore 0.492026806
REMARK CNNaffinity 7.02503586
REMARK  10 active torsions:
REMARK  status: ('A' for Active; 'I' for Inactive)
REMARK    1  A    between atoms: N1_6  and  O1_8 
REMARK    2  A    between atoms: O1_8  and  C6_9 
REMARK    3  A    between atoms: C6_9  and  C7_10 
REMARK       I    between atoms: C7_10  and  N2_12 
REMARK    4  A    between atoms: N2_12  and  C8_13 
REMARK    5  A    between atoms: C8_13  and  C9_14 
REMARK    6  A    between atoms: C20_27  and  O3_28 
REMARK    7  A    between atoms: C27_35  and  O4_36 
REMARK    8  A    between atoms: C27_35  and  C28_37 
REMARK    9  A    between atoms: C28_37  and  C29_39 
REMARK   10  A    between atoms: C29_39  and  O6_40 
ROOT
HETATM    1  C1  UNL     1      -8.959   9.736  15.199  1.00  0.00     0.020 C 
HETATM    2  C2  UNL     1      -9.991   8.645  15.573  1.00  0.00    -0.014 C 
HETATM    3  C3  UNL     1      -9.381   7.723  16.661  1.00  0.00     0.020 C 
HETATM    4  C4  UNL     1      -8.156   6.955  16.175  1.00  0.00     0.060 C 
HETATM    5  C5  UNL     1      -8.396   6.245  14.855  1.00  0.00     0.032 C 
HETATM    6  N1  UNL     1      -7.569   5.287  14.557  1.00  0.00    -0.271 N 
ATOM      7  H1  UNL     1      -6.799   4.988  15.155  1.00  0.00     0.194 HD
HETATM    8  C14 UNL     1      -9.538   6.705  14.011  1.00  0.00     0.030 C 
HETATM    9  C15 UNL     1     -10.272   7.785  14.334  1.00  0.00    -0.069 C 
HETATM   10  C16 UNL     1     -11.489   8.119  13.499  1.00  0.00     0.035 C 
HETATM   11  C17 UNL     1     -11.889   9.589  13.555  1.00  0.00     0.010 C 
HETATM   12  C18 UNL     1     -12.006  10.156  14.986  1.00  0.00    -0.002 C 
HETATM   13  C19 UNL     1     -11.363   9.235  16.060  1.00  0.00     0.031 C 
HETATM   14  C20 UNL     1     -11.376   9.926  17.440  1.00  0.00     0.124 C 
HETATM   15  C21 UNL     1     -12.795  10.372  17.836  1.00  0.00     0.045 C 
HETATM   16  C22 UNL     1     -13.600  11.175  16.765  1.00  0.00     0.001 C 
HETATM   17  C23 UNL     1     -13.138  12.645  16.789  1.00  0.00     0.019 C 
HETATM   18  C24 UNL     1     -13.451  10.557  15.352  1.00  0.00     0.002 C 
HETATM   19  C25 UNL     1     -14.483   9.414  15.298  1.00  0.00     0.009 C 
HETATM   20  C26 UNL     1     -15.479   9.661  16.433  1.00  0.00     0.047 C 
HETATM   21  C27 UNL     1     -15.141  11.045  17.014  1.00  0.00     0.128 C 
ENDROOT
BRANCH   6  22
HETATM   22  O1  UNL     1      -7.865   4.713  13.310  1.00  0.00    -0.271 OA
BRANCH  22  23
HETATM   23  C6  UNL     1      -7.268   3.428  13.247  1.00  0.00     0.303 C 
BRANCH  23  24
HETATM   24  C7  UNL     1      -5.922   3.474  12.527  1.00  0.00     0.244 C 
HETATM   25  O2  UNL     1      -5.549   2.637  11.709  1.00  0.00    -0.271 OA
HETATM   26  N2  UNL     1      -5.153   4.570  12.881  1.00  0.00    -0.355 N 
HETATM   27  H10 UNL     1      -5.434   5.128  13.675  1.00  0.00     0.162 HD
BRANCH  26  28
HETATM   28  C8  UNL     1      -3.816   4.758  12.365  1.00  0.00     0.161 C 
BRANCH  28  29
HETATM   29  C9  UNL     1      -2.928   5.400  13.395  1.00  0.00    -0.038 A 
HETATM   30  C10 UNL     1      -1.546   5.190  13.368  1.00  0.00     0.025 A 
HETATM   31  C11 UNL     1      -0.763   5.783  14.345  1.00  0.00     0.088 A 
HETATM   32  N3  UNL     1      -1.257   6.556  15.336  1.00  0.00    -0.375 N 
HETATM   33  C12 UNL     1      -2.594   6.739  15.351  1.00  0.00     0.088 A 
ATOM     34  H3  UNL     1      -0.651   6.980  16.038  1.00  0.00     0.164 HD
HETATM   35  C13 UNL     1      -3.461   6.188  14.419  1.00  0.00     0.025 A 
ENDBRANCH  28  29
ENDBRANCH  26  28
ENDBRANCH  23  24
ENDBRANCH  22  23
ENDBRANCH   6  22
BRANCH  14  36
HETATM   36  O3  UNL     1     -10.463  11.006  17.546  1.00  0.00    -0.395 OA
HETATM   37  H25 UNL     1     -10.478  11.530  16.731  1.00  0.00     0.210 HD
ENDBRANCH  14  36
BRANCH  21  38
HETATM   38  O4  UNL     1     -15.438  11.059  18.407  1.00  0.00    -0.381 OA
HETATM   39  H36 UNL     1     -16.271  10.576  18.551  1.00  0.00     0.211 HD
ENDBRANCH  21  38
BRANCH  21  40
HETATM   40  C28 UNL     1     -15.991  12.124  16.289  1.00  0.00     0.184 C 
HETATM   41  O5  UNL     1     -16.146  12.140  15.063  1.00  0.00    -0.292 OA
BRANCH  40  42
HETATM   42  C29 UNL     1     -16.651  13.197  17.150  1.00  0.00     0.245 C 
BRANCH  42  43
HETATM   43  O6  UNL     1     -17.729  13.823  16.464  1.00  0.00    -0.393 OA
HETATM   44  H39 UNL     1     -17.952  13.239  15.710  1.00  0.00     0.209 HD
ENDBRANCH  42  43
ENDBRANCH  40  42
ENDBRANCH  21  40
TORSDOF 10
ENDMDL
MODEL 9
REMARK minimizedAffinity -6.9746542
REMARK CNNscore 0.380255133
REMARK CNNaffinity 7.00979424
REMARK  10 active torsions:
REMARK  status: ('A' for Active; 'I' for Inactive)
REMARK    1  A    between atoms: N1_6  and  O1_8 
REMARK    2  A    between atoms: O1_8  and  C6_9 
REMARK    3  A    between atoms: C6_9  and  C7_10 
REMARK       I    between atoms: C7_10  and  N2_12 
REMARK    4  A    between atoms: N2_12  and  C8_13 
REMARK    5  A    between atoms: C8_13  and  C9_14 
REMARK    6  A    between atoms: C20_27  and  O3_28 
REMARK    7  A    between atoms: C27_35  and  O4_36 
REMARK    8  A    between atoms: C27_35  and  C28_37 
REMARK    9  A    between atoms: C28_37  and  C29_39 
REMARK   10  A    between atoms: C29_39  and  O6_40 
ROOT
HETATM    1  C1  UNL     1     -13.146   8.176  14.687  1.00  0.00     0.020 C 
HETATM    2  C2  UNL     1     -12.067   9.080  14.045  1.00  0.00    -0.014 C 
HETATM    3  C3  UNL     1     -11.588   8.432  12.719  1.00  0.00     0.020 C 
HETATM    4  C4  UNL     1     -10.901   7.086  12.926  1.00  0.00     0.060 C 
HETATM    5  C5  UNL     1      -9.821   7.136  13.991  1.00  0.00     0.032 C 
HETATM    6  N1  UNL     1      -8.949   6.171  13.975  1.00  0.00    -0.271 N 
ATOM      7  H1  UNL     1      -8.947   5.413  13.293  1.00  0.00     0.194 HD
HETATM    8  C14 UNL     1      -9.852   8.266  14.965  1.00  0.00     0.030 C 
HETATM    9  C15 UNL     1     -10.861   9.158  14.990  1.00  0.00    -0.069 C 
HETATM   10  C16 UNL     1     -10.764  10.346  15.922  1.00  0.00     0.035 C 
HETATM   11  C17 UNL     1     -12.115  10.938  16.305  1.00  0.00     0.010 C 
HETATM   12  C18 UNL     1     -13.039  11.229  15.104  1.00  0.00    -0.002 C 
HETATM   13  C19 UNL     1     -12.562  10.548  13.790  1.00  0.00     0.031 C 
HETATM   14  C20 UNL     1     -13.604  10.749  12.669  1.00  0.00     0.124 C 
HETATM   15  C21 UNL     1     -13.932  12.238  12.462  1.00  0.00     0.045 C 
HETATM   16  C22 UNL     1     -14.275  13.064  13.743  1.00  0.00     0.001 C 
HETATM   17  C23 UNL     1     -15.743  12.803  14.131  1.00  0.00     0.019 C 
HETATM   18  C24 UNL     1     -13.311  12.736  14.912  1.00  0.00     0.002 C 
HETATM   19  C25 UNL     1     -12.062  13.603  14.664  1.00  0.00     0.009 C 
HETATM   20  C26 UNL     1     -12.470  14.700  13.678  1.00  0.00     0.047 C 
HETATM   21  C27 UNL     1     -13.996  14.589  13.512  1.00  0.00     0.128 C 
ENDROOT
BRANCH   6  22
HETATM   22  O1  UNL     1      -8.010   6.301  15.011  1.00  0.00    -0.271 OA
BRANCH  22  23
HETATM   23  C6  UNL     1      -7.278   7.500  14.814  1.00  0.00     0.303 C 
BRANCH  23  24
HETATM   24  C7  UNL     1      -5.917   7.223  14.178  1.00  0.00     0.244 C 
HETATM   25  O2  UNL     1      -5.298   8.034  13.496  1.00  0.00    -0.271 OA
HETATM   26  N2  UNL     1      -5.436   5.954  14.455  1.00  0.00    -0.355 N 
HETATM   27  H10 UNL     1      -6.057   5.276  14.874  1.00  0.00     0.162 HD
BRANCH  26  28
HETATM   28  C8  UNL     1      -4.197   5.471  13.888  1.00  0.00     0.161 C 
BRANCH  28  29
HETATM   29  C9  UNL     1      -4.461   4.538  12.738  1.00  0.00    -0.038 A 
HETATM   30  C10 UNL     1      -5.696   3.896  12.616  1.00  0.00     0.025 A 
HETATM   31  C11 UNL     1      -5.894   3.029  11.553  1.00  0.00     0.088 A 
HETATM   32  N3  UNL     1      -4.956   2.758  10.621  1.00  0.00    -0.375 N 
HETATM   33  C12 UNL     1      -3.766   3.380  10.761  1.00  0.00     0.088 A 
ATOM     34  H3  UNL     1      -5.137   2.116   9.849  1.00  0.00     0.164 HD
HETATM   35  C13 UNL     1      -3.471   4.262  11.789  1.00  0.00     0.025 A 
ENDBRANCH  28  29
ENDBRANCH  26  28
ENDBRANCH  23  24
ENDBRANCH  22  23
ENDBRANCH   6  22
BRANCH  14  36
HETATM   36  O3  UNL     1     -14.792   9.995  12.853  1.00  0.00    -0.395 OA
HETATM   37  H25 UNL     1     -15.057  10.022  13.785  1.00  0.00     0.210 HD
ENDBRANCH  14  36
BRANCH  21  38
HETATM   38  O4  UNL     1     -14.359  14.982  12.193  1.00  0.00    -0.381 OA
HETATM   39  H36 UNL     1     -13.819  15.753  11.940  1.00  0.00     0.211 HD
ENDBRANCH  21  38
BRANCH  21  40
HETATM   40  C28 UNL     1     -14.691  15.520  14.543  1.00  0.00     0.184 C 
HETATM   41  O5  UNL     1     -15.796  16.035  14.341  1.00  0.00    -0.292 OA
BRANCH  40  42
HETATM   42  C29 UNL     1     -13.956  15.796  15.852  1.00  0.00     0.245 C 
BRANCH  42  43
HETATM   43  O6  UNL     1     -14.865  15.958  16.934  1.00  0.00    -0.393 OA
HETATM   44  H39 UNL     1     -15.723  15.597  16.629  1.00  0.00     0.209 HD
ENDBRANCH  42  43
ENDBRANCH  40  42
ENDBRANCH  21  40
TORSDOF 10
ENDMDL
