MODEL 1
REMARK minimizedAffinity -5.20106745
REMARK  0 active torsions:
REMARK  status: ('A' for Active; 'I' for Inactive)
ROOT
HETATM    1  C1  UNL     1       2.360  51.565 -26.894  1.00  0.00     0.001 A 
HETATM    2  C2  UNL     1       1.767  51.762 -28.133  1.00  0.00     0.001 A 
HETATM    3  C3  UNL     1       0.389  51.945 -28.218  1.00  0.00     0.008 A 
HETATM    4  C4  UNL     1      -0.433  51.929 -27.070  1.00  0.00    -0.041 A 
HETATM    5  C5  UNL     1       0.176  51.754 -25.802  1.00  0.00    -0.041 A 
HETATM    6  C6  UNL     1       1.574  51.558 -25.744  1.00  0.00     0.008 A 
HETATM    7  C7  UNL     1      -0.561  51.678 -24.475  1.00  0.00     0.125 C 
HETATM    8  S1  UNL     1      -2.164  52.503 -24.420  1.00  0.00    -0.093 SA
HETATM    9  S2  UNL     1      -3.028  51.579 -26.026  1.00  0.00    -0.093 SA
HETATM   10  C8  UNL     1      -1.912  52.185 -27.308  1.00  0.00     0.125 C 
ENDROOT
TORSDOF 0
ENDMDL
MODEL 2
REMARK minimizedAffinity -5.17631865
REMARK  0 active torsions:
REMARK  status: ('A' for Active; 'I' for Inactive)
ROOT
HETATM    1  C1  UNL     1       1.782  51.849 -28.147  1.00  0.00     0.001 A 
HETATM    2  C2  UNL     1       2.366  51.574 -26.919  1.00  0.00     0.001 A 
HETATM    3  C3  UNL     1       1.574  51.530 -25.772  1.00  0.00     0.008 A 
HETATM    4  C4  UNL     1       0.184  51.768 -25.823  1.00  0.00    -0.041 A 
HETATM    5  C5  UNL     1      -0.416  52.023 -27.081  1.00  0.00    -0.041 A 
HETATM    6  C6  UNL     1       0.410  52.074 -28.227  1.00  0.00     0.008 A 
HETATM    7  C7  UNL     1      -1.886  52.332 -27.309  1.00  0.00     0.125 C 
HETATM    8  S1  UNL     1      -3.024  51.694 -26.062  1.00  0.00    -0.093 SA
HETATM    9  S2  UNL     1      -2.139  52.512 -24.410  1.00  0.00    -0.093 SA
HETATM   10  C8  UNL     1      -0.560  51.646 -24.503  1.00  0.00     0.125 C 
ENDROOT
TORSDOF 0
ENDMDL
MODEL 3
REMARK minimizedAffinity -5.00059938
REMARK  0 active torsions:
REMARK  status: ('A' for Active; 'I' for Inactive)
ROOT
HETATM    1  C1  UNL     1       0.486  52.783 -19.721  1.00  0.00     0.001 A 
HETATM    2  C2  UNL     1       1.238  53.806 -20.280  1.00  0.00     0.001 A 
HETATM    3  C3  UNL     1       1.295  53.943 -21.666  1.00  0.00     0.008 A 
HETATM    4  C4  UNL     1       0.609  53.059 -22.527  1.00  0.00    -0.041 A 
HETATM    5  C5  UNL     1      -0.180  52.031 -21.955  1.00  0.00    -0.041 A 
HETATM    6  C6  UNL     1      -0.211  51.905 -20.548  1.00  0.00     0.008 A 
HETATM    7  C7  UNL     1      -0.952  50.978 -22.732  1.00  0.00     0.125 C 
HETATM    8  S1  UNL     1      -1.437  51.439 -24.408  1.00  0.00    -0.093 SA
HETATM    9  S2  UNL     1       0.408  51.963 -25.116  1.00  0.00    -0.093 SA
HETATM   10  C8  UNL     1       0.727  53.355 -24.013  1.00  0.00     0.125 C 
ENDROOT
TORSDOF 0
ENDMDL
MODEL 4
REMARK minimizedAffinity -4.98274088
REMARK  0 active torsions:
REMARK  status: ('A' for Active; 'I' for Inactive)
ROOT
HETATM    1  C1  UNL     1       1.285  53.782 -20.305  1.00  0.00     0.001 A 
HETATM    2  C2  UNL     1       0.556  52.762 -19.711  1.00  0.00     0.001 A 
HETATM    3  C3  UNL     1      -0.166  51.874 -20.506  1.00  0.00     0.008 A 
HETATM    4  C4  UNL     1      -0.182  51.987 -21.914  1.00  0.00    -0.041 A 
HETATM    5  C5  UNL     1       0.584  53.012 -22.522  1.00  0.00    -0.041 A 
HETATM    6  C6  UNL     1       1.296  53.907 -21.693  1.00  0.00     0.008 A 
HETATM    7  C7  UNL     1       0.650  53.293 -24.014  1.00  0.00     0.125 C 
HETATM    8  S1  UNL     1       0.300  51.891 -25.093  1.00  0.00    -0.093 SA
HETATM    9  S2  UNL     1      -1.519  51.368 -24.318  1.00  0.00    -0.093 SA
HETATM   10  C8  UNL     1      -0.976  50.924 -22.655  1.00  0.00     0.125 C 
ENDROOT
TORSDOF 0
ENDMDL
MODEL 5
REMARK minimizedAffinity -4.75781155
REMARK  0 active torsions:
REMARK  status: ('A' for Active; 'I' for Inactive)
ROOT
HETATM    1  C1  UNL     1       1.357  53.908 -21.763  1.00  0.00     0.001 A 
HETATM    2  C2  UNL     1       1.115  53.985 -20.399  1.00  0.00     0.001 A 
HETATM    3  C3  UNL     1       0.183  53.130 -19.813  1.00  0.00     0.008 A 
HETATM    4  C4  UNL     1      -0.535  52.183 -20.575  1.00  0.00    -0.041 A 
HETATM    5  C5  UNL     1      -0.269  52.087 -21.964  1.00  0.00    -0.041 A 
HETATM    6  C6  UNL     1       0.671  52.973 -22.536  1.00  0.00     0.008 A 
HETATM    7  C7  UNL     1      -0.973  51.151 -22.932  1.00  0.00     0.125 C 
HETATM    8  S1  UNL     1      -1.676  49.656 -22.206  1.00  0.00    -0.093 SA
HETATM    9  S2  UNL     1      -2.817  50.538 -20.757  1.00  0.00    -0.093 SA
HETATM   10  C8  UNL     1      -1.487  51.289 -19.797  1.00  0.00     0.125 C 
ENDROOT
TORSDOF 0
ENDMDL
MODEL 6
REMARK minimizedAffinity -4.74467516
REMARK  0 active torsions:
REMARK  status: ('A' for Active; 'I' for Inactive)
ROOT
HETATM    1  C1  UNL     1       1.113  53.944 -20.274  1.00  0.00     0.001 A 
HETATM    2  C2  UNL     1       1.379  53.897 -21.635  1.00  0.00     0.001 A 
HETATM    3  C3  UNL     1       0.695  52.990 -22.442  1.00  0.00     0.008 A 
HETATM    4  C4  UNL     1      -0.266  52.103 -21.910  1.00  0.00    -0.041 A 
HETATM    5  C5  UNL     1      -0.557  52.170 -20.525  1.00  0.00    -0.041 A 
HETATM    6  C6  UNL     1       0.159  53.089 -19.726  1.00  0.00     0.008 A 
HETATM    7  C7  UNL     1      -1.534  51.270 -19.786  1.00  0.00     0.125 C 
HETATM    8  S1  UNL     1      -2.856  50.559 -20.788  1.00  0.00    -0.093 SA
HETATM    9  S2  UNL     1      -1.699  49.697 -22.236  1.00  0.00    -0.093 SA
HETATM   10  C8  UNL     1      -0.964  51.200 -22.913  1.00  0.00     0.125 C 
ENDROOT
TORSDOF 0
ENDMDL
MODEL 7
REMARK minimizedAffinity -4.70288944
REMARK  0 active torsions:
REMARK  status: ('A' for Active; 'I' for Inactive)
ROOT
HETATM    1  C1  UNL     1       1.460  54.383 -21.872  1.00  0.00     0.001 A 
HETATM    2  C2  UNL     1       1.059  53.612 -22.953  1.00  0.00     0.001 A 
HETATM    3  C3  UNL     1       0.310  52.457 -22.738  1.00  0.00     0.008 A 
HETATM    4  C4  UNL     1      -0.050  52.039 -21.438  1.00  0.00    -0.041 A 
HETATM    5  C5  UNL     1       0.337  52.841 -20.336  1.00  0.00    -0.041 A 
HETATM    6  C6  UNL     1       1.106  54.001 -20.580  1.00  0.00     0.008 A 
HETATM    7  C7  UNL     1       0.063  52.522 -18.876  1.00  0.00     0.125 C 
HETATM    8  S1  UNL     1      -1.365  51.466 -18.558  1.00  0.00    -0.093 SA
HETATM    9  S2  UNL     1      -0.858  49.907 -19.780  1.00  0.00    -0.093 SA
HETATM   10  C8  UNL     1      -0.903  50.784 -21.356  1.00  0.00     0.125 C 
ENDROOT
TORSDOF 0
ENDMDL
MODEL 8
REMARK minimizedAffinity -4.66972637
REMARK  0 active torsions:
REMARK  status: ('A' for Active; 'I' for Inactive)
ROOT
HETATM    1  C1  UNL     1      -3.116  48.772 -24.230  1.00  0.00     0.001 A 
HETATM    2  C2  UNL     1      -3.184  48.518 -25.593  1.00  0.00     0.001 A 
HETATM    3  C3  UNL     1      -2.454  49.305 -26.480  1.00  0.00     0.008 A 
HETATM    4  C4  UNL     1      -1.643  50.370 -26.030  1.00  0.00    -0.041 A 
HETATM    5  C5  UNL     1      -1.552  50.612 -24.637  1.00  0.00    -0.041 A 
HETATM    6  C6  UNL     1      -2.313  49.808 -23.759  1.00  0.00     0.008 A 
HETATM    7  C7  UNL     1      -0.756  51.733 -23.988  1.00  0.00     0.125 C 
HETATM    8  S1  UNL     1       0.645  52.352 -24.940  1.00  0.00    -0.093 SA
HETATM    9  S2  UNL     1      -0.345  52.788 -26.675  1.00  0.00    -0.093 SA
HETATM   10  C8  UNL     1      -0.869  51.116 -27.105  1.00  0.00     0.125 C 
ENDROOT
TORSDOF 0
ENDMDL
MODEL 9
REMARK minimizedAffinity -4.65625477
REMARK  0 active torsions:
REMARK  status: ('A' for Active; 'I' for Inactive)
ROOT
HETATM    1  C1  UNL     1      -0.412  51.751 -22.380  1.00  0.00     0.001 A 
HETATM    2  C2  UNL     1       0.448  52.797 -22.685  1.00  0.00     0.001 A 
HETATM    3  C3  UNL     1       0.676  53.137 -24.017  1.00  0.00     0.008 A 
HETATM    4  C4  UNL     1       0.058  52.437 -25.076  1.00  0.00    -0.041 A 
HETATM    5  C5  UNL     1      -0.840  51.387 -24.764  1.00  0.00    -0.041 A 
HETATM    6  C6  UNL     1      -1.045  51.054 -23.406  1.00  0.00     0.008 A 
HETATM    7  C7  UNL     1      -1.561  50.514 -25.777  1.00  0.00     0.125 C 
HETATM    8  S1  UNL     1      -1.820  51.252 -27.404  1.00  0.00    -0.093 SA
HETATM    9  S2  UNL     1       0.118  51.758 -27.812  1.00  0.00    -0.093 SA
HETATM   10  C8  UNL     1       0.366  52.945 -26.476  1.00  0.00     0.125 C 
ENDROOT
TORSDOF 0
ENDMDL
