MODEL 1
REMARK minimizedAffinity -8.22818375
REMARK CNNscore 0.323316783
REMARK CNNaffinity 5.31281328
REMARK  6 active torsions:
REMARK  status: ('A' for Active; 'I' for Inactive)
REMARK    1  A    between atoms: C2_2  and  C4_4 
REMARK    2  A    between atoms: C4_4  and  C5_5 
REMARK    3  A    between atoms: C11_13  and  O2_14 
REMARK    4  A    between atoms: C12_16  and  N2_17 
REMARK    5  A    between atoms: C12_16  and  C29_37 
REMARK       I    between atoms: N2_17  and  C13_18 
REMARK    6  A    between atoms: C13_18  and  C14_20 
ROOT
HETATM    1  C5  UNL     1     -19.697  44.942 -22.761  1.00  0.00     0.185 C 
HETATM    2  C6  UNL     1     -20.643  43.733 -22.996  1.00  0.00     0.243 C 
HETATM    3  O1  UNL     1     -21.863  43.809 -22.888  1.00  0.00    -0.271 OA
HETATM    4  N1  UNL     1     -20.003  42.536 -23.252  1.00  0.00    -0.338 N 
HETATM    5  C7  UNL     1     -20.682  41.296 -23.563  1.00  0.00     0.127 C 
HETATM    6  C8  UNL     1     -19.566  40.257 -23.565  1.00  0.00     0.022 C 
HETATM    7  C9  UNL     1     -18.338  41.064 -23.994  1.00  0.00     0.034 C 
HETATM    8  C10 UNL     1     -18.547  42.394 -23.270  1.00  0.00     0.173 C 
HETATM    9  C11 UNL     1     -17.815  43.634 -23.851  1.00  0.00     0.276 C 
HETATM   10  O3  UNL     1     -17.512  43.496 -25.224  1.00  0.00    -0.295 OA
HETATM   11  C12 UNL     1     -17.601  44.785 -25.852  1.00  0.00     0.227 C 
HETATM   12  C32 UNL     1     -18.589  45.511 -24.927  1.00  0.00     0.281 C 
HETATM   13  O5  UNL     1     -19.194  46.545 -25.162  1.00  0.00    -0.268 OA
HETATM   14  N5  UNL     1     -18.589  44.831 -23.728  1.00  0.00    -0.277 N 
ENDROOT
BRANCH  11  15
HETATM   15  N2  UNL     1     -16.312  45.450 -25.754  1.00  0.00    -0.321 N 
HETATM   16  C13 UNL     1     -16.092  46.602 -25.040  1.00  0.00     0.226 C 
HETATM   17  O4  UNL     1     -16.975  47.209 -24.447  1.00  0.00    -0.273 OA
HETATM   18  H19 UNL     1     -15.528  44.987 -26.201  1.00  0.00     0.166 HD
BRANCH  16  19
HETATM   19  C14 UNL     1     -14.643  47.069 -25.072  1.00  0.00     0.107 C 
HETATM   20  C15 UNL     1     -14.063  46.936 -26.483  1.00  0.00     0.027 C 
HETATM   21  C16 UNL     1     -12.585  47.346 -26.502  1.00  0.00     0.054 C 
HETATM   22  C17 UNL     1     -11.938  47.190 -27.869  1.00  0.00    -0.039 A 
HETATM   23  C26 UNL     1     -11.770  46.551 -25.387  1.00  0.00     0.235 C 
HETATM   24  C18 UNL     1     -12.560  47.305 -29.120  1.00  0.00     0.008 A 
HETATM   25  C24 UNL     1     -10.553  46.983 -27.887  1.00  0.00     0.005 A 
HETATM   26  C19 UNL     1     -11.822  47.181 -30.309  1.00  0.00     0.003 A 
HETATM   27  C20 UNL     1     -10.437  46.949 -30.304  1.00  0.00     0.030 A 
HETATM   28  C21 UNL     1      -9.825  46.860 -29.054  1.00  0.00     0.043 A 
HETATM   29  N3  UNL     1      -8.518  46.661 -28.666  1.00  0.00    -0.365 N 
HETATM   30  C22 UNL     1      -8.422  46.655 -27.289  1.00  0.00     0.096 A 
HETATM   31  H27 UNL     1      -7.743  46.534 -29.303  1.00  0.00     0.165 HD
HETATM   32  C23 UNL     1      -9.686  46.853 -26.784  1.00  0.00    -0.028 A 
HETATM   33  C25 UNL     1     -10.239  46.938 -25.401  1.00  0.00     0.077 C 
HETATM   34  N4  UNL     1     -12.402  46.740 -24.049  1.00  0.00     0.090 N 
HETATM   35  C27 UNL     1     -11.682  46.031 -22.985  1.00  0.00     0.310 C 
HETATM   36  C28 UNL     1     -13.803  46.274 -24.069  1.00  0.00     0.286 C 
ENDBRANCH  16  19
ENDBRANCH  11  15
BRANCH  11  37
HETATM   37  C29 UNL     1     -18.100  44.619 -27.306  1.00  0.00     0.043 C 
HETATM   38  C30 UNL     1     -19.373  43.775 -27.428  1.00  0.00     0.015 C 
HETATM   39  C31 UNL     1     -17.012  44.062 -28.235  1.00  0.00     0.015 C 
ENDBRANCH  11  37
BRANCH   9  40
HETATM   40  O2  UNL     1     -16.607  43.855 -23.157  1.00  0.00    -0.347 OA
HETATM   41  H18 UNL     1     -15.991  43.226 -23.573  1.00  0.00     0.215 HD
ENDBRANCH   9  40
BRANCH   1  42
HETATM   42  C4  UNL     1     -19.166  44.998 -21.318  1.00  0.00     0.039 C 
BRANCH  42  43
HETATM   43  C2  UNL     1     -18.673  46.392 -20.875  1.00  0.00    -0.020 C 
HETATM   44  C1  UNL     1     -19.211  46.807 -19.507  1.00  0.00     0.009 C 
HETATM   45  C3  UNL     1     -17.141  46.417 -20.859  1.00  0.00     0.009 C 
ENDBRANCH  42  43
ENDBRANCH   1  42
TORSDOF 6
ENDMDL
MODEL 2
REMARK minimizedAffinity -10.0828943
REMARK CNNscore 0.258437544
REMARK CNNaffinity 7.25434446
REMARK  6 active torsions:
REMARK  status: ('A' for Active; 'I' for Inactive)
REMARK    1  A    between atoms: C2_2  and  C4_4 
REMARK    2  A    between atoms: C4_4  and  C5_5 
REMARK    3  A    between atoms: C11_13  and  O2_14 
REMARK    4  A    between atoms: C12_16  and  N2_17 
REMARK    5  A    between atoms: C12_16  and  C29_37 
REMARK       I    between atoms: N2_17  and  C13_18 
REMARK    6  A    between atoms: C13_18  and  C14_20 
ROOT
HETATM    1  C5  UNL     1      -0.766  52.009 -25.288  1.00  0.00     0.185 C 
HETATM    2  C6  UNL     1      -0.317  52.690 -23.965  1.00  0.00     0.243 C 
HETATM    3  O1  UNL     1       0.149  53.824 -23.923  1.00  0.00    -0.271 OA
HETATM    4  N1  UNL     1      -0.399  51.888 -22.843  1.00  0.00    -0.338 N 
HETATM    5  C7  UNL     1      -0.095  52.330 -21.499  1.00  0.00     0.127 C 
HETATM    6  C8  UNL     1      -0.148  51.052 -20.671  1.00  0.00     0.022 C 
HETATM    7  C9  UNL     1      -1.166  50.190 -21.422  1.00  0.00     0.034 C 
HETATM    8  C10 UNL     1      -0.840  50.494 -22.885  1.00  0.00     0.173 C 
HETATM    9  C11 UNL     1      -1.964  50.235 -23.925  1.00  0.00     0.276 C 
HETATM   10  O3  UNL     1      -3.256  50.278 -23.355  1.00  0.00    -0.295 OA
HETATM   11  C12 UNL     1      -4.173  50.813 -24.322  1.00  0.00     0.227 C 
HETATM   12  C32 UNL     1      -3.238  51.661 -25.197  1.00  0.00     0.281 C 
HETATM   13  O5  UNL     1      -3.561  52.521 -26.002  1.00  0.00    -0.268 OA
HETATM   14  N5  UNL     1      -1.958  51.196 -24.984  1.00  0.00    -0.277 N 
ENDROOT
BRANCH  11  15
HETATM   15  N2  UNL     1      -4.694  49.725 -25.133  1.00  0.00    -0.321 N 
HETATM   16  C13 UNL     1      -4.180  49.359 -26.352  1.00  0.00     0.226 C 
HETATM   17  O4  UNL     1      -3.252  49.943 -26.899  1.00  0.00    -0.273 OA
HETATM   18  H19 UNL     1      -5.448  49.180 -24.731  1.00  0.00     0.166 HD
BRANCH  16  19
HETATM   19  C14 UNL     1      -4.888  48.163 -26.976  1.00  0.00     0.107 C 
HETATM   20  C15 UNL     1      -5.010  48.337 -28.491  1.00  0.00     0.027 C 
HETATM   21  C16 UNL     1      -5.779  47.163 -29.112  1.00  0.00     0.054 C 
HETATM   22  C17 UNL     1      -5.976  47.303 -30.613  1.00  0.00    -0.039 A 
HETATM   23  C26 UNL     1      -7.173  46.953 -28.367  1.00  0.00     0.235 C 
HETATM   24  C18 UNL     1      -5.130  47.951 -31.523  1.00  0.00     0.008 A 
HETATM   25  C24 UNL     1      -7.086  46.648 -31.163  1.00  0.00     0.005 A 
HETATM   26  C19 UNL     1      -5.417  47.961 -32.898  1.00  0.00     0.003 A 
HETATM   27  C20 UNL     1      -6.549  47.317 -33.426  1.00  0.00     0.030 A 
HETATM   28  C21 UNL     1      -7.370  46.655 -32.514  1.00  0.00     0.043 A 
HETATM   29  N3  UNL     1      -8.527  45.921 -32.661  1.00  0.00    -0.365 N 
HETATM   30  C22 UNL     1      -8.964  45.463 -31.435  1.00  0.00     0.096 A 
HETATM   31  H27 UNL     1      -8.988  45.748 -33.544  1.00  0.00     0.165 HD
HETATM   32  C23 UNL     1      -8.075  45.910 -30.485  1.00  0.00    -0.028 A 
HETATM   33  C25 UNL     1      -7.996  45.764 -29.002  1.00  0.00     0.077 C 
HETATM   34  N4  UNL     1      -6.957  46.788 -26.900  1.00  0.00     0.090 N 
HETATM   35  C27 UNL     1      -8.213  46.584 -26.169  1.00  0.00     0.310 C 
HETATM   36  C28 UNL     1      -6.268  47.970 -26.344  1.00  0.00     0.286 C 
ENDBRANCH  16  19
ENDBRANCH  11  15
BRANCH  11  37
HETATM   37  C29 UNL     1      -5.273  51.625 -23.600  1.00  0.00     0.043 C 
HETATM   38  C30 UNL     1      -4.728  52.624 -22.574  1.00  0.00     0.015 C 
HETATM   39  C31 UNL     1      -6.326  50.722 -22.941  1.00  0.00     0.015 C 
ENDBRANCH  11  37
BRANCH   9  40
HETATM   40  O2  UNL     1      -1.792  48.968 -24.521  1.00  0.00    -0.347 OA
HETATM   41  H18 UNL     1      -2.178  48.359 -23.868  1.00  0.00     0.215 HD
ENDBRANCH   9  40
BRANCH   1  42
HETATM   42  C4  UNL     1       0.346  51.146 -25.909  1.00  0.00     0.039 C 
BRANCH  42  43
HETATM   43  C2  UNL     1       1.269  51.903 -26.887  1.00  0.00    -0.020 C 
HETATM   44  C1  UNL     1       2.724  51.447 -26.808  1.00  0.00     0.009 C 
HETATM   45  C3  UNL     1       0.749  51.737 -28.319  1.00  0.00     0.009 C 
ENDBRANCH  42  43
ENDBRANCH   1  42
TORSDOF 6
ENDMDL
MODEL 3
REMARK minimizedAffinity -8.40559387
REMARK CNNscore 0.201371938
REMARK CNNaffinity 7.07452583
REMARK  6 active torsions:
REMARK  status: ('A' for Active; 'I' for Inactive)
REMARK    1  A    between atoms: C2_2  and  C4_4 
REMARK    2  A    between atoms: C4_4  and  C5_5 
REMARK    3  A    between atoms: C11_13  and  O2_14 
REMARK    4  A    between atoms: C12_16  and  N2_17 
REMARK    5  A    between atoms: C12_16  and  C29_37 
REMARK       I    between atoms: N2_17  and  C13_18 
REMARK    6  A    between atoms: C13_18  and  C14_20 
ROOT
HETATM    1  C5  UNL     1      -0.543  46.635 -13.636  1.00  0.00     0.185 C 
HETATM    2  C6  UNL     1      -0.921  47.175 -12.229  1.00  0.00     0.243 C 
HETATM    3  O1  UNL     1      -0.434  46.735 -11.192  1.00  0.00    -0.271 OA
HETATM    4  N1  UNL     1      -1.915  48.134 -12.223  1.00  0.00    -0.338 N 
HETATM    5  C7  UNL     1      -2.381  48.821 -11.037  1.00  0.00     0.127 C 
HETATM    6  C8  UNL     1      -3.589  49.613 -11.523  1.00  0.00     0.022 C 
HETATM    7  C9  UNL     1      -3.256  49.896 -12.990  1.00  0.00     0.034 C 
HETATM    8  C10 UNL     1      -2.594  48.591 -13.436  1.00  0.00     0.173 C 
HETATM    9  C11 UNL     1      -1.660  48.664 -14.674  1.00  0.00     0.276 C 
HETATM   10  O3  UNL     1      -1.129  49.957 -14.883  1.00  0.00    -0.295 OA
HETATM   11  C12 UNL     1       0.196  49.834 -15.423  1.00  0.00     0.227 C 
HETATM   12  C32 UNL     1       0.617  48.455 -14.895  1.00  0.00     0.281 C 
HETATM   13  O5  UNL     1       1.747  47.994 -14.858  1.00  0.00    -0.268 OA
HETATM   14  N5  UNL     1      -0.539  47.782 -14.563  1.00  0.00    -0.277 N 
ENDROOT
BRANCH  11  15
HETATM   15  N2  UNL     1       0.112  49.760 -16.873  1.00  0.00    -0.321 N 
HETATM   16  C13 UNL     1      -0.828  50.422 -17.624  1.00  0.00     0.226 C 
HETATM   17  O4  UNL     1      -1.719  51.109 -17.141  1.00  0.00    -0.273 OA
HETATM   18  H19 UNL     1       0.835  49.228 -17.343  1.00  0.00     0.166 HD
BRANCH  16  19
HETATM   19  C14 UNL     1      -0.671  50.203 -19.123  1.00  0.00     0.107 C 
HETATM   20  C15 UNL     1      -0.165  51.477 -19.805  1.00  0.00     0.027 C 
HETATM   21  C16 UNL     1      -0.066  51.276 -21.323  1.00  0.00     0.054 C 
HETATM   22  C17 UNL     1       0.386  52.525 -22.064  1.00  0.00    -0.039 A 
HETATM   23  C26 UNL     1      -1.446  50.731 -21.905  1.00  0.00     0.235 C 
HETATM   24  C18 UNL     1       1.228  53.537 -21.584  1.00  0.00     0.008 A 
HETATM   25  C24 UNL     1      -0.021  52.643 -23.399  1.00  0.00     0.005 A 
HETATM   26  C19 UNL     1       1.600  54.617 -22.403  1.00  0.00     0.003 A 
HETATM   27  C20 UNL     1       1.161  54.728 -23.732  1.00  0.00     0.030 A 
HETATM   28  C21 UNL     1       0.343  53.703 -24.206  1.00  0.00     0.043 A 
HETATM   29  N3  UNL     1      -0.250  53.470 -25.427  1.00  0.00    -0.365 N 
HETATM   30  C22 UNL     1      -0.972  52.295 -25.394  1.00  0.00     0.096 A 
HETATM   31  H27 UNL     1      -0.167  54.079 -26.231  1.00  0.00     0.165 HD
HETATM   32  C23 UNL     1      -0.842  51.764 -24.131  1.00  0.00    -0.028 A 
HETATM   33  C25 UNL     1      -1.380  50.538 -23.471  1.00  0.00     0.077 C 
HETATM   34  N4  UNL     1      -1.858  49.490 -21.187  1.00  0.00     0.090 N 
HETATM   35  C27 UNL     1      -3.123  48.945 -21.692  1.00  0.00     0.310 C 
HETATM   36  C28 UNL     1      -1.997  49.753 -19.740  1.00  0.00     0.286 C 
ENDBRANCH  16  19
ENDBRANCH  11  15
BRANCH  11  37
HETATM   37  C29 UNL     1       1.073  51.002 -14.915  1.00  0.00     0.043 C 
HETATM   38  C30 UNL     1       0.296  52.051 -14.113  1.00  0.00     0.015 C 
HETATM   39  C31 UNL     1       1.851  51.682 -16.051  1.00  0.00     0.015 C 
ENDBRANCH  11  37
BRANCH   9  40
HETATM   40  O2  UNL     1      -2.364  48.287 -15.836  1.00  0.00    -0.347 OA
HETATM   41  H18 UNL     1      -2.844  49.097 -16.081  1.00  0.00     0.215 HD
ENDBRANCH   9  40
BRANCH   1  42
HETATM   42  C4  UNL     1      -1.507  45.538 -14.120  1.00  0.00     0.039 C 
BRANCH  42  43
HETATM   43  C2  UNL     1      -0.813  44.234 -14.570  1.00  0.00    -0.020 C 
HETATM   44  C1  UNL     1       0.710  44.343 -14.581  1.00  0.00     0.009 C 
HETATM   45  C3  UNL     1      -1.244  43.081 -13.658  1.00  0.00     0.009 C 
ENDBRANCH  42  43
ENDBRANCH   1  42
TORSDOF 6
ENDMDL
MODEL 4
REMARK minimizedAffinity -8.30046654
REMARK CNNscore 0.189777523
REMARK CNNaffinity 6.77944231
REMARK  6 active torsions:
REMARK  status: ('A' for Active; 'I' for Inactive)
REMARK    1  A    between atoms: C2_2  and  C4_4 
REMARK    2  A    between atoms: C4_4  and  C5_5 
REMARK    3  A    between atoms: C11_13  and  O2_14 
REMARK    4  A    between atoms: C12_16  and  N2_17 
REMARK    5  A    between atoms: C12_16  and  C29_37 
REMARK       I    between atoms: N2_17  and  C13_18 
REMARK    6  A    between atoms: C13_18  and  C14_20 
ROOT
HETATM    1  C5  UNL     1       1.590  54.125  -9.752  1.00  0.00     0.185 C 
HETATM    2  C6  UNL     1       1.395  54.158  -8.211  1.00  0.00     0.243 C 
HETATM    3  O1  UNL     1       1.304  55.202  -7.572  1.00  0.00    -0.271 OA
HETATM    4  N1  UNL     1       1.418  52.922  -7.596  1.00  0.00    -0.338 N 
HETATM    5  C7  UNL     1       1.194  52.707  -6.183  1.00  0.00     0.127 C 
HETATM    6  C8  UNL     1       1.514  51.230  -5.980  1.00  0.00     0.022 C 
HETATM    7  C9  UNL     1       1.162  50.607  -7.333  1.00  0.00     0.034 C 
HETATM    8  C10 UNL     1       1.642  51.671  -8.322  1.00  0.00     0.173 C 
HETATM    9  C11 UNL     1       1.002  51.656  -9.737  1.00  0.00     0.276 C 
HETATM   10  O3  UNL     1      -0.274  51.050  -9.753  1.00  0.00    -0.295 OA
HETATM   11  C12 UNL     1      -1.090  51.711 -10.731  1.00  0.00     0.227 C 
HETATM   12  C32 UNL     1      -0.443  53.103 -10.784  1.00  0.00     0.281 C 
HETATM   13  O5  UNL     1      -0.917  54.118 -11.270  1.00  0.00    -0.268 OA
HETATM   14  N5  UNL     1       0.829  52.973 -10.270  1.00  0.00    -0.277 N 
ENDROOT
BRANCH  11  15
HETATM   15  N2  UNL     1      -0.897  51.070 -12.022  1.00  0.00    -0.321 N 
HETATM   16  C13 UNL     1      -0.418  51.712 -13.137  1.00  0.00     0.226 C 
HETATM   17  O4  UNL     1      -0.143  52.906 -13.165  1.00  0.00    -0.273 OA
HETATM   18  H19 UNL     1      -1.080  50.074 -12.066  1.00  0.00     0.166 HD
BRANCH  16  19
HETATM   19  C14 UNL     1      -0.277  50.801 -14.349  1.00  0.00     0.107 C 
HETATM   20  C15 UNL     1      -0.030  51.623 -15.617  1.00  0.00     0.027 C 
HETATM   21  C16 UNL     1       0.049  50.710 -16.848  1.00  0.00     0.054 C 
HETATM   22  C17 UNL     1       0.246  51.473 -18.148  1.00  0.00    -0.039 A 
HETATM   23  C26 UNL     1      -1.232  49.764 -16.925  1.00  0.00     0.235 C 
HETATM   24  C18 UNL     1       0.911  52.694 -18.322  1.00  0.00     0.008 A 
HETATM   25  C24 UNL     1      -0.223  50.855 -19.314  1.00  0.00     0.005 A 
HETATM   26  C19 UNL     1       1.056  53.263 -19.599  1.00  0.00     0.003 A 
HETATM   27  C20 UNL     1       0.558  52.637 -20.753  1.00  0.00     0.030 A 
HETATM   28  C21 UNL     1      -0.081  51.411 -20.570  1.00  0.00     0.043 A 
HETATM   29  N3  UNL     1      -0.666  50.523 -21.446  1.00  0.00    -0.365 N 
HETATM   30  C22 UNL     1      -1.167  49.434 -20.762  1.00  0.00     0.096 A 
HETATM   31  H27 UNL     1      -0.721  50.656 -22.447  1.00  0.00     0.165 HD
HETATM   32  C23 UNL     1      -0.900  49.625 -19.426  1.00  0.00    -0.028 A 
HETATM   33  C25 UNL     1      -1.187  48.829 -18.197  1.00  0.00     0.077 C 
HETATM   34  N4  UNL     1      -1.391  49.002 -15.652  1.00  0.00     0.090 N 
HETATM   35  C27 UNL     1      -2.555  48.110 -15.676  1.00  0.00     0.310 C 
HETATM   36  C28 UNL     1      -1.523  49.928 -14.509  1.00  0.00     0.286 C 
ENDBRANCH  16  19
ENDBRANCH  11  15
BRANCH  11  37
HETATM   37  C29 UNL     1      -2.563  51.715 -10.260  1.00  0.00     0.043 C 
HETATM   38  C30 UNL     1      -3.461  50.746 -11.036  1.00  0.00     0.015 C 
HETATM   39  C31 UNL     1      -3.176  53.123 -10.276  1.00  0.00     0.015 C 
ENDBRANCH  11  37
BRANCH   9  40
HETATM   40  O2  UNL     1       1.831  50.956 -10.637  1.00  0.00    -0.347 OA
HETATM   41  H18 UNL     1       1.611  50.024 -10.467  1.00  0.00     0.215 HD
ENDBRANCH   9  40
BRANCH   1  42
HETATM   42  C4  UNL     1       3.073  54.032 -10.153  1.00  0.00     0.039 C 
BRANCH  42  43
HETATM   43  C2  UNL     1       3.882  55.323  -9.904  1.00  0.00    -0.020 C 
HETATM   44  C1  UNL     1       5.386  55.075  -9.811  1.00  0.00     0.009 C 
HETATM   45  C3  UNL     1       3.591  56.336 -11.017  1.00  0.00     0.009 C 
ENDBRANCH  42  43
ENDBRANCH   1  42
TORSDOF 6
ENDMDL
MODEL 5
REMARK minimizedAffinity -9.00268555
REMARK CNNscore 0.181562096
REMARK CNNaffinity 6.29546738
REMARK  6 active torsions:
REMARK  status: ('A' for Active; 'I' for Inactive)
REMARK    1  A    between atoms: C2_2  and  C4_4 
REMARK    2  A    between atoms: C4_4  and  C5_5 
REMARK    3  A    between atoms: C11_13  and  O2_14 
REMARK    4  A    between atoms: C12_16  and  N2_17 
REMARK    5  A    between atoms: C12_16  and  C29_37 
REMARK       I    between atoms: N2_17  and  C13_18 
REMARK    6  A    between atoms: C13_18  and  C14_20 
ROOT
HETATM    1  C5  UNL     1       1.237  49.253 -13.283  1.00  0.00     0.185 C 
HETATM    2  C6  UNL     1       0.560  48.623 -14.532  1.00  0.00     0.243 C 
HETATM    3  O1  UNL     1       0.232  47.442 -14.589  1.00  0.00    -0.271 OA
HETATM    4  N1  UNL     1       0.432  49.473 -15.613  1.00  0.00    -0.338 N 
HETATM    5  C7  UNL     1      -0.223  49.123 -16.855  1.00  0.00     0.127 C 
HETATM    6  C8  UNL     1       0.070  50.305 -17.771  1.00  0.00     0.022 C 
HETATM    7  C9  UNL     1       0.191  51.480 -16.798  1.00  0.00     0.034 C 
HETATM    8  C10 UNL     1       0.922  50.852 -15.610  1.00  0.00     0.173 C 
HETATM    9  C11 UNL     1       0.767  51.558 -14.236  1.00  0.00     0.276 C 
HETATM   10  O3  UNL     1      -0.413  52.329 -14.147  1.00  0.00    -0.295 OA
HETATM   11  C12 UNL     1      -0.900  52.281 -12.797  1.00  0.00     0.227 C 
HETATM   12  C32 UNL     1      -0.322  50.945 -12.308  1.00  0.00     0.281 C 
HETATM   13  O5  UNL     1      -0.653  50.319 -11.314  1.00  0.00    -0.268 OA
HETATM   14  N5  UNL     1       0.724  50.629 -13.149  1.00  0.00    -0.277 N 
ENDROOT
BRANCH  11  15
HETATM   15  N2  UNL     1      -0.282  53.352 -12.033  1.00  0.00    -0.321 N 
HETATM   16  C13 UNL     1      -0.053  53.300 -10.680  1.00  0.00     0.226 C 
HETATM   17  O4  UNL     1      -0.387  52.356  -9.973  1.00  0.00    -0.273 OA
HETATM   18  H19 UNL     1       0.044  54.155 -12.559  1.00  0.00     0.166 HD
BRANCH  16  19
HETATM   19  C14 UNL     1       0.641  54.540 -10.133  1.00  0.00     0.107 C 
HETATM   20  C15 UNL     1       2.133  54.273  -9.916  1.00  0.00     0.027 C 
HETATM   21  C16 UNL     1       2.821  55.502  -9.306  1.00  0.00     0.054 C 
HETATM   22  C17 UNL     1       4.298  55.281  -9.022  1.00  0.00    -0.039 A 
HETATM   23  C26 UNL     1       2.049  55.981  -7.997  1.00  0.00     0.235 C 
HETATM   24  C18 UNL     1       5.180  54.443  -9.717  1.00  0.00     0.008 A 
HETATM   25  C24 UNL     1       4.862  56.056  -8.000  1.00  0.00     0.005 A 
HETATM   26  C19 UNL     1       6.540  54.374  -9.369  1.00  0.00     0.003 A 
HETATM   27  C20 UNL     1       7.079  55.143  -8.325  1.00  0.00     0.030 A 
HETATM   28  C21 UNL     1       6.197  55.991  -7.656  1.00  0.00     0.043 A 
HETATM   29  N3  UNL     1       6.365  56.882  -6.618  1.00  0.00    -0.365 N 
HETATM   30  C22 UNL     1       5.165  57.494  -6.313  1.00  0.00     0.096 A 
HETATM   31  H27 UNL     1       7.242  57.058  -6.148  1.00  0.00     0.165 HD
HETATM   32  C23 UNL     1       4.213  56.988  -7.167  1.00  0.00    -0.028 A 
HETATM   33  C25 UNL     1       2.750  57.231  -7.335  1.00  0.00     0.077 C 
HETATM   34  N4  UNL     1       0.608  56.220  -8.302  1.00  0.00     0.090 N 
HETATM   35  C27 UNL     1      -0.146  56.670  -7.127  1.00  0.00     0.310 C 
HETATM   36  C28 UNL     1      -0.019  54.991  -8.829  1.00  0.00     0.286 C 
ENDBRANCH  16  19
ENDBRANCH  11  15
BRANCH  11  37
HETATM   37  C29 UNL     1      -2.445  52.339 -12.801  1.00  0.00     0.043 C 
HETATM   38  C30 UNL     1      -3.053  52.638 -11.427  1.00  0.00     0.015 C 
HETATM   39  C31 UNL     1      -3.074  51.067 -13.386  1.00  0.00     0.015 C 
ENDBRANCH  11  37
BRANCH   9  40
HETATM   40  O2  UNL     1       1.865  52.411 -14.002  1.00  0.00    -0.347 OA
HETATM   41  H18 UNL     1       1.637  53.214 -14.503  1.00  0.00     0.215 HD
ENDBRANCH   9  40
BRANCH   1  42
HETATM   42  C4  UNL     1       2.773  49.244 -13.382  1.00  0.00     0.039 C 
BRANCH  42  43
HETATM   43  C2  UNL     1       3.499  49.261 -12.020  1.00  0.00    -0.020 C 
HETATM   44  C1  UNL     1       3.747  50.673 -11.495  1.00  0.00     0.009 C 
HETATM   45  C3  UNL     1       2.689  48.460 -10.995  1.00  0.00     0.009 C 
ENDBRANCH  42  43
ENDBRANCH   1  42
TORSDOF 6
ENDMDL
MODEL 6
REMARK minimizedAffinity -9.04742146
REMARK CNNscore 0.1786284
REMARK CNNaffinity 5.83379889
REMARK  6 active torsions:
REMARK  status: ('A' for Active; 'I' for Inactive)
REMARK    1  A    between atoms: C2_2  and  C4_4 
REMARK    2  A    between atoms: C4_4  and  C5_5 
REMARK    3  A    between atoms: C11_13  and  O2_14 
REMARK    4  A    between atoms: C12_16  and  N2_17 
REMARK    5  A    between atoms: C12_16  and  C29_37 
REMARK       I    between atoms: N2_17  and  C13_18 
REMARK    6  A    between atoms: C13_18  and  C14_20 
ROOT
HETATM    1  C5  UNL     1      -1.729  50.089 -22.527  1.00  0.00     0.185 C 
HETATM    2  C6  UNL     1      -2.889  49.803 -23.520  1.00  0.00     0.243 C 
HETATM    3  O1  UNL     1      -2.704  49.481 -24.689  1.00  0.00    -0.271 OA
HETATM    4  N1  UNL     1      -4.155  50.023 -23.012  1.00  0.00    -0.338 N 
HETATM    5  C7  UNL     1      -5.382  49.763 -23.734  1.00  0.00     0.127 C 
HETATM    6  C8  UNL     1      -6.467  50.343 -22.834  1.00  0.00     0.022 C 
HETATM    7  C9  UNL     1      -5.876  50.192 -21.430  1.00  0.00     0.034 C 
HETATM    8  C10 UNL     1      -4.399  50.520 -21.657  1.00  0.00     0.173 C 
HETATM    9  C11 UNL     1      -3.389  49.976 -20.611  1.00  0.00     0.276 C 
HETATM   10  O3  UNL     1      -3.873  48.840 -19.923  1.00  0.00    -0.295 OA
HETATM   11  C12 UNL     1      -2.769  47.971 -19.628  1.00  0.00     0.227 C 
HETATM   12  C32 UNL     1      -1.775  48.346 -20.736  1.00  0.00     0.281 C 
HETATM   13  O5  UNL     1      -0.787  47.719 -21.083  1.00  0.00    -0.268 OA
HETATM   14  N5  UNL     1      -2.146  49.589 -21.203  1.00  0.00    -0.277 N 
ENDROOT
BRANCH  11  15
HETATM   15  N2  UNL     1      -2.193  48.354 -18.349  1.00  0.00    -0.321 N 
HETATM   16  C13 UNL     1      -2.905  48.928 -17.325  1.00  0.00     0.226 C 
HETATM   17  O4  UNL     1      -4.094  49.213 -17.403  1.00  0.00    -0.273 OA
HETATM   18  H19 UNL     1      -1.216  48.124 -18.204  1.00  0.00     0.166 HD
BRANCH  16  19
HETATM   19  C14 UNL     1      -2.069  49.197 -16.081  1.00  0.00     0.107 C 
HETATM   20  C15 UNL     1      -0.815  50.000 -16.436  1.00  0.00     0.027 C 
HETATM   21  C16 UNL     1       0.060  50.218 -15.194  1.00  0.00     0.054 C 
HETATM   22  C17 UNL     1       1.347  50.969 -15.493  1.00  0.00    -0.039 A 
HETATM   23  C26 UNL     1       0.360  48.829 -14.472  1.00  0.00     0.235 C 
HETATM   24  C18 UNL     1       1.556  51.931 -16.491  1.00  0.00     0.008 A 
HETATM   25  C24 UNL     1       2.425  50.733 -14.629  1.00  0.00     0.005 A 
HETATM   26  C19 UNL     1       2.795  52.581 -16.621  1.00  0.00     0.003 A 
HETATM   27  C20 UNL     1       3.871  52.312 -15.758  1.00  0.00     0.030 A 
HETATM   28  C21 UNL     1       3.643  51.371 -14.755  1.00  0.00     0.043 A 
HETATM   29  N3  UNL     1       4.436  50.876 -13.742  1.00  0.00    -0.365 N 
HETATM   30  C22 UNL     1       3.738  49.947 -12.997  1.00  0.00     0.096 A 
HETATM   31  H27 UNL     1       5.393  51.154 -13.575  1.00  0.00     0.165 HD
HETATM   32  C23 UNL     1       2.478  49.843 -13.539  1.00  0.00    -0.028 A 
HETATM   33  C25 UNL     1       1.279  49.021 -13.203  1.00  0.00     0.077 C 
HETATM   34  N4  UNL     1      -0.915  48.120 -14.161  1.00  0.00     0.090 N 
HETATM   35  C27 UNL     1      -0.692  46.835 -13.488  1.00  0.00     0.310 C 
HETATM   36  C28 UNL     1      -1.689  47.883 -15.397  1.00  0.00     0.286 C 
ENDBRANCH  16  19
ENDBRANCH  11  15
BRANCH  11  37
HETATM   37  C29 UNL     1      -3.242  46.499 -19.673  1.00  0.00     0.043 C 
HETATM   38  C30 UNL     1      -3.846  46.088 -21.020  1.00  0.00     0.015 C 
HETATM   39  C31 UNL     1      -4.220  46.166 -18.538  1.00  0.00     0.015 C 
ENDBRANCH  11  37
BRANCH   9  40
HETATM   40  O2  UNL     1      -3.095  50.972 -19.656  1.00  0.00    -0.347 OA
HETATM   41  H18 UNL     1      -3.847  50.921 -19.040  1.00  0.00     0.215 HD
ENDBRANCH   9  40
BRANCH   1  42
HETATM   42  C4  UNL     1      -1.367  51.582 -22.463  1.00  0.00     0.039 C 
BRANCH  42  43
HETATM   43  C2  UNL     1       0.119  51.890 -22.749  1.00  0.00    -0.020 C 
HETATM   44  C1  UNL     1       0.322  52.728 -24.009  1.00  0.00     0.009 C 
HETATM   45  C3  UNL     1       0.737  52.607 -21.543  1.00  0.00     0.009 C 
ENDBRANCH  42  43
ENDBRANCH   1  42
TORSDOF 6
ENDMDL
MODEL 7
REMARK minimizedAffinity -7.72014809
REMARK CNNscore 0.175332099
REMARK CNNaffinity 6.11342049
REMARK  6 active torsions:
REMARK  status: ('A' for Active; 'I' for Inactive)
REMARK    1  A    between atoms: C2_2  and  C4_4 
REMARK    2  A    between atoms: C4_4  and  C5_5 
REMARK    3  A    between atoms: C11_13  and  O2_14 
REMARK    4  A    between atoms: C12_16  and  N2_17 
REMARK    5  A    between atoms: C12_16  and  C29_37 
REMARK       I    between atoms: N2_17  and  C13_18 
REMARK    6  A    between atoms: C13_18  and  C14_20 
ROOT
HETATM    1  C5  UNL     1      -8.019  44.696 -21.963  1.00  0.00     0.185 C 
HETATM    2  C6  UNL     1      -9.380  44.568 -21.224  1.00  0.00     0.243 C 
HETATM    3  O1  UNL     1     -10.017  43.521 -21.174  1.00  0.00    -0.271 OA
HETATM    4  N1  UNL     1      -9.867  45.749 -20.698  1.00  0.00    -0.338 N 
HETATM    5  C7  UNL     1     -11.081  45.856 -19.916  1.00  0.00     0.127 C 
HETATM    6  C8  UNL     1     -11.277  47.357 -19.746  1.00  0.00     0.022 C 
HETATM    7  C9  UNL     1      -9.847  47.903 -19.775  1.00  0.00     0.034 C 
HETATM    8  C10 UNL     1      -9.184  47.034 -20.845  1.00  0.00     0.173 C 
HETATM    9  C11 UNL     1      -7.636  46.918 -20.797  1.00  0.00     0.276 C 
HETATM   10  O3  UNL     1      -7.109  47.163 -19.510  1.00  0.00    -0.295 OA
HETATM   11  C12 UNL     1      -5.952  46.336 -19.316  1.00  0.00     0.227 C 
HETATM   12  C32 UNL     1      -6.243  45.169 -20.271  1.00  0.00     0.281 C 
HETATM   13  O5  UNL     1      -5.693  44.079 -20.291  1.00  0.00    -0.268 OA
HETATM   14  N5  UNL     1      -7.176  45.619 -21.181  1.00  0.00    -0.277 N 
ENDROOT
BRANCH  11  15
HETATM   15  N2  UNL     1      -4.778  47.042 -19.803  1.00  0.00    -0.321 N 
HETATM   16  C13 UNL     1      -3.492  46.579 -19.672  1.00  0.00     0.226 C 
HETATM   17  O4  UNL     1      -3.202  45.540 -19.091  1.00  0.00    -0.273 OA
HETATM   18  H19 UNL     1      -4.945  47.899 -20.318  1.00  0.00     0.166 HD
BRANCH  16  19
HETATM   19  C14 UNL     1      -2.450  47.494 -20.303  1.00  0.00     0.107 C 
HETATM   20  C15 UNL     1      -1.862  48.445 -19.257  1.00  0.00     0.027 C 
HETATM   21  C16 UNL     1      -0.859  49.409 -19.904  1.00  0.00     0.054 C 
HETATM   22  C17 UNL     1      -0.275  50.413 -18.923  1.00  0.00    -0.039 A 
HETATM   23  C26 UNL     1      -1.519  50.146 -21.154  1.00  0.00     0.235 C 
HETATM   24  C18 UNL     1      -0.058  50.229 -17.550  1.00  0.00     0.008 A 
HETATM   25  C24 UNL     1       0.168  51.629 -19.459  1.00  0.00     0.005 A 
HETATM   26  C19 UNL     1       0.537  51.236 -16.771  1.00  0.00     0.003 A 
HETATM   27  C20 UNL     1       0.952  52.458 -17.325  1.00  0.00     0.030 A 
HETATM   28  C21 UNL     1       0.753  52.619 -18.696  1.00  0.00     0.043 A 
HETATM   29  N3  UNL     1       1.039  53.649 -19.566  1.00  0.00    -0.365 N 
HETATM   30  C22 UNL     1       0.643  53.318 -20.847  1.00  0.00     0.096 A 
HETATM   31  H27 UNL     1       1.475  54.521 -19.300  1.00  0.00     0.165 HD
HETATM   32  C23 UNL     1       0.094  52.058 -20.799  1.00  0.00    -0.028 A 
HETATM   33  C25 UNL     1      -0.515  51.163 -21.825  1.00  0.00     0.077 C 
HETATM   34  N4  UNL     1      -2.060  49.145 -22.120  1.00  0.00     0.090 N 
HETATM   35  C27 UNL     1      -2.674  49.775 -23.293  1.00  0.00     0.310 C 
HETATM   36  C28 UNL     1      -3.063  48.283 -21.462  1.00  0.00     0.286 C 
ENDBRANCH  16  19
ENDBRANCH  11  15
BRANCH  11  37
HETATM   37  C29 UNL     1      -5.851  45.926 -17.828  1.00  0.00     0.043 C 
HETATM   38  C30 UNL     1      -7.085  45.183 -17.309  1.00  0.00     0.015 C 
HETATM   39  C31 UNL     1      -5.537  47.120 -16.915  1.00  0.00     0.015 C 
ENDBRANCH  11  37
BRANCH   9  40
HETATM   40  O2  UNL     1      -7.052  47.839 -21.691  1.00  0.00    -0.347 OA
HETATM   41  H18 UNL     1      -7.061  48.673 -21.191  1.00  0.00     0.215 HD
ENDBRANCH   9  40
BRANCH   1  42
HETATM   42  C4  UNL     1      -8.183  45.192 -23.410  1.00  0.00     0.039 C 
BRANCH  42  43
HETATM   43  C2  UNL     1      -8.263  44.067 -24.464  1.00  0.00    -0.020 C 
HETATM   44  C1  UNL     1      -7.623  42.763 -23.992  1.00  0.00     0.009 C 
HETATM   45  C3  UNL     1      -9.727  43.819 -24.843  1.00  0.00     0.009 C 
ENDBRANCH  42  43
ENDBRANCH   1  42
TORSDOF 6
ENDMDL
MODEL 8
REMARK minimizedAffinity -9.54578209
REMARK CNNscore 0.171055019
REMARK CNNaffinity 5.81279373
REMARK  6 active torsions:
REMARK  status: ('A' for Active; 'I' for Inactive)
REMARK    1  A    between atoms: C2_2  and  C4_4 
REMARK    2  A    between atoms: C4_4  and  C5_5 
REMARK    3  A    between atoms: C11_13  and  O2_14 
REMARK    4  A    between atoms: C12_16  and  N2_17 
REMARK    5  A    between atoms: C12_16  and  C29_37 
REMARK       I    between atoms: N2_17  and  C13_18 
REMARK    6  A    between atoms: C13_18  and  C14_20 
ROOT
HETATM    1  C5  UNL     1      -1.532  50.262 -22.185  1.00  0.00     0.185 C 
HETATM    2  C6  UNL     1      -2.720  49.872 -23.107  1.00  0.00     0.243 C 
HETATM    3  O1  UNL     1      -2.570  49.469 -24.256  1.00  0.00    -0.271 OA
HETATM    4  N1  UNL     1      -3.971  50.094 -22.565  1.00  0.00    -0.338 N 
HETATM    5  C7  UNL     1      -5.217  49.747 -23.215  1.00  0.00     0.127 C 
HETATM    6  C8  UNL     1      -6.284  50.361 -22.317  1.00  0.00     0.022 C 
HETATM    7  C9  UNL     1      -5.634  50.332 -20.931  1.00  0.00     0.034 C 
HETATM    8  C10 UNL     1      -4.178  50.682 -21.242  1.00  0.00     0.173 C 
HETATM    9  C11 UNL     1      -3.112  50.246 -20.200  1.00  0.00     0.276 C 
HETATM   10  O3  UNL     1      -3.534  49.151 -19.413  1.00  0.00    -0.295 OA
HETATM   11  C12 UNL     1      -2.393  48.337 -19.100  1.00  0.00     0.227 C 
HETATM   12  C32 UNL     1      -1.455  48.657 -20.272  1.00  0.00     0.281 C 
HETATM   13  O5  UNL     1      -0.462  48.033 -20.612  1.00  0.00    -0.268 OA
HETATM   14  N5  UNL     1      -1.882  49.851 -20.813  1.00  0.00    -0.277 N 
ENDROOT
BRANCH  11  15
HETATM   15  N2  UNL     1      -1.780  48.831 -17.877  1.00  0.00    -0.321 N 
HETATM   16  C13 UNL     1      -2.471  49.448 -16.864  1.00  0.00     0.226 C 
HETATM   17  O4  UNL     1      -3.673  49.682 -16.909  1.00  0.00    -0.273 OA
HETATM   18  H19 UNL     1      -0.789  48.648 -17.760  1.00  0.00     0.166 HD
BRANCH  16  19
HETATM   19  C14 UNL     1      -1.595  49.835 -15.679  1.00  0.00     0.107 C 
HETATM   20  C15 UNL     1      -2.383  50.685 -14.680  1.00  0.00     0.027 C 
HETATM   21  C16 UNL     1      -1.484  51.128 -13.518  1.00  0.00     0.054 C 
HETATM   22  C17 UNL     1      -2.198  52.019 -12.514  1.00  0.00    -0.039 A 
HETATM   23  C26 UNL     1      -0.163  51.829 -14.070  1.00  0.00     0.235 C 
HETATM   24  C18 UNL     1      -3.560  52.001 -12.183  1.00  0.00     0.008 A 
HETATM   25  C24 UNL     1      -1.397  52.904 -11.781  1.00  0.00     0.005 A 
HETATM   26  C19 UNL     1      -4.075  52.857 -11.195  1.00  0.00     0.003 A 
HETATM   27  C20 UNL     1      -3.258  53.755 -10.489  1.00  0.00     0.030 A 
HETATM   28  C21 UNL     1      -1.901  53.747 -10.810  1.00  0.00     0.043 A 
HETATM   29  N3  UNL     1      -0.823  54.457 -10.329  1.00  0.00    -0.365 N 
HETATM   30  C22 UNL     1       0.332  54.076 -10.981  1.00  0.00     0.096 A 
HETATM   31  H27 UNL     1      -0.877  55.160  -9.603  1.00  0.00     0.165 HD
HETATM   32  C23 UNL     1      -0.008  53.106 -11.895  1.00  0.00    -0.028 A 
HETATM   33  C25 UNL     1       0.771  52.317 -12.893  1.00  0.00     0.077 C 
HETATM   34  N4  UNL     1       0.540  50.930 -15.030  1.00  0.00     0.090 N 
HETATM   35  C27 UNL     1       1.768  51.529 -15.562  1.00  0.00     0.310 C 
HETATM   36  C28 UNL     1      -0.349  50.583 -16.158  1.00  0.00     0.286 C 
ENDBRANCH  16  19
ENDBRANCH  11  15
BRANCH  11  37
HETATM   37  C29 UNL     1      -2.822  46.854 -19.018  1.00  0.00     0.043 C 
HETATM   38  C30 UNL     1      -3.486  46.334 -20.297  1.00  0.00     0.015 C 
HETATM   39  C31 UNL     1      -3.725  46.574 -17.809  1.00  0.00     0.015 C 
ENDBRANCH  11  37
BRANCH   9  40
HETATM   40  O2  UNL     1      -2.812  51.318 -19.334  1.00  0.00    -0.347 OA
HETATM   41  H18 UNL     1      -3.537  51.292 -18.686  1.00  0.00     0.215 HD
ENDBRANCH   9  40
BRANCH   1  42
HETATM   42  C4  UNL     1      -1.213  51.766 -22.246  1.00  0.00     0.039 C 
BRANCH  42  43
HETATM   43  C2  UNL     1       0.274  52.093 -22.497  1.00  0.00    -0.020 C 
HETATM   44  C1  UNL     1       0.506  52.848 -23.804  1.00  0.00     0.009 C 
HETATM   45  C3  UNL     1       0.829  52.905 -21.322  1.00  0.00     0.009 C 
ENDBRANCH  42  43
ENDBRANCH   1  42
TORSDOF 6
ENDMDL
MODEL 9
REMARK minimizedAffinity -7.5202632
REMARK CNNscore 0.162771747
REMARK CNNaffinity 6.09335852
REMARK  6 active torsions:
REMARK  status: ('A' for Active; 'I' for Inactive)
REMARK    1  A    between atoms: C2_2  and  C4_4 
REMARK    2  A    between atoms: C4_4  and  C5_5 
REMARK    3  A    between atoms: C11_13  and  O2_14 
REMARK    4  A    between atoms: C12_16  and  N2_17 
REMARK    5  A    between atoms: C12_16  and  C29_37 
REMARK       I    between atoms: N2_17  and  C13_18 
REMARK    6  A    between atoms: C13_18  and  C14_20 
ROOT
HETATM    1  C5  UNL     1       1.333  50.089 -11.053  1.00  0.00     0.185 C 
HETATM    2  C6  UNL     1       0.859  49.666  -9.635  1.00  0.00     0.243 C 
HETATM    3  O1  UNL     1       1.020  50.366  -8.640  1.00  0.00    -0.271 OA
HETATM    4  N1  UNL     1       0.316  48.398  -9.559  1.00  0.00    -0.338 N 
HETATM    5  C7  UNL     1      -0.248  47.821  -8.357  1.00  0.00     0.127 C 
HETATM    6  C8  UNL     1      -0.524  46.372  -8.740  1.00  0.00     0.022 C 
HETATM    7  C9  UNL     1      -0.797  46.453 -10.244  1.00  0.00     0.034 C 
HETATM    8  C10 UNL     1       0.219  47.498 -10.708  1.00  0.00     0.173 C 
HETATM    9  C11 UNL     1      -0.088  48.233 -12.042  1.00  0.00     0.276 C 
HETATM   10  O3  UNL     1      -1.465  48.244 -12.356  1.00  0.00    -0.295 OA
HETATM   11  C12 UNL     1      -1.779  49.472 -13.030  1.00  0.00     0.227 C 
HETATM   12  C32 UNL     1      -0.681  50.405 -12.498  1.00  0.00     0.281 C 
HETATM   13  O5  UNL     1      -0.654  51.624 -12.565  1.00  0.00    -0.268 OA
HETATM   14  N5  UNL     1       0.331  49.601 -12.018  1.00  0.00    -0.277 N 
ENDROOT
BRANCH  11  15
HETATM   15  N2  UNL     1      -1.573  49.295 -14.458  1.00  0.00    -0.321 N 
HETATM   16  C13 UNL     1      -2.031  50.166 -15.416  1.00  0.00     0.226 C 
HETATM   17  O4  UNL     1      -2.698  51.161 -15.162  1.00  0.00    -0.273 OA
HETATM   18  H19 UNL     1      -1.006  48.503 -14.740  1.00  0.00     0.166 HD
BRANCH  16  19
HETATM   19  C14 UNL     1      -1.648  49.765 -16.834  1.00  0.00     0.107 C 
HETATM   20  C15 UNL     1      -0.992  50.937 -17.568  1.00  0.00     0.027 C 
HETATM   21  C16 UNL     1      -0.663  50.553 -19.017  1.00  0.00     0.054 C 
HETATM   22  C17 UNL     1      -0.051  51.695 -19.815  1.00  0.00    -0.039 A 
HETATM   23  C26 UNL     1      -1.953  49.969 -19.747  1.00  0.00     0.235 C 
HETATM   24  C18 UNL     1       0.743  52.741 -19.326  1.00  0.00     0.008 A 
HETATM   25  C24 UNL     1      -0.238  51.659 -21.203  1.00  0.00     0.005 A 
HETATM   26  C19 UNL     1       1.281  53.706 -20.193  1.00  0.00     0.003 A 
HETATM   27  C20 UNL     1       1.062  53.665 -21.580  1.00  0.00     0.030 A 
HETATM   28  C21 UNL     1       0.291  52.607 -22.057  1.00  0.00     0.043 A 
HETATM   29  N3  UNL     1      -0.111  52.240 -23.323  1.00  0.00    -0.365 N 
HETATM   30  C22 UNL     1      -0.875  51.091 -23.271  1.00  0.00     0.096 A 
HETATM   31  H27 UNL     1       0.121  52.746 -24.168  1.00  0.00     0.165 HD
HETATM   32  C23 UNL     1      -0.966  50.715 -21.951  1.00  0.00    -0.028 A 
HETATM   33  C25 UNL     1      -1.648  49.588 -21.249  1.00  0.00     0.077 C 
HETATM   34  N4  UNL     1      -2.521  48.832 -18.966  1.00  0.00     0.090 N 
HETATM   35  C27 UNL     1      -3.711  48.255 -19.602  1.00  0.00     0.310 C 
HETATM   36  C28 UNL     1      -2.876  49.271 -17.601  1.00  0.00     0.286 C 
ENDBRANCH  16  19
ENDBRANCH  11  15
BRANCH  11  37
HETATM   37  C29 UNL     1      -3.216  49.911 -12.664  1.00  0.00     0.043 C 
HETATM   38  C30 UNL     1      -3.282  50.862 -11.465  1.00  0.00     0.015 C 
HETATM   39  C31 UNL     1      -4.150  48.715 -12.436  1.00  0.00     0.015 C 
ENDBRANCH  11  37
BRANCH   9  40
HETATM   40  O2  UNL     1       0.599  47.613 -13.106  1.00  0.00    -0.347 OA
HETATM   41  H18 UNL     1       0.031  46.855 -13.329  1.00  0.00     0.215 HD
ENDBRANCH   9  40
BRANCH   1  42
HETATM   42  C4  UNL     1       2.732  49.546 -11.388  1.00  0.00     0.039 C 
BRANCH  42  43
HETATM   43  C2  UNL     1       3.617  50.521 -12.194  1.00  0.00    -0.020 C 
HETATM   44  C1  UNL     1       4.029  49.966 -13.556  1.00  0.00     0.009 C 
HETATM   45  C3  UNL     1       2.882  51.853 -12.377  1.00  0.00     0.009 C 
ENDBRANCH  42  43
ENDBRANCH   1  42
TORSDOF 6
ENDMDL
