MODEL 1
REMARK minimizedAffinity -8.21256924
REMARK  2 active torsions:
REMARK  status: ('A' for Active; 'I' for Inactive)
REMARK    1  A    between atoms: C4_6  and  O3_7 
REMARK    2  A    between atoms: C11_14  and  O4_15 
ROOT
HETATM    1  O1  UNL     1      -6.665   1.335  11.518  1.00  0.00    -0.259 OA
HETATM    2  C1  UNL     1      -5.706   2.066  11.738  1.00  0.00     0.299 A 
HETATM    3  O2  UNL     1      -4.416   1.696  11.394  1.00  0.00    -0.274 OA
HETATM    4  C2  UNL     1      -3.294   2.515  11.636  1.00  0.00     0.093 A 
HETATM    5  C3  UNL     1      -2.063   1.997  11.230  1.00  0.00     0.074 A 
HETATM    6  C4  UNL     1      -0.919   2.750  11.437  1.00  0.00     0.068 A 
HETATM    7  C5  UNL     1      -0.998   4.000  12.040  1.00  0.00     0.037 A 
HETATM    8  C6  UNL     1      -2.245   4.501  12.441  1.00  0.00     0.018 A 
HETATM    9  C7  UNL     1      -3.427   3.766  12.247  1.00  0.00     0.009 A 
HETATM   10  C8  UNL     1      -4.768   4.220  12.637  1.00  0.00    -0.007 A 
HETATM   11  C9  UNL     1      -5.019   5.459  13.257  1.00  0.00     0.016 A 
HETATM   12  C10 UNL     1      -6.316   5.847  13.612  1.00  0.00     0.037 A 
HETATM   13  C11 UNL     1      -7.385   5.005  13.351  1.00  0.00     0.066 A 
HETATM   14  C12 UNL     1      -7.178   3.777  12.743  1.00  0.00     0.055 A 
HETATM   15  C13 UNL     1      -5.874   3.388  12.388  1.00  0.00     0.053 A 
ENDROOT
BRANCH   6  16
HETATM   16  O3  UNL     1       0.272   2.227  11.034  1.00  0.00    -0.361 OA
HETATM   17  H2  UNL     1       0.980   2.859  11.240  1.00  0.00     0.217 HD
ENDBRANCH   6  16
BRANCH  13  18
HETATM   18  O4  UNL     1      -8.629   5.424  13.713  1.00  0.00    -0.361 OA
HETATM   19  H7  UNL     1      -9.277   4.740  13.473  1.00  0.00     0.217 HD
ENDBRANCH  13  18
TORSDOF 2
ENDMDL
MODEL 2
REMARK minimizedAffinity -8.12618732
REMARK  2 active torsions:
REMARK  status: ('A' for Active; 'I' for Inactive)
REMARK    1  A    between atoms: C4_6  and  O3_7 
REMARK    2  A    between atoms: C11_14  and  O4_15 
ROOT
HETATM    1  O1  UNL     1      -4.190   7.125  13.246  1.00  0.00    -0.259 OA
HETATM    2  C1  UNL     1      -4.076   5.953  12.906  1.00  0.00     0.299 A 
HETATM    3  O2  UNL     1      -2.856   5.427  12.510  1.00  0.00    -0.274 OA
HETATM    4  C2  UNL     1      -2.694   4.084  12.113  1.00  0.00     0.093 A 
HETATM    5  C3  UNL     1      -1.402   3.709  11.743  1.00  0.00     0.074 A 
HETATM    6  C4  UNL     1      -1.172   2.404  11.342  1.00  0.00     0.068 A 
HETATM    7  C5  UNL     1      -2.213   1.484  11.310  1.00  0.00     0.037 A 
HETATM    8  C6  UNL     1      -3.504   1.881  11.685  1.00  0.00     0.018 A 
HETATM    9  C7  UNL     1      -3.775   3.197  12.097  1.00  0.00     0.009 A 
HETATM   10  C8  UNL     1      -5.097   3.690  12.506  1.00  0.00    -0.007 A 
HETATM   11  C9  UNL     1      -6.253   2.886  12.529  1.00  0.00     0.016 A 
HETATM   12  C10 UNL     1      -7.492   3.402  12.925  1.00  0.00     0.037 A 
HETATM   13  C11 UNL     1      -7.597   4.730  13.308  1.00  0.00     0.066 A 
HETATM   14  C12 UNL     1      -6.482   5.553  13.297  1.00  0.00     0.055 A 
HETATM   15  C13 UNL     1      -5.238   5.033  12.898  1.00  0.00     0.053 A 
ENDROOT
BRANCH   6  16
HETATM   16  O3  UNL     1       0.096   2.059  10.985  1.00  0.00    -0.361 OA
HETATM   17  H2  UNL     1       0.109   1.122  10.730  1.00  0.00     0.217 HD
ENDBRANCH   6  16
BRANCH  13  18
HETATM   18  O4  UNL     1      -8.822   5.189  13.685  1.00  0.00    -0.361 OA
HETATM   19  H7  UNL     1      -8.749   6.129  13.925  1.00  0.00     0.217 HD
ENDBRANCH  13  18
TORSDOF 2
ENDMDL
MODEL 3
REMARK minimizedAffinity -8.12205887
REMARK  2 active torsions:
REMARK  status: ('A' for Active; 'I' for Inactive)
REMARK    1  A    between atoms: C4_6  and  O3_7 
REMARK    2  A    between atoms: C11_14  and  O4_15 
ROOT
HETATM    1  O1  UNL     1      -1.865   6.243  12.706  1.00  0.00    -0.259 OA
HETATM    2  C1  UNL     1      -2.826   5.484  12.655  1.00  0.00     0.299 A 
HETATM    3  O2  UNL     1      -4.094   5.890  13.037  1.00  0.00    -0.274 OA
HETATM    4  C2  UNL     1      -5.219   5.040  12.989  1.00  0.00     0.093 A 
HETATM    5  C3  UNL     1      -6.425   5.601  13.410  1.00  0.00     0.074 A 
HETATM    6  C4  UNL     1      -7.569   4.822  13.388  1.00  0.00     0.068 A 
HETATM    7  C5  UNL     1      -7.514   3.502  12.955  1.00  0.00     0.037 A 
HETATM    8  C6  UNL     1      -6.291   2.957  12.537  1.00  0.00     0.018 A 
HETATM    9  C7  UNL     1      -5.109   3.718  12.546  1.00  0.00     0.009 A 
HETATM   10  C8  UNL     1      -3.793   3.223  12.124  1.00  0.00    -0.007 A 
HETATM   11  C9  UNL     1      -3.567   1.913  11.661  1.00  0.00     0.016 A 
HETATM   12  C10 UNL     1      -2.293   1.486  11.271  1.00  0.00     0.037 A 
HETATM   13  C11 UNL     1      -1.221   2.362  11.337  1.00  0.00     0.066 A 
HETATM   14  C12 UNL     1      -1.403   3.659  11.788  1.00  0.00     0.055 A 
HETATM   15  C13 UNL     1      -2.684   4.086  12.180  1.00  0.00     0.053 A 
ENDROOT
BRANCH   6  16
HETATM   16  O3  UNL     1      -8.737   5.388  13.802  1.00  0.00    -0.361 OA
HETATM   17  H2  UNL     1      -9.449   4.731  13.732  1.00  0.00     0.217 HD
ENDBRANCH   6  16
BRANCH  13  18
HETATM   18  O4  UNL     1       0.001   1.904  10.948  1.00  0.00    -0.361 OA
HETATM   19  H7  UNL     1       0.654   2.618  11.046  1.00  0.00     0.217 HD
ENDBRANCH  13  18
TORSDOF 2
ENDMDL
MODEL 4
REMARK minimizedAffinity -8.01011753
REMARK  2 active torsions:
REMARK  status: ('A' for Active; 'I' for Inactive)
REMARK    1  A    between atoms: C4_6  and  O3_7 
REMARK    2  A    between atoms: C11_14  and  O4_15 
ROOT
HETATM    1  O1  UNL     1      -5.559   1.020  11.150  1.00  0.00    -0.259 OA
HETATM    2  C1  UNL     1      -5.585   2.133  11.665  1.00  0.00     0.299 A 
HETATM    3  O2  UNL     1      -6.769   2.702  12.103  1.00  0.00    -0.274 OA
HETATM    4  C2  UNL     1      -6.831   3.980  12.698  1.00  0.00     0.093 A 
HETATM    5  C3  UNL     1      -8.101   4.411  13.085  1.00  0.00     0.074 A 
HETATM    6  C4  UNL     1      -8.234   5.656  13.676  1.00  0.00     0.068 A 
HETATM    7  C5  UNL     1      -7.120   6.461  13.879  1.00  0.00     0.037 A 
HETATM    8  C6  UNL     1      -5.853   6.009  13.481  1.00  0.00     0.018 A 
HETATM    9  C7  UNL     1      -5.679   4.751  12.878  1.00  0.00     0.009 A 
HETATM   10  C8  UNL     1      -4.389   4.207  12.436  1.00  0.00    -0.007 A 
HETATM   11  C9  UNL     1      -3.169   4.895  12.568  1.00  0.00     0.016 A 
HETATM   12  C10 UNL     1      -1.964   4.334  12.130  1.00  0.00     0.037 A 
HETATM   13  C11 UNL     1      -1.958   3.075  11.553  1.00  0.00     0.066 A 
HETATM   14  C12 UNL     1      -3.139   2.366  11.404  1.00  0.00     0.055 A 
HETATM   15  C13 UNL     1      -4.349   2.931  11.845  1.00  0.00     0.053 A 
ENDROOT
BRANCH   6  16
HETATM   16  O3  UNL     1      -9.481   6.058  14.047  1.00  0.00    -0.361 OA
HETATM   17  H2  UNL     1      -9.423   6.942  14.444  1.00  0.00     0.217 HD
ENDBRANCH   6  16
BRANCH  13  18
HETATM   18  O4  UNL     1      -0.763   2.569  11.141  1.00  0.00    -0.361 OA
HETATM   19  H7  UNL     1      -0.907   1.686  10.758  1.00  0.00     0.217 HD
ENDBRANCH  13  18
TORSDOF 2
ENDMDL
MODEL 5
REMARK minimizedAffinity -8.00583839
REMARK  2 active torsions:
REMARK  status: ('A' for Active; 'I' for Inactive)
REMARK    1  A    between atoms: C4_6  and  O3_7 
REMARK    2  A    between atoms: C11_14  and  O4_15 
ROOT
HETATM    1  O1  UNL     1      -8.622   2.994  12.828  1.00  0.00    -0.259 OA
HETATM    2  C1  UNL     1      -7.461   3.383  12.761  1.00  0.00     0.299 A 
HETATM    3  O2  UNL     1      -6.462   2.593  12.217  1.00  0.00    -0.274 OA
HETATM    4  C2  UNL     1      -5.118   3.012  12.128  1.00  0.00     0.093 A 
HETATM    5  C3  UNL     1      -4.232   2.099  11.554  1.00  0.00     0.074 A 
HETATM    6  C4  UNL     1      -2.897   2.446  11.434  1.00  0.00     0.068 A 
HETATM    7  C5  UNL     1      -2.449   3.684  11.880  1.00  0.00     0.037 A 
HETATM    8  C6  UNL     1      -3.356   4.587  12.454  1.00  0.00     0.018 A 
HETATM    9  C7  UNL     1      -4.718   4.269  12.592  1.00  0.00     0.009 A 
HETATM   10  C8  UNL     1      -5.729   5.158  13.180  1.00  0.00    -0.007 A 
HETATM   11  C9  UNL     1      -5.440   6.442  13.677  1.00  0.00     0.016 A 
HETATM   12  C10 UNL     1      -6.438   7.252  14.230  1.00  0.00     0.037 A 
HETATM   13  C11 UNL     1      -7.744   6.793  14.294  1.00  0.00     0.066 A 
HETATM   14  C12 UNL     1      -8.068   5.533  13.815  1.00  0.00     0.055 A 
HETATM   15  C13 UNL     1      -7.063   4.720  13.260  1.00  0.00     0.053 A 
ENDROOT
BRANCH   6  16
HETATM   16  O3  UNL     1      -2.048   1.542  10.872  1.00  0.00    -0.361 OA
HETATM   17  H2  UNL     1      -1.153   1.917  10.853  1.00  0.00     0.217 HD
ENDBRANCH   6  16
BRANCH  13  18
HETATM   18  O4  UNL     1      -8.682   7.614  14.840  1.00  0.00    -0.361 OA
HETATM   19  H7  UNL     1      -9.546   7.167  14.820  1.00  0.00     0.217 HD
ENDBRANCH  13  18
TORSDOF 2
ENDMDL
MODEL 6
REMARK minimizedAffinity -7.99748325
REMARK  2 active torsions:
REMARK  status: ('A' for Active; 'I' for Inactive)
REMARK    1  A    between atoms: C4_6  and  O3_7 
REMARK    2  A    between atoms: C11_14  and  O4_15 
ROOT
HETATM    1  O1  UNL     1      -1.683   2.790  10.326  1.00  0.00    -0.259 OA
HETATM    2  C1  UNL     1      -2.606   3.231  11.003  1.00  0.00     0.299 A 
HETATM    3  O2  UNL     1      -3.819   2.569  11.095  1.00  0.00    -0.274 OA
HETATM    4  C2  UNL     1      -4.898   3.052  11.864  1.00  0.00     0.093 A 
HETATM    5  C3  UNL     1      -6.053   2.268  11.852  1.00  0.00     0.074 A 
HETATM    6  C4  UNL     1      -7.151   2.683  12.587  1.00  0.00     0.068 A 
HETATM    7  C5  UNL     1      -7.102   3.862  13.321  1.00  0.00     0.037 A 
HETATM    8  C6  UNL     1      -5.932   4.635  13.319  1.00  0.00     0.018 A 
HETATM    9  C7  UNL     1      -4.798   4.245  12.585  1.00  0.00     0.009 A 
HETATM   10  C8  UNL     1      -3.537   4.997  12.532  1.00  0.00    -0.007 A 
HETATM   11  C9  UNL     1      -3.325   6.208  13.217  1.00  0.00     0.016 A 
HETATM   12  C10 UNL     1      -2.106   6.889  13.134  1.00  0.00     0.037 A 
HETATM   13  C11 UNL     1      -1.076   6.371  12.365  1.00  0.00     0.066 A 
HETATM   14  C12 UNL     1      -1.247   5.182  11.674  1.00  0.00     0.055 A 
HETATM   15  C13 UNL     1      -2.473   4.499  11.759  1.00  0.00     0.053 A 
ENDROOT
BRANCH   6  16
HETATM   16  O3  UNL     1      -8.268   1.904  12.562  1.00  0.00    -0.361 OA
HETATM   17  H2  UNL     1      -8.952   2.315  13.117  1.00  0.00     0.217 HD
ENDBRANCH   6  16
BRANCH  13  18
HETATM   18  O4  UNL     1       0.093   7.068  12.313  1.00  0.00    -0.361 OA
HETATM   19  H7  UNL     1       0.720   6.593  11.742  1.00  0.00     0.217 HD
ENDBRANCH  13  18
TORSDOF 2
ENDMDL
MODEL 7
REMARK minimizedAffinity -7.95619011
REMARK  2 active torsions:
REMARK  status: ('A' for Active; 'I' for Inactive)
REMARK    1  A    between atoms: C4_6  and  O3_7 
REMARK    2  A    between atoms: C11_14  and  O4_15 
ROOT
HETATM    1  O1  UNL     1      -8.180   2.597  12.860  1.00  0.00    -0.259 OA
HETATM    2  C1  UNL     1      -7.476   3.584  13.044  1.00  0.00     0.299 A 
HETATM    3  O2  UNL     1      -7.986   4.748  13.595  1.00  0.00    -0.274 OA
HETATM    4  C2  UNL     1      -7.201   5.898  13.818  1.00  0.00     0.093 A 
HETATM    5  C3  UNL     1      -7.866   6.989  14.380  1.00  0.00     0.074 A 
HETATM    6  C4  UNL     1      -7.154   8.151  14.626  1.00  0.00     0.068 A 
HETATM    7  C5  UNL     1      -5.802   8.228  14.317  1.00  0.00     0.037 A 
HETATM    8  C6  UNL     1      -5.153   7.120  13.752  1.00  0.00     0.018 A 
HETATM    9  C7  UNL     1      -5.843   5.924  13.488  1.00  0.00     0.009 A 
HETATM   10  C8  UNL     1      -5.237   4.722  12.900  1.00  0.00    -0.007 A 
HETATM   11  C9  UNL     1      -3.882   4.636  12.531  1.00  0.00     0.016 A 
HETATM   12  C10 UNL     1      -3.351   3.467  11.972  1.00  0.00     0.037 A 
HETATM   13  C11 UNL     1      -4.165   2.364  11.775  1.00  0.00     0.066 A 
HETATM   14  C12 UNL     1      -5.505   2.410  12.125  1.00  0.00     0.055 A 
HETATM   15  C13 UNL     1      -6.037   3.585  12.686  1.00  0.00     0.053 A 
ENDROOT
BRANCH   6  16
HETATM   16  O3  UNL     1      -7.820   9.205  15.175  1.00  0.00    -0.361 OA
HETATM   17  H2  UNL     1      -7.202   9.944  15.291  1.00  0.00     0.217 HD
ENDBRANCH   6  16
BRANCH  13  18
HETATM   18  O4  UNL     1      -3.606   1.249  11.229  1.00  0.00    -0.361 OA
HETATM   19  H7  UNL     1      -4.287   0.559  11.148  1.00  0.00     0.217 HD
ENDBRANCH  13  18
TORSDOF 2
ENDMDL
MODEL 8
REMARK minimizedAffinity -7.95336294
REMARK  2 active torsions:
REMARK  status: ('A' for Active; 'I' for Inactive)
REMARK    1  A    between atoms: C4_6  and  O3_7 
REMARK    2  A    between atoms: C11_14  and  O4_15 
ROOT
HETATM    1  O1  UNL     1      -6.121   5.946  14.547  1.00  0.00    -0.259 OA
HETATM    2  C1  UNL     1      -5.274   5.477  13.795  1.00  0.00     0.299 A 
HETATM    3  O2  UNL     1      -4.033   6.073  13.637  1.00  0.00    -0.274 OA
HETATM    4  C2  UNL     1      -3.040   5.558  12.779  1.00  0.00     0.093 A 
HETATM    5  C3  UNL     1      -1.843   6.275  12.731  1.00  0.00     0.074 A 
HETATM    6  C4  UNL     1      -0.825   5.824  11.910  1.00  0.00     0.068 A 
HETATM    7  C5  UNL     1      -0.993   4.676  11.145  1.00  0.00     0.037 A 
HETATM    8  C6  UNL     1      -2.203   3.970  11.207  1.00  0.00     0.018 A 
HETATM    9  C7  UNL     1      -3.260   4.398  12.029  1.00  0.00     0.009 A 
HETATM   10  C8  UNL     1      -4.555   3.715  12.150  1.00  0.00    -0.007 A 
HETATM   11  C9  UNL     1      -4.884   2.543  11.445  1.00  0.00     0.016 A 
HETATM   12  C10 UNL     1      -6.133   1.929  11.593  1.00  0.00     0.037 A 
HETATM   13  C11 UNL     1      -7.074   2.476  12.450  1.00  0.00     0.066 A 
HETATM   14  C12 UNL     1      -6.788   3.630  13.161  1.00  0.00     0.055 A 
HETATM   15  C13 UNL     1      -5.532   4.246  13.011  1.00  0.00     0.053 A 
ENDROOT
BRANCH   6  16
HETATM   16  O3  UNL     1       0.335   6.538  11.878  1.00  0.00    -0.361 OA
HETATM   17  H2  UNL     1       0.954   6.109  11.265  1.00  0.00     0.217 HD
ENDBRANCH   6  16
BRANCH  13  18
HETATM   18  O4  UNL     1      -8.276   1.846  12.562  1.00  0.00    -0.361 OA
HETATM   19  H7  UNL     1      -8.833   2.335  13.191  1.00  0.00     0.217 HD
ENDBRANCH  13  18
TORSDOF 2
ENDMDL
MODEL 9
REMARK minimizedAffinity -7.89370441
REMARK  2 active torsions:
REMARK  status: ('A' for Active; 'I' for Inactive)
REMARK    1  A    between atoms: C4_6  and  O3_7 
REMARK    2  A    between atoms: C11_14  and  O4_15 
ROOT
HETATM    1  O1  UNL     1      -3.983   7.042  14.451  1.00  0.00    -0.259 OA
HETATM    2  C1  UNL     1      -4.140   6.044  13.756  1.00  0.00     0.299 A 
HETATM    3  O2  UNL     1      -5.317   5.314  13.789  1.00  0.00    -0.274 OA
HETATM    4  C2  UNL     1      -5.527   4.162  13.003  1.00  0.00     0.093 A 
HETATM    5  C3  UNL     1      -6.767   3.540  13.151  1.00  0.00     0.074 A 
HETATM    6  C4  UNL     1      -7.039   2.404  12.408  1.00  0.00     0.068 A 
HETATM    7  C5  UNL     1      -6.091   1.893  11.530  1.00  0.00     0.037 A 
HETATM    8  C6  UNL     1      -4.850   2.533  11.397  1.00  0.00     0.018 A 
HETATM    9  C7  UNL     1      -4.538   3.688  12.134  1.00  0.00     0.009 A 
HETATM   10  C8  UNL     1      -3.265   4.416  12.050  1.00  0.00    -0.007 A 
HETATM   11  C9  UNL     1      -2.203   4.029  11.212  1.00  0.00     0.016 A 
HETATM   12  C10 UNL     1      -1.007   4.755  11.167  1.00  0.00     0.037 A 
HETATM   13  C11 UNL     1      -0.853   5.881  11.960  1.00  0.00     0.066 A 
HETATM   14  C12 UNL     1      -1.876   6.293  12.800  1.00  0.00     0.055 A 
HETATM   15  C13 UNL     1      -3.076   5.562  12.843  1.00  0.00     0.053 A 
ENDROOT
BRANCH   6  16
HETATM   16  O3  UNL     1      -8.255   1.812  12.568  1.00  0.00    -0.361 OA
HETATM   17  H2  UNL     1      -8.306   1.033  11.989  1.00  0.00     0.217 HD
ENDBRANCH   6  16
BRANCH  13  18
HETATM   18  O4  UNL     1       0.327   6.556  11.885  1.00  0.00    -0.361 OA
HETATM   19  H7  UNL     1       0.296   7.317  12.490  1.00  0.00     0.217 HD
ENDBRANCH  13  18
TORSDOF 2
ENDMDL
