MODEL 1
REMARK minimizedAffinity -6.41953897
REMARK CNNscore 0.601326287
REMARK CNNaffinity 6.76737833
REMARK  15 active torsions:
REMARK  status: ('A' for Active; 'I' for Inactive)
REMARK    1  A    between atoms: C19_20  and  O2_21 
REMARK    2  A    between atoms: C19_20  and  C20_22 
REMARK    3  A    between atoms: C20_22  and  C21_24 
REMARK    4  A    between atoms: C21_24  and  O4_25 
REMARK    5  A    between atoms: O4_25  and  C22_26 
REMARK    6  A    between atoms: C22_26  and  C23_28 
REMARK    7  A    between atoms: C23_28  and  C24_29 
REMARK    8  A    between atoms: C24_29  and  C25_30 
REMARK       I    between atoms: C25_30  and  N1_32 
REMARK    9  A    between atoms: N1_32  and  C26_33 
REMARK   10  A    between atoms: C26_33  and  C27_34 
REMARK   11  A    between atoms: C27_34  and  C28_35 
REMARK   12  A    between atoms: C28_35  and  C29_36 
REMARK   13  A    between atoms: C29_36  and  C30_37 
REMARK   14  A    between atoms: C30_37  and  C31_38 
REMARK   15  A    between atoms: C31_38  and  O8_40 
ROOT
HETATM    1  C1  UNL     1       3.884  56.550  -7.421  1.00  0.00     0.020 C 
HETATM    2  C2  UNL     1       2.993  55.332  -7.795  1.00  0.00    -0.016 C 
HETATM    3  C3  UNL     1       2.666  54.569  -6.479  1.00  0.00     0.022 C 
HETATM    4  C4  UNL     1       3.857  53.854  -5.851  1.00  0.00     0.084 C 
HETATM    5  C5  UNL     1       4.496  52.930  -6.851  1.00  0.00     0.149 C 
HETATM    6  O1  UNL     1       5.082  51.904  -6.516  1.00  0.00    -0.293 OA
HETATM    7  C6  UNL     1       4.485  53.332  -8.275  1.00  0.00     0.053 C 
HETATM    8  C7  UNL     1       3.847  54.438  -8.705  1.00  0.00    -0.068 C 
HETATM    9  C8  UNL     1       4.014  54.816 -10.157  1.00  0.00     0.035 C 
HETATM   10  C9  UNL     1       2.985  55.808 -10.678  1.00  0.00     0.010 C 
HETATM   11  C10 UNL     1       1.607  55.635 -10.044  1.00  0.00    -0.004 C 
HETATM   12  C11 UNL     1       1.675  55.899  -8.509  1.00  0.00     0.002 C 
HETATM   13  C12 UNL     1       0.303  55.605  -7.837  1.00  0.00     0.007 C 
HETATM   14  C13 UNL     1      -0.392  54.298  -8.258  1.00  0.00     0.013 C 
HETATM   15  C14 UNL     1      -0.489  54.154  -9.788  1.00  0.00    -0.002 C 
HETATM   16  C15 UNL     1      -1.451  55.228 -10.363  1.00  0.00     0.019 C 
HETATM   17  C16 UNL     1       0.959  54.271 -10.327  1.00  0.00     0.002 C 
HETATM   18  C17 UNL     1       0.839  53.830 -11.779  1.00  0.00     0.009 C 
HETATM   19  C18 UNL     1      -0.231  52.723 -11.756  1.00  0.00     0.047 C 
HETATM   20  C19 UNL     1      -0.873  52.743 -10.339  1.00  0.00     0.128 C 
ENDROOT
BRANCH  20  21
HETATM   21  O2  UNL     1      -0.239  51.728  -9.556  1.00  0.00    -0.381 OA
HETATM   22  H27 UNL     1      -0.342  50.874 -10.022  1.00  0.00     0.211 HD
ENDBRANCH  20  21
BRANCH  20  23
HETATM   23  C20 UNL     1      -2.389  52.442 -10.379  1.00  0.00     0.185 C 
HETATM   24  O3  UNL     1      -3.018  52.111  -9.371  1.00  0.00    -0.292 OA
BRANCH  23  25
HETATM   25  C21 UNL     1      -3.084  52.582 -11.735  1.00  0.00     0.260 C 
BRANCH  25  26
HETATM   26  O4  UNL     1      -3.166  51.341 -12.437  1.00  0.00    -0.314 OA
BRANCH  26  27
HETATM   27  C22 UNL     1      -3.007  51.454 -13.785  1.00  0.00     0.259 C 
HETATM   28  O5  UNL     1      -3.668  52.184 -14.511  1.00  0.00    -0.265 OA
BRANCH  27  29
HETATM   29  C23 UNL     1      -1.938  50.517 -14.269  1.00  0.00     0.120 C 
BRANCH  29  30
HETATM   30  C24 UNL     1      -2.536  49.524 -15.252  1.00  0.00     0.112 C 
BRANCH  30  31
HETATM   31  C25 UNL     1      -2.010  49.749 -16.652  1.00  0.00     0.217 C 
HETATM   32  O6  UNL     1      -1.581  48.849 -17.366  1.00  0.00    -0.274 OA
HETATM   33  N1  UNL     1      -2.061  51.073 -17.041  1.00  0.00    -0.361 N 
HETATM   34  H34 UNL     1      -2.664  51.690 -16.513  1.00  0.00     0.162 HD
BRANCH  33  35
HETATM   35  C26 UNL     1      -1.705  51.455 -18.393  1.00  0.00     0.122 C 
BRANCH  35  36
HETATM   36  C27 UNL     1      -0.257  51.930 -18.469  1.00  0.00     0.020 C 
BRANCH  36  37
HETATM   37  C28 UNL     1      -0.058  53.125 -19.405  1.00  0.00     0.002 C 
BRANCH  37  38
HETATM   38  C29 UNL     1       0.864  52.885 -20.605  1.00  0.00     0.010 C 
BRANCH  38  39
HETATM   39  C30 UNL     1       0.221  52.043 -21.706  1.00  0.00     0.110 C 
BRANCH  39  40
HETATM   40  C31 UNL     1       0.212  52.767 -23.025  1.00  0.00     0.139 C 
HETATM   41  O7  UNL     1       0.975  53.639 -23.401  1.00  0.00    -0.650 OA
BRANCH  40  42
HETATM   42  O8  UNL     1      -0.781  52.334 -23.827  1.00  0.00    -0.776 OA
HETATM   43  H45 UNL     1      -0.677  52.871 -24.641  1.00  0.00     0.167 HD
ENDBRANCH  40  42
ENDBRANCH  39  40
ENDBRANCH  38  39
ENDBRANCH  37  38
ENDBRANCH  36  37
ENDBRANCH  35  36
ENDBRANCH  33  35
ENDBRANCH  30  31
ENDBRANCH  29  30
ENDBRANCH  27  29
ENDBRANCH  26  27
ENDBRANCH  25  26
ENDBRANCH  23  25
ENDBRANCH  20  23
TORSDOF 15
ENDMDL
MODEL 2
REMARK minimizedAffinity -6.58047724
REMARK CNNscore 0.551132798
REMARK CNNaffinity 5.82238913
REMARK  15 active torsions:
REMARK  status: ('A' for Active; 'I' for Inactive)
REMARK    1  A    between atoms: C19_20  and  O2_21 
REMARK    2  A    between atoms: C19_20  and  C20_22 
REMARK    3  A    between atoms: C20_22  and  C21_24 
REMARK    4  A    between atoms: C21_24  and  O4_25 
REMARK    5  A    between atoms: O4_25  and  C22_26 
REMARK    6  A    between atoms: C22_26  and  C23_28 
REMARK    7  A    between atoms: C23_28  and  C24_29 
REMARK    8  A    between atoms: C24_29  and  C25_30 
REMARK       I    between atoms: C25_30  and  N1_32 
REMARK    9  A    between atoms: N1_32  and  C26_33 
REMARK   10  A    between atoms: C26_33  and  C27_34 
REMARK   11  A    between atoms: C27_34  and  C28_35 
REMARK   12  A    between atoms: C28_35  and  C29_36 
REMARK   13  A    between atoms: C29_36  and  C30_37 
REMARK   14  A    between atoms: C30_37  and  C31_38 
REMARK   15  A    between atoms: C31_38  and  O8_40 
ROOT
HETATM    1  C1  UNL     1      -0.742  50.922 -22.023  1.00  0.00     0.020 C 
HETATM    2  C2  UNL     1      -1.802  50.435 -20.995  1.00  0.00    -0.016 C 
HETATM    3  C3  UNL     1      -1.889  51.505 -19.868  1.00  0.00     0.022 C 
HETATM    4  C4  UNL     1      -0.657  51.581 -18.974  1.00  0.00     0.084 C 
HETATM    5  C5  UNL     1      -0.350  50.228 -18.394  1.00  0.00     0.149 C 
HETATM    6  O1  UNL     1       0.201  50.090 -17.305  1.00  0.00    -0.293 OA
HETATM    7  C6  UNL     1      -0.648  49.035 -19.216  1.00  0.00     0.053 C 
HETATM    8  C7  UNL     1      -1.264  49.121 -20.412  1.00  0.00    -0.068 C 
HETATM    9  C8  UNL     1      -1.398  47.852 -21.218  1.00  0.00     0.035 C 
HETATM   10  C9  UNL     1      -2.423  47.916 -22.339  1.00  0.00     0.010 C 
HETATM   11  C10 UNL     1      -3.630  48.788 -22.002  1.00  0.00    -0.004 C 
HETATM   12  C11 UNL     1      -3.191  50.266 -21.778  1.00  0.00     0.002 C 
HETATM   13  C12 UNL     1      -4.394  51.136 -21.313  1.00  0.00     0.007 C 
HETATM   14  C13 UNL     1      -5.284  50.531 -20.212  1.00  0.00     0.013 C 
HETATM   15  C14 UNL     1      -5.740  49.099 -20.550  1.00  0.00    -0.002 C 
HETATM   16  C15 UNL     1      -6.704  49.122 -21.765  1.00  0.00     0.019 C 
HETATM   17  C16 UNL     1      -4.448  48.281 -20.803  1.00  0.00     0.002 C 
HETATM   18  C17 UNL     1      -4.935  46.839 -20.835  1.00  0.00     0.009 C 
HETATM   19  C18 UNL     1      -6.068  46.795 -19.794  1.00  0.00     0.047 C 
HETATM   20  C19 UNL     1      -6.366  48.267 -19.385  1.00  0.00     0.128 C 
ENDROOT
BRANCH  20  21
HETATM   21  O2  UNL     1      -5.666  48.535 -18.167  1.00  0.00    -0.381 OA
HETATM   22  H27 UNL     1      -5.950  47.877 -17.501  1.00  0.00     0.211 HD
ENDBRANCH  20  21
BRANCH  20  23
HETATM   23  C20 UNL     1      -7.872  48.512 -19.138  1.00  0.00     0.185 C 
HETATM   24  O3  UNL     1      -8.298  49.583 -18.695  1.00  0.00    -0.292 OA
BRANCH  23  25
HETATM   25  C21 UNL     1      -8.823  47.362 -19.476  1.00  0.00     0.260 C 
BRANCH  25  26
HETATM   26  O4  UNL     1     -10.052  47.819 -20.040  1.00  0.00    -0.314 OA
BRANCH  26  27
HETATM   27  C22 UNL     1     -11.120  47.718 -19.200  1.00  0.00     0.259 C 
HETATM   28  O5  UNL     1     -11.095  47.196 -18.093  1.00  0.00    -0.265 OA
BRANCH  27  29
HETATM   29  C23 UNL     1     -12.350  48.292 -19.842  1.00  0.00     0.120 C 
BRANCH  29  30
HETATM   30  C24 UNL     1     -13.548  48.077 -18.932  1.00  0.00     0.112 C 
BRANCH  30  31
HETATM   31  C25 UNL     1     -14.755  47.605 -19.712  1.00  0.00     0.217 C 
HETATM   32  O6  UNL     1     -14.716  47.292 -20.896  1.00  0.00    -0.274 OA
HETATM   33  N1  UNL     1     -15.906  47.566 -18.950  1.00  0.00    -0.361 N 
HETATM   34  H34 UNL     1     -15.800  47.577 -17.944  1.00  0.00     0.162 HD
BRANCH  33  35
HETATM   35  C26 UNL     1     -17.134  47.029 -19.502  1.00  0.00     0.122 C 
BRANCH  35  36
HETATM   36  C27 UNL     1     -17.349  45.583 -19.064  1.00  0.00     0.020 C 
BRANCH  36  37
HETATM   37  C28 UNL     1     -18.270  44.794 -20.000  1.00  0.00     0.002 C 
BRANCH  37  38
HETATM   38  C29 UNL     1     -19.677  44.511 -19.466  1.00  0.00     0.010 C 
BRANCH  38  39
HETATM   39  C30 UNL     1     -19.683  43.820 -18.104  1.00  0.00     0.110 C 
BRANCH  39  40
HETATM   40  C31 UNL     1     -21.084  43.573 -17.612  1.00  0.00     0.139 C 
HETATM   41  O7  UNL     1     -22.128  43.910 -18.141  1.00  0.00    -0.650 OA
BRANCH  40  42
HETATM   42  O8  UNL     1     -21.093  42.888 -16.452  1.00  0.00    -0.776 OA
HETATM   43  H45 UNL     1     -22.047  42.790 -16.245  1.00  0.00     0.167 HD
ENDBRANCH  40  42
ENDBRANCH  39  40
ENDBRANCH  38  39
ENDBRANCH  37  38
ENDBRANCH  36  37
ENDBRANCH  35  36
ENDBRANCH  33  35
ENDBRANCH  30  31
ENDBRANCH  29  30
ENDBRANCH  27  29
ENDBRANCH  26  27
ENDBRANCH  25  26
ENDBRANCH  23  25
ENDBRANCH  20  23
TORSDOF 15
ENDMDL
MODEL 3
REMARK minimizedAffinity -6.56593943
REMARK CNNscore 0.546201527
REMARK CNNaffinity 6.0052619
REMARK  15 active torsions:
REMARK  status: ('A' for Active; 'I' for Inactive)
REMARK    1  A    between atoms: C19_20  and  O2_21 
REMARK    2  A    between atoms: C19_20  and  C20_22 
REMARK    3  A    between atoms: C20_22  and  C21_24 
REMARK    4  A    between atoms: C21_24  and  O4_25 
REMARK    5  A    between atoms: O4_25  and  C22_26 
REMARK    6  A    between atoms: C22_26  and  C23_28 
REMARK    7  A    between atoms: C23_28  and  C24_29 
REMARK    8  A    between atoms: C24_29  and  C25_30 
REMARK       I    between atoms: C25_30  and  N1_32 
REMARK    9  A    between atoms: N1_32  and  C26_33 
REMARK   10  A    between atoms: C26_33  and  C27_34 
REMARK   11  A    between atoms: C27_34  and  C28_35 
REMARK   12  A    between atoms: C28_35  and  C29_36 
REMARK   13  A    between atoms: C29_36  and  C30_37 
REMARK   14  A    between atoms: C30_37  and  C31_38 
REMARK   15  A    between atoms: C31_38  and  O8_40 
ROOT
HETATM    1  C1  UNL     1       4.631  55.660 -11.400  1.00  0.00     0.020 C 
HETATM    2  C2  UNL     1       4.287  55.299  -9.927  1.00  0.00    -0.016 C 
HETATM    3  C3  UNL     1       5.597  55.423  -9.096  1.00  0.00     0.022 C 
HETATM    4  C4  UNL     1       6.641  54.355  -9.401  1.00  0.00     0.084 C 
HETATM    5  C5  UNL     1       6.045  52.983  -9.245  1.00  0.00     0.149 C 
HETATM    6  O1  UNL     1       6.716  52.008  -8.918  1.00  0.00    -0.293 OA
HETATM    7  C6  UNL     1       4.616  52.803  -9.587  1.00  0.00     0.053 C 
HETATM    8  C7  UNL     1       3.825  53.836  -9.938  1.00  0.00    -0.068 C 
HETATM    9  C8  UNL     1       2.421  53.513 -10.391  1.00  0.00     0.035 C 
HETATM   10  C9  UNL     1       1.466  54.697 -10.390  1.00  0.00     0.010 C 
HETATM   11  C10 UNL     1       1.742  55.693  -9.266  1.00  0.00    -0.004 C 
HETATM   12  C11 UNL     1       3.158  56.323  -9.431  1.00  0.00     0.002 C 
HETATM   13  C12 UNL     1       3.495  57.245  -8.224  1.00  0.00     0.007 C 
HETATM   14  C13 UNL     1       3.175  56.680  -6.828  1.00  0.00     0.013 C 
HETATM   15  C14 UNL     1       1.732  56.153  -6.729  1.00  0.00    -0.002 C 
HETATM   16  C15 UNL     1       0.726  57.330  -6.836  1.00  0.00     0.019 C 
HETATM   17  C16 UNL     1       1.575  55.102  -7.858  1.00  0.00     0.002 C 
HETATM   18  C17 UNL     1       0.258  54.413  -7.528  1.00  0.00     0.009 C 
HETATM   19  C18 UNL     1       0.221  54.375  -5.990  1.00  0.00     0.047 C 
HETATM   20  C19 UNL     1       1.390  55.269  -5.485  1.00  0.00     0.128 C 
ENDROOT
BRANCH  20  21
HETATM   21  O2  UNL     1       2.496  54.416  -5.178  1.00  0.00    -0.381 OA
HETATM   22  H27 UNL     1       2.197  53.753  -4.523  1.00  0.00     0.211 HD
ENDBRANCH  20  21
BRANCH  20  23
HETATM   23  C20 UNL     1       1.018  56.052  -4.205  1.00  0.00     0.185 C 
HETATM   24  O3  UNL     1       1.854  56.694  -3.563  1.00  0.00    -0.292 OA
BRANCH  23  25
HETATM   25  C21 UNL     1      -0.448  56.002  -3.768  1.00  0.00     0.260 C 
BRANCH  25  26
HETATM   26  O4  UNL     1      -1.102  57.264  -3.907  1.00  0.00    -0.314 OA
BRANCH  26  27
HETATM   27  C22 UNL     1      -1.290  57.924  -2.730  1.00  0.00     0.259 C 
HETATM   28  O5  UNL     1      -0.430  58.093  -1.875  1.00  0.00    -0.265 OA
BRANCH  27  29
HETATM   29  C23 UNL     1      -2.716  58.374  -2.602  1.00  0.00     0.120 C 
BRANCH  29  30
HETATM   30  C24 UNL     1      -3.417  57.550  -1.535  1.00  0.00     0.112 C 
BRANCH  30  31
HETATM   31  C25 UNL     1      -4.476  56.653  -2.137  1.00  0.00     0.217 C 
HETATM   32  O6  UNL     1      -5.530  57.070  -2.605  1.00  0.00    -0.274 OA
HETATM   33  N1  UNL     1      -4.133  55.316  -2.102  1.00  0.00    -0.361 N 
HETATM   34  H34 UNL     1      -3.158  55.089  -1.954  1.00  0.00     0.162 HD
BRANCH  33  35
HETATM   35  C26 UNL     1      -4.976  54.325  -2.740  1.00  0.00     0.122 C 
BRANCH  35  36
HETATM   36  C27 UNL     1      -5.672  53.445  -1.705  1.00  0.00     0.020 C 
BRANCH  36  37
HETATM   37  C28 UNL     1      -6.225  54.230  -0.512  1.00  0.00     0.002 C 
BRANCH  37  38
HETATM   38  C29 UNL     1      -7.734  54.111  -0.277  1.00  0.00     0.010 C 
BRANCH  38  39
HETATM   39  C30 UNL     1      -8.513  53.704  -1.527  1.00  0.00     0.110 C 
BRANCH  39  40
HETATM   40  C31 UNL     1      -9.070  54.901  -2.248  1.00  0.00     0.139 C 
HETATM   41  O7  UNL     1      -8.630  56.037  -2.256  1.00  0.00    -0.650 OA
BRANCH  40  42
HETATM   42  O8  UNL     1     -10.180  54.592  -2.948  1.00  0.00    -0.776 OA
HETATM   43  H45 UNL     1     -10.437  55.440  -3.367  1.00  0.00     0.167 HD
ENDBRANCH  40  42
ENDBRANCH  39  40
ENDBRANCH  38  39
ENDBRANCH  37  38
ENDBRANCH  36  37
ENDBRANCH  35  36
ENDBRANCH  33  35
ENDBRANCH  30  31
ENDBRANCH  29  30
ENDBRANCH  27  29
ENDBRANCH  26  27
ENDBRANCH  25  26
ENDBRANCH  23  25
ENDBRANCH  20  23
TORSDOF 15
ENDMDL
MODEL 4
REMARK minimizedAffinity -6.51828527
REMARK CNNscore 0.478415608
REMARK CNNaffinity 6.51843214
REMARK  15 active torsions:
REMARK  status: ('A' for Active; 'I' for Inactive)
REMARK    1  A    between atoms: C19_20  and  O2_21 
REMARK    2  A    between atoms: C19_20  and  C20_22 
REMARK    3  A    between atoms: C20_22  and  C21_24 
REMARK    4  A    between atoms: C21_24  and  O4_25 
REMARK    5  A    between atoms: O4_25  and  C22_26 
REMARK    6  A    between atoms: C22_26  and  C23_28 
REMARK    7  A    between atoms: C23_28  and  C24_29 
REMARK    8  A    between atoms: C24_29  and  C25_30 
REMARK       I    between atoms: C25_30  and  N1_32 
REMARK    9  A    between atoms: N1_32  and  C26_33 
REMARK   10  A    between atoms: C26_33  and  C27_34 
REMARK   11  A    between atoms: C27_34  and  C28_35 
REMARK   12  A    between atoms: C28_35  and  C29_36 
REMARK   13  A    between atoms: C29_36  and  C30_37 
REMARK   14  A    between atoms: C30_37  and  C31_38 
REMARK   15  A    between atoms: C31_38  and  O8_40 
ROOT
HETATM    1  C1  UNL     1      -4.215  46.203 -20.646  1.00  0.00     0.020 C 
HETATM    2  C2  UNL     1      -4.011  47.456 -19.748  1.00  0.00    -0.016 C 
HETATM    3  C3  UNL     1      -5.282  47.610 -18.863  1.00  0.00     0.022 C 
HETATM    4  C4  UNL     1      -6.536  48.023 -19.625  1.00  0.00     0.084 C 
HETATM    5  C5  UNL     1      -6.280  49.283 -20.405  1.00  0.00     0.149 C 
HETATM    6  O1  UNL     1      -7.170  50.090 -20.659  1.00  0.00    -0.293 OA
HETATM    7  C6  UNL     1      -4.923  49.497 -20.955  1.00  0.00     0.053 C 
HETATM    8  C7  UNL     1      -3.903  48.656 -20.700  1.00  0.00    -0.068 C 
HETATM    9  C8  UNL     1      -2.599  48.905 -21.419  1.00  0.00     0.035 C 
HETATM   10  C9  UNL     1      -1.394  48.199 -20.816  1.00  0.00     0.010 C 
HETATM   11  C10 UNL     1      -1.466  48.080 -19.295  1.00  0.00    -0.004 C 
HETATM   12  C11 UNL     1      -2.690  47.212 -18.873  1.00  0.00     0.002 C 
HETATM   13  C12 UNL     1      -2.841  47.189 -17.324  1.00  0.00     0.007 C 
HETATM   14  C13 UNL     1      -2.706  48.544 -16.608  1.00  0.00     0.013 C 
HETATM   15  C14 UNL     1      -1.429  49.299 -17.023  1.00  0.00    -0.002 C 
HETATM   16  C15 UNL     1      -0.174  48.541 -16.514  1.00  0.00     0.019 C 
HETATM   17  C16 UNL     1      -1.486  49.432 -18.566  1.00  0.00     0.002 C 
HETATM   18  C17 UNL     1      -0.377  50.426 -18.883  1.00  0.00     0.009 C 
HETATM   19  C18 UNL     1      -0.398  51.412 -17.701  1.00  0.00     0.047 C 
HETATM   20  C19 UNL     1      -1.342  50.807 -16.622  1.00  0.00     0.128 C 
ENDROOT
BRANCH  20  21
HETATM   21  O2  UNL     1      -2.625  51.422 -16.766  1.00  0.00    -0.381 OA
HETATM   22  H27 UNL     1      -2.510  52.391 -16.689  1.00  0.00     0.211 HD
ENDBRANCH  20  21
BRANCH  20  23
HETATM   23  C20 UNL     1      -0.838  51.077 -15.186  1.00  0.00     0.185 C 
HETATM   24  O3  UNL     1       0.320  51.437 -14.954  1.00  0.00    -0.292 OA
BRANCH  23  25
HETATM   25  C21 UNL     1      -1.849  50.885 -14.053  1.00  0.00     0.260 C 
BRANCH  25  26
HETATM   26  O4  UNL     1      -2.099  52.094 -13.335  1.00  0.00    -0.314 OA
BRANCH  26  27
HETATM   27  C22 UNL     1      -3.412  52.456 -13.299  1.00  0.00     0.259 C 
HETATM   28  O5  UNL     1      -4.097  52.711 -14.281  1.00  0.00    -0.265 OA
BRANCH  27  29
HETATM   29  C23 UNL     1      -3.893  52.549 -11.880  1.00  0.00     0.120 C 
BRANCH  29  30
HETATM   30  C24 UNL     1      -3.352  53.816 -11.240  1.00  0.00     0.112 C 
BRANCH  30  31
HETATM   31  C25 UNL     1      -2.192  53.517 -10.317  1.00  0.00     0.217 C 
HETATM   32  O6  UNL     1      -2.327  53.217  -9.136  1.00  0.00    -0.274 OA
HETATM   33  N1  UNL     1      -0.965  53.618 -10.943  1.00  0.00    -0.361 N 
HETATM   34  H34 UNL     1      -0.956  53.602 -11.955  1.00  0.00     0.162 HD
BRANCH  33  35
HETATM   35  C26 UNL     1       0.249  53.253 -10.242  1.00  0.00     0.122 C 
BRANCH  35  36
HETATM   36  C27 UNL     1       1.470  53.922 -10.868  1.00  0.00     0.020 C 
BRANCH  36  37
HETATM   37  C28 UNL     1       1.587  55.411 -10.532  1.00  0.00     0.002 C 
BRANCH  37  38
HETATM   38  C29 UNL     1       3.007  55.985 -10.533  1.00  0.00     0.010 C 
BRANCH  38  39
HETATM   39  C30 UNL     1       4.074  54.964 -10.924  1.00  0.00     0.110 C 
BRANCH  39  40
HETATM   40  C31 UNL     1       5.073  54.754  -9.817  1.00  0.00     0.139 C 
HETATM   41  O7  UNL     1       6.191  55.228  -9.724  1.00  0.00    -0.650 OA
BRANCH  40  42
HETATM   42  O8  UNL     1       4.590  53.941  -8.856  1.00  0.00    -0.776 OA
HETATM   43  H45 UNL     1       5.321  53.890  -8.204  1.00  0.00     0.167 HD
ENDBRANCH  40  42
ENDBRANCH  39  40
ENDBRANCH  38  39
ENDBRANCH  37  38
ENDBRANCH  36  37
ENDBRANCH  35  36
ENDBRANCH  33  35
ENDBRANCH  30  31
ENDBRANCH  29  30
ENDBRANCH  27  29
ENDBRANCH  26  27
ENDBRANCH  25  26
ENDBRANCH  23  25
ENDBRANCH  20  23
TORSDOF 15
ENDMDL
MODEL 5
REMARK minimizedAffinity -6.89069176
REMARK CNNscore 0.334444672
REMARK CNNaffinity 5.70739222
REMARK  15 active torsions:
REMARK  status: ('A' for Active; 'I' for Inactive)
REMARK    1  A    between atoms: C19_20  and  O2_21 
REMARK    2  A    between atoms: C19_20  and  C20_22 
REMARK    3  A    between atoms: C20_22  and  C21_24 
REMARK    4  A    between atoms: C21_24  and  O4_25 
REMARK    5  A    between atoms: O4_25  and  C22_26 
REMARK    6  A    between atoms: C22_26  and  C23_28 
REMARK    7  A    between atoms: C23_28  and  C24_29 
REMARK    8  A    between atoms: C24_29  and  C25_30 
REMARK       I    between atoms: C25_30  and  N1_32 
REMARK    9  A    between atoms: N1_32  and  C26_33 
REMARK   10  A    between atoms: C26_33  and  C27_34 
REMARK   11  A    between atoms: C27_34  and  C28_35 
REMARK   12  A    between atoms: C28_35  and  C29_36 
REMARK   13  A    between atoms: C29_36  and  C30_37 
REMARK   14  A    between atoms: C30_37  and  C31_38 
REMARK   15  A    between atoms: C31_38  and  O8_40 
ROOT
HETATM    1  C1  UNL     1      -0.846  50.411 -21.366  1.00  0.00     0.020 C 
HETATM    2  C2  UNL     1      -2.101  50.266 -22.274  1.00  0.00    -0.016 C 
HETATM    3  C3  UNL     1      -1.602  50.023 -23.728  1.00  0.00     0.022 C 
HETATM    4  C4  UNL     1      -0.934  51.229 -24.377  1.00  0.00     0.084 C 
HETATM    5  C5  UNL     1      -1.850  52.421 -24.326  1.00  0.00     0.149 C 
HETATM    6  O1  UNL     1      -1.819  53.310 -25.174  1.00  0.00    -0.293 OA
HETATM    7  C6  UNL     1      -2.751  52.557 -23.160  1.00  0.00     0.053 C 
HETATM    8  C7  UNL     1      -2.839  51.610 -22.205  1.00  0.00    -0.068 C 
HETATM    9  C8  UNL     1      -3.693  51.917 -20.999  1.00  0.00     0.035 C 
HETATM   10  C9  UNL     1      -4.078  50.703 -20.167  1.00  0.00     0.010 C 
HETATM   11  C10 UNL     1      -4.286  49.442 -21.002  1.00  0.00    -0.004 C 
HETATM   12  C11 UNL     1      -2.961  49.034 -21.715  1.00  0.00     0.002 C 
HETATM   13  C12 UNL     1      -3.195  47.824 -22.664  1.00  0.00     0.007 C 
HETATM   14  C13 UNL     1      -4.440  47.899 -23.565  1.00  0.00     0.013 C 
HETATM   15  C14 UNL     1      -5.718  48.227 -22.770  1.00  0.00    -0.002 C 
HETATM   16  C15 UNL     1      -6.075  47.047 -21.827  1.00  0.00     0.019 C 
HETATM   17  C16 UNL     1      -5.433  49.552 -22.019  1.00  0.00     0.002 C 
HETATM   18  C17 UNL     1      -6.801  49.975 -21.503  1.00  0.00     0.009 C 
HETATM   19  C18 UNL     1      -7.779  49.535 -22.607  1.00  0.00     0.047 C 
HETATM   20  C19 UNL     1      -6.974  48.648 -23.599  1.00  0.00     0.128 C 
ENDROOT
BRANCH  20  21
HETATM   21  O2  UNL     1      -6.575  49.470 -24.700  1.00  0.00    -0.381 OA
HETATM   22  H27 UNL     1      -7.380  49.867 -25.091  1.00  0.00     0.211 HD
ENDBRANCH  20  21
BRANCH  20  23
HETATM   23  C20 UNL     1      -7.817  47.478 -24.155  1.00  0.00     0.185 C 
HETATM   24  O3  UNL     1      -7.518  46.298 -23.950  1.00  0.00    -0.292 OA
BRANCH  23  25
HETATM   25  C21 UNL     1      -9.056  47.848 -24.972  1.00  0.00     0.260 C 
BRANCH  25  26
HETATM   26  O4  UNL     1      -9.112  47.159 -26.222  1.00  0.00    -0.314 OA
BRANCH  26  27
HETATM   27  C22 UNL     1     -10.120  47.573 -27.040  1.00  0.00     0.259 C 
HETATM   28  O5  UNL     1      -9.965  48.088 -28.139  1.00  0.00    -0.265 OA
BRANCH  27  29
HETATM   29  C23 UNL     1     -11.452  47.357 -26.383  1.00  0.00     0.120 C 
BRANCH  29  30
HETATM   30  C24 UNL     1     -12.554  47.918 -27.266  1.00  0.00     0.112 C 
BRANCH  30  31
HETATM   31  C25 UNL     1     -13.424  46.816 -27.829  1.00  0.00     0.217 C 
HETATM   32  O6  UNL     1     -13.532  46.585 -29.028  1.00  0.00    -0.274 OA
HETATM   33  N1  UNL     1     -14.086  46.100 -26.851  1.00  0.00    -0.361 N 
HETATM   34  H34 UNL     1     -13.739  46.175 -25.904  1.00  0.00     0.162 HD
BRANCH  33  35
HETATM   35  C26 UNL     1     -14.873  44.934 -27.202  1.00  0.00     0.122 C 
BRANCH  35  36
HETATM   36  C27 UNL     1     -16.354  45.164 -26.919  1.00  0.00     0.020 C 
BRANCH  36  37
HETATM   37  C28 UNL     1     -16.905  44.276 -25.799  1.00  0.00     0.002 C 
BRANCH  37  38
HETATM   38  C29 UNL     1     -18.400  43.954 -25.877  1.00  0.00     0.010 C 
BRANCH  38  39
HETATM   39  C30 UNL     1     -19.269  45.174 -26.180  1.00  0.00     0.110 C 
BRANCH  39  40
HETATM   40  C31 UNL     1     -19.686  45.885 -24.921  1.00  0.00     0.139 C 
HETATM   41  O7  UNL     1     -20.219  45.405 -23.937  1.00  0.00    -0.650 OA
BRANCH  40  42
HETATM   42  O8  UNL     1     -19.392  47.200 -24.969  1.00  0.00    -0.776 OA
HETATM   43  H45 UNL     1     -19.703  47.541 -24.103  1.00  0.00     0.167 HD
ENDBRANCH  40  42
ENDBRANCH  39  40
ENDBRANCH  38  39
ENDBRANCH  37  38
ENDBRANCH  36  37
ENDBRANCH  35  36
ENDBRANCH  33  35
ENDBRANCH  30  31
ENDBRANCH  29  30
ENDBRANCH  27  29
ENDBRANCH  26  27
ENDBRANCH  25  26
ENDBRANCH  23  25
ENDBRANCH  20  23
TORSDOF 15
ENDMDL
MODEL 6
REMARK minimizedAffinity -8.25848293
REMARK CNNscore 0.327937096
REMARK CNNaffinity 7.25812006
REMARK  15 active torsions:
REMARK  status: ('A' for Active; 'I' for Inactive)
REMARK    1  A    between atoms: C19_20  and  O2_21 
REMARK    2  A    between atoms: C19_20  and  C20_22 
REMARK    3  A    between atoms: C20_22  and  C21_24 
REMARK    4  A    between atoms: C21_24  and  O4_25 
REMARK    5  A    between atoms: O4_25  and  C22_26 
REMARK    6  A    between atoms: C22_26  and  C23_28 
REMARK    7  A    between atoms: C23_28  and  C24_29 
REMARK    8  A    between atoms: C24_29  and  C25_30 
REMARK       I    between atoms: C25_30  and  N1_32 
REMARK    9  A    between atoms: N1_32  and  C26_33 
REMARK   10  A    between atoms: C26_33  and  C27_34 
REMARK   11  A    between atoms: C27_34  and  C28_35 
REMARK   12  A    between atoms: C28_35  and  C29_36 
REMARK   13  A    between atoms: C29_36  and  C30_37 
REMARK   14  A    between atoms: C30_37  and  C31_38 
REMARK   15  A    between atoms: C31_38  and  O8_40 
ROOT
HETATM    1  C1  UNL     1      -4.442  48.551 -25.402  1.00  0.00     0.020 C 
HETATM    2  C2  UNL     1      -4.575  48.679 -23.858  1.00  0.00    -0.016 C 
HETATM    3  C3  UNL     1      -5.293  47.399 -23.341  1.00  0.00     0.022 C 
HETATM    4  C4  UNL     1      -6.763  47.298 -23.733  1.00  0.00     0.084 C 
HETATM    5  C5  UNL     1      -7.504  48.532 -23.296  1.00  0.00     0.149 C 
HETATM    6  O1  UNL     1      -8.697  48.513 -23.007  1.00  0.00    -0.293 OA
HETATM    7  C6  UNL     1      -6.776  49.821 -23.307  1.00  0.00     0.053 C 
HETATM    8  C7  UNL     1      -5.464  49.903 -23.602  1.00  0.00    -0.068 C 
HETATM    9  C8  UNL     1      -4.861  51.283 -23.708  1.00  0.00     0.035 C 
HETATM   10  C9  UNL     1      -3.342  51.320 -23.644  1.00  0.00     0.010 C 
HETATM   11  C10 UNL     1      -2.753  50.251 -22.727  1.00  0.00    -0.004 C 
HETATM   12  C11 UNL     1      -3.095  48.826 -23.257  1.00  0.00     0.002 C 
HETATM   13  C12 UNL     1      -2.604  47.735 -22.263  1.00  0.00     0.007 C 
HETATM   14  C13 UNL     1      -2.912  47.984 -20.776  1.00  0.00     0.013 C 
HETATM   15  C14 UNL     1      -2.468  49.384 -20.314  1.00  0.00    -0.002 C 
HETATM   16  C15 UNL     1      -0.920  49.489 -20.344  1.00  0.00     0.019 C 
HETATM   17  C16 UNL     1      -3.173  50.394 -21.256  1.00  0.00     0.002 C 
HETATM   18  C17 UNL     1      -2.943  51.738 -20.578  1.00  0.00     0.009 C 
HETATM   19  C18 UNL     1      -3.004  51.424 -19.073  1.00  0.00     0.047 C 
HETATM   20  C19 UNL     1      -3.011  49.874 -18.933  1.00  0.00     0.128 C 
ENDROOT
BRANCH  20  21
HETATM   21  O2  UNL     1      -4.368  49.453 -18.769  1.00  0.00    -0.381 OA
HETATM   22  H27 UNL     1      -4.740  49.920 -17.993  1.00  0.00     0.211 HD
ENDBRANCH  20  21
BRANCH  20  23
HETATM   23  C20 UNL     1      -2.207  49.394 -17.703  1.00  0.00     0.185 C 
HETATM   24  O3  UNL     1      -2.101  48.199 -17.415  1.00  0.00    -0.292 OA
BRANCH  23  25
HETATM   25  C21 UNL     1      -1.536  50.475 -16.853  1.00  0.00     0.260 C 
BRANCH  25  26
HETATM   26  O4  UNL     1      -0.858  51.450 -17.647  1.00  0.00    -0.314 OA
BRANCH  26  27
HETATM   27  C22 UNL     1       0.466  51.582 -17.353  1.00  0.00     0.259 C 
HETATM   28  O5  UNL     1       1.069  50.922 -16.517  1.00  0.00    -0.265 OA
BRANCH  27  29
HETATM   29  C23 UNL     1       1.076  52.691 -18.161  1.00  0.00     0.120 C 
BRANCH  29  30
HETATM   30  C24 UNL     1       0.074  53.181 -19.193  1.00  0.00     0.112 C 
BRANCH  30  31
HETATM   31  C25 UNL     1       0.757  53.563 -20.487  1.00  0.00     0.217 C 
HETATM   32  O6  UNL     1       1.540  54.500 -20.589  1.00  0.00    -0.274 OA
HETATM   33  N1  UNL     1       0.404  52.745 -21.543  1.00  0.00    -0.361 N 
HETATM   34  H34 UNL     1      -0.022  51.855 -21.321  1.00  0.00     0.162 HD
BRANCH  33  35
HETATM   35  C26 UNL     1       1.049  52.892 -22.832  1.00  0.00     0.122 C 
BRANCH  35  36
HETATM   36  C27 UNL     1       0.293  52.131 -23.917  1.00  0.00     0.020 C 
BRANCH  36  37
HETATM   37  C28 UNL     1       0.565  52.656 -25.330  1.00  0.00     0.002 C 
BRANCH  37  38
HETATM   38  C29 UNL     1       0.086  51.761 -26.477  1.00  0.00     0.010 C 
BRANCH  38  39
HETATM   39  C30 UNL     1       1.137  51.554 -27.567  1.00  0.00     0.110 C 
BRANCH  39  40
HETATM   40  C31 UNL     1       2.529  51.520 -26.996  1.00  0.00     0.139 C 
HETATM   41  O7  UNL     1       2.940  50.835 -26.077  1.00  0.00    -0.650 OA
BRANCH  40  42
HETATM   42  O8  UNL     1       3.353  52.371 -27.638  1.00  0.00    -0.776 OA
HETATM   43  H45 UNL     1       4.214  52.253 -27.183  1.00  0.00     0.167 HD
ENDBRANCH  40  42
ENDBRANCH  39  40
ENDBRANCH  38  39
ENDBRANCH  37  38
ENDBRANCH  36  37
ENDBRANCH  35  36
ENDBRANCH  33  35
ENDBRANCH  30  31
ENDBRANCH  29  30
ENDBRANCH  27  29
ENDBRANCH  26  27
ENDBRANCH  25  26
ENDBRANCH  23  25
ENDBRANCH  20  23
TORSDOF 15
ENDMDL
MODEL 7
REMARK minimizedAffinity -7.07190609
REMARK CNNscore 0.31833297
REMARK CNNaffinity 6.78869057
REMARK  15 active torsions:
REMARK  status: ('A' for Active; 'I' for Inactive)
REMARK    1  A    between atoms: C19_20  and  O2_21 
REMARK    2  A    between atoms: C19_20  and  C20_22 
REMARK    3  A    between atoms: C20_22  and  C21_24 
REMARK    4  A    between atoms: C21_24  and  O4_25 
REMARK    5  A    between atoms: O4_25  and  C22_26 
REMARK    6  A    between atoms: C22_26  and  C23_28 
REMARK    7  A    between atoms: C23_28  and  C24_29 
REMARK    8  A    between atoms: C24_29  and  C25_30 
REMARK       I    between atoms: C25_30  and  N1_32 
REMARK    9  A    between atoms: N1_32  and  C26_33 
REMARK   10  A    between atoms: C26_33  and  C27_34 
REMARK   11  A    between atoms: C27_34  and  C28_35 
REMARK   12  A    between atoms: C28_35  and  C29_36 
REMARK   13  A    between atoms: C29_36  and  C30_37 
REMARK   14  A    between atoms: C30_37  and  C31_38 
REMARK   15  A    between atoms: C31_38  and  O8_40 
ROOT
HETATM    1  C1  UNL     1      -7.747  44.892 -21.107  1.00  0.00     0.020 C 
HETATM    2  C2  UNL     1      -7.230  46.349 -20.941  1.00  0.00    -0.016 C 
HETATM    3  C3  UNL     1      -6.848  46.543 -19.445  1.00  0.00     0.022 C 
HETATM    4  C4  UNL     1      -8.033  46.564 -18.488  1.00  0.00     0.084 C 
HETATM    5  C5  UNL     1      -9.031  47.605 -18.917  1.00  0.00     0.149 C 
HETATM    6  O1  UNL     1      -9.759  48.186 -18.116  1.00  0.00    -0.293 OA
HETATM    7  C6  UNL     1      -9.188  47.862 -20.366  1.00  0.00     0.053 C 
HETATM    8  C7  UNL     1      -8.410  47.267 -21.290  1.00  0.00    -0.068 C 
HETATM    9  C8  UNL     1      -8.749  47.505 -22.742  1.00  0.00     0.035 C 
HETATM   10  C9  UNL     1      -7.637  47.156 -23.720  1.00  0.00     0.010 C 
HETATM   11  C10 UNL     1      -6.241  47.422 -23.163  1.00  0.00    -0.004 C 
HETATM   12  C11 UNL     1      -5.970  46.528 -21.916  1.00  0.00     0.002 C 
HETATM   13  C12 UNL     1      -4.599  46.881 -21.271  1.00  0.00     0.007 C 
HETATM   14  C13 UNL     1      -4.298  48.380 -21.094  1.00  0.00     0.013 C 
HETATM   15  C14 UNL     1      -4.513  49.176 -22.395  1.00  0.00    -0.002 C 
HETATM   16  C15 UNL     1      -3.458  48.760 -23.454  1.00  0.00     0.019 C 
HETATM   17  C16 UNL     1      -5.973  48.899 -22.836  1.00  0.00     0.002 C 
HETATM   18  C17 UNL     1      -6.218  49.926 -23.934  1.00  0.00     0.009 C 
HETATM   19  C18 UNL     1      -5.433  51.169 -23.478  1.00  0.00     0.047 C 
HETATM   20  C19 UNL     1      -4.557  50.733 -22.268  1.00  0.00     0.128 C 
ENDROOT
BRANCH  20  21
HETATM   21  O2  UNL     1      -5.247  51.102 -21.070  1.00  0.00    -0.381 OA
HETATM   22  H27 UNL     1      -5.423  52.065 -21.103  1.00  0.00     0.211 HD
ENDBRANCH  20  21
BRANCH  20  23
HETATM   23  C20 UNL     1      -3.179  51.432 -22.261  1.00  0.00     0.185 C 
HETATM   24  O3  UNL     1      -2.317  51.174 -21.416  1.00  0.00    -0.292 OA
BRANCH  23  25
HETATM   25  C21 UNL     1      -2.922  52.462 -23.364  1.00  0.00     0.260 C 
BRANCH  25  26
HETATM   26  O4  UNL     1      -2.069  51.959 -24.392  1.00  0.00    -0.314 OA
BRANCH  26  27
HETATM   27  C22 UNL     1      -0.964  52.723 -24.620  1.00  0.00     0.259 C 
HETATM   28  O5  UNL     1      -0.820  53.485 -25.567  1.00  0.00    -0.265 OA
BRANCH  27  29
HETATM   29  C23 UNL     1       0.079  52.464 -23.572  1.00  0.00     0.120 C 
BRANCH  29  30
HETATM   30  C24 UNL     1       0.822  53.752 -23.261  1.00  0.00     0.112 C 
BRANCH  30  31
HETATM   31  C25 UNL     1       1.236  53.814 -21.808  1.00  0.00     0.217 C 
HETATM   32  O6  UNL     1       2.103  54.570 -21.383  1.00  0.00    -0.274 OA
HETATM   33  N1  UNL     1       0.537  52.929 -21.011  1.00  0.00    -0.361 N 
HETATM   34  H34 UNL     1      -0.324  52.550 -21.381  1.00  0.00     0.162 HD
BRANCH  33  35
HETATM   35  C26 UNL     1       0.721  52.934 -19.573  1.00  0.00     0.122 C 
BRANCH  35  36
HETATM   36  C27 UNL     1      -0.570  52.561 -18.851  1.00  0.00     0.020 C 
BRANCH  36  37
HETATM   37  C28 UNL     1      -0.639  51.083 -18.453  1.00  0.00     0.002 C 
BRANCH  37  38
HETATM   38  C29 UNL     1       0.449  50.600 -17.490  1.00  0.00     0.010 C 
BRANCH  38  39
HETATM   39  C30 UNL     1       0.369  51.247 -16.108  1.00  0.00     0.110 C 
BRANCH  39  40
HETATM   40  C31 UNL     1       1.735  51.460 -15.514  1.00  0.00     0.139 C 
HETATM   41  O7  UNL     1       2.527  52.350 -15.767  1.00  0.00    -0.650 OA
BRANCH  40  42
HETATM   42  O8  UNL     1       2.036  50.515 -14.601  1.00  0.00    -0.776 OA
HETATM   43  H45 UNL     1       2.933  50.765 -14.292  1.00  0.00     0.167 HD
ENDBRANCH  40  42
ENDBRANCH  39  40
ENDBRANCH  38  39
ENDBRANCH  37  38
ENDBRANCH  36  37
ENDBRANCH  35  36
ENDBRANCH  33  35
ENDBRANCH  30  31
ENDBRANCH  29  30
ENDBRANCH  27  29
ENDBRANCH  26  27
ENDBRANCH  25  26
ENDBRANCH  23  25
ENDBRANCH  20  23
TORSDOF 15
ENDMDL
MODEL 8
REMARK minimizedAffinity -6.5584507
REMARK CNNscore 0.294307828
REMARK CNNaffinity 5.7455616
REMARK  15 active torsions:
REMARK  status: ('A' for Active; 'I' for Inactive)
REMARK    1  A    between atoms: C19_20  and  O2_21 
REMARK    2  A    between atoms: C19_20  and  C20_22 
REMARK    3  A    between atoms: C20_22  and  C21_24 
REMARK    4  A    between atoms: C21_24  and  O4_25 
REMARK    5  A    between atoms: O4_25  and  C22_26 
REMARK    6  A    between atoms: C22_26  and  C23_28 
REMARK    7  A    between atoms: C23_28  and  C24_29 
REMARK    8  A    between atoms: C24_29  and  C25_30 
REMARK       I    between atoms: C25_30  and  N1_32 
REMARK    9  A    between atoms: N1_32  and  C26_33 
REMARK   10  A    between atoms: C26_33  and  C27_34 
REMARK   11  A    between atoms: C27_34  and  C28_35 
REMARK   12  A    between atoms: C28_35  and  C29_36 
REMARK   13  A    between atoms: C29_36  and  C30_37 
REMARK   14  A    between atoms: C30_37  and  C31_38 
REMARK   15  A    between atoms: C31_38  and  O8_40 
ROOT
HETATM    1  C1  UNL     1      -5.122  46.040 -31.834  1.00  0.00     0.020 C 
HETATM    2  C2  UNL     1      -6.526  45.704 -31.253  1.00  0.00    -0.016 C 
HETATM    3  C3  UNL     1      -6.494  44.222 -30.779  1.00  0.00     0.022 C 
HETATM    4  C4  UNL     1      -6.415  43.200 -31.907  1.00  0.00     0.084 C 
HETATM    5  C5  UNL     1      -7.536  43.417 -32.886  1.00  0.00     0.149 C 
HETATM    6  O1  UNL     1      -8.019  42.500 -33.546  1.00  0.00    -0.293 OA
HETATM    7  C6  UNL     1      -7.999  44.804 -33.116  1.00  0.00     0.053 C 
HETATM    8  C7  UNL     1      -7.518  45.849 -32.415  1.00  0.00    -0.068 C 
HETATM    9  C8  UNL     1      -7.970  47.229 -32.826  1.00  0.00     0.035 C 
HETATM   10  C9  UNL     1      -7.730  48.313 -31.786  1.00  0.00     0.010 C 
HETATM   11  C10 UNL     1      -7.873  47.812 -30.351  1.00  0.00    -0.004 C 
HETATM   12  C11 UNL     1      -6.803  46.720 -30.044  1.00  0.00     0.002 C 
HETATM   13  C12 UNL     1      -7.020  46.118 -28.626  1.00  0.00     0.007 C 
HETATM   14  C13 UNL     1      -8.469  45.753 -28.259  1.00  0.00     0.013 C 
HETATM   15  C14 UNL     1      -9.448  46.914 -28.517  1.00  0.00    -0.002 C 
HETATM   16  C15 UNL     1      -9.154  48.084 -27.540  1.00  0.00     0.019 C 
HETATM   17  C16 UNL     1      -9.280  47.299 -30.009  1.00  0.00     0.002 C 
HETATM   18  C17 UNL     1     -10.458  48.225 -30.276  1.00  0.00     0.009 C 
HETATM   19  C18 UNL     1     -11.600  47.649 -29.420  1.00  0.00     0.047 C 
HETATM   20  C19 UNL     1     -10.972  46.568 -28.494  1.00  0.00     0.128 C 
ENDROOT
BRANCH  20  21
HETATM   21  O2  UNL     1     -11.188  45.291 -29.101  1.00  0.00    -0.381 OA
HETATM   22  H27 UNL     1     -12.150  45.178 -29.240  1.00  0.00     0.211 HD
ENDBRANCH  20  21
BRANCH  20  23
HETATM   23  C20 UNL     1     -11.621  46.549 -27.092  1.00  0.00     0.185 C 
HETATM   24  O3  UNL     1     -11.294  45.730 -26.229  1.00  0.00    -0.292 OA
BRANCH  23  25
HETATM   25  C21 UNL     1     -12.691  47.607 -26.813  1.00  0.00     0.260 C 
BRANCH  25  26
HETATM   26  O4  UNL     1     -13.536  47.252 -25.717  1.00  0.00    -0.314 OA
BRANCH  26  27
HETATM   27  C22 UNL     1     -14.615  46.499 -26.070  1.00  0.00     0.259 C 
HETATM   28  O5  UNL     1     -14.888  46.154 -27.212  1.00  0.00    -0.265 OA
BRANCH  27  29
HETATM   29  C23 UNL     1     -15.457  46.192 -24.865  1.00  0.00     0.120 C 
BRANCH  29  30
HETATM   30  C24 UNL     1     -16.458  47.313 -24.642  1.00  0.00     0.112 C 
BRANCH  30  31
HETATM   31  C25 UNL     1     -17.881  46.821 -24.787  1.00  0.00     0.217 C 
HETATM   32  O6  UNL     1     -18.861  47.553 -24.711  1.00  0.00    -0.274 OA
HETATM   33  N1  UNL     1     -17.960  45.461 -25.012  1.00  0.00    -0.361 N 
HETATM   34  H34 UNL     1     -17.120  44.991 -25.325  1.00  0.00     0.162 HD
BRANCH  33  35
HETATM   35  C26 UNL     1     -19.237  44.836 -25.290  1.00  0.00     0.122 C 
BRANCH  35  36
HETATM   36  C27 UNL     1     -19.380  44.509 -26.774  1.00  0.00     0.020 C 
BRANCH  36  37
HETATM   37  C28 UNL     1     -18.410  43.426 -27.255  1.00  0.00     0.002 C 
BRANCH  37  38
HETATM   38  C29 UNL     1     -17.686  43.717 -28.573  1.00  0.00     0.010 C 
BRANCH  38  39
HETATM   39  C30 UNL     1     -18.080  42.768 -29.705  1.00  0.00     0.110 C 
BRANCH  39  40
HETATM   40  C31 UNL     1     -19.084  43.397 -30.633  1.00  0.00     0.139 C 
HETATM   41  O7  UNL     1     -18.864  44.004 -31.666  1.00  0.00    -0.650 OA
BRANCH  40  42
HETATM   42  O8  UNL     1     -20.347  43.215 -30.201  1.00  0.00    -0.776 OA
HETATM   43  H45 UNL     1     -20.895  43.660 -30.883  1.00  0.00     0.167 HD
ENDBRANCH  40  42
ENDBRANCH  39  40
ENDBRANCH  38  39
ENDBRANCH  37  38
ENDBRANCH  36  37
ENDBRANCH  35  36
ENDBRANCH  33  35
ENDBRANCH  30  31
ENDBRANCH  29  30
ENDBRANCH  27  29
ENDBRANCH  26  27
ENDBRANCH  25  26
ENDBRANCH  23  25
ENDBRANCH  20  23
TORSDOF 15
ENDMDL
MODEL 9
REMARK minimizedAffinity -7.55204725
REMARK CNNscore 0.283446193
REMARK CNNaffinity 6.1905303
REMARK  15 active torsions:
REMARK  status: ('A' for Active; 'I' for Inactive)
REMARK    1  A    between atoms: C19_20  and  O2_21 
REMARK    2  A    between atoms: C19_20  and  C20_22 
REMARK    3  A    between atoms: C20_22  and  C21_24 
REMARK    4  A    between atoms: C21_24  and  O4_25 
REMARK    5  A    between atoms: O4_25  and  C22_26 
REMARK    6  A    between atoms: C22_26  and  C23_28 
REMARK    7  A    between atoms: C23_28  and  C24_29 
REMARK    8  A    between atoms: C24_29  and  C25_30 
REMARK       I    between atoms: C25_30  and  N1_32 
REMARK    9  A    between atoms: N1_32  and  C26_33 
REMARK   10  A    between atoms: C26_33  and  C27_34 
REMARK   11  A    between atoms: C27_34  and  C28_35 
REMARK   12  A    between atoms: C28_35  and  C29_36 
REMARK   13  A    between atoms: C29_36  and  C30_37 
REMARK   14  A    between atoms: C30_37  and  C31_38 
REMARK   15  A    between atoms: C31_38  and  O8_40 
ROOT
HETATM    1  C1  UNL     1     -11.135  43.736 -27.109  1.00  0.00     0.020 C 
HETATM    2  C2  UNL     1     -10.336  44.909 -27.744  1.00  0.00    -0.016 C 
HETATM    3  C3  UNL     1      -9.742  45.756 -26.582  1.00  0.00     0.022 C 
HETATM    4  C4  UNL     1     -10.775  46.535 -25.777  1.00  0.00     0.084 C 
HETATM    5  C5  UNL     1     -11.603  47.398 -26.688  1.00  0.00     0.149 C 
HETATM    6  O1  UNL     1     -12.105  48.456 -26.315  1.00  0.00    -0.293 OA
HETATM    7  C6  UNL     1     -11.888  46.897 -28.051  1.00  0.00     0.053 C 
HETATM    8  C7  UNL     1     -11.356  45.753 -28.522  1.00  0.00    -0.068 C 
HETATM    9  C8  UNL     1     -11.820  45.277 -29.878  1.00  0.00     0.035 C 
HETATM   10  C9  UNL     1     -10.924  44.232 -30.526  1.00  0.00     0.010 C 
HETATM   11  C10 UNL     1      -9.444  44.424 -30.202  1.00  0.00    -0.004 C 
HETATM   12  C11 UNL     1      -9.195  44.269 -28.671  1.00  0.00     0.002 C 
HETATM   13  C12 UNL     1      -7.713  44.585 -28.318  1.00  0.00     0.007 C 
HETATM   14  C13 UNL     1      -7.115  45.846 -28.966  1.00  0.00     0.013 C 
HETATM   15  C14 UNL     1      -7.335  45.881 -30.490  1.00  0.00    -0.002 C 
HETATM   16  C15 UNL     1      -6.517  44.752 -31.171  1.00  0.00     0.019 C 
HETATM   17  C16 UNL     1      -8.864  45.753 -30.710  1.00  0.00     0.002 C 
HETATM   18  C17 UNL     1      -9.044  46.089 -32.184  1.00  0.00     0.009 C 
HETATM   19  C18 UNL     1      -7.989  47.175 -32.462  1.00  0.00     0.047 C 
HETATM   20  C19 UNL     1      -7.068  47.243 -31.209  1.00  0.00     0.128 C 
ENDROOT
BRANCH  20  21
HETATM   21  O2  UNL     1      -7.523  48.321 -30.387  1.00  0.00    -0.381 OA
HETATM   22  H27 UNL     1      -7.517  49.139 -30.925  1.00  0.00     0.211 HD
ENDBRANCH  20  21
BRANCH  20  23
HETATM   23  C20 UNL     1      -5.593  47.512 -31.581  1.00  0.00     0.185 C 
HETATM   24  O3  UNL     1      -5.054  46.977 -32.554  1.00  0.00    -0.292 OA
BRANCH  23  25
HETATM   25  C21 UNL     1      -4.823  48.486 -30.686  1.00  0.00     0.260 C 
BRANCH  25  26
HETATM   26  O4  UNL     1      -4.525  47.930 -29.405  1.00  0.00    -0.314 OA
BRANCH  26  27
HETATM   27  C22 UNL     1      -4.171  48.853 -28.468  1.00  0.00     0.259 C 
HETATM   28  O5  UNL     1      -3.684  49.950 -28.711  1.00  0.00    -0.265 OA
BRANCH  27  29
HETATM   29  C23 UNL     1      -4.414  48.320 -27.086  1.00  0.00     0.120 C 
BRANCH  29  30
HETATM   30  C24 UNL     1      -3.155  48.476 -26.249  1.00  0.00     0.112 C 
BRANCH  30  31
HETATM   31  C25 UNL     1      -3.456  49.119 -24.914  1.00  0.00     0.217 C 
HETATM   32  O6  UNL     1      -3.774  48.485 -23.914  1.00  0.00    -0.274 OA
HETATM   33  N1  UNL     1      -3.337  50.495 -24.939  1.00  0.00    -0.361 N 
HETATM   34  H34 UNL     1      -2.819  50.903 -25.707  1.00  0.00     0.162 HD
BRANCH  33  35
HETATM   35  C26 UNL     1      -3.475  51.266 -23.720  1.00  0.00     0.122 C 
BRANCH  35  36
HETATM   36  C27 UNL     1      -2.500  52.439 -23.696  1.00  0.00     0.020 C 
BRANCH  36  37
HETATM   37  C28 UNL     1      -1.067  52.033 -23.338  1.00  0.00     0.002 C 
BRANCH  37  38
HETATM   38  C29 UNL     1      -0.570  52.487 -21.963  1.00  0.00     0.010 C 
BRANCH  38  39
HETATM   39  C30 UNL     1       0.953  52.550 -21.857  1.00  0.00     0.110 C 
BRANCH  39  40
HETATM   40  C31 UNL     1       1.429  53.933 -21.503  1.00  0.00     0.139 C 
HETATM   41  O7  UNL     1       1.690  54.369 -20.396  1.00  0.00    -0.650 OA
BRANCH  40  42
HETATM   42  O8  UNL     1       1.561  54.711 -22.595  1.00  0.00    -0.776 OA
HETATM   43  H45 UNL     1       1.875  55.568 -22.236  1.00  0.00     0.167 HD
ENDBRANCH  40  42
ENDBRANCH  39  40
ENDBRANCH  38  39
ENDBRANCH  37  38
ENDBRANCH  36  37
ENDBRANCH  35  36
ENDBRANCH  33  35
ENDBRANCH  30  31
ENDBRANCH  29  30
ENDBRANCH  27  29
ENDBRANCH  26  27
ENDBRANCH  25  26
ENDBRANCH  23  25
ENDBRANCH  20  23
TORSDOF 15
ENDMDL
