MODEL 1
REMARK minimizedAffinity -6.87229538
REMARK CNNscore 0.449321687
REMARK CNNaffinity 6.42184973
REMARK  4 active torsions:
REMARK  status: ('A' for Active; 'I' for Inactive)
REMARK    1  A    between atoms: C4_4  and  C5_5 
REMARK    2  A    between atoms: C5_5  and  C6_7 
REMARK    3  A    between atoms: C6_7  and  C7_8 
REMARK    4  A    between atoms: C7_8  and  C9_10 
ROOT
HETATM    1  C9  UNL     1      -3.031  12.219  17.738  1.00  0.00    -0.002 C 
HETATM    2  C10 UNL     1      -2.638  11.278  18.916  1.00  0.00     0.006 C 
HETATM    3  C11 UNL     1      -1.965  10.030  18.308  1.00  0.00     0.011 C 
HETATM    4  C12 UNL     1      -1.675  10.414  16.847  1.00  0.00    -0.032 C 
HETATM    5  C13 UNL     1      -0.350  11.260  16.897  1.00  0.00     0.016 C 
HETATM    6  C14 UNL     1      -1.421   9.269  15.810  1.00  0.00     0.004 C 
HETATM    7  C15 UNL     1      -1.822   7.857  16.249  1.00  0.00     0.007 C 
HETATM    8  C16 UNL     1      -1.513   6.770  15.199  1.00  0.00     0.007 C 
HETATM    9  C17 UNL     1      -0.897   7.282  13.873  1.00  0.00     0.010 C 
HETATM   10  C18 UNL     1      -0.795   6.195  12.756  1.00  0.00     0.018 C 
HETATM   11  C19 UNL     1      -2.164   5.694  12.269  1.00  0.00     0.023 C 
HETATM   12  C20 UNL     1       0.033   4.992  13.244  1.00  0.00     0.023 C 
HETATM   13  C21 UNL     1      -0.068   6.797  11.542  1.00  0.00     0.135 C 
HETATM   14  O2  UNL     1       0.353   6.093  10.620  1.00  0.00    -0.297 OA
HETATM   15  C22 UNL     1       0.145   8.291  11.515  1.00  0.00     0.080 C 
HETATM   16  C23 UNL     1      -1.120   9.003  11.963  1.00  0.00     0.018 C 
HETATM   17  C24 UNL     1      -1.576   8.564  13.347  1.00  0.00    -0.026 A 
HETATM   18  C25 UNL     1      -3.028   8.796  13.686  1.00  0.00     0.021 A 
HETATM   19  C26 UNL     1      -1.967   9.615  14.406  1.00  0.00    -0.027 A 
HETATM   20  C27 UNL     1      -1.983  11.103  14.092  1.00  0.00     0.011 C 
HETATM   21  C28 UNL     1      -2.745  11.952  15.131  1.00  0.00     0.011 C 
HETATM   22  C29 UNL     1      -2.952  11.265  16.499  1.00  0.00    -0.032 C 
HETATM   23  C30 UNL     1      -4.266  10.431  16.447  1.00  0.00     0.016 C 
ENDROOT
BRANCH   1  24
HETATM   24  C7  UNL     1      -4.338  13.012  18.024  1.00  0.00    -0.007 C 
HETATM   25  C8  UNL     1      -4.340  14.402  17.380  1.00  0.00     0.011 C 
BRANCH  24  26
HETATM   26  C6  UNL     1      -4.652  13.134  19.534  1.00  0.00     0.087 C 
BRANCH  26  27
HETATM   27  C5  UNL     1      -5.677  14.202  19.875  1.00  0.00     0.149 C 
HETATM   28  O1  UNL     1      -5.360  15.379  20.030  1.00  0.00    -0.293 OA
BRANCH  27  29
HETATM   29  C4  UNL     1      -7.092  13.753  20.031  1.00  0.00     0.052 C 
HETATM   30  C2  UNL     1      -7.633  13.291  21.175  1.00  0.00    -0.084 C 
HETATM   31  C1  UNL     1      -6.919  13.202  22.497  1.00  0.00     0.043 C 
HETATM   32  C3  UNL     1      -9.063  12.822  21.207  1.00  0.00     0.043 C 
ENDBRANCH  27  29
ENDBRANCH  26  27
ENDBRANCH  24  26
ENDBRANCH   1  24
TORSDOF 4
ENDMDL
MODEL 2
REMARK minimizedAffinity -7.24325562
REMARK CNNscore 0.396089375
REMARK CNNaffinity 6.97258615
REMARK  4 active torsions:
REMARK  status: ('A' for Active; 'I' for Inactive)
REMARK    1  A    between atoms: C4_4  and  C5_5 
REMARK    2  A    between atoms: C5_5  and  C6_7 
REMARK    3  A    between atoms: C6_7  and  C7_8 
REMARK    4  A    between atoms: C7_8  and  C9_10 
ROOT
HETATM    1  C9  UNL     1      -2.235   6.224  12.767  1.00  0.00    -0.002 C 
HETATM    2  C10 UNL     1      -3.361   5.569  13.623  1.00  0.00     0.006 C 
HETATM    3  C11 UNL     1      -3.879   6.641  14.605  1.00  0.00     0.011 C 
HETATM    4  C12 UNL     1      -3.298   7.966  14.081  1.00  0.00    -0.032 C 
HETATM    5  C13 UNL     1      -4.251   8.400  12.907  1.00  0.00     0.016 C 
HETATM    6  C14 UNL     1      -3.227   9.188  15.057  1.00  0.00     0.004 C 
HETATM    7  C15 UNL     1      -3.414   8.877  16.546  1.00  0.00     0.007 C 
HETATM    8  C16 UNL     1      -3.369  10.126  17.450  1.00  0.00     0.007 C 
HETATM    9  C17 UNL     1      -3.102  11.466  16.721  1.00  0.00     0.010 C 
HETATM   10  C18 UNL     1      -2.851  12.674  17.679  1.00  0.00     0.018 C 
HETATM   11  C19 UNL     1      -1.567  12.532  18.511  1.00  0.00     0.023 C 
HETATM   12  C20 UNL     1      -4.045  12.869  18.631  1.00  0.00     0.023 C 
HETATM   13  C21 UNL     1      -2.715  13.955  16.838  1.00  0.00     0.135 C 
HETATM   14  O2  UNL     1      -2.747  15.077  17.350  1.00  0.00    -0.297 OA
HETATM   15  C22 UNL     1      -2.561  13.806  15.344  1.00  0.00     0.080 C 
HETATM   16  C23 UNL     1      -1.582  12.689  15.031  1.00  0.00     0.018 C 
HETATM   17  C24 UNL     1      -1.997  11.361  15.650  1.00  0.00    -0.026 A 
HETATM   18  C25 UNL     1      -0.907  10.336  15.844  1.00  0.00     0.021 A 
HETATM   19  C26 UNL     1      -1.985  10.072  14.802  1.00  0.00    -0.027 A 
HETATM   20  C27 UNL     1      -1.497  10.063  13.362  1.00  0.00     0.011 C 
HETATM   21  C28 UNL     1      -1.208   8.651  12.810  1.00  0.00     0.011 C 
HETATM   22  C29 UNL     1      -1.875   7.501  13.597  1.00  0.00    -0.032 C 
HETATM   23  C30 UNL     1      -0.928   7.073  14.757  1.00  0.00     0.016 C 
ENDROOT
BRANCH   1  24
HETATM   24  C7  UNL     1      -1.121   5.210  12.380  1.00  0.00    -0.007 C 
HETATM   25  C8  UNL     1      -0.452   5.549  11.044  1.00  0.00     0.011 C 
BRANCH  24  26
HETATM   26  C6  UNL     1      -1.618   3.745  12.361  1.00  0.00     0.087 C 
BRANCH  26  27
HETATM   27  C5  UNL     1      -1.784   3.160  10.969  1.00  0.00     0.149 C 
HETATM   28  O1  UNL     1      -0.951   2.399  10.482  1.00  0.00    -0.293 OA
BRANCH  27  29
HETATM   29  C4  UNL     1      -3.003   3.565  10.208  1.00  0.00     0.052 C 
HETATM   30  C2  UNL     1      -4.255   3.152  10.482  1.00  0.00    -0.084 C 
HETATM   31  C1  UNL     1      -4.642   2.259  11.630  1.00  0.00     0.043 C 
HETATM   32  C3  UNL     1      -5.409   3.591   9.620  1.00  0.00     0.043 C 
ENDBRANCH  27  29
ENDBRANCH  26  27
ENDBRANCH  24  26
ENDBRANCH   1  24
TORSDOF 4
ENDMDL
MODEL 3
REMARK minimizedAffinity -7.99812078
REMARK CNNscore 0.378659606
REMARK CNNaffinity 6.96604538
REMARK  4 active torsions:
REMARK  status: ('A' for Active; 'I' for Inactive)
REMARK    1  A    between atoms: C4_4  and  C5_5 
REMARK    2  A    between atoms: C5_5  and  C6_7 
REMARK    3  A    between atoms: C6_7  and  C7_8 
REMARK    4  A    between atoms: C7_8  and  C9_10 
ROOT
HETATM    1  C9  UNL     1       0.615   7.282  13.792  1.00  0.00    -0.002 C 
HETATM    2  C10 UNL     1       0.539   8.828  13.603  1.00  0.00     0.006 C 
HETATM    3  C11 UNL     1      -0.909   9.261  13.915  1.00  0.00     0.011 C 
HETATM    4  C12 UNL     1      -1.546   8.039  14.596  1.00  0.00    -0.032 C 
HETATM    5  C13 UNL     1      -1.070   8.105  16.094  1.00  0.00     0.016 C 
HETATM    6  C14 UNL     1      -3.108   7.938  14.641  1.00  0.00     0.004 C 
HETATM    7  C15 UNL     1      -3.874   8.879  13.705  1.00  0.00     0.007 C 
HETATM    8  C16 UNL     1      -5.407   8.757  13.822  1.00  0.00     0.007 C 
HETATM    9  C17 UNL     1      -5.915   7.687  14.821  1.00  0.00     0.010 C 
HETATM   10  C18 UNL     1      -7.456   7.440  14.762  1.00  0.00     0.018 C 
HETATM   11  C19 UNL     1      -7.924   6.839  13.426  1.00  0.00     0.023 C 
HETATM   12  C20 UNL     1      -8.226   8.749  15.018  1.00  0.00     0.023 C 
HETATM   13  C21 UNL     1      -7.844   6.449  15.872  1.00  0.00     0.135 C 
HETATM   14  O2  UNL     1      -9.019   6.263  16.198  1.00  0.00    -0.297 OA
HETATM   15  C22 UNL     1      -6.733   5.713  16.582  1.00  0.00     0.080 C 
HETATM   16  C23 UNL     1      -5.705   5.228  15.575  1.00  0.00     0.018 C 
HETATM   17  C24 UNL     1      -5.131   6.361  14.737  1.00  0.00    -0.026 A 
HETATM   18  C25 UNL     1      -4.512   5.978  13.415  1.00  0.00     0.021 A 
HETATM   19  C26 UNL     1      -3.607   6.479  14.530  1.00  0.00    -0.027 A 
HETATM   20  C27 UNL     1      -2.639   5.445  15.084  1.00  0.00     0.011 C 
HETATM   21  C28 UNL     1      -1.225   5.521  14.470  1.00  0.00     0.011 C 
HETATM   22  C29 UNL     1      -0.893   6.863  13.780  1.00  0.00    -0.032 C 
HETATM   23  C30 UNL     1      -1.363   6.793  12.297  1.00  0.00     0.016 C 
ENDROOT
BRANCH   1  24
HETATM   24  C7  UNL     1       1.615   6.615  12.804  1.00  0.00    -0.007 C 
HETATM   25  C8  UNL     1       2.974   7.321  12.772  1.00  0.00     0.011 C 
BRANCH  24  26
HETATM   26  C6  UNL     1       1.054   6.492  11.368  1.00  0.00     0.087 C 
BRANCH  26  27
HETATM   27  C5  UNL     1       2.000   5.828  10.382  1.00  0.00     0.149 C 
HETATM   28  O1  UNL     1       2.208   4.617  10.399  1.00  0.00    -0.293 OA
BRANCH  27  29
HETATM   29  C4  UNL     1       2.681   6.719   9.397  1.00  0.00     0.052 C 
HETATM   30  C2  UNL     1       2.083   7.717   8.718  1.00  0.00    -0.084 C 
HETATM   31  C1  UNL     1       0.646   8.134   8.877  1.00  0.00     0.043 C 
HETATM   32  C3  UNL     1       2.858   8.527   7.714  1.00  0.00     0.043 C 
ENDBRANCH  27  29
ENDBRANCH  26  27
ENDBRANCH  24  26
ENDBRANCH   1  24
TORSDOF 4
ENDMDL
MODEL 4
REMARK minimizedAffinity -6.83243465
REMARK CNNscore 0.334752828
REMARK CNNaffinity 6.25481367
REMARK  4 active torsions:
REMARK  status: ('A' for Active; 'I' for Inactive)
REMARK    1  A    between atoms: C4_4  and  C5_5 
REMARK    2  A    between atoms: C5_5  and  C6_7 
REMARK    3  A    between atoms: C6_7  and  C7_8 
REMARK    4  A    between atoms: C7_8  and  C9_10 
ROOT
HETATM    1  C9  UNL     1      -1.099   7.984  14.058  1.00  0.00    -0.002 C 
HETATM    2  C10 UNL     1      -1.621   6.920  15.070  1.00  0.00     0.006 C 
HETATM    3  C11 UNL     1      -2.474   7.660  16.122  1.00  0.00     0.011 C 
HETATM    4  C12 UNL     1      -2.711   9.057  15.522  1.00  0.00    -0.032 C 
HETATM    5  C13 UNL     1      -3.896   8.874  14.505  1.00  0.00     0.016 C 
HETATM    6  C14 UNL     1      -3.136  10.219  16.481  1.00  0.00     0.004 C 
HETATM    7  C15 UNL     1      -2.945   9.964  17.980  1.00  0.00     0.007 C 
HETATM    8  C16 UNL     1      -3.415  11.131  18.872  1.00  0.00     0.007 C 
HETATM    9  C17 UNL     1      -3.955  12.371  18.116  1.00  0.00     0.010 C 
HETATM   10  C18 UNL     1      -4.222  13.609  19.029  1.00  0.00     0.018 C 
HETATM   11  C19 UNL     1      -2.944  14.185  19.661  1.00  0.00     0.023 C 
HETATM   12  C20 UNL     1      -5.216  13.252  20.151  1.00  0.00     0.023 C 
HETATM   13  C21 UNL     1      -4.859  14.724  18.183  1.00  0.00     0.135 C 
HETATM   14  O2  UNL     1      -5.383  15.715  18.698  1.00  0.00    -0.297 OA
HETATM   15  C22 UNL     1      -4.849  14.564  16.681  1.00  0.00     0.080 C 
HETATM   16  C23 UNL     1      -3.491  14.062  16.222  1.00  0.00     0.018 C 
HETATM   17  C24 UNL     1      -3.098  12.753  16.891  1.00  0.00    -0.026 A 
HETATM   18  C25 UNL     1      -1.626  12.421  16.916  1.00  0.00     0.021 A 
HETATM   19  C26 UNL     1      -2.552  11.583  16.047  1.00  0.00    -0.027 A 
HETATM   20  C27 UNL     1      -2.318  11.714  14.550  1.00  0.00     0.011 C 
HETATM   21  C28 UNL     1      -1.434  10.597  13.956  1.00  0.00     0.011 C 
HETATM   22  C29 UNL     1      -1.324   9.328  14.830  1.00  0.00    -0.032 C 
HETATM   23  C30 UNL     1      -0.147   9.511  15.833  1.00  0.00     0.016 C 
ENDROOT
BRANCH   1  24
HETATM   24  C7  UNL     1       0.312   7.633  13.505  1.00  0.00    -0.007 C 
HETATM   25  C8  UNL     1       1.422   7.851  14.539  1.00  0.00     0.011 C 
BRANCH  24  26
HETATM   26  C6  UNL     1       0.655   8.390  12.200  1.00  0.00     0.087 C 
BRANCH  26  27
HETATM   27  C5  UNL     1       0.398   7.595  10.931  1.00  0.00     0.149 C 
HETATM   28  O1  UNL     1      -0.255   6.555  10.939  1.00  0.00    -0.293 OA
BRANCH  27  29
HETATM   29  C4  UNL     1       0.992   8.129   9.670  1.00  0.00     0.052 C 
HETATM   30  C2  UNL     1       2.171   7.740   9.148  1.00  0.00    -0.084 C 
HETATM   31  C1  UNL     1       3.059   6.667   9.717  1.00  0.00     0.043 C 
HETATM   32  C3  UNL     1       2.696   8.379   7.890  1.00  0.00     0.043 C 
ENDBRANCH  27  29
ENDBRANCH  26  27
ENDBRANCH  24  26
ENDBRANCH   1  24
TORSDOF 4
ENDMDL
MODEL 5
REMARK minimizedAffinity -6.89176416
REMARK CNNscore 0.327201068
REMARK CNNaffinity 5.52182627
REMARK  4 active torsions:
REMARK  status: ('A' for Active; 'I' for Inactive)
REMARK    1  A    between atoms: C4_4  and  C5_5 
REMARK    2  A    between atoms: C5_5  and  C6_7 
REMARK    3  A    between atoms: C6_7  and  C7_8 
REMARK    4  A    between atoms: C7_8  and  C9_10 
ROOT
HETATM    1  C9  UNL     1      -3.602 -11.902   3.598  1.00  0.00    -0.002 C 
HETATM    2  C10 UNL     1      -2.394 -12.412   4.441  1.00  0.00     0.006 C 
HETATM    3  C11 UNL     1      -2.789 -12.302   5.929  1.00  0.00     0.011 C 
HETATM    4  C12 UNL     1      -4.307 -12.061   5.916  1.00  0.00    -0.032 C 
HETATM    5  C13 UNL     1      -4.950 -13.483   5.720  1.00  0.00     0.016 C 
HETATM    6  C14 UNL     1      -4.979 -11.453   7.192  1.00  0.00     0.004 C 
HETATM    7  C15 UNL     1      -4.032 -10.824   8.220  1.00  0.00     0.007 C 
HETATM    8  C16 UNL     1      -4.751 -10.276   9.470  1.00  0.00     0.007 C 
HETATM    9  C17 UNL     1      -6.294 -10.410   9.463  1.00  0.00     0.010 C 
HETATM   10  C18 UNL     1      -7.005  -9.660  10.634  1.00  0.00     0.018 C 
HETATM   11  C19 UNL     1      -6.843  -8.132  10.565  1.00  0.00     0.023 C 
HETATM   12  C20 UNL     1      -6.481 -10.157  11.994  1.00  0.00     0.023 C 
HETATM   13  C21 UNL     1      -8.512  -9.964  10.578  1.00  0.00     0.135 C 
HETATM   14  O2  UNL     1      -9.266  -9.694  11.516  1.00  0.00    -0.297 OA
HETATM   15  C22 UNL     1      -9.051 -10.635   9.338  1.00  0.00     0.080 C 
HETATM   16  C23 UNL     1      -8.446  -9.999   8.099  1.00  0.00     0.018 C 
HETATM   17  C24 UNL     1      -6.925 -10.049   8.102  1.00  0.00    -0.026 A 
HETATM   18  C25 UNL     1      -6.214  -9.047   7.226  1.00  0.00     0.021 A 
HETATM   19  C26 UNL     1      -6.162 -10.520   6.847  1.00  0.00    -0.027 A 
HETATM   20  C27 UNL     1      -6.881 -10.875   5.556  1.00  0.00     0.011 C 
HETATM   21  C28 UNL     1      -5.952 -10.957   4.325  1.00  0.00     0.011 C 
HETATM   22  C29 UNL     1      -4.454 -11.127   4.658  1.00  0.00    -0.032 C 
HETATM   23  C30 UNL     1      -3.820  -9.716   4.849  1.00  0.00     0.016 C 
ENDROOT
BRANCH   1  24
HETATM   24  C7  UNL     1      -3.152 -11.189   2.291  1.00  0.00    -0.007 C 
HETATM   25  C8  UNL     1      -1.771 -10.537   2.419  1.00  0.00     0.011 C 
BRANCH  24  26
HETATM   26  C6  UNL     1      -4.178 -10.147   1.787  1.00  0.00     0.087 C 
BRANCH  26  27
HETATM   27  C5  UNL     1      -5.155 -10.681   0.753  1.00  0.00     0.149 C 
HETATM   28  O1  UNL     1      -6.367 -10.512   0.858  1.00  0.00    -0.293 OA
BRANCH  27  29
HETATM   29  C4  UNL     1      -4.573 -11.440  -0.394  1.00  0.00     0.052 C 
HETATM   30  C2  UNL     1      -4.715 -11.104  -1.691  1.00  0.00    -0.084 C 
HETATM   31  C1  UNL     1      -5.435  -9.884  -2.197  1.00  0.00     0.043 C 
HETATM   32  C3  UNL     1      -4.121 -11.968  -2.771  1.00  0.00     0.043 C 
ENDBRANCH  27  29
ENDBRANCH  26  27
ENDBRANCH  24  26
ENDBRANCH   1  24
TORSDOF 4
ENDMDL
MODEL 6
REMARK minimizedAffinity -6.79750347
REMARK CNNscore 0.311491638
REMARK CNNaffinity 5.66998434
REMARK  4 active torsions:
REMARK  status: ('A' for Active; 'I' for Inactive)
REMARK    1  A    between atoms: C4_4  and  C5_5 
REMARK    2  A    between atoms: C5_5  and  C6_7 
REMARK    3  A    between atoms: C6_7  and  C7_8 
REMARK    4  A    between atoms: C7_8  and  C9_10 
ROOT
HETATM    1  C9  UNL     1       2.066  10.765  21.110  1.00  0.00    -0.002 C 
HETATM    2  C10 UNL     1       3.126   9.671  21.438  1.00  0.00     0.006 C 
HETATM    3  C11 UNL     1       4.287  10.361  22.185  1.00  0.00     0.011 C 
HETATM    4  C12 UNL     1       3.738  11.744  22.572  1.00  0.00    -0.032 C 
HETATM    5  C13 UNL     1       2.882  11.500  23.869  1.00  0.00     0.016 C 
HETATM    6  C14 UNL     1       4.756  12.879  22.930  1.00  0.00     0.004 C 
HETATM    7  C15 UNL     1       6.215  12.629  22.532  1.00  0.00     0.007 C 
HETATM    8  C16 UNL     1       7.172  13.767  22.944  1.00  0.00     0.007 C 
HETATM    9  C17 UNL     1       6.505  14.977  23.644  1.00  0.00     0.010 C 
HETATM   10  C18 UNL     1       7.459  16.196  23.855  1.00  0.00     0.018 C 
HETATM   11  C19 UNL     1       7.924  16.838  22.538  1.00  0.00     0.023 C 
HETATM   12  C20 UNL     1       8.696  15.782  24.673  1.00  0.00     0.023 C 
HETATM   13  C21 UNL     1       6.714  17.278  24.655  1.00  0.00     0.135 C 
HETATM   14  O2  UNL     1       7.302  18.237  25.160  1.00  0.00    -0.297 OA
HETATM   15  C22 UNL     1       5.222  17.123  24.832  1.00  0.00     0.080 C 
HETATM   16  C23 UNL     1       4.585  16.697  23.521  1.00  0.00     0.018 C 
HETATM   17  C24 UNL     1       5.184  15.409  22.975  1.00  0.00    -0.026 A 
HETATM   18  C25 UNL     1       5.014  15.158  21.496  1.00  0.00     0.021 A 
HETATM   19  C26 UNL     1       4.263  14.273  22.481  1.00  0.00    -0.027 A 
HETATM   20  C27 UNL     1       2.751  14.421  22.452  1.00  0.00     0.011 C 
HETATM   21  C28 UNL     1       2.035  13.356  21.595  1.00  0.00     0.011 C 
HETATM   22  C29 UNL     1       2.874  12.092  21.304  1.00  0.00    -0.032 C 
HETATM   23  C30 UNL     1       3.718  12.336  20.018  1.00  0.00     0.016 C 
ENDROOT
BRANCH   1  24
HETATM   24  C7  UNL     1       1.331  10.493  19.767  1.00  0.00    -0.007 C 
HETATM   25  C8  UNL     1       2.253  10.631  18.551  1.00  0.00     0.011 C 
BRANCH  24  26
HETATM   26  C6  UNL     1       0.075  11.376  19.575  1.00  0.00     0.087 C 
BRANCH  26  27
HETATM   27  C5  UNL     1      -0.718  11.071  18.316  1.00  0.00     0.149 C 
HETATM   28  O1  UNL     1      -0.457  10.102  17.606  1.00  0.00    -0.293 OA
BRANCH  27  29
HETATM   29  C4  UNL     1      -1.822  12.013  17.969  1.00  0.00     0.052 C 
HETATM   30  C2  UNL     1      -3.126  11.804  18.233  1.00  0.00    -0.084 C 
HETATM   31  C1  UNL     1      -3.681  10.614  18.968  1.00  0.00     0.043 C 
HETATM   32  C3  UNL     1      -4.163  12.805  17.798  1.00  0.00     0.043 C 
ENDBRANCH  27  29
ENDBRANCH  26  27
ENDBRANCH  24  26
ENDBRANCH   1  24
TORSDOF 4
ENDMDL
MODEL 7
REMARK minimizedAffinity -7.10430098
REMARK CNNscore 0.264577508
REMARK CNNaffinity 6.35378885
REMARK  4 active torsions:
REMARK  status: ('A' for Active; 'I' for Inactive)
REMARK    1  A    between atoms: C4_4  and  C5_5 
REMARK    2  A    between atoms: C5_5  and  C6_7 
REMARK    3  A    between atoms: C6_7  and  C7_8 
REMARK    4  A    between atoms: C7_8  and  C9_10 
ROOT
HETATM    1  C9  UNL     1      -1.312  10.978  15.689  1.00  0.00    -0.002 C 
HETATM    2  C10 UNL     1      -2.072  11.134  17.041  1.00  0.00     0.006 C 
HETATM    3  C11 UNL     1      -3.107   9.992  17.124  1.00  0.00     0.011 C 
HETATM    4  C12 UNL     1      -2.705   9.016  16.006  1.00  0.00    -0.032 C 
HETATM    5  C13 UNL     1      -1.528   8.162  16.606  1.00  0.00     0.016 C 
HETATM    6  C14 UNL     1      -3.770   7.989  15.493  1.00  0.00     0.004 C 
HETATM    7  C15 UNL     1      -5.223   8.263  15.894  1.00  0.00     0.007 C 
HETATM    8  C16 UNL     1      -6.217   7.197  15.388  1.00  0.00     0.007 C 
HETATM    9  C17 UNL     1      -5.598   6.063  14.533  1.00  0.00     0.010 C 
HETATM   10  C18 UNL     1      -6.650   5.123  13.862  1.00  0.00     0.018 C 
HETATM   11  C19 UNL     1      -7.522   5.837  12.816  1.00  0.00     0.023 C 
HETATM   12  C20 UNL     1      -7.566   4.487  14.925  1.00  0.00     0.023 C 
HETATM   13  C21 UNL     1      -5.912   3.982  13.143  1.00  0.00     0.135 C 
HETATM   14  O2  UNL     1      -6.502   2.979  12.735  1.00  0.00    -0.297 OA
HETATM   15  C22 UNL     1      -4.418   4.109  12.966  1.00  0.00     0.080 C 
HETATM   16  C23 UNL     1      -4.064   5.520  12.530  1.00  0.00     0.018 C 
HETATM   17  C24 UNL     1      -4.568   6.575  13.505  1.00  0.00    -0.026 A 
HETATM   18  C25 UNL     1      -4.731   7.974  12.964  1.00  0.00     0.021 A 
HETATM   19  C26 UNL     1      -3.630   7.704  13.980  1.00  0.00    -0.027 A 
HETATM   20  C27 UNL     1      -2.214   7.849  13.445  1.00  0.00     0.011 C 
HETATM   21  C28 UNL     1      -1.573   9.222  13.741  1.00  0.00     0.011 C 
HETATM   22  C29 UNL     1      -2.247  10.016  14.881  1.00  0.00    -0.032 C 
HETATM   23  C30 UNL     1      -3.410  10.862  14.283  1.00  0.00     0.016 C 
ENDROOT
BRANCH   1  24
HETATM   24  C7  UNL     1      -0.898  12.349  15.082  1.00  0.00    -0.007 C 
HETATM   25  C8  UNL     1       0.485  12.811  15.554  1.00  0.00     0.011 C 
BRANCH  24  26
HETATM   26  C6  UNL     1      -1.939  13.463  15.340  1.00  0.00     0.087 C 
BRANCH  26  27
HETATM   27  C5  UNL     1      -2.385  14.204  14.091  1.00  0.00     0.149 C 
HETATM   28  O1  UNL     1      -1.658  14.308  13.106  1.00  0.00    -0.293 OA
BRANCH  27  29
HETATM   29  C4  UNL     1      -3.745  14.819  14.121  1.00  0.00     0.052 C 
HETATM   30  C2  UNL     1      -4.704  14.525  15.020  1.00  0.00    -0.084 C 
HETATM   31  C1  UNL     1      -4.547  13.571  16.174  1.00  0.00     0.043 C 
HETATM   32  C3  UNL     1      -6.059  15.174  14.930  1.00  0.00     0.043 C 
ENDBRANCH  27  29
ENDBRANCH  26  27
ENDBRANCH  24  26
ENDBRANCH   1  24
TORSDOF 4
ENDMDL
MODEL 8
REMARK minimizedAffinity -6.93775272
REMARK CNNscore 0.263914436
REMARK CNNaffinity 6.12247658
REMARK  4 active torsions:
REMARK  status: ('A' for Active; 'I' for Inactive)
REMARK    1  A    between atoms: C4_4  and  C5_5 
REMARK    2  A    between atoms: C5_5  and  C6_7 
REMARK    3  A    between atoms: C6_7  and  C7_8 
REMARK    4  A    between atoms: C7_8  and  C9_10 
ROOT
HETATM    1  C9  UNL     1      -1.624   7.234  13.605  1.00  0.00    -0.002 C 
HETATM    2  C10 UNL     1      -2.634   7.844  12.586  1.00  0.00     0.006 C 
HETATM    3  C11 UNL     1      -3.104   9.199  13.154  1.00  0.00     0.011 C 
HETATM    4  C12 UNL     1      -2.123   9.507  14.298  1.00  0.00    -0.032 C 
HETATM    5  C13 UNL     1      -0.845  10.100  13.598  1.00  0.00     0.016 C 
HETATM    6  C14 UNL     1      -2.546  10.550  15.386  1.00  0.00     0.004 C 
HETATM    7  C15 UNL     1      -4.032  10.922  15.424  1.00  0.00     0.007 C 
HETATM    8  C16 UNL     1      -4.378  11.980  16.492  1.00  0.00     0.007 C 
HETATM    9  C17 UNL     1      -3.192  12.454  17.368  1.00  0.00     0.010 C 
HETATM   10  C18 UNL     1      -3.610  13.358  18.572  1.00  0.00     0.018 C 
HETATM   11  C19 UNL     1      -4.469  12.624  19.614  1.00  0.00     0.023 C 
HETATM   12  C20 UNL     1      -4.376  14.600  18.078  1.00  0.00     0.023 C 
HETATM   13  C21 UNL     1      -2.341  13.851  19.288  1.00  0.00     0.135 C 
HETATM   14  O2  UNL     1      -2.373  14.761  20.119  1.00  0.00    -0.297 OA
HETATM   15  C22 UNL     1      -1.028  13.199  18.926  1.00  0.00     0.080 C 
HETATM   16  C23 UNL     1      -1.205  11.694  18.828  1.00  0.00     0.018 C 
HETATM   17  C24 UNL     1      -2.280  11.297  17.827  1.00  0.00    -0.026 A 
HETATM   18  C25 UNL     1      -2.890   9.928  17.996  1.00  0.00     0.021 A 
HETATM   19  C26 UNL     1      -2.003  10.191  16.788  1.00  0.00    -0.027 A 
HETATM   20  C27 UNL     1      -0.696   9.415  16.771  1.00  0.00     0.011 C 
HETATM   21  C28 UNL     1      -0.747   8.124  15.926  1.00  0.00     0.011 C 
HETATM   22  C29 UNL     1      -1.900   8.070  14.900  1.00  0.00    -0.032 C 
HETATM   23  C30 UNL     1      -3.163   7.480  15.596  1.00  0.00     0.016 C 
ENDROOT
BRANCH   1  24
HETATM   24  C7  UNL     1      -1.696   5.682  13.653  1.00  0.00    -0.007 C 
HETATM   25  C8  UNL     1      -2.300   5.158  14.961  1.00  0.00     0.011 C 
BRANCH  24  26
HETATM   26  C6  UNL     1      -0.328   5.005  13.400  1.00  0.00     0.087 C 
BRANCH  26  27
HETATM   27  C5  UNL     1      -0.077   4.626  11.951  1.00  0.00     0.149 C 
HETATM   28  O1  UNL     1       0.254   3.488  11.627  1.00  0.00    -0.293 OA
BRANCH  27  29
HETATM   29  C4  UNL     1      -0.235   5.707  10.934  1.00  0.00     0.052 C 
HETATM   30  C2  UNL     1       0.602   6.751  10.783  1.00  0.00    -0.084 C 
HETATM   31  C1  UNL     1       1.863   6.973  11.575  1.00  0.00     0.043 C 
HETATM   32  C3  UNL     1       0.322   7.810   9.751  1.00  0.00     0.043 C 
ENDBRANCH  27  29
ENDBRANCH  26  27
ENDBRANCH  24  26
ENDBRANCH   1  24
TORSDOF 4
ENDMDL
MODEL 9
REMARK minimizedAffinity -8.39232826
REMARK CNNscore 0.251719654
REMARK CNNaffinity 6.35298347
REMARK  4 active torsions:
REMARK  status: ('A' for Active; 'I' for Inactive)
REMARK    1  A    between atoms: C4_4  and  C5_5 
REMARK    2  A    between atoms: C5_5  and  C6_7 
REMARK    3  A    between atoms: C6_7  and  C7_8 
REMARK    4  A    between atoms: C7_8  and  C9_10 
ROOT
HETATM    1  C9  UNL     1      -1.478   5.655  12.166  1.00  0.00    -0.002 C 
HETATM    2  C10 UNL     1      -2.178   4.739  13.215  1.00  0.00     0.006 C 
HETATM    3  C11 UNL     1      -2.681   5.645  14.358  1.00  0.00     0.011 C 
HETATM    4  C12 UNL     1      -2.573   7.075  13.803  1.00  0.00    -0.032 C 
HETATM    5  C13 UNL     1      -3.855   7.271  12.913  1.00  0.00     0.016 C 
HETATM    6  C14 UNL     1      -2.558   8.270  14.814  1.00  0.00     0.004 C 
HETATM    7  C15 UNL     1      -2.302   7.912  16.282  1.00  0.00     0.007 C 
HETATM    8  C16 UNL     1      -2.336   9.127  17.231  1.00  0.00     0.007 C 
HETATM    9  C17 UNL     1      -2.576  10.497  16.549  1.00  0.00     0.010 C 
HETATM   10  C18 UNL     1      -2.394  11.723  17.500  1.00  0.00     0.018 C 
HETATM   11  C19 UNL     1      -0.950  11.894  18.000  1.00  0.00     0.023 C 
HETATM   12  C20 UNL     1      -3.334  11.613  18.714  1.00  0.00     0.023 C 
HETATM   13  C21 UNL     1      -2.769  13.005  16.737  1.00  0.00     0.135 C 
HETATM   14  O2  UNL     1      -2.941  14.081  17.315  1.00  0.00    -0.297 OA
HETATM   15  C22 UNL     1      -2.950  12.909  15.241  1.00  0.00     0.080 C 
HETATM   16  C23 UNL     1      -1.841  12.066  14.637  1.00  0.00     0.018 C 
HETATM   17  C24 UNL     1      -1.769  10.674  15.246  1.00  0.00    -0.026 A 
HETATM   18  C25 UNL     1      -0.455   9.944  15.114  1.00  0.00     0.021 A 
HETATM   19  C26 UNL     1      -1.659   9.433  14.336  1.00  0.00    -0.027 A 
HETATM   20  C27 UNL     1      -1.544   9.553  12.825  1.00  0.00     0.011 C 
HETATM   21  C28 UNL     1      -1.072   8.259  12.129  1.00  0.00     0.011 C 
HETATM   22  C29 UNL     1      -1.240   6.976  12.972  1.00  0.00    -0.032 C 
HETATM   23  C30 UNL     1       0.032   6.783  13.850  1.00  0.00     0.016 C 
ENDROOT
BRANCH   1  24
HETATM   24  C7  UNL     1      -0.284   4.947  11.465  1.00  0.00    -0.007 C 
HETATM   25  C8  UNL     1      -0.179   3.463  11.833  1.00  0.00     0.011 C 
BRANCH  24  26
HETATM   26  C6  UNL     1       1.070   5.648  11.724  1.00  0.00     0.087 C 
BRANCH  26  27
HETATM   27  C5  UNL     1       2.014   5.643  10.534  1.00  0.00     0.149 C 
HETATM   28  O1  UNL     1       2.561   4.613  10.145  1.00  0.00    -0.293 OA
BRANCH  27  29
HETATM   29  C4  UNL     1       2.262   6.954   9.864  1.00  0.00     0.052 C 
HETATM   30  C2  UNL     1       2.542   7.110   8.556  1.00  0.00    -0.084 C 
HETATM   31  C1  UNL     1       2.597   5.999   7.543  1.00  0.00     0.043 C 
HETATM   32  C3  UNL     1       2.818   8.479   7.994  1.00  0.00     0.043 C 
ENDBRANCH  27  29
ENDBRANCH  26  27
ENDBRANCH  24  26
ENDBRANCH   1  24
TORSDOF 4
ENDMDL
