MODEL 1
REMARK minimizedAffinity -8.17245007
REMARK CNNscore 0.853337765
REMARK CNNaffinity 7.55073118
REMARK  13 active torsions:
REMARK  status: ('A' for Active; 'I' for Inactive)
REMARK    1  A    between atoms: C2_2  and  C3_3 
REMARK    2  A    between atoms: C2_2  and  C4_5 
REMARK    3  A    between atoms: C3_3  and  O1_4 
REMARK    4  A    between atoms: C4_5  and  C5_6 
REMARK    5  A    between atoms: C5_6  and  C6_7 
REMARK    6  A    between atoms: C6_7  and  O2_8 
REMARK    7  A    between atoms: C6_7  and  C7_9 
REMARK    8  A    between atoms: C7_9  and  C9_11 
REMARK    9  A    between atoms: C10_12  and  O3_13 
REMARK   10  A    between atoms: O3_13  and  C11_14 
REMARK   11  A    between atoms: C13_17  and  O5_18 
REMARK   12  A    between atoms: C14_19  and  O6_20 
REMARK   13  A    between atoms: C15_21  and  O7_22 
ROOT
HETATM    1  C9  UNL     1      -1.458  10.865  18.308  1.00  0.00     0.029 C 
HETATM    2  C10 UNL     1      -2.841  11.578  18.424  1.00  0.00     0.130 C 
HETATM    3  C16 UNL     1      -3.631  11.155  17.162  1.00  0.00     0.038 C 
HETATM    4  C17 UNL     1      -2.828   9.996  16.586  1.00  0.00     0.001 C 
HETATM    5  C18 UNL     1      -3.106   9.546  15.148  1.00  0.00    -0.004 C 
HETATM    6  C19 UNL     1      -4.591   9.198  14.931  1.00  0.00     0.010 C 
HETATM    7  C20 UNL     1      -4.858   8.613  13.542  1.00  0.00     0.035 C 
HETATM    8  C21 UNL     1      -3.925   7.448  13.312  1.00  0.00    -0.068 C 
HETATM    9  C22 UNL     1      -4.420   6.201  13.216  1.00  0.00     0.053 C 
HETATM   10  C23 UNL     1      -3.536   5.015  13.293  1.00  0.00     0.149 C 
HETATM   11  O8  UNL     1      -4.009   3.894  13.132  1.00  0.00    -0.293 OA
HETATM   12  C24 UNL     1      -2.098   5.243  13.682  1.00  0.00     0.084 C 
HETATM   13  C25 UNL     1      -1.589   6.514  13.025  1.00  0.00     0.022 C 
HETATM   14  C26 UNL     1      -2.428   7.779  13.370  1.00  0.00    -0.016 C 
HETATM   15  C27 UNL     1      -2.055   8.824  12.286  1.00  0.00     0.020 C 
HETATM   16  C28 UNL     1      -2.171   8.327  14.820  1.00  0.00     0.002 C 
HETATM   17  C29 UNL     1      -0.685   8.634  15.137  1.00  0.00     0.007 C 
HETATM   18  C30 UNL     1      -0.464   9.224  16.544  1.00  0.00     0.010 C 
HETATM   19  C31 UNL     1      -1.362  10.443  16.808  1.00  0.00    -0.034 C 
HETATM   20  C32 UNL     1      -0.930  11.596  15.880  1.00  0.00     0.016 C 
ENDROOT
BRANCH   2  21
HETATM   21  O3  UNL     1      -2.723  12.987  18.496  1.00  0.00    -0.353 OA
BRANCH  21  22
HETATM   22  C11 UNL     1      -3.825  13.616  19.165  1.00  0.00     0.291 C 
HETATM   23  O4  UNL     1      -4.563  12.654  19.914  1.00  0.00    -0.356 OA
HETATM   24  C12 UNL     1      -5.683  13.228  20.575  1.00  0.00     0.205 C 
HETATM   25  C13 UNL     1      -6.681  13.785  19.568  1.00  0.00     0.173 C 
HETATM   26  C14 UNL     1      -6.006  14.815  18.658  1.00  0.00     0.182 C 
HETATM   27  C15 UNL     1      -4.689  14.288  18.075  1.00  0.00     0.204 C 
BRANCH  25  28
HETATM   28  O5  UNL     1      -7.804  14.385  20.226  1.00  0.00    -0.391 OA
HETATM   29  H24 UNL     1      -7.484  15.126  20.773  1.00  0.00     0.210 HD
ENDBRANCH  25  28
BRANCH  26  30
HETATM   30  O6  UNL     1      -6.923  15.160  17.606  1.00  0.00    -0.390 OA
HETATM   31  H26 UNL     1      -7.783  15.327  18.033  1.00  0.00     0.210 HD
ENDBRANCH  26  30
BRANCH  27  32
HETATM   32  O7  UNL     1      -3.959  15.391  17.506  1.00  0.00    -0.388 OA
HETATM   33  H28 UNL     1      -3.104  15.015  17.191  1.00  0.00     0.210 HD
ENDBRANCH  27  32
ENDBRANCH  21  22
ENDBRANCH   2  21
BRANCH   1  34
HETATM   34  C7  UNL     1      -0.207  11.456  19.027  1.00  0.00     0.017 C 
HETATM   35  C8  UNL     1       0.470  12.476  18.091  1.00  0.00     0.013 C 
BRANCH  34  36
HETATM   36  C6  UNL     1       0.842  10.478  19.631  1.00  0.00     0.122 C 
BRANCH  36  37
HETATM   37  C5  UNL     1       1.617  11.083  20.823  1.00  0.00     0.032 C 
BRANCH  37  38
HETATM   38  C4  UNL     1       2.897  10.320  21.191  1.00  0.00     0.009 C 
BRANCH  38  39
HETATM   39  C2  UNL     1       2.997   9.990  22.695  1.00  0.00     0.005 C 
HETATM   40  C1  UNL     1       4.336  10.439  23.285  1.00  0.00     0.012 C 
BRANCH  39  41
HETATM   41  C3  UNL     1       2.788   8.485  22.934  1.00  0.00     0.168 C 
BRANCH  41  42
HETATM   42  O1  UNL     1       1.665   8.008  22.208  1.00  0.00    -0.400 OA
HETATM   43  H7  UNL     1       1.599   7.053  22.379  1.00  0.00     0.209 HD
ENDBRANCH  41  42
ENDBRANCH  39  41
ENDBRANCH  38  39
ENDBRANCH  37  38
ENDBRANCH  36  37
BRANCH  36  44
HETATM   44  O2  UNL     1       1.829  10.117  18.655  1.00  0.00    -0.395 OA
HETATM   45  H13 UNL     1       2.383   9.428  19.068  1.00  0.00     0.210 HD
ENDBRANCH  36  44
ENDBRANCH  34  36
ENDBRANCH   1  34
TORSDOF 13
ENDMDL
MODEL 2
REMARK minimizedAffinity -10.052515
REMARK CNNscore 0.660922229
REMARK CNNaffinity 7.29754114
REMARK  13 active torsions:
REMARK  status: ('A' for Active; 'I' for Inactive)
REMARK    1  A    between atoms: C2_2  and  C3_3 
REMARK    2  A    between atoms: C2_2  and  C4_5 
REMARK    3  A    between atoms: C3_3  and  O1_4 
REMARK    4  A    between atoms: C4_5  and  C5_6 
REMARK    5  A    between atoms: C5_6  and  C6_7 
REMARK    6  A    between atoms: C6_7  and  O2_8 
REMARK    7  A    between atoms: C6_7  and  C7_9 
REMARK    8  A    between atoms: C7_9  and  C9_11 
REMARK    9  A    between atoms: C10_12  and  O3_13 
REMARK   10  A    between atoms: O3_13  and  C11_14 
REMARK   11  A    between atoms: C13_17  and  O5_18 
REMARK   12  A    between atoms: C14_19  and  O6_20 
REMARK   13  A    between atoms: C15_21  and  O7_22 
ROOT
HETATM    1  C9  UNL     1      -6.554   6.046  13.814  1.00  0.00     0.029 C 
HETATM    2  C10 UNL     1      -6.973   7.547  13.861  1.00  0.00     0.130 C 
HETATM    3  C16 UNL     1      -5.653   8.350  13.766  1.00  0.00     0.038 C 
HETATM    4  C17 UNL     1      -4.618   7.319  13.337  1.00  0.00     0.001 C 
HETATM    5  C18 UNL     1      -3.131   7.662  13.477  1.00  0.00    -0.004 C 
HETATM    6  C19 UNL     1      -2.771   8.971  12.749  1.00  0.00     0.010 C 
HETATM    7  C20 UNL     1      -1.266   9.252  12.760  1.00  0.00     0.035 C 
HETATM    8  C21 UNL     1      -0.536   8.043  12.226  1.00  0.00    -0.068 C 
HETATM    9  C22 UNL     1       0.120   8.120  11.054  1.00  0.00     0.053 C 
HETATM   10  C23 UNL     1       0.586   6.901  10.353  1.00  0.00     0.149 C 
HETATM   11  O8  UNL     1       1.243   7.009   9.321  1.00  0.00    -0.293 OA
HETATM   12  C24 UNL     1       0.129   5.570  10.891  1.00  0.00     0.084 C 
HETATM   13  C25 UNL     1       0.132   5.608  12.409  1.00  0.00     0.022 C 
HETATM   14  C26 UNL     1      -0.746   6.742  13.012  1.00  0.00    -0.016 C 
HETATM   15  C27 UNL     1      -0.260   6.902  14.476  1.00  0.00     0.020 C 
HETATM   16  C28 UNL     1      -2.288   6.449  12.940  1.00  0.00     0.002 C 
HETATM   17  C29 UNL     1      -2.719   5.110  13.592  1.00  0.00     0.007 C 
HETATM   18  C30 UNL     1      -4.241   4.870  13.560  1.00  0.00     0.010 C 
HETATM   19  C31 UNL     1      -5.026   6.058  14.138  1.00  0.00    -0.034 C 
HETATM   20  C32 UNL     1      -4.727   6.172  15.647  1.00  0.00     0.016 C 
ENDROOT
BRANCH   2  21
HETATM   21  O3  UNL     1      -7.680   7.879  15.043  1.00  0.00    -0.353 OA
BRANCH  21  22
HETATM   22  C11 UNL     1      -8.837   8.692  14.804  1.00  0.00     0.291 C 
HETATM   23  O4  UNL     1      -8.635  10.004  15.323  1.00  0.00    -0.356 OA
HETATM   24  C12 UNL     1      -9.767  10.841  15.131  1.00  0.00     0.205 C 
HETATM   25  C13 UNL     1     -10.973  10.304  15.891  1.00  0.00     0.173 C 
HETATM   26  C14 UNL     1     -11.284   8.869  15.458  1.00  0.00     0.182 C 
HETATM   27  C15 UNL     1     -10.033   7.982  15.474  1.00  0.00     0.204 C 
BRANCH  25  28
HETATM   28  O5  UNL     1     -12.127  11.130  15.686  1.00  0.00    -0.391 OA
HETATM   29  H24 UNL     1     -12.345  11.129  14.736  1.00  0.00     0.210 HD
ENDBRANCH  25  28
BRANCH  26  30
HETATM   30  O6  UNL     1     -12.292   8.338  16.335  1.00  0.00    -0.390 OA
HETATM   31  H26 UNL     1     -12.984   9.022  16.407  1.00  0.00     0.210 HD
ENDBRANCH  26  30
BRANCH  27  32
HETATM   32  O7  UNL     1     -10.319   6.763  14.763  1.00  0.00    -0.388 OA
HETATM   33  H28 UNL     1      -9.476   6.251  14.756  1.00  0.00     0.210 HD
ENDBRANCH  27  32
ENDBRANCH  21  22
ENDBRANCH   2  21
BRANCH   1  34
HETATM   34  C7  UNL     1      -7.470   4.954  14.446  1.00  0.00     0.017 C 
HETATM   35  C8  UNL     1      -7.179   4.872  15.957  1.00  0.00     0.013 C 
BRANCH  34  36
HETATM   36  C6  UNL     1      -7.491   3.533  13.810  1.00  0.00     0.122 C 
BRANCH  36  37
HETATM   37  C5  UNL     1      -6.393   3.333  12.742  1.00  0.00     0.032 C 
BRANCH  37  38
HETATM   38  C4  UNL     1      -6.637   2.140  11.807  1.00  0.00     0.009 C 
BRANCH  38  39
HETATM   39  C2  UNL     1      -5.470   1.881  10.832  1.00  0.00     0.005 C 
HETATM   40  C1  UNL     1      -4.182   1.515  11.575  1.00  0.00     0.012 C 
BRANCH  39  41
HETATM   41  C3  UNL     1      -5.235   3.106   9.932  1.00  0.00     0.168 C 
BRANCH  41  42
HETATM   42  O1  UNL     1      -5.594   2.822   8.588  1.00  0.00    -0.400 OA
HETATM   43  H7  UNL     1      -5.447   3.635   8.075  1.00  0.00     0.209 HD
ENDBRANCH  41  42
ENDBRANCH  39  41
ENDBRANCH  38  39
ENDBRANCH  37  38
ENDBRANCH  36  37
BRANCH  36  44
HETATM   44  O2  UNL     1      -8.740   3.283  13.152  1.00  0.00    -0.395 OA
HETATM   45  H13 UNL     1      -8.721   2.348  12.874  1.00  0.00     0.210 HD
ENDBRANCH  36  44
ENDBRANCH  34  36
ENDBRANCH   1  34
TORSDOF 13
ENDMDL
MODEL 3
REMARK minimizedAffinity -8.06334114
REMARK CNNscore 0.629652262
REMARK CNNaffinity 6.99516344
REMARK  13 active torsions:
REMARK  status: ('A' for Active; 'I' for Inactive)
REMARK    1  A    between atoms: C2_2  and  C3_3 
REMARK    2  A    between atoms: C2_2  and  C4_5 
REMARK    3  A    between atoms: C3_3  and  O1_4 
REMARK    4  A    between atoms: C4_5  and  C5_6 
REMARK    5  A    between atoms: C5_6  and  C6_7 
REMARK    6  A    between atoms: C6_7  and  O2_8 
REMARK    7  A    between atoms: C6_7  and  C7_9 
REMARK    8  A    between atoms: C7_9  and  C9_11 
REMARK    9  A    between atoms: C10_12  and  O3_13 
REMARK   10  A    between atoms: O3_13  and  C11_14 
REMARK   11  A    between atoms: C13_17  and  O5_18 
REMARK   12  A    between atoms: C14_19  and  O6_20 
REMARK   13  A    between atoms: C15_21  and  O7_22 
ROOT
HETATM    1  C9  UNL     1      -2.501   9.608  14.004  1.00  0.00     0.029 C 
HETATM    2  C10 UNL     1      -1.852   8.607  13.000  1.00  0.00     0.130 C 
HETATM    3  C16 UNL     1      -2.807   7.390  12.952  1.00  0.00     0.038 C 
HETATM    4  C17 UNL     1      -4.076   7.882  13.635  1.00  0.00     0.001 C 
HETATM    5  C18 UNL     1      -5.118   6.853  14.088  1.00  0.00    -0.004 C 
HETATM    6  C19 UNL     1      -5.570   5.943  12.929  1.00  0.00     0.010 C 
HETATM    7  C20 UNL     1      -6.711   5.006  13.332  1.00  0.00     0.035 C 
HETATM    8  C21 UNL     1      -7.831   5.824  13.930  1.00  0.00    -0.068 C 
HETATM    9  C22 UNL     1      -9.009   5.920  13.287  1.00  0.00     0.053 C 
HETATM   10  C23 UNL     1     -10.014   6.937  13.673  1.00  0.00     0.149 C 
HETATM   11  O8  UNL     1     -11.107   6.952  13.113  1.00  0.00    -0.293 OA
HETATM   12  C24 UNL     1      -9.597   7.985  14.671  1.00  0.00     0.084 C 
HETATM   13  C25 UNL     1      -8.727   7.351  15.741  1.00  0.00     0.022 C 
HETATM   14  C26 UNL     1      -7.464   6.634  15.181  1.00  0.00    -0.016 C 
HETATM   15  C27 UNL     1      -6.987   5.696  16.320  1.00  0.00     0.020 C 
HETATM   16  C28 UNL     1      -6.329   7.622  14.728  1.00  0.00     0.002 C 
HETATM   17  C29 UNL     1      -5.870   8.619  15.822  1.00  0.00     0.007 C 
HETATM   18  C30 UNL     1      -4.719   9.540  15.374  1.00  0.00     0.010 C 
HETATM   19  C31 UNL     1      -3.534   8.747  14.799  1.00  0.00    -0.034 C 
HETATM   20  C32 UNL     1      -2.891   7.916  15.927  1.00  0.00     0.016 C 
ENDROOT
BRANCH   2  21
HETATM   21  O3  UNL     1      -0.550   8.210  13.391  1.00  0.00    -0.353 OA
BRANCH  21  22
HETATM   22  C11 UNL     1       0.429   8.371  12.355  1.00  0.00     0.291 C 
HETATM   23  O4  UNL     1      -0.161   8.143  11.078  1.00  0.00    -0.356 OA
HETATM   24  C12 UNL     1       0.779   8.267  10.020  1.00  0.00     0.205 C 
HETATM   25  C13 UNL     1       1.871   7.211  10.137  1.00  0.00     0.173 C 
HETATM   26  C14 UNL     1       2.571   7.314  11.495  1.00  0.00     0.182 C 
HETATM   27  C15 UNL     1       1.568   7.373  12.653  1.00  0.00     0.204 C 
BRANCH  25  28
HETATM   28  O5  UNL     1       2.836   7.341   9.086  1.00  0.00    -0.391 OA
HETATM   29  H24 UNL     1       3.257   8.218   9.157  1.00  0.00     0.210 HD
ENDBRANCH  25  28
BRANCH  26  30
HETATM   30  O6  UNL     1       3.446   6.182  11.640  1.00  0.00    -0.390 OA
HETATM   31  H26 UNL     1       3.941   6.107  10.803  1.00  0.00     0.210 HD
ENDBRANCH  26  30
BRANCH  27  32
HETATM   32  O7  UNL     1       2.261   7.787  13.846  1.00  0.00    -0.388 OA
HETATM   33  H28 UNL     1       1.572   7.858  14.547  1.00  0.00     0.210 HD
ENDBRANCH  27  32
ENDBRANCH  21  22
ENDBRANCH   2  21
BRANCH   1  34
HETATM   34  C7  UNL     1      -1.618  10.648  14.759  1.00  0.00     0.017 C 
HETATM   35  C8  UNL     1      -0.421   9.917  15.397  1.00  0.00     0.013 C 
BRANCH  34  36
HETATM   36  C6  UNL     1      -2.296  11.600  15.787  1.00  0.00     0.122 C 
BRANCH  36  37
HETATM   37  C5  UNL     1      -1.865  13.074  15.620  1.00  0.00     0.032 C 
BRANCH  37  38
HETATM   38  C4  UNL     1      -1.622  13.496  14.165  1.00  0.00     0.009 C 
BRANCH  38  39
HETATM   39  C2  UNL     1      -0.441  14.476  14.003  1.00  0.00     0.005 C 
HETATM   40  C1  UNL     1      -0.325  15.425  15.199  1.00  0.00     0.012 C 
BRANCH  39  41
HETATM   41  C3  UNL     1      -0.577  15.278  12.698  1.00  0.00     0.168 C 
BRANCH  41  42
HETATM   42  O1  UNL     1       0.644  15.277  11.974  1.00  0.00    -0.400 OA
HETATM   43  H7  UNL     1       0.490  15.777  11.154  1.00  0.00     0.209 HD
ENDBRANCH  41  42
ENDBRANCH  39  41
ENDBRANCH  38  39
ENDBRANCH  37  38
ENDBRANCH  36  37
BRANCH  36  44
HETATM   44  O2  UNL     1      -1.955  11.234  17.130  1.00  0.00    -0.395 OA
HETATM   45  H13 UNL     1      -2.494  11.799  17.714  1.00  0.00     0.210 HD
ENDBRANCH  36  44
ENDBRANCH  34  36
ENDBRANCH   1  34
TORSDOF 13
ENDMDL
MODEL 4
REMARK minimizedAffinity -7.15884733
REMARK CNNscore 0.58248657
REMARK CNNaffinity 7.09707499
REMARK  13 active torsions:
REMARK  status: ('A' for Active; 'I' for Inactive)
REMARK    1  A    between atoms: C2_2  and  C3_3 
REMARK    2  A    between atoms: C2_2  and  C4_5 
REMARK    3  A    between atoms: C3_3  and  O1_4 
REMARK    4  A    between atoms: C4_5  and  C5_6 
REMARK    5  A    between atoms: C5_6  and  C6_7 
REMARK    6  A    between atoms: C6_7  and  O2_8 
REMARK    7  A    between atoms: C6_7  and  C7_9 
REMARK    8  A    between atoms: C7_9  and  C9_11 
REMARK    9  A    between atoms: C10_12  and  O3_13 
REMARK   10  A    between atoms: O3_13  and  C11_14 
REMARK   11  A    between atoms: C13_17  and  O5_18 
REMARK   12  A    between atoms: C14_19  and  O6_20 
REMARK   13  A    between atoms: C15_21  and  O7_22 
ROOT
HETATM    1  C9  UNL     1     -11.878   9.301  16.410  1.00  0.00     0.029 C 
HETATM    2  C10 UNL     1     -12.798   9.546  15.174  1.00  0.00     0.130 C 
HETATM    3  C16 UNL     1     -12.052   8.918  13.972  1.00  0.00     0.038 C 
HETATM    4  C17 UNL     1     -10.954   8.076  14.610  1.00  0.00     0.001 C 
HETATM    5  C18 UNL     1      -9.797   7.584  13.734  1.00  0.00    -0.004 C 
HETATM    6  C19 UNL     1     -10.297   6.795  12.509  1.00  0.00     0.010 C 
HETATM    7  C20 UNL     1      -9.152   6.177  11.703  1.00  0.00     0.035 C 
HETATM    8  C21 UNL     1      -8.280   5.365  12.631  1.00  0.00    -0.068 C 
HETATM    9  C22 UNL     1      -8.225   4.027  12.499  1.00  0.00     0.053 C 
HETATM   10  C23 UNL     1      -7.634   3.175  13.556  1.00  0.00     0.149 C 
HETATM   11  O8  UNL     1      -7.535   1.965  13.375  1.00  0.00    -0.293 OA
HETATM   12  C24 UNL     1      -7.281   3.833  14.865  1.00  0.00     0.084 C 
HETATM   13  C25 UNL     1      -6.697   5.209  14.600  1.00  0.00     0.022 C 
HETATM   14  C26 UNL     1      -7.636   6.144  13.785  1.00  0.00    -0.016 C 
HETATM   15  C27 UNL     1      -6.719   7.271  13.241  1.00  0.00     0.020 C 
HETATM   16  C28 UNL     1      -8.831   6.723  14.624  1.00  0.00     0.002 C 
HETATM   17  C29 UNL     1      -8.408   7.472  15.914  1.00  0.00     0.007 C 
HETATM   18  C30 UNL     1      -9.593   8.078  16.691  1.00  0.00     0.010 C 
HETATM   19  C31 UNL     1     -10.485   8.953  15.796  1.00  0.00    -0.034 C 
HETATM   20  C32 UNL     1      -9.689  10.198  15.356  1.00  0.00     0.016 C 
ENDROOT
BRANCH   2  21
HETATM   21  O3  UNL     1     -13.052  10.920  14.948  1.00  0.00    -0.353 OA
BRANCH  21  22
HETATM   22  C11 UNL     1     -14.357  11.176  14.412  1.00  0.00     0.291 C 
HETATM   23  O4  UNL     1     -15.353  10.548  15.214  1.00  0.00    -0.356 OA
HETATM   24  C12 UNL     1     -16.664  10.754  14.706  1.00  0.00     0.205 C 
HETATM   25  C13 UNL     1     -16.819  10.120  13.329  1.00  0.00     0.173 C 
HETATM   26  C14 UNL     1     -15.771  10.679  12.362  1.00  0.00     0.182 C 
HETATM   27  C15 UNL     1     -14.361  10.644  12.962  1.00  0.00     0.204 C 
BRANCH  25  28
HETATM   28  O5  UNL     1     -18.131  10.340  12.798  1.00  0.00    -0.391 OA
HETATM   29  H24 UNL     1     -18.272  11.300  12.705  1.00  0.00     0.210 HD
ENDBRANCH  25  28
BRANCH  26  30
HETATM   30  O6  UNL     1     -15.823   9.914  11.146  1.00  0.00    -0.390 OA
HETATM   31  H26 UNL     1     -16.766   9.839  10.907  1.00  0.00     0.210 HD
ENDBRANCH  26  30
BRANCH  27  32
HETATM   32  O7  UNL     1     -13.492  11.462  12.155  1.00  0.00    -0.388 OA
HETATM   33  H28 UNL     1     -12.615  11.449  12.605  1.00  0.00     0.210 HD
ENDBRANCH  27  32
ENDBRANCH  21  22
ENDBRANCH   2  21
BRANCH   1  34
HETATM   34  C7  UNL     1     -11.963  10.241  17.652  1.00  0.00     0.017 C 
HETATM   35  C8  UNL     1     -10.714  11.142  17.682  1.00  0.00     0.013 C 
BRANCH  34  36
HETATM   36  C6  UNL     1     -12.225   9.612  19.051  1.00  0.00     0.122 C 
BRANCH  36  37
HETATM   37  C5  UNL     1     -11.959  10.594  20.214  1.00  0.00     0.032 C 
BRANCH  37  38
HETATM   38  C4  UNL     1     -11.042  10.034  21.310  1.00  0.00     0.009 C 
BRANCH  38  39
HETATM   39  C2  UNL     1     -11.688  10.051  22.712  1.00  0.00     0.005 C 
HETATM   40  C1  UNL     1     -11.756  11.469  23.286  1.00  0.00     0.012 C 
BRANCH  39  41
HETATM   41  C3  UNL     1     -10.922   9.125  23.672  1.00  0.00     0.168 C 
BRANCH  41  42
HETATM   42  O1  UNL     1     -11.671   8.894  24.856  1.00  0.00    -0.400 OA
HETATM   43  H7  UNL     1     -11.150   8.287  25.409  1.00  0.00     0.209 HD
ENDBRANCH  41  42
ENDBRANCH  39  41
ENDBRANCH  38  39
ENDBRANCH  37  38
ENDBRANCH  36  37
BRANCH  36  44
HETATM   44  O2  UNL     1     -11.370   8.484  19.277  1.00  0.00    -0.395 OA
HETATM   45  H13 UNL     1     -11.661   8.082  20.116  1.00  0.00     0.210 HD
ENDBRANCH  36  44
ENDBRANCH  34  36
ENDBRANCH   1  34
TORSDOF 13
ENDMDL
MODEL 5
REMARK minimizedAffinity -9.50079632
REMARK CNNscore 0.483128458
REMARK CNNaffinity 7.28115797
REMARK  13 active torsions:
REMARK  status: ('A' for Active; 'I' for Inactive)
REMARK    1  A    between atoms: C2_2  and  C3_3 
REMARK    2  A    between atoms: C2_2  and  C4_5 
REMARK    3  A    between atoms: C3_3  and  O1_4 
REMARK    4  A    between atoms: C4_5  and  C5_6 
REMARK    5  A    between atoms: C5_6  and  C6_7 
REMARK    6  A    between atoms: C6_7  and  O2_8 
REMARK    7  A    between atoms: C6_7  and  C7_9 
REMARK    8  A    between atoms: C7_9  and  C9_11 
REMARK    9  A    between atoms: C10_12  and  O3_13 
REMARK   10  A    between atoms: O3_13  and  C11_14 
REMARK   11  A    between atoms: C13_17  and  O5_18 
REMARK   12  A    between atoms: C14_19  and  O6_20 
REMARK   13  A    between atoms: C15_21  and  O7_22 
ROOT
HETATM    1  C9  UNL     1      -7.091   6.925  14.153  1.00  0.00     0.029 C 
HETATM    2  C10 UNL     1      -7.489   5.709  13.261  1.00  0.00     0.130 C 
HETATM    3  C16 UNL     1      -9.027   5.788  13.115  1.00  0.00     0.038 C 
HETATM    4  C17 UNL     1      -9.382   7.180  13.621  1.00  0.00     0.001 C 
HETATM    5  C18 UNL     1     -10.844   7.494  13.958  1.00  0.00    -0.004 C 
HETATM    6  C19 UNL     1     -11.782   7.209  12.770  1.00  0.00     0.010 C 
HETATM    7  C20 UNL     1     -13.222   7.650  13.043  1.00  0.00     0.035 C 
HETATM    8  C21 UNL     1     -13.219   9.097  13.476  1.00  0.00    -0.068 C 
HETATM    9  C22 UNL     1     -13.773  10.034  12.686  1.00  0.00     0.053 C 
HETATM   10  C23 UNL     1     -13.530  11.476  12.920  1.00  0.00     0.149 C 
HETATM   11  O8  UNL     1     -14.105  12.309  12.224  1.00  0.00    -0.293 OA
HETATM   12  C24 UNL     1     -12.487  11.851  13.941  1.00  0.00     0.084 C 
HETATM   13  C25 UNL     1     -12.576  10.906  15.126  1.00  0.00     0.022 C 
HETATM   14  C26 UNL     1     -12.416   9.405  14.746  1.00  0.00    -0.016 C 
HETATM   15  C27 UNL     1     -12.980   8.615  15.956  1.00  0.00     0.020 C 
HETATM   16  C28 UNL     1     -10.935   8.992  14.422  1.00  0.00     0.002 C 
HETATM   17  C29 UNL     1      -9.917   9.315  15.546  1.00  0.00     0.007 C 
HETATM   18  C30 UNL     1      -8.482   8.850  15.229  1.00  0.00     0.010 C 
HETATM   19  C31 UNL     1      -8.429   7.368  14.827  1.00  0.00    -0.034 C 
HETATM   20  C32 UNL     1      -8.810   6.502  16.045  1.00  0.00     0.016 C 
ENDROOT
BRANCH   2  21
HETATM   21  O3  UNL     1      -7.098   4.470  13.823  1.00  0.00    -0.353 OA
BRANCH  21  22
HETATM   22  C11 UNL     1      -5.972   3.876  13.162  1.00  0.00     0.291 C 
HETATM   23  O4  UNL     1      -5.054   4.883  12.747  1.00  0.00    -0.356 OA
HETATM   24  C12 UNL     1      -3.931   4.342  12.064  1.00  0.00     0.205 C 
HETATM   25  C13 UNL     1      -4.361   3.655  10.774  1.00  0.00     0.173 C 
HETATM   26  C14 UNL     1      -5.392   2.561  11.068  1.00  0.00     0.182 C 
HETATM   27  C15 UNL     1      -6.525   3.070  11.967  1.00  0.00     0.204 C 
BRANCH  25  28
HETATM   28  O5  UNL     1      -3.239   3.087  10.088  1.00  0.00    -0.391 OA
HETATM   29  H24 UNL     1      -2.829   2.416  10.664  1.00  0.00     0.210 HD
ENDBRANCH  25  28
BRANCH  26  30
HETATM   30  O6  UNL     1      -5.914   2.082   9.817  1.00  0.00    -0.390 OA
HETATM   31  H26 UNL     1      -5.145   1.930   9.237  1.00  0.00     0.210 HD
ENDBRANCH  26  30
BRANCH  27  32
HETATM   32  O7  UNL     1      -7.269   1.939  12.462  1.00  0.00    -0.388 OA
HETATM   33  H28 UNL     1      -7.950   2.310  13.070  1.00  0.00     0.210 HD
ENDBRANCH  27  32
ENDBRANCH  21  22
ENDBRANCH   2  21
BRANCH   1  34
HETATM   34  C7  UNL     1      -5.778   6.888  14.993  1.00  0.00     0.017 C 
HETATM   35  C8  UNL     1      -6.019   6.041  16.258  1.00  0.00     0.013 C 
BRANCH  34  36
HETATM   36  C6  UNL     1      -5.080   8.231  15.352  1.00  0.00     0.122 C 
BRANCH  36  37
HETATM   37  C5  UNL     1      -4.533   8.978  14.115  1.00  0.00     0.032 C 
BRANCH  37  38
HETATM   38  C4  UNL     1      -3.789   8.079  13.118  1.00  0.00     0.009 C 
BRANCH  38  39
HETATM   39  C2  UNL     1      -2.394   8.615  12.737  1.00  0.00     0.005 C 
HETATM   40  C1  UNL     1      -1.425   7.479  12.394  1.00  0.00     0.012 C 
BRANCH  39  41
HETATM   41  C3  UNL     1      -1.818   9.480  13.871  1.00  0.00     0.168 C 
BRANCH  41  42
HETATM   42  O1  UNL     1      -1.458  10.767  13.392  1.00  0.00    -0.400 OA
HETATM   43  H7  UNL     1      -1.125  11.272  14.154  1.00  0.00     0.209 HD
ENDBRANCH  41  42
ENDBRANCH  39  41
ENDBRANCH  38  39
ENDBRANCH  37  38
ENDBRANCH  36  37
BRANCH  36  44
HETATM   44  O2  UNL     1      -3.956   8.012  16.216  1.00  0.00    -0.395 OA
HETATM   45  H13 UNL     1      -3.638   8.895  16.481  1.00  0.00     0.210 HD
ENDBRANCH  36  44
ENDBRANCH  34  36
ENDBRANCH   1  34
TORSDOF 13
ENDMDL
MODEL 6
REMARK minimizedAffinity -8.61768055
REMARK CNNscore 0.462675124
REMARK CNNaffinity 7.17552185
REMARK  13 active torsions:
REMARK  status: ('A' for Active; 'I' for Inactive)
REMARK    1  A    between atoms: C2_2  and  C3_3 
REMARK    2  A    between atoms: C2_2  and  C4_5 
REMARK    3  A    between atoms: C3_3  and  O1_4 
REMARK    4  A    between atoms: C4_5  and  C5_6 
REMARK    5  A    between atoms: C5_6  and  C6_7 
REMARK    6  A    between atoms: C6_7  and  O2_8 
REMARK    7  A    between atoms: C6_7  and  C7_9 
REMARK    8  A    between atoms: C7_9  and  C9_11 
REMARK    9  A    between atoms: C10_12  and  O3_13 
REMARK   10  A    between atoms: O3_13  and  C11_14 
REMARK   11  A    between atoms: C13_17  and  O5_18 
REMARK   12  A    between atoms: C14_19  and  O6_20 
REMARK   13  A    between atoms: C15_21  and  O7_22 
ROOT
HETATM    1  C9  UNL     1      -2.327   8.391  13.937  1.00  0.00     0.029 C 
HETATM    2  C10 UNL     1      -1.858   7.414  12.816  1.00  0.00     0.130 C 
HETATM    3  C16 UNL     1      -3.001   6.382  12.661  1.00  0.00     0.038 C 
HETATM    4  C17 UNL     1      -4.167   6.995  13.424  1.00  0.00     0.001 C 
HETATM    5  C18 UNL     1      -5.361   6.107  13.789  1.00  0.00    -0.004 C 
HETATM    6  C19 UNL     1      -5.964   5.416  12.552  1.00  0.00     0.010 C 
HETATM    7  C20 UNL     1      -7.242   4.639  12.880  1.00  0.00     0.035 C 
HETATM    8  C21 UNL     1      -8.207   5.558  13.590  1.00  0.00    -0.068 C 
HETATM    9  C22 UNL     1      -9.357   5.914  12.989  1.00  0.00     0.053 C 
HETATM   10  C23 UNL     1     -10.179   7.032  13.507  1.00  0.00     0.149 C 
HETATM   11  O8  UNL     1     -11.258   7.287  12.980  1.00  0.00    -0.293 OA
HETATM   12  C24 UNL     1      -9.588   7.883  14.602  1.00  0.00     0.084 C 
HETATM   13  C25 UNL     1      -8.827   7.001  15.575  1.00  0.00     0.022 C 
HETATM   14  C26 UNL     1      -7.703   6.154  14.910  1.00  0.00    -0.016 C 
HETATM   15  C27 UNL     1      -7.380   5.031  15.931  1.00  0.00     0.020 C 
HETATM   16  C28 UNL     1      -6.425   6.988  14.538  1.00  0.00     0.002 C 
HETATM   17  C29 UNL     1      -5.801   7.771  15.722  1.00  0.00     0.007 C 
HETATM   18  C30 UNL     1      -4.516   8.535  15.346  1.00  0.00     0.010 C 
HETATM   19  C31 UNL     1      -3.482   7.628  14.660  1.00  0.00    -0.034 C 
HETATM   20  C32 UNL     1      -2.977   6.584  15.677  1.00  0.00     0.016 C 
ENDROOT
BRANCH   2  21
HETATM   21  O3  UNL     1      -0.636   6.770  13.130  1.00  0.00    -0.353 OA
BRANCH  21  22
HETATM   22  C11 UNL     1       0.376   6.954  12.131  1.00  0.00     0.291 C 
HETATM   23  O4  UNL     1       0.402   5.841  11.242  1.00  0.00    -0.356 OA
HETATM   24  C12 UNL     1       1.409   5.968  10.247  1.00  0.00     0.205 C 
HETATM   25  C13 UNL     1       2.796   5.992  10.879  1.00  0.00     0.173 C 
HETATM   26  C14 UNL     1       2.899   7.129  11.900  1.00  0.00     0.182 C 
HETATM   27  C15 UNL     1       1.717   7.131  12.876  1.00  0.00     0.204 C 
BRANCH  25  28
HETATM   28  O5  UNL     1       3.818   6.142   9.886  1.00  0.00    -0.391 OA
HETATM   29  H24 UNL     1       3.682   6.990   9.426  1.00  0.00     0.210 HD
ENDBRANCH  25  28
BRANCH  26  30
HETATM   30  O6  UNL     1       4.142   6.990  12.609  1.00  0.00    -0.390 OA
HETATM   31  H26 UNL     1       4.828   6.831  11.935  1.00  0.00     0.210 HD
ENDBRANCH  26  30
BRANCH  27  32
HETATM   32  O7  UNL     1       1.703   8.385  13.586  1.00  0.00    -0.388 OA
HETATM   33  H28 UNL     1       0.903   8.360  14.161  1.00  0.00     0.210 HD
ENDBRANCH  27  32
ENDBRANCH  21  22
ENDBRANCH   2  21
BRANCH   1  34
HETATM   34  C7  UNL     1      -1.280   9.184  14.778  1.00  0.00     0.017 C 
HETATM   35  C8  UNL     1      -1.152   8.526  16.165  1.00  0.00     0.013 C 
BRANCH  34  36
HETATM   36  C6  UNL     1      -1.439  10.727  14.910  1.00  0.00     0.122 C 
BRANCH  36  37
HETATM   37  C5  UNL     1      -2.751  11.141  15.612  1.00  0.00     0.032 C 
BRANCH  37  38
HETATM   38  C4  UNL     1      -2.610  11.367  17.124  1.00  0.00     0.009 C 
BRANCH  38  39
HETATM   39  C2  UNL     1      -2.851  12.831  17.546  1.00  0.00     0.005 C 
HETATM   40  C1  UNL     1      -1.741  13.344  18.467  1.00  0.00     0.012 C 
BRANCH  39  41
HETATM   41  C3  UNL     1      -4.221  12.978  18.230  1.00  0.00     0.168 C 
BRANCH  41  42
HETATM   42  O1  UNL     1      -4.301  12.155  19.384  1.00  0.00    -0.400 OA
HETATM   43  H7  UNL     1      -5.175  12.308  19.783  1.00  0.00     0.209 HD
ENDBRANCH  41  42
ENDBRANCH  39  41
ENDBRANCH  38  39
ENDBRANCH  37  38
ENDBRANCH  36  37
BRANCH  36  44
HETATM   44  O2  UNL     1      -1.459  11.354  13.621  1.00  0.00    -0.395 OA
HETATM   45  H13 UNL     1      -1.453  12.316  13.784  1.00  0.00     0.210 HD
ENDBRANCH  36  44
ENDBRANCH  34  36
ENDBRANCH   1  34
TORSDOF 13
ENDMDL
MODEL 7
REMARK minimizedAffinity -9.12260342
REMARK CNNscore 0.390583158
REMARK CNNaffinity 6.90040207
REMARK  13 active torsions:
REMARK  status: ('A' for Active; 'I' for Inactive)
REMARK    1  A    between atoms: C2_2  and  C3_3 
REMARK    2  A    between atoms: C2_2  and  C4_5 
REMARK    3  A    between atoms: C3_3  and  O1_4 
REMARK    4  A    between atoms: C4_5  and  C5_6 
REMARK    5  A    between atoms: C5_6  and  C6_7 
REMARK    6  A    between atoms: C6_7  and  O2_8 
REMARK    7  A    between atoms: C6_7  and  C7_9 
REMARK    8  A    between atoms: C7_9  and  C9_11 
REMARK    9  A    between atoms: C10_12  and  O3_13 
REMARK   10  A    between atoms: O3_13  and  C11_14 
REMARK   11  A    between atoms: C13_17  and  O5_18 
REMARK   12  A    between atoms: C14_19  and  O6_20 
REMARK   13  A    between atoms: C15_21  and  O7_22 
ROOT
HETATM    1  C9  UNL     1      -2.330   9.354  14.104  1.00  0.00     0.029 C 
HETATM    2  C10 UNL     1      -1.657   8.317  13.153  1.00  0.00     0.130 C 
HETATM    3  C16 UNL     1      -2.637   7.121  13.085  1.00  0.00     0.038 C 
HETATM    4  C17 UNL     1      -3.925   7.655  13.697  1.00  0.00     0.001 C 
HETATM    5  C18 UNL     1      -5.010   6.660  14.121  1.00  0.00    -0.004 C 
HETATM    6  C19 UNL     1      -5.428   5.735  12.962  1.00  0.00     0.010 C 
HETATM    7  C20 UNL     1      -6.608   4.833  13.331  1.00  0.00     0.035 C 
HETATM    8  C21 UNL     1      -7.736   5.688  13.858  1.00  0.00    -0.068 C 
HETATM    9  C22 UNL     1      -8.879   5.795  13.157  1.00  0.00     0.053 C 
HETATM   10  C23 UNL     1      -9.878   6.842  13.475  1.00  0.00     0.149 C 
HETATM   11  O8  UNL     1     -10.943   6.869  12.863  1.00  0.00    -0.293 OA
HETATM   12  C24 UNL     1      -9.484   7.903  14.469  1.00  0.00     0.084 C 
HETATM   13  C25 UNL     1      -8.680   7.273  15.592  1.00  0.00     0.022 C 
HETATM   14  C26 UNL     1      -7.409   6.516  15.107  1.00  0.00    -0.016 C 
HETATM   15  C27 UNL     1      -7.007   5.594  16.287  1.00  0.00     0.020 C 
HETATM   16  C28 UNL     1      -6.232   7.469  14.687  1.00  0.00     0.002 C 
HETATM   17  C29 UNL     1      -5.802   8.480  15.781  1.00  0.00     0.007 C 
HETATM   18  C30 UNL     1      -4.610   9.365  15.368  1.00  0.00     0.010 C 
HETATM   19  C31 UNL     1      -3.418   8.534  14.867  1.00  0.00    -0.034 C 
HETATM   20  C32 UNL     1      -2.847   7.714  16.041  1.00  0.00     0.016 C 
ENDROOT
BRANCH   2  21
HETATM   21  O3  UNL     1      -0.384   7.901  13.613  1.00  0.00    -0.353 OA
BRANCH  21  22
HETATM   22  C11 UNL     1       0.548   7.648  12.554  1.00  0.00     0.291 C 
HETATM   23  O4  UNL     1       0.018   8.098  11.310  1.00  0.00    -0.356 OA
HETATM   24  C12 UNL     1       0.900   7.844  10.224  1.00  0.00     0.205 C 
HETATM   25  C13 UNL     1       1.113   6.347  10.036  1.00  0.00     0.173 C 
HETATM   26  C14 UNL     1       1.649   5.717  11.325  1.00  0.00     0.182 C 
HETATM   27  C15 UNL     1       0.824   6.129  12.550  1.00  0.00     0.204 C 
BRANCH  25  28
HETATM   28  O5  UNL     1       2.018   6.082   8.957  1.00  0.00    -0.391 OA
HETATM   29  H24 UNL     1       2.880   6.484   9.168  1.00  0.00     0.210 HD
ENDBRANCH  25  28
BRANCH  26  30
HETATM   30  O6  UNL     1       1.644   4.288  11.167  1.00  0.00    -0.390 OA
HETATM   31  H26 UNL     1       2.038   4.105  10.294  1.00  0.00     0.210 HD
ENDBRANCH  26  30
BRANCH  27  32
HETATM   32  O7  UNL     1       1.554   5.777  13.741  1.00  0.00    -0.388 OA
HETATM   33  H28 UNL     1       1.011   6.103  14.496  1.00  0.00     0.210 HD
ENDBRANCH  27  32
ENDBRANCH  21  22
ENDBRANCH   2  21
BRANCH   1  34
HETATM   34  C7  UNL     1      -1.460  10.391  14.878  1.00  0.00     0.017 C 
HETATM   35  C8  UNL     1      -1.765  11.802  14.337  1.00  0.00     0.013 C 
BRANCH  34  36
HETATM   36  C6  UNL     1       0.076  10.157  14.976  1.00  0.00     0.122 C 
BRANCH  36  37
HETATM   37  C5  UNL     1       0.554   9.879  16.418  1.00  0.00     0.032 C 
BRANCH  37  38
HETATM   38  C4  UNL     1      -0.368  10.448  17.505  1.00  0.00     0.009 C 
BRANCH  38  39
HETATM   39  C2  UNL     1       0.369  10.767  18.823  1.00  0.00     0.005 C 
HETATM   40  C1  UNL     1      -0.086  12.104  19.417  1.00  0.00     0.012 C 
BRANCH  39  41
HETATM   41  C3  UNL     1       1.891  10.773  18.604  1.00  0.00     0.168 C 
BRANCH  41  42
HETATM   42  O1  UNL     1       2.512   9.730  19.341  1.00  0.00    -0.400 OA
HETATM   43  H7  UNL     1       3.464   9.770  19.145  1.00  0.00     0.209 HD
ENDBRANCH  41  42
ENDBRANCH  39  41
ENDBRANCH  38  39
ENDBRANCH  37  38
ENDBRANCH  36  37
BRANCH  36  44
HETATM   44  O2  UNL     1       0.801  11.311  14.530  1.00  0.00    -0.395 OA
HETATM   45  H13 UNL     1       1.742  11.055  14.518  1.00  0.00     0.210 HD
ENDBRANCH  36  44
ENDBRANCH  34  36
ENDBRANCH   1  34
TORSDOF 13
ENDMDL
MODEL 8
REMARK minimizedAffinity -6.84839058
REMARK CNNscore 0.368470848
REMARK CNNaffinity 6.68319702
REMARK  13 active torsions:
REMARK  status: ('A' for Active; 'I' for Inactive)
REMARK    1  A    between atoms: C2_2  and  C3_3 
REMARK    2  A    between atoms: C2_2  and  C4_5 
REMARK    3  A    between atoms: C3_3  and  O1_4 
REMARK    4  A    between atoms: C4_5  and  C5_6 
REMARK    5  A    between atoms: C5_6  and  C6_7 
REMARK    6  A    between atoms: C6_7  and  O2_8 
REMARK    7  A    between atoms: C6_7  and  C7_9 
REMARK    8  A    between atoms: C7_9  and  C9_11 
REMARK    9  A    between atoms: C10_12  and  O3_13 
REMARK   10  A    between atoms: O3_13  and  C11_14 
REMARK   11  A    between atoms: C13_17  and  O5_18 
REMARK   12  A    between atoms: C14_19  and  O6_20 
REMARK   13  A    between atoms: C15_21  and  O7_22 
ROOT
HETATM    1  C9  UNL     1      -0.393  10.714  18.023  1.00  0.00     0.029 C 
HETATM    2  C10 UNL     1      -1.713  11.496  18.302  1.00  0.00     0.130 C 
HETATM    3  C16 UNL     1      -2.661  11.140  17.131  1.00  0.00     0.038 C 
HETATM    4  C17 UNL     1      -1.991   9.952  16.453  1.00  0.00     0.001 C 
HETATM    5  C18 UNL     1      -2.451   9.545  15.049  1.00  0.00    -0.004 C 
HETATM    6  C19 UNL     1      -3.967   9.280  14.995  1.00  0.00     0.010 C 
HETATM    7  C20 UNL     1      -4.418   8.737  13.637  1.00  0.00     0.035 C 
HETATM    8  C21 UNL     1      -3.581   7.529  13.288  1.00  0.00    -0.068 C 
HETATM    9  C22 UNL     1      -4.152   6.312  13.232  1.00  0.00     0.053 C 
HETATM   10  C23 UNL     1      -3.330   5.080  13.194  1.00  0.00     0.149 C 
HETATM   11  O8  UNL     1      -3.879   3.989  13.071  1.00  0.00    -0.293 OA
HETATM   12  C24 UNL     1      -1.848   5.224  13.422  1.00  0.00     0.084 C 
HETATM   13  C25 UNL     1      -1.347   6.479  12.729  1.00  0.00     0.022 C 
HETATM   14  C26 UNL     1      -2.071   7.779  13.183  1.00  0.00    -0.016 C 
HETATM   15  C27 UNL     1      -1.764   8.824  12.079  1.00  0.00     0.020 C 
HETATM   16  C28 UNL     1      -1.626   8.285  14.602  1.00  0.00     0.002 C 
HETATM   17  C29 UNL     1      -0.099   8.507  14.756  1.00  0.00     0.007 C 
HETATM   18  C30 UNL     1       0.308   9.057  16.136  1.00  0.00     0.010 C 
HETATM   19  C31 UNL     1      -0.487  10.316  16.515  1.00  0.00    -0.034 C 
HETATM   20  C32 UNL     1      -0.097  11.463  15.561  1.00  0.00     0.016 C 
ENDROOT
BRANCH   2  21
HETATM   21  O3  UNL     1      -1.512  12.896  18.379  1.00  0.00    -0.353 OA
BRANCH  21  22
HETATM   22  C11 UNL     1      -2.259  13.520  19.432  1.00  0.00     0.291 C 
HETATM   23  O4  UNL     1      -3.595  13.772  19.007  1.00  0.00    -0.356 OA
HETATM   24  C12 UNL     1      -4.369  14.414  20.012  1.00  0.00     0.205 C 
HETATM   25  C13 UNL     1      -3.800  15.790  20.339  1.00  0.00     0.173 C 
HETATM   26  C14 UNL     1      -2.337  15.673  20.776  1.00  0.00     0.182 C 
HETATM   27  C15 UNL     1      -1.514  14.821  19.803  1.00  0.00     0.204 C 
BRANCH  25  28
HETATM   28  O5  UNL     1      -4.560  16.437  21.367  1.00  0.00    -0.391 OA
HETATM   29  H24 UNL     1      -4.517  15.894  22.175  1.00  0.00     0.210 HD
ENDBRANCH  25  28
BRANCH  26  30
HETATM   30  O6  UNL     1      -1.788  16.998  20.878  1.00  0.00    -0.390 OA
HETATM   31  H26 UNL     1      -2.439  17.529  21.373  1.00  0.00     0.210 HD
ENDBRANCH  26  30
BRANCH  27  32
HETATM   32  O7  UNL     1      -0.259  14.487  20.425  1.00  0.00    -0.388 OA
HETATM   33  H28 UNL     1       0.211  13.901  19.786  1.00  0.00     0.210 HD
ENDBRANCH  27  32
ENDBRANCH  21  22
ENDBRANCH   2  21
BRANCH   1  34
HETATM   34  C7  UNL     1       0.961  11.224  18.605  1.00  0.00     0.017 C 
HETATM   35  C8  UNL     1       2.109  10.393  18.000  1.00  0.00     0.013 C 
BRANCH  34  36
HETATM   36  C6  UNL     1       1.116  11.340  20.149  1.00  0.00     0.122 C 
BRANCH  36  37
HETATM   37  C5  UNL     1       2.521  11.818  20.581  1.00  0.00     0.032 C 
BRANCH  37  38
HETATM   38  C4  UNL     1       3.245  10.858  21.534  1.00  0.00     0.009 C 
BRANCH  38  39
HETATM   39  C2  UNL     1       3.695  11.529  22.849  1.00  0.00     0.005 C 
HETATM   40  C1  UNL     1       2.993  12.872  23.068  1.00  0.00     0.012 C 
BRANCH  39  41
HETATM   41  C3  UNL     1       5.221  11.717  22.865  1.00  0.00     0.168 C 
BRANCH  41  42
HETATM   42  O1  UNL     1       5.581  12.978  22.320  1.00  0.00    -0.400 OA
HETATM   43  H7  UNL     1       6.549  13.049  22.378  1.00  0.00     0.209 HD
ENDBRANCH  41  42
ENDBRANCH  39  41
ENDBRANCH  38  39
ENDBRANCH  37  38
ENDBRANCH  36  37
BRANCH  36  44
HETATM   44  O2  UNL     1       0.914  10.071  20.783  1.00  0.00    -0.395 OA
HETATM   45  H13 UNL     1       0.921  10.240  21.744  1.00  0.00     0.210 HD
ENDBRANCH  36  44
ENDBRANCH  34  36
ENDBRANCH   1  34
TORSDOF 13
ENDMDL
MODEL 9
REMARK minimizedAffinity -7.00191116
REMARK CNNscore 0.350594819
REMARK CNNaffinity 6.3617177
REMARK  13 active torsions:
REMARK  status: ('A' for Active; 'I' for Inactive)
REMARK    1  A    between atoms: C2_2  and  C3_3 
REMARK    2  A    between atoms: C2_2  and  C4_5 
REMARK    3  A    between atoms: C3_3  and  O1_4 
REMARK    4  A    between atoms: C4_5  and  C5_6 
REMARK    5  A    between atoms: C5_6  and  C6_7 
REMARK    6  A    between atoms: C6_7  and  O2_8 
REMARK    7  A    between atoms: C6_7  and  C7_9 
REMARK    8  A    between atoms: C7_9  and  C9_11 
REMARK    9  A    between atoms: C10_12  and  O3_13 
REMARK   10  A    between atoms: O3_13  and  C11_14 
REMARK   11  A    between atoms: C13_17  and  O5_18 
REMARK   12  A    between atoms: C14_19  and  O6_20 
REMARK   13  A    between atoms: C15_21  and  O7_22 
ROOT
HETATM    1  C9  UNL     1     -10.243  -8.691   6.190  1.00  0.00     0.029 C 
HETATM    2  C10 UNL     1      -8.754  -8.838   6.629  1.00  0.00     0.130 C 
HETATM    3  C16 UNL     1      -7.989  -9.279   5.359  1.00  0.00     0.038 C 
HETATM    4  C17 UNL     1      -8.975  -9.037   4.224  1.00  0.00     0.001 C 
HETATM    5  C18 UNL     1      -8.705  -9.680   2.859  1.00  0.00    -0.004 C 
HETATM    6  C19 UNL     1      -7.312  -9.310   2.314  1.00  0.00     0.010 C 
HETATM    7  C20 UNL     1      -7.084  -9.828   0.892  1.00  0.00     0.035 C 
HETATM    8  C21 UNL     1      -8.220  -9.364   0.011  1.00  0.00    -0.068 C 
HETATM    9  C22 UNL     1      -7.986  -8.478  -0.973  1.00  0.00     0.053 C 
HETATM   10  C23 UNL     1      -9.099  -7.777  -1.655  1.00  0.00     0.149 C 
HETATM   11  O8  UNL     1      -8.857  -7.027  -2.597  1.00  0.00    -0.293 OA
HETATM   12  C24 UNL     1     -10.481  -7.935  -1.076  1.00  0.00     0.084 C 
HETATM   13  C25 UNL     1     -10.675  -9.367  -0.609  1.00  0.00     0.022 C 
HETATM   14  C26 UNL     1      -9.618  -9.837   0.433  1.00  0.00    -0.016 C 
HETATM   15  C27 UNL     1      -9.698 -11.386   0.426  1.00  0.00     0.020 C 
HETATM   16  C28 UNL     1      -9.848  -9.249   1.872  1.00  0.00     0.002 C 
HETATM   17  C29 UNL     1     -11.256  -9.521   2.459  1.00  0.00     0.007 C 
HETATM   18  C30 UNL     1     -11.440  -8.985   3.892  1.00  0.00     0.010 C 
HETATM   19  C31 UNL     1     -10.329  -9.469   4.838  1.00  0.00    -0.034 C 
HETATM   20  C32 UNL     1     -10.456 -10.994   5.023  1.00  0.00     0.016 C 
ENDROOT
BRANCH   2  21
HETATM   21  O3  UNL     1      -8.584  -9.780   7.673  1.00  0.00    -0.353 OA
BRANCH  21  22
HETATM   22  C11 UNL     1      -7.526  -9.440   8.579  1.00  0.00     0.291 C 
HETATM   23  O4  UNL     1      -6.867 -10.618   9.036  1.00  0.00    -0.356 OA
HETATM   24  C12 UNL     1      -5.824 -10.330   9.958  1.00  0.00     0.205 C 
HETATM   25  C13 UNL     1      -6.379  -9.682  11.220  1.00  0.00     0.173 C 
HETATM   26  C14 UNL     1      -7.156  -8.409  10.871  1.00  0.00     0.182 C 
HETATM   27  C15 UNL     1      -8.165  -8.646   9.739  1.00  0.00     0.204 C 
BRANCH  25  28
HETATM   28  O5  UNL     1      -5.333  -9.368  12.147  1.00  0.00    -0.391 OA
HETATM   29  H24 UNL     1      -4.724  -8.734  11.726  1.00  0.00     0.210 HD
ENDBRANCH  25  28
BRANCH  26  30
HETATM   30  O6  UNL     1      -7.826  -7.947  12.056  1.00  0.00    -0.390 OA
HETATM   31  H26 UNL     1      -7.165  -7.974  12.774  1.00  0.00     0.210 HD
ENDBRANCH  26  30
BRANCH  27  32
HETATM   32  O7  UNL     1      -8.619  -7.371   9.248  1.00  0.00    -0.388 OA
HETATM   33  H28 UNL     1      -9.222  -7.572   8.495  1.00  0.00     0.210 HD
ENDBRANCH  27  32
ENDBRANCH  21  22
ENDBRANCH   2  21
BRANCH   1  34
HETATM   34  C7  UNL     1     -11.390  -8.834   7.238  1.00  0.00     0.017 C 
HETATM   35  C8  UNL     1     -11.692 -10.330   7.447  1.00  0.00     0.013 C 
BRANCH  34  36
HETATM   36  C6  UNL     1     -12.704  -8.029   7.025  1.00  0.00     0.122 C 
BRANCH  36  37
HETATM   37  C5  UNL     1     -13.022  -7.069   8.193  1.00  0.00     0.032 C 
BRANCH  37  38
HETATM   38  C4  UNL     1     -14.276  -6.211   7.976  1.00  0.00     0.009 C 
BRANCH  38  39
HETATM   39  C2  UNL     1     -13.959  -4.783   7.482  1.00  0.00     0.005 C 
HETATM   40  C1  UNL     1     -14.028  -3.762   8.621  1.00  0.00     0.012 C 
BRANCH  39  41
HETATM   41  C3  UNL     1     -14.915  -4.379   6.347  1.00  0.00     0.168 C 
BRANCH  41  42
HETATM   42  O1  UNL     1     -14.220  -4.279   5.113  1.00  0.00    -0.400 OA
HETATM   43  H7  UNL     1     -14.876  -4.045   4.434  1.00  0.00     0.209 HD
ENDBRANCH  41  42
ENDBRANCH  39  41
ENDBRANCH  38  39
ENDBRANCH  37  38
ENDBRANCH  36  37
BRANCH  36  44
HETATM   44  O2  UNL     1     -13.832  -8.907   6.912  1.00  0.00    -0.395 OA
HETATM   45  H13 UNL     1     -14.594  -8.345   6.675  1.00  0.00     0.210 HD
ENDBRANCH  36  44
ENDBRANCH  34  36
ENDBRANCH   1  34
TORSDOF 13
ENDMDL
