MODEL 1
REMARK minimizedAffinity -9.6391201
REMARK  10 active torsions:
REMARK  status: ('A' for Active; 'I' for Inactive)
REMARK    1  A    between atoms: C2_2  and  C3_3 
REMARK    2  A    between atoms: C3_3  and  N1_4 
REMARK    3  A    between atoms: N1_4  and  C4_5 
REMARK    4  A    between atoms: C9_12  and  C11_14 
REMARK    5  A    between atoms: C11_14  and  O1_15 
REMARK    6  A    between atoms: C12_16  and  O2_17 
REMARK    7  A    between atoms: C17_22  and  C18_23 
REMARK    8  A    between atoms: C18_23  and  C19_24 
REMARK       I    between atoms: C19_24  and  N3_26 
REMARK    9  A    between atoms: N3_26  and  C20_27 
REMARK   10  A    between atoms: C20_27  and  C22_29 
ROOT
HETATM    1  C4  UNL     1       0.970  52.934 -19.999  1.00  0.00     0.145 A 
HETATM    2  N2  UNL     1       0.170  51.938 -20.309  1.00  0.00    -0.339 N 
ATOM      3  H2  UNL     1      -0.179  51.244 -19.649  1.00  0.00     0.168 HD
HETATM    4  C5  UNL     1      -0.128  51.964 -21.658  1.00  0.00     0.030 A 
HETATM    5  C6  UNL     1       0.490  52.975 -22.366  1.00  0.00     0.009 A 
HETATM    6  C7  UNL     1       0.364  53.221 -23.837  1.00  0.00     0.054 C 
HETATM    7  C8  UNL     1      -0.222  51.950 -24.509  1.00  0.00     0.012 C 
HETATM    8  C9  UNL     1      -0.282  51.924 -26.095  1.00  0.00     0.008 C 
HETATM    9  C10 UNL     1       0.495  50.661 -26.579  1.00  0.00     0.020 C 
HETATM   10  C12 UNL     1      -1.732  51.808 -26.639  1.00  0.00     0.128 C 
HETATM   11  C13 UNL     1      -2.573  50.707 -25.985  1.00  0.00     0.033 C 
HETATM   12  C14 UNL     1      -2.182  50.335 -24.552  1.00  0.00     0.013 C 
HETATM   13  C15 UNL     1      -1.525  51.462 -23.732  1.00  0.00    -0.030 C 
HETATM   14  C16 UNL     1      -2.559  52.601 -23.506  1.00  0.00     0.016 C 
HETATM   15  C17 UNL     1      -1.035  50.920 -22.297  1.00  0.00     0.054 C 
HETATM   16  S1  UNL     1       1.423  53.943 -21.325  1.00  0.00    -0.057 SA
ENDROOT
BRANCH  15  17
HETATM   17  C18 UNL     1      -2.162  50.493 -21.332  1.00  0.00     0.114 C 
BRANCH  17  18
HETATM   18  C19 UNL     1      -2.769  49.142 -21.659  1.00  0.00     0.218 C 
HETATM   19  O3  UNL     1      -2.112  48.160 -21.986  1.00  0.00    -0.274 OA
HETATM   20  N3  UNL     1      -4.142  49.134 -21.529  1.00  0.00    -0.353 N 
HETATM   21  H28 UNL     1      -4.564  49.890 -21.007  1.00  0.00     0.163 HD
BRANCH  20  22
HETATM   22  C20 UNL     1      -4.914  47.905 -21.643  1.00  0.00     0.113 C 
HETATM   23  C21 UNL     1      -4.039  46.707 -21.269  1.00  0.00     0.037 C 
BRANCH  22  24
HETATM   24  C22 UNL     1      -5.522  47.816 -23.032  1.00  0.00    -0.036 A 
HETATM   25  C23 UNL     1      -6.772  47.193 -23.191  1.00  0.00     0.009 A 
HETATM   26  C24 UNL     1      -7.375  47.103 -24.446  1.00  0.00     0.001 A 
HETATM   27  C25 UNL     1      -6.745  47.645 -25.562  1.00  0.00     0.000 A 
HETATM   28  C26 UNL     1      -5.515  48.285 -25.421  1.00  0.00     0.001 A 
HETATM   29  C27 UNL     1      -4.909  48.374 -24.165  1.00  0.00     0.009 A 
ENDBRANCH  22  24
ENDBRANCH  20  22
ENDBRANCH  17  18
ENDBRANCH  15  17
BRANCH   1  30
HETATM   30  N1  UNL     1       1.443  53.196 -18.760  1.00  0.00    -0.367 N 
HETATM   31  H6  UNL     1       2.406  53.506 -18.715  1.00  0.00     0.161 HD
BRANCH  30  32
HETATM   32  C3  UNL     1       1.048  52.313 -17.686  1.00  0.00     0.148 C 
BRANCH  32  33
HETATM   33  C2  UNL     1       1.927  52.634 -16.514  1.00  0.00    -0.018 C 
HETATM   34  C1  UNL     1       3.267  52.621 -16.536  1.00  0.00     0.008 C 
ENDBRANCH  32  33
ENDBRANCH  30  32
ENDBRANCH   1  30
BRANCH   8  35
HETATM   35  C11 UNL     1       0.445  53.117 -26.775  1.00  0.00     0.176 C 
BRANCH  35  36
HETATM   36  O1  UNL     1      -0.148  54.360 -26.420  1.00  0.00    -0.400 OA
HETATM   37  H15 UNL     1       0.365  55.058 -26.871  1.00  0.00     0.209 HD
ENDBRANCH  35  36
ENDBRANCH   8  35
BRANCH  10  38
HETATM   38  O2  UNL     1      -2.468  53.028 -26.546  1.00  0.00    -0.395 OA
HETATM   39  H17 UNL     1      -1.824  53.767 -26.529  1.00  0.00     0.210 HD
ENDBRANCH  10  38
TORSDOF 10
ENDMDL
MODEL 2
REMARK minimizedAffinity -9.44042969
REMARK  10 active torsions:
REMARK  status: ('A' for Active; 'I' for Inactive)
REMARK    1  A    between atoms: C2_2  and  C3_3 
REMARK    2  A    between atoms: C3_3  and  N1_4 
REMARK    3  A    between atoms: N1_4  and  C4_5 
REMARK    4  A    between atoms: C9_12  and  C11_14 
REMARK    5  A    between atoms: C11_14  and  O1_15 
REMARK    6  A    between atoms: C12_16  and  O2_17 
REMARK    7  A    between atoms: C17_22  and  C18_23 
REMARK    8  A    between atoms: C18_23  and  C19_24 
REMARK       I    between atoms: C19_24  and  N3_26 
REMARK    9  A    between atoms: N3_26  and  C20_27 
REMARK   10  A    between atoms: C20_27  and  C22_29 
ROOT
HETATM    1  C4  UNL     1      -0.407  53.335 -25.289  1.00  0.00     0.145 A 
HETATM    2  N2  UNL     1      -1.676  53.159 -24.997  1.00  0.00    -0.339 N 
ATOM      3  H2  UNL     1      -2.456  53.515 -25.550  1.00  0.00     0.168 HD
HETATM    4  C5  UNL     1      -1.804  52.424 -23.834  1.00  0.00     0.030 A 
HETATM    5  C6  UNL     1      -0.609  52.082 -23.233  1.00  0.00     0.009 A 
HETATM    6  C7  UNL     1      -0.455  51.313 -21.958  1.00  0.00     0.054 C 
HETATM    7  C8  UNL     1      -1.813  51.315 -21.206  1.00  0.00     0.012 C 
HETATM    8  C9  UNL     1      -1.837  50.703 -19.741  1.00  0.00     0.008 C 
HETATM    9  C10 UNL     1      -2.387  51.799 -18.776  1.00  0.00     0.020 C 
HETATM   10  C12 UNL     1      -2.776  49.471 -19.621  1.00  0.00     0.128 C 
HETATM   11  C13 UNL     1      -4.174  49.675 -20.213  1.00  0.00     0.033 C 
HETATM   12  C14 UNL     1      -4.272  50.698 -21.349  1.00  0.00     0.013 C 
HETATM   13  C15 UNL     1      -2.992  50.882 -22.186  1.00  0.00    -0.030 C 
HETATM   14  C16 UNL     1      -2.689  49.565 -22.955  1.00  0.00     0.016 C 
HETATM   15  C17 UNL     1      -3.169  52.073 -23.255  1.00  0.00     0.054 C 
HETATM   16  S1  UNL     1       0.702  52.642 -24.160  1.00  0.00    -0.057 SA
ENDROOT
BRANCH  15  17
HETATM   17  C18 UNL     1      -4.199  51.808 -24.374  1.00  0.00     0.114 C 
BRANCH  17  18
HETATM   18  C19 UNL     1      -3.755  50.763 -25.379  1.00  0.00     0.218 C 
HETATM   19  O3  UNL     1      -2.887  50.954 -26.224  1.00  0.00    -0.274 OA
HETATM   20  N3  UNL     1      -4.422  49.565 -25.226  1.00  0.00    -0.353 N 
HETATM   21  H28 UNL     1      -4.912  49.415 -24.355  1.00  0.00     0.163 HD
BRANCH  20  22
HETATM   22  C20 UNL     1      -4.046  48.379 -25.980  1.00  0.00     0.113 C 
HETATM   23  C21 UNL     1      -2.610  48.521 -26.490  1.00  0.00     0.037 C 
BRANCH  22  24
HETATM   24  C22 UNL     1      -5.068  48.131 -27.077  1.00  0.00    -0.036 A 
HETATM   25  C23 UNL     1      -6.388  47.807 -26.718  1.00  0.00     0.009 A 
HETATM   26  C24 UNL     1      -7.363  47.587 -27.691  1.00  0.00     0.001 A 
HETATM   27  C25 UNL     1      -7.039  47.700 -29.039  1.00  0.00     0.000 A 
HETATM   28  C26 UNL     1      -5.741  48.041 -29.414  1.00  0.00     0.001 A 
HETATM   29  C27 UNL     1      -4.764  48.260 -28.440  1.00  0.00     0.009 A 
ENDBRANCH  22  24
ENDBRANCH  20  22
ENDBRANCH  17  18
ENDBRANCH  15  17
BRANCH   1  30
HETATM   30  N1  UNL     1       0.059  54.004 -26.367  1.00  0.00    -0.367 N 
HETATM   31  H6  UNL     1       0.157  55.005 -26.253  1.00  0.00     0.161 HD
BRANCH  30  32
HETATM   32  C3  UNL     1      -0.410  53.594 -27.671  1.00  0.00     0.148 C 
BRANCH  32  33
HETATM   33  C2  UNL     1       0.092  52.199 -27.894  1.00  0.00    -0.018 C 
HETATM   34  C1  UNL     1       1.373  51.873 -28.120  1.00  0.00     0.008 C 
ENDBRANCH  32  33
ENDBRANCH  30  32
ENDBRANCH   1  30
BRANCH   8  35
HETATM   35  C11 UNL     1      -0.431  50.353 -19.178  1.00  0.00     0.176 C 
BRANCH  35  36
HETATM   36  O1  UNL     1       0.080  51.400 -18.364  1.00  0.00    -0.400 OA
HETATM   37  H15 UNL     1       0.953  51.107 -18.038  1.00  0.00     0.209 HD
ENDBRANCH  35  36
ENDBRANCH   8  35
BRANCH  10  38
HETATM   38  O2  UNL     1      -2.228  48.287 -20.200  1.00  0.00    -0.395 OA
HETATM   39  H17 UNL     1      -1.252  48.377 -20.204  1.00  0.00     0.210 HD
ENDBRANCH  10  38
TORSDOF 10
ENDMDL
MODEL 3
REMARK minimizedAffinity -9.07630825
REMARK  10 active torsions:
REMARK  status: ('A' for Active; 'I' for Inactive)
REMARK    1  A    between atoms: C2_2  and  C3_3 
REMARK    2  A    between atoms: C3_3  and  N1_4 
REMARK    3  A    between atoms: N1_4  and  C4_5 
REMARK    4  A    between atoms: C9_12  and  C11_14 
REMARK    5  A    between atoms: C11_14  and  O1_15 
REMARK    6  A    between atoms: C12_16  and  O2_17 
REMARK    7  A    between atoms: C17_22  and  C18_23 
REMARK    8  A    between atoms: C18_23  and  C19_24 
REMARK       I    between atoms: C19_24  and  N3_26 
REMARK    9  A    between atoms: N3_26  and  C20_27 
REMARK   10  A    between atoms: C20_27  and  C22_29 
ROOT
HETATM    1  C4  UNL     1       0.986  52.957 -20.055  1.00  0.00     0.145 A 
HETATM    2  N2  UNL     1       0.217  51.949 -20.400  1.00  0.00    -0.339 N 
ATOM      3  H2  UNL     1      -0.129  51.235 -19.759  1.00  0.00     0.168 HD
HETATM    4  C5  UNL     1      -0.055  51.993 -21.754  1.00  0.00     0.030 A 
HETATM    5  C6  UNL     1       0.553  53.031 -22.431  1.00  0.00     0.009 A 
HETATM    6  C7  UNL     1       0.451  53.302 -23.900  1.00  0.00     0.054 C 
HETATM    7  C8  UNL     1      -0.092  52.030 -24.606  1.00  0.00     0.012 C 
HETATM    8  C9  UNL     1      -0.119  52.032 -26.193  1.00  0.00     0.008 C 
HETATM    9  C10 UNL     1       0.697  50.796 -26.684  1.00  0.00     0.020 C 
HETATM   10  C12 UNL     1      -1.555  51.892 -26.769  1.00  0.00     0.128 C 
HETATM   11  C13 UNL     1      -2.383  50.761 -26.152  1.00  0.00     0.033 C 
HETATM   12  C14 UNL     1      -2.012  50.371 -24.718  1.00  0.00     0.013 C 
HETATM   13  C15 UNL     1      -1.398  51.498 -23.865  1.00  0.00    -0.030 C 
HETATM   14  C16 UNL     1      -2.463  52.607 -23.639  1.00  0.00     0.016 C 
HETATM   15  C17 UNL     1      -0.924  50.940 -22.431  1.00  0.00     0.054 C 
HETATM   16  S1  UNL     1       1.442  54.000 -21.354  1.00  0.00    -0.057 SA
ENDROOT
BRANCH  15  17
HETATM   17  C18 UNL     1      -2.060  50.469 -21.497  1.00  0.00     0.114 C 
BRANCH  17  18
HETATM   18  C19 UNL     1      -2.710  49.171 -21.931  1.00  0.00     0.218 C 
HETATM   19  O3  UNL     1      -2.120  48.098 -21.989  1.00  0.00    -0.274 OA
HETATM   20  N3  UNL     1      -4.047  49.324 -22.234  1.00  0.00    -0.353 N 
HETATM   21  H28 UNL     1      -4.505  50.164 -21.905  1.00  0.00     0.163 HD
BRANCH  20  22
HETATM   22  C20 UNL     1      -4.902  48.182 -22.522  1.00  0.00     0.113 C 
HETATM   23  C21 UNL     1      -5.294  48.188 -24.001  1.00  0.00     0.037 C 
BRANCH  22  24
HETATM   24  C22 UNL     1      -6.086  48.183 -21.571  1.00  0.00    -0.036 A 
HETATM   25  C23 UNL     1      -6.313  49.312 -20.765  1.00  0.00     0.009 A 
HETATM   26  C24 UNL     1      -7.398  49.362 -19.888  1.00  0.00     0.001 A 
HETATM   27  C25 UNL     1      -8.281  48.290 -19.811  1.00  0.00     0.000 A 
HETATM   28  C26 UNL     1      -8.084  47.170 -20.617  1.00  0.00     0.001 A 
HETATM   29  C27 UNL     1      -6.998  47.118 -21.494  1.00  0.00     0.009 A 
ENDBRANCH  22  24
ENDBRANCH  20  22
ENDBRANCH  17  18
ENDBRANCH  15  17
BRANCH   1  30
HETATM   30  N1  UNL     1       1.429  53.207 -18.803  1.00  0.00    -0.367 N 
HETATM   31  H6  UNL     1       2.429  53.332 -18.708  1.00  0.00     0.161 HD
BRANCH  30  32
HETATM   32  C3  UNL     1       0.809  52.488 -17.712  1.00  0.00     0.148 C 
BRANCH  32  33
HETATM   33  C2  UNL     1       1.907  52.108 -16.764  1.00  0.00    -0.018 C 
HETATM   34  C1  UNL     1       3.042  52.799 -16.590  1.00  0.00     0.008 C 
ENDBRANCH  32  33
ENDBRANCH  30  32
ENDBRANCH   1  30
BRANCH   8  35
HETATM   35  C11 UNL     1       0.593  53.254 -26.837  1.00  0.00     0.176 C 
BRANCH  35  36
HETATM   36  O1  UNL     1      -0.034  54.476 -26.469  1.00  0.00    -0.400 OA
HETATM   37  H15 UNL     1       0.472  55.194 -26.897  1.00  0.00     0.209 HD
ENDBRANCH  35  36
ENDBRANCH   8  35
BRANCH  10  38
HETATM   38  O2  UNL     1      -2.321  53.093 -26.669  1.00  0.00    -0.395 OA
HETATM   39  H17 UNL     1      -1.695  53.847 -26.625  1.00  0.00     0.210 HD
ENDBRANCH  10  38
TORSDOF 10
ENDMDL
MODEL 4
REMARK minimizedAffinity -9.01692009
REMARK  10 active torsions:
REMARK  status: ('A' for Active; 'I' for Inactive)
REMARK    1  A    between atoms: C2_2  and  C3_3 
REMARK    2  A    between atoms: C3_3  and  N1_4 
REMARK    3  A    between atoms: N1_4  and  C4_5 
REMARK    4  A    between atoms: C9_12  and  C11_14 
REMARK    5  A    between atoms: C11_14  and  O1_15 
REMARK    6  A    between atoms: C12_16  and  O2_17 
REMARK    7  A    between atoms: C17_22  and  C18_23 
REMARK    8  A    between atoms: C18_23  and  C19_24 
REMARK       I    between atoms: C19_24  and  N3_26 
REMARK    9  A    between atoms: N3_26  and  C20_27 
REMARK   10  A    between atoms: C20_27  and  C22_29 
ROOT
HETATM    1  C4  UNL     1       0.981  53.003 -20.015  1.00  0.00     0.145 A 
HETATM    2  N2  UNL     1       0.223  51.973 -20.320  1.00  0.00    -0.339 N 
ATOM      3  H2  UNL     1      -0.091  51.265 -19.657  1.00  0.00     0.168 HD
HETATM    4  C5  UNL     1      -0.086  51.986 -21.666  1.00  0.00     0.030 A 
HETATM    5  C6  UNL     1       0.483  53.023 -22.379  1.00  0.00     0.009 A 
HETATM    6  C7  UNL     1       0.336  53.262 -23.850  1.00  0.00     0.054 C 
HETATM    7  C8  UNL     1      -0.200  51.966 -24.516  1.00  0.00     0.012 C 
HETATM    8  C9  UNL     1      -0.269  51.937 -26.102  1.00  0.00     0.008 C 
HETATM    9  C10 UNL     1       0.558  50.708 -26.592  1.00  0.00     0.020 C 
HETATM   10  C12 UNL     1      -1.717  51.758 -26.636  1.00  0.00     0.128 C 
HETATM   11  C13 UNL     1      -2.505  50.622 -25.976  1.00  0.00     0.033 C 
HETATM   12  C14 UNL     1      -2.088  50.268 -24.545  1.00  0.00     0.013 C 
HETATM   13  C15 UNL     1      -1.475  51.423 -23.730  1.00  0.00    -0.030 C 
HETATM   14  C16 UNL     1      -2.555  52.516 -23.497  1.00  0.00     0.016 C 
HETATM   15  C17 UNL     1      -0.951  50.903 -22.299  1.00  0.00     0.054 C 
HETATM   16  S1  UNL     1       1.380  54.030 -21.345  1.00  0.00    -0.057 SA
ENDROOT
BRANCH  15  17
HETATM   17  C18 UNL     1      -2.052  50.429 -21.326  1.00  0.00     0.114 C 
BRANCH  17  18
HETATM   18  C19 UNL     1      -1.647  49.241 -20.476  1.00  0.00     0.218 C 
HETATM   19  O3  UNL     1      -0.965  48.309 -20.886  1.00  0.00    -0.274 OA
HETATM   20  N3  UNL     1      -2.114  49.333 -19.181  1.00  0.00    -0.353 N 
HETATM   21  H28 UNL     1      -2.428  50.240 -18.864  1.00  0.00     0.163 HD
BRANCH  20  22
HETATM   22  C20 UNL     1      -1.714  48.382 -18.154  1.00  0.00     0.113 C 
HETATM   23  C21 UNL     1      -2.861  47.410 -17.872  1.00  0.00     0.037 C 
BRANCH  22  24
HETATM   24  C22 UNL     1      -1.229  49.136 -16.928  1.00  0.00    -0.036 A 
HETATM   25  C23 UNL     1       0.067  48.887 -16.443  1.00  0.00     0.009 A 
HETATM   26  C24 UNL     1       0.560  49.568 -15.329  1.00  0.00     0.001 A 
HETATM   27  C25 UNL     1      -0.229  50.519 -14.689  1.00  0.00     0.000 A 
HETATM   28  C26 UNL     1      -1.508  50.794 -15.168  1.00  0.00     0.001 A 
HETATM   29  C27 UNL     1      -2.003  50.112 -16.281  1.00  0.00     0.009 A 
ENDBRANCH  22  24
ENDBRANCH  20  22
ENDBRANCH  17  18
ENDBRANCH  15  17
BRANCH   1  30
HETATM   30  N1  UNL     1       1.451  53.286 -18.780  1.00  0.00    -0.367 N 
HETATM   31  H6  UNL     1       2.410  53.609 -18.739  1.00  0.00     0.161 HD
BRANCH  30  32
HETATM   32  C3  UNL     1       1.067  52.413 -17.695  1.00  0.00     0.148 C 
BRANCH  32  33
HETATM   33  C2  UNL     1       1.949  52.752 -16.531  1.00  0.00    -0.018 C 
HETATM   34  C1  UNL     1       3.248  52.436 -16.437  1.00  0.00     0.008 C 
ENDBRANCH  32  33
ENDBRANCH  30  32
ENDBRANCH   1  30
BRANCH   8  35
HETATM   35  C11 UNL     1       0.400  53.160 -26.788  1.00  0.00     0.176 C 
BRANCH  35  36
HETATM   36  O1  UNL     1      -0.298  54.365 -26.503  1.00  0.00    -0.400 OA
HETATM   37  H15 UNL     1       0.184  55.086 -26.953  1.00  0.00     0.209 HD
ENDBRANCH  35  36
ENDBRANCH   8  35
BRANCH  10  38
HETATM   38  O2  UNL     1      -2.504  52.945 -26.538  1.00  0.00    -0.395 OA
HETATM   39  H17 UNL     1      -1.893  53.711 -26.526  1.00  0.00     0.210 HD
ENDBRANCH  10  38
TORSDOF 10
ENDMDL
MODEL 5
REMARK minimizedAffinity -8.81019688
REMARK  10 active torsions:
REMARK  status: ('A' for Active; 'I' for Inactive)
REMARK    1  A    between atoms: C2_2  and  C3_3 
REMARK    2  A    between atoms: C3_3  and  N1_4 
REMARK    3  A    between atoms: N1_4  and  C4_5 
REMARK    4  A    between atoms: C9_12  and  C11_14 
REMARK    5  A    between atoms: C11_14  and  O1_15 
REMARK    6  A    between atoms: C12_16  and  O2_17 
REMARK    7  A    between atoms: C17_22  and  C18_23 
REMARK    8  A    between atoms: C18_23  and  C19_24 
REMARK       I    between atoms: C19_24  and  N3_26 
REMARK    9  A    between atoms: N3_26  and  C20_27 
REMARK   10  A    between atoms: C20_27  and  C22_29 
ROOT
HETATM    1  C4  UNL     1      -1.211  51.252 -27.049  1.00  0.00     0.145 A 
HETATM    2  N2  UNL     1      -0.968  51.495 -25.781  1.00  0.00    -0.339 N 
ATOM      3  H2  UNL     1      -0.137  51.968 -25.427  1.00  0.00     0.168 HD
HETATM    4  C5  UNL     1      -1.999  51.017 -24.994  1.00  0.00     0.030 A 
HETATM    5  C6  UNL     1      -3.005  50.375 -25.689  1.00  0.00     0.009 A 
HETATM    6  C7  UNL     1      -4.222  49.743 -25.089  1.00  0.00     0.054 C 
HETATM    7  C8  UNL     1      -3.988  49.555 -23.566  1.00  0.00     0.012 C 
HETATM    8  C9  UNL     1      -5.085  48.743 -22.755  1.00  0.00     0.008 C 
HETATM    9  C10 UNL     1      -4.367  47.554 -22.043  1.00  0.00     0.020 C 
HETATM   10  C12 UNL     1      -5.767  49.595 -21.649  1.00  0.00     0.128 C 
HETATM   11  C13 UNL     1      -4.797  50.366 -20.749  1.00  0.00     0.033 C 
HETATM   12  C14 UNL     1      -3.452  50.733 -21.382  1.00  0.00     0.013 C 
HETATM   13  C15 UNL     1      -3.467  50.911 -22.912  1.00  0.00    -0.030 C 
HETATM   14  C16 UNL     1      -4.348  52.139 -23.276  1.00  0.00     0.016 C 
HETATM   15  C17 UNL     1      -1.980  51.158 -23.478  1.00  0.00     0.054 C 
HETATM   16  S1  UNL     1      -2.687  50.410 -27.359  1.00  0.00    -0.057 SA
ENDROOT
BRANCH  15  17
HETATM   17  C18 UNL     1      -1.323  52.488 -23.049  1.00  0.00     0.114 C 
BRANCH  17  18
HETATM   18  C19 UNL     1      -0.295  52.335 -21.945  1.00  0.00     0.218 C 
HETATM   19  O3  UNL     1       0.818  51.850 -22.112  1.00  0.00    -0.274 OA
HETATM   20  N3  UNL     1      -0.744  52.820 -20.734  1.00  0.00    -0.353 N 
HETATM   21  H28 UNL     1      -1.548  53.432 -20.748  1.00  0.00     0.163 HD
BRANCH  20  22
HETATM   22  C20 UNL     1       0.133  52.915 -19.576  1.00  0.00     0.113 C 
HETATM   23  C21 UNL     1       1.560  53.229 -20.030  1.00  0.00     0.037 C 
BRANCH  22  24
HETATM   24  C22 UNL     1       0.015  51.649 -18.746  1.00  0.00    -0.036 A 
HETATM   25  C23 UNL     1       0.581  51.621 -17.460  1.00  0.00     0.009 A 
HETATM   26  C24 UNL     1       0.483  50.484 -16.656  1.00  0.00     0.001 A 
HETATM   27  C25 UNL     1      -0.195  49.361 -17.118  1.00  0.00     0.000 A 
HETATM   28  C26 UNL     1      -0.782  49.377 -18.382  1.00  0.00     0.001 A 
HETATM   29  C27 UNL     1      -0.682  50.514 -19.189  1.00  0.00     0.009 A 
ENDBRANCH  22  24
ENDBRANCH  20  22
ENDBRANCH  17  18
ENDBRANCH  15  17
BRANCH   1  30
HETATM   30  N1  UNL     1      -0.404  51.598 -28.077  1.00  0.00    -0.367 N 
HETATM   31  H6  UNL     1      -0.126  50.842 -28.690  1.00  0.00     0.161 HD
BRANCH  30  32
HETATM   32  C3  UNL     1       0.631  52.574 -27.824  1.00  0.00     0.148 C 
BRANCH  32  33
HETATM   33  C2  UNL     1       1.931  51.829 -27.784  1.00  0.00    -0.018 C 
HETATM   34  C1  UNL     1       2.548  51.423 -26.665  1.00  0.00     0.008 C 
ENDBRANCH  32  33
ENDBRANCH  30  32
ENDBRANCH   1  30
BRANCH   8  35
HETATM   35  C11 UNL     1      -6.165  48.072 -23.647  1.00  0.00     0.176 C 
BRANCH  35  36
HETATM   36  O1  UNL     1      -7.408  48.758 -23.568  1.00  0.00    -0.400 OA
HETATM   37  H15 UNL     1      -8.029  48.290 -24.160  1.00  0.00     0.209 HD
ENDBRANCH  35  36
ENDBRANCH   8  35
BRANCH  10  38
HETATM   38  O2  UNL     1      -6.716  50.529 -22.164  1.00  0.00    -0.395 OA
HETATM   39  H17 UNL     1      -7.030  50.193 -23.030  1.00  0.00     0.210 HD
ENDBRANCH  10  38
TORSDOF 10
ENDMDL
MODEL 6
REMARK minimizedAffinity -8.80064487
REMARK  10 active torsions:
REMARK  status: ('A' for Active; 'I' for Inactive)
REMARK    1  A    between atoms: C2_2  and  C3_3 
REMARK    2  A    between atoms: C3_3  and  N1_4 
REMARK    3  A    between atoms: N1_4  and  C4_5 
REMARK    4  A    between atoms: C9_12  and  C11_14 
REMARK    5  A    between atoms: C11_14  and  O1_15 
REMARK    6  A    between atoms: C12_16  and  O2_17 
REMARK    7  A    between atoms: C17_22  and  C18_23 
REMARK    8  A    between atoms: C18_23  and  C19_24 
REMARK       I    between atoms: C19_24  and  N3_26 
REMARK    9  A    between atoms: N3_26  and  C20_27 
REMARK   10  A    between atoms: C20_27  and  C22_29 
ROOT
HETATM    1  C4  UNL     1      -1.320  51.759 -25.470  1.00  0.00     0.145 A 
HETATM    2  N2  UNL     1      -1.101  50.901 -24.499  1.00  0.00    -0.339 N 
ATOM      3  H2  UNL     1      -0.186  50.526 -24.250  1.00  0.00     0.168 HD
HETATM    4  C5  UNL     1      -2.285  50.579 -23.865  1.00  0.00     0.030 A 
HETATM    5  C6  UNL     1      -3.407  51.180 -24.399  1.00  0.00     0.009 A 
HETATM    6  C7  UNL     1      -4.815  50.990 -23.927  1.00  0.00     0.054 C 
HETATM    7  C8  UNL     1      -4.875  49.724 -23.031  1.00  0.00     0.012 C 
HETATM    8  C9  UNL     1      -6.308  49.232 -22.557  1.00  0.00     0.008 C 
HETATM    9  C10 UNL     1      -6.479  47.751 -23.016  1.00  0.00     0.020 C 
HETATM   10  C12 UNL     1      -6.471  49.256 -21.012  1.00  0.00     0.128 C 
HETATM   11  C13 UNL     1      -5.322  48.601 -20.240  1.00  0.00     0.033 C 
HETATM   12  C14 UNL     1      -3.960  48.608 -20.941  1.00  0.00     0.013 C 
HETATM   13  C15 UNL     1      -3.729  49.770 -21.925  1.00  0.00    -0.030 C 
HETATM   14  C16 UNL     1      -3.700  51.110 -21.137  1.00  0.00     0.016 C 
HETATM   15  C17 UNL     1      -2.328  49.599 -22.700  1.00  0.00     0.054 C 
HETATM   16  S1  UNL     1      -2.975  52.204 -25.685  1.00  0.00    -0.057 SA
ENDROOT
BRANCH  15  17
HETATM   17  C18 UNL     1      -1.066  49.723 -21.818  1.00  0.00     0.114 C 
BRANCH  17  18
HETATM   18  C19 UNL     1      -0.792  51.135 -21.338  1.00  0.00     0.218 C 
HETATM   19  O3  UNL     1      -1.173  52.142 -21.925  1.00  0.00    -0.274 OA
HETATM   20  N3  UNL     1      -0.082  51.163 -20.156  1.00  0.00    -0.353 N 
HETATM   21  H28 UNL     1      -0.047  50.309 -19.615  1.00  0.00     0.163 HD
BRANCH  20  22
HETATM   22  C20 UNL     1       0.156  52.405 -19.436  1.00  0.00     0.113 C 
HETATM   23  C21 UNL     1       1.154  53.269 -20.208  1.00  0.00     0.037 C 
BRANCH  22  24
HETATM   24  C22 UNL     1       0.584  52.091 -18.012  1.00  0.00    -0.036 A 
HETATM   25  C23 UNL     1      -0.151  51.150 -17.271  1.00  0.00     0.009 A 
HETATM   26  C24 UNL     1       0.215  50.819 -15.965  1.00  0.00     0.001 A 
HETATM   27  C25 UNL     1       1.331  51.413 -15.384  1.00  0.00     0.000 A 
HETATM   28  C26 UNL     1       2.084  52.333 -16.111  1.00  0.00     0.001 A 
HETATM   29  C27 UNL     1       1.717  52.666 -17.417  1.00  0.00     0.009 A 
ENDBRANCH  22  24
ENDBRANCH  20  22
ENDBRANCH  17  18
ENDBRANCH  15  17
BRANCH   1  30
HETATM   30  N1  UNL     1      -0.371  52.280 -26.279  1.00  0.00    -0.367 N 
HETATM   31  H6  UNL     1      -0.472  53.264 -26.496  1.00  0.00     0.161 HD
BRANCH  30  32
HETATM   32  C3  UNL     1       0.097  51.470 -27.380  1.00  0.00     0.148 C 
BRANCH  32  33
HETATM   33  C2  UNL     1       1.557  51.768 -27.550  1.00  0.00    -0.018 C 
HETATM   34  C1  UNL     1       2.505  51.494 -26.644  1.00  0.00     0.008 C 
ENDBRANCH  32  33
ENDBRANCH  30  32
ENDBRANCH   1  30
BRANCH   8  35
HETATM   35  C11 UNL     1      -7.489  49.989 -23.225  1.00  0.00     0.176 C 
BRANCH  35  36
HETATM   36  O1  UNL     1      -7.762  49.486 -24.527  1.00  0.00    -0.400 OA
HETATM   37  H15 UNL     1      -8.517  49.997 -24.877  1.00  0.00     0.209 HD
ENDBRANCH  35  36
ENDBRANCH   8  35
BRANCH  10  38
HETATM   38  O2  UNL     1      -6.653  50.571 -20.486  1.00  0.00    -0.395 OA
HETATM   39  H17 UNL     1      -7.022  51.133 -21.199  1.00  0.00     0.210 HD
ENDBRANCH  10  38
TORSDOF 10
ENDMDL
MODEL 7
REMARK minimizedAffinity -8.66014576
REMARK  10 active torsions:
REMARK  status: ('A' for Active; 'I' for Inactive)
REMARK    1  A    between atoms: C2_2  and  C3_3 
REMARK    2  A    between atoms: C3_3  and  N1_4 
REMARK    3  A    between atoms: N1_4  and  C4_5 
REMARK    4  A    between atoms: C9_12  and  C11_14 
REMARK    5  A    between atoms: C11_14  and  O1_15 
REMARK    6  A    between atoms: C12_16  and  O2_17 
REMARK    7  A    between atoms: C17_22  and  C18_23 
REMARK    8  A    between atoms: C18_23  and  C19_24 
REMARK       I    between atoms: C19_24  and  N3_26 
REMARK    9  A    between atoms: N3_26  and  C20_27 
REMARK   10  A    between atoms: C20_27  and  C22_29 
ROOT
HETATM    1  C4  UNL     1       0.968  52.376 -17.302  1.00  0.00     0.145 A 
HETATM    2  N2  UNL     1       0.803  52.451 -18.604  1.00  0.00    -0.339 N 
ATOM      3  H2  UNL     1       1.303  53.093 -19.219  1.00  0.00     0.168 HD
HETATM    4  C5  UNL     1      -0.145  51.537 -19.021  1.00  0.00     0.030 A 
HETATM    5  C6  UNL     1      -0.720  50.797 -18.006  1.00  0.00     0.009 A 
HETATM    6  C7  UNL     1      -1.786  49.759 -18.170  1.00  0.00     0.054 C 
HETATM    7  C8  UNL     1      -2.433  49.925 -19.572  1.00  0.00     0.012 C 
HETATM    8  C9  UNL     1      -3.709  49.036 -19.896  1.00  0.00     0.008 C 
HETATM    9  C10 UNL     1      -4.868  49.999 -20.299  1.00  0.00     0.020 C 
HETATM   10  C12 UNL     1      -3.478  48.069 -21.089  1.00  0.00     0.128 C 
HETATM   11  C13 UNL     1      -2.866  48.723 -22.331  1.00  0.00     0.033 C 
HETATM   12  C14 UNL     1      -1.999  49.959 -22.073  1.00  0.00     0.013 C 
HETATM   13  C15 UNL     1      -1.309  50.006 -20.697  1.00  0.00    -0.030 C 
HETATM   14  C16 UNL     1      -0.272  48.852 -20.604  1.00  0.00     0.016 C 
HETATM   15  C17 UNL     1      -0.541  51.406 -20.486  1.00  0.00     0.054 C 
HETATM   16  S1  UNL     1      -0.032  51.213 -16.508  1.00  0.00    -0.057 SA
ENDROOT
BRANCH  15  17
HETATM   17  C18 UNL     1       0.670  51.641 -21.415  1.00  0.00     0.114 C 
BRANCH  17  18
HETATM   18  C19 UNL     1       0.410  52.649 -22.517  1.00  0.00     0.218 C 
HETATM   19  O3  UNL     1       0.883  53.780 -22.534  1.00  0.00    -0.274 OA
HETATM   20  N3  UNL     1      -0.403  52.146 -23.512  1.00  0.00    -0.353 N 
HETATM   21  H28 UNL     1      -0.522  51.143 -23.552  1.00  0.00     0.163 HD
BRANCH  20  22
HETATM   22  C20 UNL     1      -0.657  52.886 -24.739  1.00  0.00     0.113 C 
HETATM   23  C21 UNL     1      -2.131  52.757 -25.128  1.00  0.00     0.037 C 
BRANCH  22  24
HETATM   24  C22 UNL     1       0.309  52.424 -25.817  1.00  0.00    -0.036 A 
HETATM   25  C23 UNL     1      -0.038  52.608 -27.167  1.00  0.00     0.009 A 
HETATM   26  C24 UNL     1       0.825  52.213 -28.191  1.00  0.00     0.001 A 
HETATM   27  C25 UNL     1       2.055  51.640 -27.882  1.00  0.00     0.000 A 
HETATM   28  C26 UNL     1       2.424  51.468 -26.549  1.00  0.00     0.001 A 
HETATM   29  C27 UNL     1       1.560  51.862 -25.524  1.00  0.00     0.009 A 
ENDBRANCH  22  24
ENDBRANCH  20  22
ENDBRANCH  17  18
ENDBRANCH  15  17
BRANCH   1  30
HETATM   30  N1  UNL     1       1.828  53.130 -16.582  1.00  0.00    -0.367 N 
HETATM   31  H6  UNL     1       1.796  54.126 -16.762  1.00  0.00     0.161 HD
BRANCH  30  32
HETATM   32  C3  UNL     1       3.155  52.606 -16.352  1.00  0.00     0.148 C 
BRANCH  32  33
HETATM   33  C2  UNL     1       3.038  51.593 -15.252  1.00  0.00    -0.018 C 
HETATM   34  C1  UNL     1       3.178  51.860 -13.946  1.00  0.00     0.008 C 
ENDBRANCH  32  33
ENDBRANCH  30  32
ENDBRANCH   1  30
BRANCH   8  35
HETATM   35  C11 UNL     1      -4.258  48.249 -18.674  1.00  0.00     0.176 C 
BRANCH  35  36
HETATM   36  O1  UNL     1      -3.378  47.200 -18.290  1.00  0.00    -0.400 OA
HETATM   37  H15 UNL     1      -3.780  46.761 -17.516  1.00  0.00     0.209 HD
ENDBRANCH  35  36
ENDBRANCH   8  35
BRANCH  10  38
HETATM   38  O2  UNL     1      -2.672  46.941 -20.751  1.00  0.00    -0.395 OA
HETATM   39  H17 UNL     1      -2.748  46.794 -19.785  1.00  0.00     0.210 HD
ENDBRANCH  10  38
TORSDOF 10
ENDMDL
MODEL 8
REMARK minimizedAffinity -8.48817348
REMARK  10 active torsions:
REMARK  status: ('A' for Active; 'I' for Inactive)
REMARK    1  A    between atoms: C2_2  and  C3_3 
REMARK    2  A    between atoms: C3_3  and  N1_4 
REMARK    3  A    between atoms: N1_4  and  C4_5 
REMARK    4  A    between atoms: C9_12  and  C11_14 
REMARK    5  A    between atoms: C11_14  and  O1_15 
REMARK    6  A    between atoms: C12_16  and  O2_17 
REMARK    7  A    between atoms: C17_22  and  C18_23 
REMARK    8  A    between atoms: C18_23  and  C19_24 
REMARK       I    between atoms: C19_24  and  N3_26 
REMARK    9  A    between atoms: N3_26  and  C20_27 
REMARK   10  A    between atoms: C20_27  and  C22_29 
ROOT
HETATM    1  C4  UNL     1      -0.398  51.191 -25.070  1.00  0.00     0.145 A 
HETATM    2  N2  UNL     1      -0.658  51.187 -23.782  1.00  0.00    -0.339 N 
ATOM      3  H2  UNL     1       0.008  51.443 -23.053  1.00  0.00     0.168 HD
HETATM    4  C5  UNL     1      -1.960  50.787 -23.555  1.00  0.00     0.030 A 
HETATM    5  C6  UNL     1      -2.667  50.452 -24.693  1.00  0.00     0.009 A 
HETATM    6  C7  UNL     1      -4.082  49.965 -24.738  1.00  0.00     0.054 C 
HETATM    7  C8  UNL     1      -4.497  49.504 -23.314  1.00  0.00     0.012 C 
HETATM    8  C9  UNL     1      -5.905  48.787 -23.161  1.00  0.00     0.008 C 
HETATM    9  C10 UNL     1      -5.660  47.393 -22.504  1.00  0.00     0.020 C 
HETATM   10  C12 UNL     1      -6.877  49.567 -22.234  1.00  0.00     0.128 C 
HETATM   11  C13 UNL     1      -6.272  50.002 -20.896  1.00  0.00     0.033 C 
HETATM   12  C14 UNL     1      -4.755  50.215 -20.890  1.00  0.00     0.013 C 
HETATM   13  C15 UNL     1      -4.140  50.626 -22.241  1.00  0.00    -0.030 C 
HETATM   14  C16 UNL     1      -4.668  52.034 -22.637  1.00  0.00     0.016 C 
HETATM   15  C17 UNL     1      -2.534  50.686 -22.148  1.00  0.00     0.054 C 
HETATM   16  S1  UNL     1      -1.708  50.687 -26.077  1.00  0.00    -0.057 SA
ENDROOT
BRANCH  15  17
HETATM   17  C18 UNL     1      -1.966  51.794 -21.233  1.00  0.00     0.114 C 
BRANCH  17  18
HETATM   18  C19 UNL     1      -1.882  51.398 -19.772  1.00  0.00     0.218 C 
HETATM   19  O3  UNL     1      -2.567  51.901 -18.888  1.00  0.00    -0.274 OA
HETATM   20  N3  UNL     1      -0.963  50.393 -19.549  1.00  0.00    -0.353 N 
HETATM   21  H28 UNL     1      -0.650  49.864 -20.351  1.00  0.00     0.163 HD
BRANCH  20  22
HETATM   22  C20 UNL     1      -0.831  49.754 -18.248  1.00  0.00     0.113 C 
HETATM   23  C21 UNL     1      -2.211  49.585 -17.610  1.00  0.00     0.037 C 
BRANCH  22  24
HETATM   24  C22 UNL     1       0.152  50.539 -17.396  1.00  0.00    -0.036 A 
HETATM   25  C23 UNL     1       0.647  51.763 -17.878  1.00  0.00     0.009 A 
HETATM   26  C24 UNL     1       1.539  52.525 -17.122  1.00  0.00     0.001 A 
HETATM   27  C25 UNL     1       1.940  52.082 -15.865  1.00  0.00     0.000 A 
HETATM   28  C26 UNL     1       1.444  50.882 -15.362  1.00  0.00     0.001 A 
HETATM   29  C27 UNL     1       0.553  50.117 -16.119  1.00  0.00     0.009 A 
ENDBRANCH  22  24
ENDBRANCH  20  22
ENDBRANCH  17  18
ENDBRANCH  15  17
BRANCH   1  30
HETATM   30  N1  UNL     1       0.784  51.541 -25.626  1.00  0.00    -0.367 N 
HETATM   31  H6  UNL     1       1.425  52.034 -25.017  1.00  0.00     0.161 HD
BRANCH  30  32
HETATM   32  C3  UNL     1       0.774  52.010 -26.993  1.00  0.00     0.148 C 
BRANCH  32  33
HETATM   33  C2  UNL     1       0.234  53.408 -26.968  1.00  0.00    -0.018 C 
HETATM   34  C1  UNL     1      -0.461  53.978 -27.962  1.00  0.00     0.008 C 
ENDBRANCH  32  33
ENDBRANCH  30  32
ENDBRANCH   1  30
BRANCH   8  35
HETATM   35  C11 UNL     1      -6.603  48.468 -24.511  1.00  0.00     0.176 C 
BRANCH  35  36
HETATM   36  O1  UNL     1      -7.570  49.455 -24.846  1.00  0.00    -0.400 OA
HETATM   37  H15 UNL     1      -7.955  49.196 -25.705  1.00  0.00     0.209 HD
ENDBRANCH  35  36
ENDBRANCH   8  35
BRANCH  10  38
HETATM   38  O2  UNL     1      -7.438  50.725 -22.853  1.00  0.00    -0.395 OA
HETATM   39  H17 UNL     1      -7.414  50.589 -23.824  1.00  0.00     0.210 HD
ENDBRANCH  10  38
TORSDOF 10
ENDMDL
MODEL 9
REMARK minimizedAffinity -8.48710728
REMARK  10 active torsions:
REMARK  status: ('A' for Active; 'I' for Inactive)
REMARK    1  A    between atoms: C2_2  and  C3_3 
REMARK    2  A    between atoms: C3_3  and  N1_4 
REMARK    3  A    between atoms: N1_4  and  C4_5 
REMARK    4  A    between atoms: C9_12  and  C11_14 
REMARK    5  A    between atoms: C11_14  and  O1_15 
REMARK    6  A    between atoms: C12_16  and  O2_17 
REMARK    7  A    between atoms: C17_22  and  C18_23 
REMARK    8  A    between atoms: C18_23  and  C19_24 
REMARK       I    between atoms: C19_24  and  N3_26 
REMARK    9  A    between atoms: N3_26  and  C20_27 
REMARK   10  A    between atoms: C20_27  and  C22_29 
ROOT
HETATM    1  C4  UNL     1      -2.449  48.700 -22.614  1.00  0.00     0.145 A 
HETATM    2  N2  UNL     1      -1.404  49.403 -22.241  1.00  0.00    -0.339 N 
ATOM      3  H2  UNL     1      -0.708  49.794 -22.877  1.00  0.00     0.168 HD
HETATM    4  C5  UNL     1      -1.380  49.537 -20.866  1.00  0.00     0.030 A 
HETATM    5  C6  UNL     1      -2.406  48.890 -20.206  1.00  0.00     0.009 A 
HETATM    6  C7  UNL     1      -2.608  48.849 -18.724  1.00  0.00     0.054 C 
HETATM    7  C8  UNL     1      -1.291  49.283 -18.027  1.00  0.00     0.012 C 
HETATM    8  C9  UNL     1      -1.222  49.148 -16.446  1.00  0.00     0.008 C 
HETATM    9  C10 UNL     1       0.008  48.254 -16.098  1.00  0.00     0.020 C 
HETATM   10  C12 UNL     1      -1.014  50.514 -15.736  1.00  0.00     0.128 C 
HETATM   11  C13 UNL     1       0.114  51.370 -16.318  1.00  0.00     0.033 C 
HETATM   12  C14 UNL     1       0.429  51.138 -17.799  1.00  0.00     0.013 C 
HETATM   13  C15 UNL     1      -0.752  50.644 -18.656  1.00  0.00    -0.030 C 
HETATM   14  C16 UNL     1      -1.837  51.755 -18.721  1.00  0.00     0.016 C 
HETATM   15  C17 UNL     1      -0.273  50.304 -20.156  1.00  0.00     0.054 C 
HETATM   16  S1  UNL     1      -3.448  48.141 -21.321  1.00  0.00    -0.057 SA
ENDROOT
BRANCH  15  17
HETATM   17  C18 UNL     1       0.191  51.517 -20.991  1.00  0.00     0.114 C 
BRANCH  17  18
HETATM   18  C19 UNL     1      -0.763  51.892 -22.108  1.00  0.00     0.218 C 
HETATM   19  O3  UNL     1      -1.948  52.155 -21.934  1.00  0.00    -0.274 OA
HETATM   20  N3  UNL     1      -0.147  51.925 -23.342  1.00  0.00    -0.353 N 
HETATM   21  H28 UNL     1       0.863  51.960 -23.355  1.00  0.00     0.163 HD
BRANCH  20  22
HETATM   22  C20 UNL     1      -0.836  52.410 -24.528  1.00  0.00     0.113 C 
HETATM   23  C21 UNL     1      -2.229  51.783 -24.612  1.00  0.00     0.037 C 
BRANCH  22  24
HETATM   24  C22 UNL     1       0.028  52.160 -25.753  1.00  0.00    -0.036 A 
HETATM   25  C23 UNL     1      -0.548  52.279 -27.029  1.00  0.00     0.009 A 
HETATM   26  C24 UNL     1       0.211  52.074 -28.182  1.00  0.00     0.001 A 
HETATM   27  C25 UNL     1       1.563  51.760 -28.078  1.00  0.00     0.000 A 
HETATM   28  C26 UNL     1       2.157  51.659 -26.822  1.00  0.00     0.001 A 
HETATM   29  C27 UNL     1       1.397  51.862 -25.667  1.00  0.00     0.009 A 
ENDBRANCH  22  24
ENDBRANCH  20  22
ENDBRANCH  17  18
ENDBRANCH  15  17
BRANCH   1  30
HETATM   30  N1  UNL     1      -2.767  48.394 -23.892  1.00  0.00    -0.367 N 
HETATM   31  H6  UNL     1      -2.085  48.663 -24.590  1.00  0.00     0.161 HD
BRANCH  30  32
HETATM   32  C3  UNL     1      -4.142  48.561 -24.304  1.00  0.00     0.148 C 
BRANCH  32  33
HETATM   33  C2  UNL     1      -4.167  48.432 -25.798  1.00  0.00    -0.018 C 
HETATM   34  C1  UNL     1      -3.095  48.545 -26.595  1.00  0.00     0.008 C 
ENDBRANCH  32  33
ENDBRANCH  30  32
ENDBRANCH   1  30
BRANCH   8  35
HETATM   35  C11 UNL     1      -2.436  48.406 -15.821  1.00  0.00     0.176 C 
BRANCH  35  36
HETATM   36  O1  UNL     1      -3.648  49.123 -16.025  1.00  0.00    -0.400 OA
HETATM   37  H15 UNL     1      -4.362  48.594 -15.620  1.00  0.00     0.209 HD
ENDBRANCH  35  36
ENDBRANCH   8  35
BRANCH  10  38
HETATM   38  O2  UNL     1      -2.194  51.317 -15.702  1.00  0.00    -0.395 OA
HETATM   39  H17 UNL     1      -2.968  50.719 -15.773  1.00  0.00     0.210 HD
ENDBRANCH  10  38
TORSDOF 10
ENDMDL
