MODEL 1
REMARK minimizedAffinity -8.38925171
REMARK CNNscore 0.488189459
REMARK CNNaffinity 7.09188604
REMARK  13 active torsions:
REMARK  status: ('A' for Active; 'I' for Inactive)
REMARK    1  A    between atoms: C2_2  and  C3_3 
REMARK    2  A    between atoms: C2_2  and  C11_12 
REMARK    3  A    between atoms: C3_3  and  C4_4 
REMARK    4  A    between atoms: C4_4  and  C5_5 
REMARK    5  A    between atoms: C5_5  and  O1_7 
REMARK    6  A    between atoms: C5_5  and  C7_8 
REMARK    7  A    between atoms: C28_32  and  O5_33 
REMARK    8  A    between atoms: O5_33  and  C29_34 
REMARK    9  A    between atoms: C30_36  and  C31_37 
REMARK   10  A    between atoms: C31_37  and  O7_38 
REMARK   11  A    between atoms: C32_39  and  O8_40 
REMARK   12  A    between atoms: C33_41  and  O9_42 
REMARK   13  A    between atoms: C34_43  and  O10_44 
ROOT
HETATM    1  C11 UNL     1      -3.006  12.431  18.055  1.00  0.00    -0.001 C 
HETATM    2  C12 UNL     1      -3.704  11.290  18.849  1.00  0.00     0.007 C 
HETATM    3  C13 UNL     1      -3.506   9.981  18.067  1.00  0.00     0.024 C 
HETATM    4  C14 UNL     1      -2.661  10.372  16.876  1.00  0.00     0.092 C 
HETATM    5  C15 UNL     1      -1.149  10.215  17.177  1.00  0.00     0.272 C 
HETATM    6  O2  UNL     1      -0.592  10.285  18.259  1.00  0.00    -0.264 OA
HETATM    7  O3  UNL     1      -0.491   9.978  15.987  1.00  0.00    -0.305 OA
HETATM    8  C16 UNL     1      -1.459   9.988  14.902  1.00  0.00     0.113 C 
HETATM    9  C17 UNL     1      -1.612  11.480  14.461  1.00  0.00     0.043 C 
HETATM   10  C18 UNL     1      -1.927  12.449  15.636  1.00  0.00     0.014 C 
HETATM   11  C19 UNL     1      -3.001  11.873  16.595  1.00  0.00    -0.020 C 
HETATM   12  C20 UNL     1      -4.394  12.062  15.941  1.00  0.00     0.017 C 
HETATM   13  C21 UNL     1      -2.692   9.570  15.636  1.00  0.00     0.137 A 
HETATM   14  O4  UNL     1      -3.896   9.265  14.963  1.00  0.00    -0.364 OA
HETATM   15  C22 UNL     1      -3.205   8.155  15.582  1.00  0.00     0.162 A 
HETATM   16  C23 UNL     1      -2.610   7.179  14.623  1.00  0.00     0.041 C 
HETATM   17  C24 UNL     1      -1.137   7.517  14.292  1.00  0.00     0.009 C 
HETATM   18  C25 UNL     1      -0.420   6.381  13.450  1.00  0.00    -0.017 C 
HETATM   19  C26 UNL     1      -1.354   5.677  12.438  1.00  0.00     0.018 C 
HETATM   20  C27 UNL     1       0.029   5.274  14.450  1.00  0.00     0.018 C 
HETATM   21  C28 UNL     1       0.867   6.905  12.735  1.00  0.00     0.133 C 
HETATM   22  C35 UNL     1       1.444   8.108  13.477  1.00  0.00     0.034 C 
HETATM   23  C36 UNL     1       0.507   9.312  13.405  1.00  0.00     0.015 C 
HETATM   24  C37 UNL     1      -0.987   9.000  13.762  1.00  0.00    -0.004 C 
HETATM   25  C38 UNL     1      -1.834   9.228  12.483  1.00  0.00     0.019 C 
ENDROOT
BRANCH  21  26
HETATM   26  O5  UNL     1       0.555   7.288  11.392  1.00  0.00    -0.352 OA
BRANCH  26  27
HETATM   27  C29 UNL     1       1.700   7.537  10.568  1.00  0.00     0.292 C 
HETATM   28  O6  UNL     1       1.391   7.271   9.197  1.00  0.00    -0.348 OA
HETATM   29  C30 UNL     1       2.556   7.105   8.390  1.00  0.00     0.179 C 
HETATM   30  C32 UNL     1       3.335   5.825   8.777  1.00  0.00     0.180 C 
HETATM   31  C33 UNL     1       3.126   5.449  10.256  1.00  0.00     0.183 C 
HETATM   32  C34 UNL     1       2.883   6.689  11.118  1.00  0.00     0.204 C 
BRANCH  29  33
HETATM   33  C31 UNL     1       2.119   7.123   6.921  1.00  0.00     0.198 C 
BRANCH  33  34
HETATM   34  O7  UNL     1       0.813   7.678   6.788  1.00  0.00    -0.398 OA
HETATM   35  H49 UNL     1       0.237   6.966   6.449  1.00  0.00     0.209 HD
ENDBRANCH  33  34
ENDBRANCH  29  33
BRANCH  30  36
HETATM   36  O8  UNL     1       2.985   4.677   7.985  1.00  0.00    -0.390 OA
HETATM   37  H51 UNL     1       3.216   4.913   7.061  1.00  0.00     0.210 HD
ENDBRANCH  30  36
BRANCH  31  38
HETATM   38  O9  UNL     1       2.055   4.509  10.397  1.00  0.00    -0.390 OA
HETATM   39  H53 UNL     1       1.996   4.072   9.519  1.00  0.00     0.210 HD
ENDBRANCH  31  38
BRANCH  32  40
HETATM   40  O10 UNL     1       4.089   7.483  11.118  1.00  0.00    -0.388 OA
HETATM   41  H55 UNL     1       4.703   7.052  11.740  1.00  0.00     0.210 HD
ENDBRANCH  32  40
ENDBRANCH  26  27
ENDBRANCH  21  26
BRANCH   1  42
HETATM   42  C2  UNL     1      -3.639  13.826  18.347  1.00  0.00    -0.014 C 
HETATM   43  C1  UNL     1      -2.685  14.729  19.140  1.00  0.00     0.010 C 
BRANCH  42  44
HETATM   44  C3  UNL     1      -4.970  13.697  19.143  1.00  0.00     0.007 C 
BRANCH  44  45
HETATM   45  C4  UNL     1      -4.843  13.843  20.665  1.00  0.00     0.038 C 
BRANCH  45  46
HETATM   46  C5  UNL     1      -6.114  13.913  21.569  1.00  0.00     0.061 C 
HETATM   47  C6  UNL     1      -7.376  13.506  20.792  1.00  0.00     0.046 C 
BRANCH  46  48
HETATM   48  O1  UNL     1      -5.901  12.851  22.537  1.00  0.00    -0.389 OA
HETATM   49  H12 UNL     1      -5.845  12.006  22.060  1.00  0.00     0.210 HD
ENDBRANCH  46  48
BRANCH  46  50
HETATM   50  C7  UNL     1      -6.319  15.241  22.421  1.00  0.00    -0.021 C 
HETATM   51  C8  UNL     1      -7.486  15.088  23.422  1.00  0.00     0.017 C 
HETATM   52  C9  UNL     1      -5.073  15.692  23.209  1.00  0.00     0.017 C 
HETATM   53  C10 UNL     1      -6.693  16.430  21.493  1.00  0.00     0.017 C 
ENDBRANCH  46  50
ENDBRANCH  45  46
ENDBRANCH  44  45
ENDBRANCH  42  44
ENDBRANCH   1  42
TORSDOF 13
ENDMDL
MODEL 2
REMARK minimizedAffinity -7.4795208
REMARK CNNscore 0.203347445
REMARK CNNaffinity 6.1801343
REMARK  13 active torsions:
REMARK  status: ('A' for Active; 'I' for Inactive)
REMARK    1  A    between atoms: C2_2  and  C3_3 
REMARK    2  A    between atoms: C2_2  and  C11_12 
REMARK    3  A    between atoms: C3_3  and  C4_4 
REMARK    4  A    between atoms: C4_4  and  C5_5 
REMARK    5  A    between atoms: C5_5  and  O1_7 
REMARK    6  A    between atoms: C5_5  and  C7_8 
REMARK    7  A    between atoms: C28_32  and  O5_33 
REMARK    8  A    between atoms: O5_33  and  C29_34 
REMARK    9  A    between atoms: C30_36  and  C31_37 
REMARK   10  A    between atoms: C31_37  and  O7_38 
REMARK   11  A    between atoms: C32_39  and  O8_40 
REMARK   12  A    between atoms: C33_41  and  O9_42 
REMARK   13  A    between atoms: C34_43  and  O10_44 
ROOT
HETATM    1  C11 UNL     1      -1.055  11.692  16.784  1.00  0.00    -0.001 C 
HETATM    2  C12 UNL     1      -1.879  11.313  18.047  1.00  0.00     0.007 C 
HETATM    3  C13 UNL     1      -0.920  11.294  19.250  1.00  0.00     0.024 C 
HETATM    4  C14 UNL     1       0.416  11.712  18.678  1.00  0.00     0.092 C 
HETATM    5  C15 UNL     1       0.616  13.247  18.766  1.00  0.00     0.272 C 
HETATM    6  O2  UNL     1      -0.242  14.112  18.774  1.00  0.00    -0.264 OA
HETATM    7  O3  UNL     1       1.971  13.505  18.830  1.00  0.00    -0.305 OA
HETATM    8  C16 UNL     1       2.695  12.246  18.768  1.00  0.00     0.113 C 
HETATM    9  C17 UNL     1       2.882  11.917  17.252  1.00  0.00     0.043 C 
HETATM   10  C18 UNL     1       1.558  11.958  16.436  1.00  0.00     0.014 C 
HETATM   11  C19 UNL     1       0.393  11.256  17.182  1.00  0.00    -0.020 C 
HETATM   12  C20 UNL     1       0.559   9.723  17.017  1.00  0.00     0.017 C 
HETATM   13  C21 UNL     1       1.675  11.318  19.344  1.00  0.00     0.137 A 
HETATM   14  O4  UNL     1       1.976   9.974  19.655  1.00  0.00    -0.364 OA
HETATM   15  C22 UNL     1       1.740  10.857  20.776  1.00  0.00     0.162 A 
HETATM   16  C23 UNL     1       2.947  11.150  21.603  1.00  0.00     0.041 C 
HETATM   17  C24 UNL     1       3.672  12.435  21.134  1.00  0.00     0.009 C 
HETATM   18  C25 UNL     1       4.825  12.885  22.123  1.00  0.00    -0.017 C 
HETATM   19  C26 UNL     1       5.579  11.703  22.775  1.00  0.00     0.018 C 
HETATM   20  C27 UNL     1       4.156  13.658  23.298  1.00  0.00     0.018 C 
HETATM   21  C28 UNL     1       5.833  13.867  21.441  1.00  0.00     0.133 C 
HETATM   22  C35 UNL     1       5.163  14.611  20.288  1.00  0.00     0.034 C 
HETATM   23  C36 UNL     1       4.796  13.663  19.149  1.00  0.00     0.015 C 
HETATM   24  C37 UNL     1       4.037  12.367  19.596  1.00  0.00    -0.004 C 
HETATM   25  C38 UNL     1       4.956  11.155  19.289  1.00  0.00     0.019 C 
ENDROOT
BRANCH  21  26
HETATM   26  O5  UNL     1       6.957  13.139  20.938  1.00  0.00    -0.352 OA
BRANCH  26  27
HETATM   27  C29 UNL     1       8.079  13.956  20.584  1.00  0.00     0.292 C 
HETATM   28  O6  UNL     1       8.476  13.695  19.236  1.00  0.00    -0.348 OA
HETATM   29  C30 UNL     1       9.796  14.153  18.949  1.00  0.00     0.179 C 
HETATM   30  C32 UNL     1      10.858  13.350  19.738  1.00  0.00     0.180 C 
HETATM   31  C33 UNL     1      10.296  12.796  21.060  1.00  0.00     0.183 C 
HETATM   32  C34 UNL     1       9.206  13.706  21.628  1.00  0.00     0.204 C 
BRANCH  29  33
HETATM   33  C31 UNL     1       9.999  14.092  17.431  1.00  0.00     0.198 C 
BRANCH  33  34
HETATM   34  O7  UNL     1       9.633  12.812  16.922  1.00  0.00    -0.398 OA
HETATM   35  H49 UNL     1      10.445  12.408  16.562  1.00  0.00     0.209 HD
ENDBRANCH  33  34
ENDBRANCH  29  33
BRANCH  30  36
HETATM   36  O8  UNL     1      11.404  12.241  19.001  1.00  0.00    -0.390 OA
HETATM   37  H51 UNL     1      11.835  12.634  18.213  1.00  0.00     0.210 HD
ENDBRANCH  30  36
BRANCH  31  38
HETATM   38  O9  UNL     1       9.811  11.460  20.889  1.00  0.00    -0.390 OA
HETATM   39  H53 UNL     1      10.298  11.121  20.106  1.00  0.00     0.210 HD
ENDBRANCH  31  38
BRANCH  32  40
HETATM   40  O10 UNL     1       9.813  14.964  21.995  1.00  0.00    -0.388 OA
HETATM   41  H55 UNL     1      10.264  14.814  22.845  1.00  0.00     0.210 HD
ENDBRANCH  32  40
ENDBRANCH  26  27
ENDBRANCH  21  26
BRANCH   1  42
HETATM   42  C2  UNL     1      -1.695  11.141  15.474  1.00  0.00    -0.014 C 
HETATM   43  C1  UNL     1      -1.812  12.227  14.397  1.00  0.00     0.010 C 
BRANCH  42  44
HETATM   44  C3  UNL     1      -3.111  10.549  15.732  1.00  0.00     0.007 C 
BRANCH  44  45
HETATM   45  C4  UNL     1      -3.547   9.443  14.762  1.00  0.00     0.038 C 
BRANCH  45  46
HETATM   46  C5  UNL     1      -3.470   7.940  15.179  1.00  0.00     0.061 C 
HETATM   47  C6  UNL     1      -2.404   7.714  16.263  1.00  0.00     0.046 C 
BRANCH  46  48
HETATM   48  O1  UNL     1      -4.744   7.705  15.838  1.00  0.00    -0.389 OA
HETATM   49  H12 UNL     1      -4.802   8.291  16.612  1.00  0.00     0.210 HD
ENDBRANCH  46  48
BRANCH  46  50
HETATM   50  C7  UNL     1      -3.387   6.871  14.005  1.00  0.00    -0.021 C 
HETATM   51  C8  UNL     1      -2.423   7.338  12.891  1.00  0.00     0.017 C 
HETATM   52  C9  UNL     1      -2.946   5.463  14.454  1.00  0.00     0.017 C 
HETATM   53  C10 UNL     1      -4.776   6.690  13.333  1.00  0.00     0.017 C 
ENDBRANCH  46  50
ENDBRANCH  45  46
ENDBRANCH  44  45
ENDBRANCH  42  44
ENDBRANCH   1  42
TORSDOF 13
ENDMDL
MODEL 3
REMARK minimizedAffinity -7.38403177
REMARK CNNscore 0.183511615
REMARK CNNaffinity 6.39534998
REMARK  13 active torsions:
REMARK  status: ('A' for Active; 'I' for Inactive)
REMARK    1  A    between atoms: C2_2  and  C3_3 
REMARK    2  A    between atoms: C2_2  and  C11_12 
REMARK    3  A    between atoms: C3_3  and  C4_4 
REMARK    4  A    between atoms: C4_4  and  C5_5 
REMARK    5  A    between atoms: C5_5  and  O1_7 
REMARK    6  A    between atoms: C5_5  and  C7_8 
REMARK    7  A    between atoms: C28_32  and  O5_33 
REMARK    8  A    between atoms: O5_33  and  C29_34 
REMARK    9  A    between atoms: C30_36  and  C31_37 
REMARK   10  A    between atoms: C31_37  and  O7_38 
REMARK   11  A    between atoms: C32_39  and  O8_40 
REMARK   12  A    between atoms: C33_41  and  O9_42 
REMARK   13  A    between atoms: C34_43  and  O10_44 
ROOT
HETATM    1  C11 UNL     1     -11.076  12.388  23.980  1.00  0.00    -0.001 C 
HETATM    2  C12 UNL     1     -12.257  13.222  23.408  1.00  0.00     0.007 C 
HETATM    3  C13 UNL     1     -13.467  12.285  23.255  1.00  0.00     0.024 C 
HETATM    4  C14 UNL     1     -12.987  10.953  23.786  1.00  0.00     0.092 C 
HETATM    5  C15 UNL     1     -13.286  10.805  25.300  1.00  0.00     0.272 C 
HETATM    6  O2  UNL     1     -13.392  11.691  26.129  1.00  0.00    -0.264 OA
HETATM    7  O3  UNL     1     -13.414   9.460  25.587  1.00  0.00    -0.305 OA
HETATM    8  C16 UNL     1     -13.199   8.695  24.371  1.00  0.00     0.113 C 
HETATM    9  C17 UNL     1     -11.656   8.470  24.256  1.00  0.00     0.043 C 
HETATM   10  C18 UNL     1     -10.825   9.780  24.368  1.00  0.00     0.014 C 
HETATM   11  C19 UNL     1     -11.443  10.935  23.537  1.00  0.00    -0.020 C 
HETATM   12  C20 UNL     1     -11.076  10.716  22.046  1.00  0.00     0.017 C 
HETATM   13  C21 UNL     1     -13.621   9.694  23.343  1.00  0.00     0.137 A 
HETATM   14  O4  UNL     1     -13.754   9.355  21.978  1.00  0.00    -0.364 OA
HETATM   15  C22 UNL     1     -14.979   9.640  22.693  1.00  0.00     0.162 A 
HETATM   16  C23 UNL     1     -15.864   8.457  22.907  1.00  0.00     0.041 C 
HETATM   17  C24 UNL     1     -15.589   7.767  24.265  1.00  0.00     0.009 C 
HETATM   18  C25 UNL     1     -16.655   6.647  24.611  1.00  0.00    -0.017 C 
HETATM   19  C26 UNL     1     -17.158   5.867  23.374  1.00  0.00     0.018 C 
HETATM   20  C27 UNL     1     -17.909   7.362  25.196  1.00  0.00     0.018 C 
HETATM   21  C28 UNL     1     -16.135   5.660  25.706  1.00  0.00     0.133 C 
HETATM   22  C35 UNL     1     -15.078   6.333  26.580  1.00  0.00     0.034 C 
HETATM   23  C36 UNL     1     -13.814   6.648  25.784  1.00  0.00     0.015 C 
HETATM   24  C37 UNL     1     -14.064   7.372  24.417  1.00  0.00    -0.004 C 
HETATM   25  C38 UNL     1     -13.617   6.409  23.286  1.00  0.00     0.019 C 
ENDROOT
BRANCH  21  26
HETATM   26  O5  UNL     1     -15.563   4.503  25.087  1.00  0.00    -0.352 OA
BRANCH  26  27
HETATM   27  C29 UNL     1     -15.363   3.397  25.974  1.00  0.00     0.292 C 
HETATM   28  O6  UNL     1     -14.118   3.534  26.664  1.00  0.00    -0.348 OA
HETATM   29  C30 UNL     1     -13.667   2.310  27.242  1.00  0.00     0.179 C 
HETATM   30  C32 UNL     1     -13.297   1.274  26.154  1.00  0.00     0.180 C 
HETATM   31  C33 UNL     1     -14.098   1.490  24.855  1.00  0.00     0.183 C 
HETATM   32  C34 UNL     1     -15.476   2.086  25.144  1.00  0.00     0.204 C 
BRANCH  29  33
HETATM   33  C31 UNL     1     -12.506   2.633  28.187  1.00  0.00     0.198 C 
BRANCH  33  34
HETATM   34  O7  UNL     1     -12.694   2.008  29.454  1.00  0.00    -0.398 OA
HETATM   35  H49 UNL     1     -12.793   2.724  30.110  1.00  0.00     0.209 HD
ENDBRANCH  33  34
ENDBRANCH  29  33
BRANCH  30  36
HETATM   36  O8  UNL     1     -11.901   1.278  25.807  1.00  0.00    -0.390 OA
HETATM   37  H51 UNL     1     -11.423   1.046  26.632  1.00  0.00     0.210 HD
ENDBRANCH  30  36
BRANCH  31  38
HETATM   38  O9  UNL     1     -13.367   2.308  23.936  1.00  0.00    -0.390 OA
HETATM   39  H53 UNL     1     -12.428   2.198  24.202  1.00  0.00     0.210 HD
ENDBRANCH  31  38
BRANCH  32  40
HETATM   40  O10 UNL     1     -16.246   1.111  25.881  1.00  0.00    -0.388 OA
HETATM   41  H55 UNL     1     -16.558   0.458  25.229  1.00  0.00     0.210 HD
ENDBRANCH  32  40
ENDBRANCH  26  27
ENDBRANCH  21  26
BRANCH   1  42
HETATM   42  C2  UNL     1      -9.689  12.987  23.592  1.00  0.00    -0.014 C 
HETATM   43  C1  UNL     1      -8.919  13.480  24.824  1.00  0.00     0.010 C 
BRANCH  42  44
HETATM   44  C3  UNL     1      -9.834  14.173  22.596  1.00  0.00     0.007 C 
BRANCH  44  45
HETATM   45  C4  UNL     1      -8.529  14.897  22.242  1.00  0.00     0.038 C 
BRANCH  45  46
HETATM   46  C5  UNL     1      -7.648  14.417  21.045  1.00  0.00     0.061 C 
HETATM   47  C6  UNL     1      -8.374  13.351  20.210  1.00  0.00     0.046 C 
BRANCH  46  48
HETATM   48  O1  UNL     1      -7.572  15.589  20.189  1.00  0.00    -0.389 OA
HETATM   49  H12 UNL     1      -8.472  15.821  19.904  1.00  0.00     0.210 HD
ENDBRANCH  46  48
BRANCH  46  50
HETATM   50  C7  UNL     1      -6.143  14.021  21.372  1.00  0.00    -0.021 C 
HETATM   51  C8  UNL     1      -5.464  13.354  20.155  1.00  0.00     0.017 C 
HETATM   52  C9  UNL     1      -5.257  15.200  21.823  1.00  0.00     0.017 C 
HETATM   53  C10 UNL     1      -6.092  12.981  22.525  1.00  0.00     0.017 C 
ENDBRANCH  46  50
ENDBRANCH  45  46
ENDBRANCH  44  45
ENDBRANCH  42  44
ENDBRANCH   1  42
TORSDOF 13
ENDMDL
MODEL 4
REMARK minimizedAffinity -8.36577415
REMARK CNNscore 0.153894544
REMARK CNNaffinity 6.80282974
REMARK  13 active torsions:
REMARK  status: ('A' for Active; 'I' for Inactive)
REMARK    1  A    between atoms: C2_2  and  C3_3 
REMARK    2  A    between atoms: C2_2  and  C11_12 
REMARK    3  A    between atoms: C3_3  and  C4_4 
REMARK    4  A    between atoms: C4_4  and  C5_5 
REMARK    5  A    between atoms: C5_5  and  O1_7 
REMARK    6  A    between atoms: C5_5  and  C7_8 
REMARK    7  A    between atoms: C28_32  and  O5_33 
REMARK    8  A    between atoms: O5_33  and  C29_34 
REMARK    9  A    between atoms: C30_36  and  C31_37 
REMARK   10  A    between atoms: C31_37  and  O7_38 
REMARK   11  A    between atoms: C32_39  and  O8_40 
REMARK   12  A    between atoms: C33_41  and  O9_42 
REMARK   13  A    between atoms: C34_43  and  O10_44 
ROOT
HETATM    1  C11 UNL     1       0.229   7.408  13.340  1.00  0.00    -0.001 C 
HETATM    2  C12 UNL     1       1.519   8.274  13.274  1.00  0.00     0.007 C 
HETATM    3  C13 UNL     1       1.238   9.597  14.006  1.00  0.00     0.024 C 
HETATM    4  C14 UNL     1      -0.176   9.453  14.523  1.00  0.00     0.092 C 
HETATM    5  C15 UNL     1      -0.199   8.861  15.955  1.00  0.00     0.272 C 
HETATM    6  O2  UNL     1       0.624   8.124  16.470  1.00  0.00    -0.264 OA
HETATM    7  O3  UNL     1      -1.342   9.303  16.590  1.00  0.00    -0.305 OA
HETATM    8  C16 UNL     1      -2.100  10.136  15.671  1.00  0.00     0.113 C 
HETATM    9  C17 UNL     1      -3.001   9.168  14.837  1.00  0.00     0.043 C 
HETATM   10  C18 UNL     1      -2.215   8.000  14.175  1.00  0.00     0.014 C 
HETATM   11  C19 UNL     1      -0.891   8.483  13.526  1.00  0.00    -0.020 C 
HETATM   12  C20 UNL     1      -1.226   9.154  12.169  1.00  0.00     0.017 C 
HETATM   13  C21 UNL     1      -1.001  10.648  14.799  1.00  0.00     0.137 A 
HETATM   14  O4  UNL     1      -1.218  11.655  13.833  1.00  0.00    -0.364 OA
HETATM   15  C22 UNL     1      -0.420  12.026  14.982  1.00  0.00     0.162 A 
HETATM   16  C23 UNL     1      -1.074  12.997  15.907  1.00  0.00     0.041 C 
HETATM   17  C24 UNL     1      -1.837  12.284  17.049  1.00  0.00     0.009 C 
HETATM   18  C25 UNL     1      -2.355  13.288  18.161  1.00  0.00    -0.017 C 
HETATM   19  C26 UNL     1      -2.799  14.659  17.600  1.00  0.00     0.018 C 
HETATM   20  C27 UNL     1      -1.159  13.589  19.111  1.00  0.00     0.018 C 
HETATM   21  C28 UNL     1      -3.490  12.661  19.035  1.00  0.00     0.133 C 
HETATM   22  C35 UNL     1      -3.387  11.137  19.038  1.00  0.00     0.034 C 
HETATM   23  C36 UNL     1      -3.667  10.554  17.655  1.00  0.00     0.015 C 
HETATM   24  C37 UNL     1      -2.885  11.242  16.484  1.00  0.00    -0.004 C 
HETATM   25  C38 UNL     1      -3.926  11.933  15.565  1.00  0.00     0.019 C 
ENDROOT
BRANCH  21  26
HETATM   26  O5  UNL     1      -4.769  13.042  18.518  1.00  0.00    -0.352 OA
BRANCH  26  27
HETATM   27  C29 UNL     1      -5.790  13.176  19.512  1.00  0.00     0.292 C 
HETATM   28  O6  UNL     1      -6.932  13.841  18.963  1.00  0.00    -0.348 OA
HETATM   29  C30 UNL     1      -7.804  14.363  19.965  1.00  0.00     0.179 C 
HETATM   30  C32 UNL     1      -7.134  15.514  20.755  1.00  0.00     0.180 C 
HETATM   31  C33 UNL     1      -5.600  15.372  20.789  1.00  0.00     0.183 C 
HETATM   32  C34 UNL     1      -5.174  13.904  20.742  1.00  0.00     0.204 C 
BRANCH  29  33
HETATM   33  C31 UNL     1      -9.110  14.780  19.284  1.00  0.00     0.198 C 
BRANCH  33  34
HETATM   34  O7  UNL     1      -9.875  13.637  18.910  1.00  0.00    -0.398 OA
HETATM   35  H49 UNL     1      -9.929  13.640  17.935  1.00  0.00     0.209 HD
ENDBRANCH  33  34
ENDBRANCH  29  33
BRANCH  30  36
HETATM   36  O8  UNL     1      -7.436  16.820  20.234  1.00  0.00    -0.390 OA
HETATM   37  H51 UNL     1      -8.409  16.916  20.311  1.00  0.00     0.210 HD
ENDBRANCH  30  36
BRANCH  31  38
HETATM   38  O9  UNL     1      -4.995  16.117  19.727  1.00  0.00    -0.390 OA
HETATM   39  H53 UNL     1      -5.658  16.806  19.502  1.00  0.00     0.210 HD
ENDBRANCH  31  38
BRANCH  32  40
HETATM   40  O10 UNL     1      -5.621  13.264  21.957  1.00  0.00    -0.388 OA
HETATM   41  H55 UNL     1      -4.990  13.525  22.653  1.00  0.00     0.210 HD
ENDBRANCH  32  40
ENDBRANCH  26  27
ENDBRANCH  21  26
BRANCH   1  42
HETATM   42  C2  UNL     1       0.138   6.395  12.158  1.00  0.00    -0.014 C 
HETATM   43  C1  UNL     1      -0.500   5.069  12.593  1.00  0.00     0.010 C 
BRANCH  42  44
HETATM   44  C3  UNL     1       1.538   6.092  11.551  1.00  0.00     0.007 C 
BRANCH  44  45
HETATM   45  C4  UNL     1       1.556   5.817  10.042  1.00  0.00     0.038 C 
BRANCH  45  46
HETATM   46  C5  UNL     1       2.615   6.500   9.119  1.00  0.00     0.061 C 
HETATM   47  C6  UNL     1       3.842   6.960   9.921  1.00  0.00     0.046 C 
BRANCH  46  48
HETATM   48  O1  UNL     1       3.088   5.409   8.283  1.00  0.00    -0.389 OA
HETATM   49  H12 UNL     1       3.491   4.736   8.856  1.00  0.00     0.210 HD
ENDBRANCH  46  48
BRANCH  46  50
HETATM   50  C7  UNL     1       2.083   7.614   8.116  1.00  0.00    -0.021 C 
HETATM   51  C8  UNL     1       1.877   7.037   6.698  1.00  0.00     0.017 C 
HETATM   52  C9  UNL     1       0.767   8.288   8.551  1.00  0.00     0.017 C 
HETATM   53  C10 UNL     1       3.124   8.760   7.975  1.00  0.00     0.017 C 
ENDBRANCH  46  50
ENDBRANCH  45  46
ENDBRANCH  44  45
ENDBRANCH  42  44
ENDBRANCH   1  42
TORSDOF 13
ENDMDL
MODEL 5
REMARK minimizedAffinity -7.20713329
REMARK CNNscore 0.124608085
REMARK CNNaffinity 6.36227465
REMARK  13 active torsions:
REMARK  status: ('A' for Active; 'I' for Inactive)
REMARK    1  A    between atoms: C2_2  and  C3_3 
REMARK    2  A    between atoms: C2_2  and  C11_12 
REMARK    3  A    between atoms: C3_3  and  C4_4 
REMARK    4  A    between atoms: C4_4  and  C5_5 
REMARK    5  A    between atoms: C5_5  and  O1_7 
REMARK    6  A    between atoms: C5_5  and  C7_8 
REMARK    7  A    between atoms: C28_32  and  O5_33 
REMARK    8  A    between atoms: O5_33  and  C29_34 
REMARK    9  A    between atoms: C30_36  and  C31_37 
REMARK   10  A    between atoms: C31_37  and  O7_38 
REMARK   11  A    between atoms: C32_39  and  O8_40 
REMARK   12  A    between atoms: C33_41  and  O9_42 
REMARK   13  A    between atoms: C34_43  and  O10_44 
ROOT
HETATM    1  C11 UNL     1       0.211   6.723  13.291  1.00  0.00    -0.001 C 
HETATM    2  C12 UNL     1       1.562   6.487  14.024  1.00  0.00     0.007 C 
HETATM    3  C13 UNL     1       1.815   7.690  14.948  1.00  0.00     0.024 C 
HETATM    4  C14 UNL     1       0.594   8.565  14.777  1.00  0.00     0.092 C 
HETATM    5  C15 UNL     1      -0.502   8.220  15.817  1.00  0.00     0.272 C 
HETATM    6  O2  UNL     1      -0.699   7.151  16.367  1.00  0.00    -0.264 OA
HETATM    7  O3  UNL     1      -1.264   9.351  16.037  1.00  0.00    -0.305 OA
HETATM    8  C16 UNL     1      -0.765  10.427  15.196  1.00  0.00     0.113 C 
HETATM    9  C17 UNL     1      -1.481  10.277  13.815  1.00  0.00     0.043 C 
HETATM   10  C18 UNL     1      -1.363   8.851  13.203  1.00  0.00     0.014 C 
HETATM   11  C19 UNL     1       0.073   8.279  13.330  1.00  0.00    -0.020 C 
HETATM   12  C20 UNL     1       0.957   8.927  12.233  1.00  0.00     0.017 C 
HETATM   13  C21 UNL     1       0.664  10.016  15.049  1.00  0.00     0.137 A 
HETATM   14  O4  UNL     1       1.626  10.853  14.440  1.00  0.00    -0.364 OA
HETATM   15  C22 UNL     1       1.760  10.649  15.866  1.00  0.00     0.162 A 
HETATM   16  C23 UNL     1       1.473  11.854  16.697  1.00  0.00     0.041 C 
HETATM   17  C24 UNL     1      -0.006  11.905  17.151  1.00  0.00     0.009 C 
HETATM   18  C25 UNL     1      -0.285  13.053  18.207  1.00  0.00    -0.017 C 
HETATM   19  C26 UNL     1       0.551  14.332  17.968  1.00  0.00     0.018 C 
HETATM   20  C27 UNL     1       0.154  12.518  19.603  1.00  0.00     0.018 C 
HETATM   21  C28 UNL     1      -1.805  13.403  18.307  1.00  0.00     0.133 C 
HETATM   22  C35 UNL     1      -2.661  12.212  17.881  1.00  0.00     0.034 C 
HETATM   23  C36 UNL     1      -2.485  11.898  16.397  1.00  0.00     0.015 C 
HETATM   24  C37 UNL     1      -0.995  11.814  15.919  1.00  0.00    -0.004 C 
HETATM   25  C38 UNL     1      -0.756  12.976  14.919  1.00  0.00     0.019 C 
ENDROOT
BRANCH  21  26
HETATM   26  O5  UNL     1      -2.104  14.519  17.461  1.00  0.00    -0.352 OA
BRANCH  26  27
HETATM   27  C29 UNL     1      -3.265  15.261  17.852  1.00  0.00     0.292 C 
HETATM   28  O6  UNL     1      -3.586  16.237  16.858  1.00  0.00    -0.348 OA
HETATM   29  C30 UNL     1      -4.456  17.258  17.345  1.00  0.00     0.179 C 
HETATM   30  C32 UNL     1      -3.757  18.133  18.414  1.00  0.00     0.180 C 
HETATM   31  C33 UNL     1      -2.663  17.355  19.171  1.00  0.00     0.183 C 
HETATM   32  C34 UNL     1      -2.999  15.866  19.260  1.00  0.00     0.204 C 
BRANCH  29  33
HETATM   33  C31 UNL     1      -4.960  18.063  16.144  1.00  0.00     0.198 C 
BRANCH  33  34
HETATM   34  O7  UNL     1      -5.328  17.198  15.072  1.00  0.00    -0.398 OA
HETATM   35  H49 UNL     1      -4.720  17.389  14.333  1.00  0.00     0.209 HD
ENDBRANCH  33  34
ENDBRANCH  29  33
BRANCH  30  36
HETATM   36  O8  UNL     1      -3.150  19.321  17.877  1.00  0.00    -0.390 OA
HETATM   37  H51 UNL     1      -3.885  19.839  17.484  1.00  0.00     0.210 HD
ENDBRANCH  30  36
BRANCH  31  38
HETATM   38  O9  UNL     1      -1.382  17.557  18.565  1.00  0.00    -0.390 OA
HETATM   39  H53 UNL     1      -1.470  18.409  18.084  1.00  0.00     0.210 HD
ENDBRANCH  31  38
BRANCH  32  40
HETATM   40  O10 UNL     1      -4.178  15.717  20.081  1.00  0.00    -0.388 OA
HETATM   41  H55 UNL     1      -3.883  15.805  21.006  1.00  0.00     0.210 HD
ENDBRANCH  32  40
ENDBRANCH  26  27
ENDBRANCH  21  26
BRANCH   1  42
HETATM   42  C2  UNL     1       0.144   5.975  11.924  1.00  0.00    -0.014 C 
HETATM   43  C1  UNL     1      -0.561   4.618  12.053  1.00  0.00     0.010 C 
BRANCH  42  44
HETATM   44  C3  UNL     1       1.561   5.739  11.328  1.00  0.00     0.007 C 
BRANCH  44  45
HETATM   45  C4  UNL     1       1.619   5.609   9.800  1.00  0.00     0.038 C 
BRANCH  45  46
HETATM   46  C5  UNL     1       2.663   6.420   8.969  1.00  0.00     0.061 C 
HETATM   47  C6  UNL     1       3.822   6.908   9.851  1.00  0.00     0.046 C 
BRANCH  46  48
HETATM   48  O1  UNL     1       3.245   5.421   8.089  1.00  0.00    -0.389 OA
HETATM   49  H12 UNL     1       3.671   4.740   8.636  1.00  0.00     0.210 HD
ENDBRANCH  46  48
BRANCH  46  50
HETATM   50  C7  UNL     1       2.095   7.559   8.015  1.00  0.00    -0.021 C 
HETATM   51  C8  UNL     1       1.914   7.040   6.571  1.00  0.00     0.017 C 
HETATM   52  C9  UNL     1       0.753   8.165   8.474  1.00  0.00     0.017 C 
HETATM   53  C10 UNL     1       3.094   8.746   7.930  1.00  0.00     0.017 C 
ENDBRANCH  46  50
ENDBRANCH  45  46
ENDBRANCH  44  45
ENDBRANCH  42  44
ENDBRANCH   1  42
TORSDOF 13
ENDMDL
MODEL 6
REMARK minimizedAffinity -7.9575386
REMARK CNNscore 0.123377129
REMARK CNNaffinity 5.82028151
REMARK  13 active torsions:
REMARK  status: ('A' for Active; 'I' for Inactive)
REMARK    1  A    between atoms: C2_2  and  C3_3 
REMARK    2  A    between atoms: C2_2  and  C11_12 
REMARK    3  A    between atoms: C3_3  and  C4_4 
REMARK    4  A    between atoms: C4_4  and  C5_5 
REMARK    5  A    between atoms: C5_5  and  O1_7 
REMARK    6  A    between atoms: C5_5  and  C7_8 
REMARK    7  A    between atoms: C28_32  and  O5_33 
REMARK    8  A    between atoms: O5_33  and  C29_34 
REMARK    9  A    between atoms: C30_36  and  C31_37 
REMARK   10  A    between atoms: C31_37  and  O7_38 
REMARK   11  A    between atoms: C32_39  and  O8_40 
REMARK   12  A    between atoms: C33_41  and  O9_42 
REMARK   13  A    between atoms: C34_43  and  O10_44 
ROOT
HETATM    1  C11 UNL     1      -0.810  11.233  16.840  1.00  0.00    -0.001 C 
HETATM    2  C12 UNL     1      -1.556  10.703  18.097  1.00  0.00     0.007 C 
HETATM    3  C13 UNL     1      -0.589  10.789  19.291  1.00  0.00     0.024 C 
HETATM    4  C14 UNL     1       0.666  11.410  18.721  1.00  0.00     0.092 C 
HETATM    5  C15 UNL     1       0.646  12.954  18.853  1.00  0.00     0.272 C 
HETATM    6  O2  UNL     1      -0.328  13.686  18.893  1.00  0.00    -0.264 OA
HETATM    7  O3  UNL     1       1.951  13.402  18.913  1.00  0.00    -0.305 OA
HETATM    8  C16 UNL     1       2.846  12.262  18.809  1.00  0.00     0.113 C 
HETATM    9  C17 UNL     1       3.060  12.007  17.282  1.00  0.00     0.043 C 
HETATM   10  C18 UNL     1       1.734  11.880  16.478  1.00  0.00     0.014 C 
HETATM   11  C19 UNL     1       0.690  10.998  17.213  1.00  0.00    -0.020 C 
HETATM   12  C20 UNL     1       1.072   9.509  17.001  1.00  0.00     0.017 C 
HETATM   13  C21 UNL     1       1.977  11.182  19.364  1.00  0.00     0.137 A 
HETATM   14  O4  UNL     1       2.471   9.886  19.633  1.00  0.00    -0.364 OA
HETATM   15  C22 UNL     1       2.125  10.694  20.782  1.00  0.00     0.162 A 
HETATM   16  C23 UNL     1       3.288  11.134  21.607  1.00  0.00     0.041 C 
HETATM   17  C24 UNL     1       3.815  12.522  21.170  1.00  0.00     0.009 C 
HETATM   18  C25 UNL     1       4.904  13.105  22.163  1.00  0.00    -0.017 C 
HETATM   19  C26 UNL     1       5.827  12.025  22.774  1.00  0.00     0.018 C 
HETATM   20  C27 UNL     1       4.146  13.741  23.366  1.00  0.00     0.018 C 
HETATM   21  C28 UNL     1       5.752  14.241  21.503  1.00  0.00     0.133 C 
HETATM   22  C35 UNL     1       4.969  14.913  20.377  1.00  0.00     0.034 C 
HETATM   23  C36 UNL     1       4.727  13.954  19.214  1.00  0.00     0.015 C 
HETATM   24  C37 UNL     1       4.168  12.551  19.628  1.00  0.00    -0.004 C 
HETATM   25  C38 UNL     1       5.246  11.492  19.279  1.00  0.00     0.019 C 
ENDROOT
BRANCH  21  26
HETATM   26  O5  UNL     1       6.963  13.696  20.969  1.00  0.00    -0.352 OA
BRANCH  26  27
HETATM   27  C29 UNL     1       8.149  14.106  21.659  1.00  0.00     0.292 C 
HETATM   28  O6  UNL     1       7.809  14.888  22.807  1.00  0.00    -0.348 OA
HETATM   29  C30 UNL     1       8.907  15.654  23.301  1.00  0.00     0.179 C 
HETATM   30  C32 UNL     1       9.323  16.756  22.297  1.00  0.00     0.180 C 
HETATM   31  C33 UNL     1       8.996  16.366  20.844  1.00  0.00     0.183 C 
HETATM   32  C34 UNL     1       9.064  14.851  20.644  1.00  0.00     0.204 C 
BRANCH  29  33
HETATM   33  C31 UNL     1       8.517  16.206  24.675  1.00  0.00     0.198 C 
BRANCH  33  34
HETATM   34  O7  UNL     1       9.353  15.663  25.695  1.00  0.00    -0.398 OA
HETATM   35  H49 UNL     1       8.777  15.134  26.280  1.00  0.00     0.209 HD
ENDBRANCH  33  34
ENDBRANCH  29  33
BRANCH  30  36
HETATM   36  O8  UNL     1       8.705  18.030  22.554  1.00  0.00    -0.390 OA
HETATM   37  H51 UNL     1       9.007  18.295  23.448  1.00  0.00     0.210 HD
ENDBRANCH  30  36
BRANCH  31  38
HETATM   38  O9  UNL     1       7.718  16.878  20.454  1.00  0.00    -0.390 OA
HETATM   39  H53 UNL     1       7.564  17.640  21.055  1.00  0.00     0.210 HD
ENDBRANCH  31  38
BRANCH  32  40
HETATM   40  O10 UNL     1      10.433  14.432  20.828  1.00  0.00    -0.388 OA
HETATM   41  H55 UNL     1      10.903  14.658  20.005  1.00  0.00     0.210 HD
ENDBRANCH  32  40
ENDBRANCH  26  27
ENDBRANCH  21  26
BRANCH   1  42
HETATM   42  C2  UNL     1      -1.381  10.632  15.519  1.00  0.00    -0.014 C 
HETATM   43  C1  UNL     1      -2.162  11.676  14.711  1.00  0.00     0.010 C 
BRANCH  42  44
HETATM   44  C3  UNL     1      -2.319   9.422  15.797  1.00  0.00     0.007 C 
BRANCH  44  45
HETATM   45  C4  UNL     1      -2.567   8.495  14.600  1.00  0.00     0.038 C 
BRANCH  45  46
HETATM   46  C5  UNL     1      -2.978   7.004  14.817  1.00  0.00     0.061 C 
HETATM   47  C6  UNL     1      -1.837   6.048  14.434  1.00  0.00     0.046 C 
BRANCH  46  48
HETATM   48  O1  UNL     1      -3.103   6.894  16.261  1.00  0.00    -0.389 OA
HETATM   49  H12 UNL     1      -2.239   7.091  16.660  1.00  0.00     0.210 HD
ENDBRANCH  46  48
BRANCH  46  50
HETATM   50  C7  UNL     1      -4.383   6.551  14.225  1.00  0.00    -0.021 C 
HETATM   51  C8  UNL     1      -4.980   7.642  13.308  1.00  0.00     0.017 C 
HETATM   52  C9  UNL     1      -4.345   5.231  13.430  1.00  0.00     0.017 C 
HETATM   53  C10 UNL     1      -5.411   6.332  15.370  1.00  0.00     0.017 C 
ENDBRANCH  46  50
ENDBRANCH  45  46
ENDBRANCH  44  45
ENDBRANCH  42  44
ENDBRANCH   1  42
TORSDOF 13
ENDMDL
MODEL 7
REMARK minimizedAffinity -7.98144293
REMARK CNNscore 0.100917719
REMARK CNNaffinity 5.83801222
REMARK  13 active torsions:
REMARK  status: ('A' for Active; 'I' for Inactive)
REMARK    1  A    between atoms: C2_2  and  C3_3 
REMARK    2  A    between atoms: C2_2  and  C11_12 
REMARK    3  A    between atoms: C3_3  and  C4_4 
REMARK    4  A    between atoms: C4_4  and  C5_5 
REMARK    5  A    between atoms: C5_5  and  O1_7 
REMARK    6  A    between atoms: C5_5  and  C7_8 
REMARK    7  A    between atoms: C28_32  and  O5_33 
REMARK    8  A    between atoms: O5_33  and  C29_34 
REMARK    9  A    between atoms: C30_36  and  C31_37 
REMARK   10  A    between atoms: C31_37  and  O7_38 
REMARK   11  A    between atoms: C32_39  and  O8_40 
REMARK   12  A    between atoms: C33_41  and  O9_42 
REMARK   13  A    between atoms: C34_43  and  O10_44 
ROOT
HETATM    1  C11 UNL     1     -17.124   3.318  14.851  1.00  0.00    -0.001 C 
HETATM    2  C12 UNL     1     -17.335   2.801  16.303  1.00  0.00     0.007 C 
HETATM    3  C13 UNL     1     -17.209   1.268  16.281  1.00  0.00     0.024 C 
HETATM    4  C14 UNL     1     -16.877   0.934  14.844  1.00  0.00     0.092 C 
HETATM    5  C15 UNL     1     -15.346   0.887  14.611  1.00  0.00     0.272 C 
HETATM    6  O2  UNL     1     -14.480   1.491  15.220  1.00  0.00    -0.264 OA
HETATM    7  O3  UNL     1     -15.092   0.028  13.560  1.00  0.00    -0.305 OA
HETATM    8  C16 UNL     1     -16.354  -0.488  13.058  1.00  0.00     0.113 C 
HETATM    9  C17 UNL     1     -16.873   0.552  12.013  1.00  0.00     0.043 C 
HETATM   10  C18 UNL     1     -16.926   2.009  12.557  1.00  0.00     0.014 C 
HETATM   11  C19 UNL     1     -17.518   2.075  13.989  1.00  0.00    -0.020 C 
HETATM   12  C20 UNL     1     -19.061   1.957  13.886  1.00  0.00     0.017 C 
HETATM   13  C21 UNL     1     -17.194  -0.399  14.290  1.00  0.00     0.137 A 
HETATM   14  O4  UNL     1     -18.491  -0.955  14.355  1.00  0.00    -0.364 OA
HETATM   15  C22 UNL     1     -17.471  -1.604  15.150  1.00  0.00     0.162 A 
HETATM   16  C23 UNL     1     -17.086  -2.966  14.677  1.00  0.00     0.041 C 
HETATM   17  C24 UNL     1     -15.876  -2.923  13.713  1.00  0.00     0.009 C 
HETATM   18  C25 UNL     1     -15.314  -4.364  13.368  1.00  0.00    -0.017 C 
HETATM   19  C26 UNL     1     -16.410  -5.450  13.271  1.00  0.00     0.018 C 
HETATM   20  C27 UNL     1     -14.393  -4.798  14.548  1.00  0.00     0.018 C 
HETATM   21  C28 UNL     1     -14.433  -4.357  12.077  1.00  0.00     0.133 C 
HETATM   22  C35 UNL     1     -13.836  -2.972  11.839  1.00  0.00     0.034 C 
HETATM   23  C36 UNL     1     -14.917  -1.944  11.514  1.00  0.00     0.015 C 
HETATM   24  C37 UNL     1     -16.141  -1.950  12.493  1.00  0.00    -0.004 C 
HETATM   25  C38 UNL     1     -17.389  -2.390  11.684  1.00  0.00     0.019 C 
ENDROOT
BRANCH  21  26
HETATM   26  O5  UNL     1     -15.228  -4.724  10.944  1.00  0.00    -0.352 OA
BRANCH  26  27
HETATM   27  C29 UNL     1     -14.472  -5.048   9.773  1.00  0.00     0.292 C 
HETATM   28  O6  UNL     1     -15.089  -4.484   8.613  1.00  0.00    -0.348 OA
HETATM   29  C30 UNL     1     -14.639  -5.085   7.399  1.00  0.00     0.179 C 
HETATM   30  C32 UNL     1     -15.095  -6.560   7.296  1.00  0.00     0.180 C 
HETATM   31  C33 UNL     1     -15.275  -7.206   8.683  1.00  0.00     0.183 C 
HETATM   32  C34 UNL     1     -14.320  -6.596   9.710  1.00  0.00     0.204 C 
BRANCH  29  33
HETATM   33  C31 UNL     1     -15.129  -4.220   6.233  1.00  0.00     0.198 C 
BRANCH  33  34
HETATM   34  O7  UNL     1     -14.169  -4.195   5.181  1.00  0.00    -0.398 OA
HETATM   35  H49 UNL     1     -13.858  -3.274   5.103  1.00  0.00     0.209 HD
ENDBRANCH  33  34
ENDBRANCH  29  33
BRANCH  30  36
HETATM   36  O8  UNL     1     -16.328  -6.732   6.575  1.00  0.00    -0.390 OA
HETATM   37  H51 UNL     1     -16.154  -6.397   5.670  1.00  0.00     0.210 HD
ENDBRANCH  30  36
BRANCH  31  38
HETATM   38  O9  UNL     1     -16.634  -7.104   9.121  1.00  0.00    -0.390 OA
HETATM   39  H53 UNL     1     -17.151  -7.002   8.292  1.00  0.00     0.210 HD
ENDBRANCH  31  38
BRANCH  32  40
HETATM   40  O10 UNL     1     -12.969  -6.934   9.329  1.00  0.00    -0.388 OA
HETATM   41  H55 UNL     1     -12.829  -7.858   9.605  1.00  0.00     0.210 HD
ENDBRANCH  32  40
ENDBRANCH  26  27
ENDBRANCH  21  26
BRANCH   1  42
HETATM   42  C2  UNL     1     -17.832   4.686  14.604  1.00  0.00    -0.014 C 
HETATM   43  C1  UNL     1     -17.703   5.137  13.143  1.00  0.00     0.010 C 
BRANCH  42  44
HETATM   44  C3  UNL     1     -17.254   5.805  15.517  1.00  0.00     0.007 C 
BRANCH  44  45
HETATM   45  C4  UNL     1     -15.723   5.882  15.575  1.00  0.00     0.038 C 
BRANCH  45  46
HETATM   46  C5  UNL     1     -14.984   7.239  15.355  1.00  0.00     0.061 C 
HETATM   47  C6  UNL     1     -15.966   8.421  15.372  1.00  0.00     0.046 C 
BRANCH  46  48
HETATM   48  O1  UNL     1     -14.184   7.388  16.560  1.00  0.00    -0.389 OA
HETATM   49  H12 UNL     1     -14.783   7.424  17.324  1.00  0.00     0.210 HD
ENDBRANCH  46  48
BRANCH  46  50
HETATM   50  C7  UNL     1     -13.957   7.312  14.142  1.00  0.00    -0.021 C 
HETATM   51  C8  UNL     1     -12.817   6.282  14.313  1.00  0.00     0.017 C 
HETATM   52  C9  UNL     1     -14.592   7.091  12.755  1.00  0.00     0.017 C 
HETATM   53  C10 UNL     1     -13.279   8.709  14.086  1.00  0.00     0.017 C 
ENDBRANCH  46  50
ENDBRANCH  45  46
ENDBRANCH  44  45
ENDBRANCH  42  44
ENDBRANCH   1  42
TORSDOF 13
ENDMDL
MODEL 8
REMARK minimizedAffinity -8.15410709
REMARK CNNscore 0.0988892838
REMARK CNNaffinity 6.26790237
REMARK  13 active torsions:
REMARK  status: ('A' for Active; 'I' for Inactive)
REMARK    1  A    between atoms: C2_2  and  C3_3 
REMARK    2  A    between atoms: C2_2  and  C11_12 
REMARK    3  A    between atoms: C3_3  and  C4_4 
REMARK    4  A    between atoms: C4_4  and  C5_5 
REMARK    5  A    between atoms: C5_5  and  O1_7 
REMARK    6  A    between atoms: C5_5  and  C7_8 
REMARK    7  A    between atoms: C28_32  and  O5_33 
REMARK    8  A    between atoms: O5_33  and  C29_34 
REMARK    9  A    between atoms: C30_36  and  C31_37 
REMARK   10  A    between atoms: C31_37  and  O7_38 
REMARK   11  A    between atoms: C32_39  and  O8_40 
REMARK   12  A    between atoms: C33_41  and  O9_42 
REMARK   13  A    between atoms: C34_43  and  O10_44 
ROOT
HETATM    1  C11 UNL     1       6.257   8.140  12.023  1.00  0.00    -0.001 C 
HETATM    2  C12 UNL     1       5.217   9.255  11.715  1.00  0.00     0.007 C 
HETATM    3  C13 UNL     1       5.656  10.528  12.458  1.00  0.00     0.024 C 
HETATM    4  C14 UNL     1       6.957  10.148  13.130  1.00  0.00     0.092 C 
HETATM    5  C15 UNL     1       8.175  10.466  12.227  1.00  0.00     0.272 C 
HETATM    6  O2  UNL     1       8.211  10.512  11.010  1.00  0.00    -0.264 OA
HETATM    7  O3  UNL     1       9.270  10.692  13.038  1.00  0.00    -0.305 OA
HETATM    8  C16 UNL     1       8.870  10.526  14.426  1.00  0.00     0.113 C 
HETATM    9  C17 UNL     1       9.012   9.003  14.748  1.00  0.00     0.043 C 
HETATM   10  C18 UNL     1       8.277   8.080  13.735  1.00  0.00     0.014 C 
HETATM   11  C19 UNL     1       6.861   8.609  13.386  1.00  0.00    -0.020 C 
HETATM   12  C20 UNL     1       5.904   8.250  14.553  1.00  0.00     0.017 C 
HETATM   13  C21 UNL     1       7.419  10.869  14.334  1.00  0.00     0.137 A 
HETATM   14  O4  UNL     1       6.610  11.019  15.482  1.00  0.00    -0.364 OA
HETATM   15  C22 UNL     1       6.897  12.224  14.735  1.00  0.00     0.162 A 
HETATM   16  C23 UNL     1       7.790  13.193  15.435  1.00  0.00     0.041 C 
HETATM   17  C24 UNL     1       9.278  12.976  15.070  1.00  0.00     0.009 C 
HETATM   18  C25 UNL     1      10.220  14.122  15.627  1.00  0.00    -0.017 C 
HETATM   19  C26 UNL     1       9.777  14.674  17.003  1.00  0.00     0.018 C 
HETATM   20  C27 UNL     1      10.124  15.324  14.641  1.00  0.00     0.018 C 
HETATM   21  C28 UNL     1      11.719  13.681  15.671  1.00  0.00     0.133 C 
HETATM   22  C35 UNL     1      11.987  12.583  14.643  1.00  0.00     0.034 C 
HETATM   23  C36 UNL     1      11.247  11.295  14.996  1.00  0.00     0.015 C 
HETATM   24  C37 UNL     1       9.731  11.485  15.343  1.00  0.00    -0.004 C 
HETATM   25  C38 UNL     1       9.538  11.103  16.834  1.00  0.00     0.019 C 
ENDROOT
BRANCH  21  26
HETATM   26  O5  UNL     1      12.044  13.191  16.976  1.00  0.00    -0.352 OA
BRANCH  26  27
HETATM   27  C29 UNL     1      10.981  12.479  17.620  1.00  0.00     0.292 C 
HETATM   28  O6  UNL     1      10.204  13.371  18.423  1.00  0.00    -0.348 OA
HETATM   29  C30 UNL     1       9.403  12.690  19.388  1.00  0.00     0.179 C 
HETATM   30  C32 UNL     1      10.276  11.999  20.463  1.00  0.00     0.180 C 
HETATM   31  C33 UNL     1      11.664  11.612  19.916  1.00  0.00     0.183 C 
HETATM   32  C34 UNL     1      11.606  11.300  18.420  1.00  0.00     0.204 C 
BRANCH  29  33
HETATM   33  C31 UNL     1       8.411  13.699  19.976  1.00  0.00     0.198 C 
BRANCH  33  34
HETATM   34  O7  UNL     1       7.067  13.299  19.719  1.00  0.00    -0.398 OA
HETATM   35  H49 UNL     1       6.676  13.980  19.140  1.00  0.00     0.209 HD
ENDBRANCH  33  34
ENDBRANCH  29  33
BRANCH  30  36
HETATM   36  O8  UNL     1      10.483  12.801  21.639  1.00  0.00    -0.390 OA
HETATM   37  H51 UNL     1       9.590  12.953  22.016  1.00  0.00     0.210 HD
ENDBRANCH  30  36
BRANCH  31  38
HETATM   38  O9  UNL     1      12.624  12.638  20.189  1.00  0.00    -0.390 OA
HETATM   39  H53 UNL     1      12.254  13.121  20.960  1.00  0.00     0.210 HD
ENDBRANCH  31  38
BRANCH  32  40
HETATM   40  O10 UNL     1      10.804  10.112  18.236  1.00  0.00    -0.388 OA
HETATM   41  H55 UNL     1      11.374   9.357  18.470  1.00  0.00     0.210 HD
ENDBRANCH  32  40
ENDBRANCH  26  27
ENDBRANCH  21  26
BRANCH   1  42
HETATM   42  C2  UNL     1       5.643   6.712  11.900  1.00  0.00    -0.014 C 
HETATM   43  C1  UNL     1       6.491   5.804  10.998  1.00  0.00     0.010 C 
BRANCH  42  44
HETATM   44  C3  UNL     1       4.195   6.755  11.332  1.00  0.00     0.007 C 
BRANCH  44  45
HETATM   45  C4  UNL     1       3.956   5.907  10.076  1.00  0.00     0.038 C 
BRANCH  45  46
HETATM   46  C5  UNL     1       2.739   6.193   9.140  1.00  0.00     0.061 C 
HETATM   47  C6  UNL     1       2.897   5.486   7.785  1.00  0.00     0.046 C 
BRANCH  46  48
HETATM   48  O1  UNL     1       1.637   5.516   9.801  1.00  0.00    -0.389 OA
HETATM   49  H12 UNL     1       1.841   4.567   9.845  1.00  0.00     0.210 HD
ENDBRANCH  46  48
BRANCH  46  50
HETATM   50  C7  UNL     1       2.287   7.711   8.991  1.00  0.00    -0.021 C 
HETATM   51  C8  UNL     1       3.467   8.604   8.545  1.00  0.00     0.017 C 
HETATM   52  C9  UNL     1       1.123   7.936   8.006  1.00  0.00     0.017 C 
HETATM   53  C10 UNL     1       1.807   8.273  10.358  1.00  0.00     0.017 C 
ENDBRANCH  46  50
ENDBRANCH  45  46
ENDBRANCH  44  45
ENDBRANCH  42  44
ENDBRANCH   1  42
TORSDOF 13
ENDMDL
MODEL 9
REMARK minimizedAffinity -7.14800501
REMARK CNNscore 0.0979584455
REMARK CNNaffinity 5.72031736
REMARK  13 active torsions:
REMARK  status: ('A' for Active; 'I' for Inactive)
REMARK    1  A    between atoms: C2_2  and  C3_3 
REMARK    2  A    between atoms: C2_2  and  C11_12 
REMARK    3  A    between atoms: C3_3  and  C4_4 
REMARK    4  A    between atoms: C4_4  and  C5_5 
REMARK    5  A    between atoms: C5_5  and  O1_7 
REMARK    6  A    between atoms: C5_5  and  C7_8 
REMARK    7  A    between atoms: C28_32  and  O5_33 
REMARK    8  A    between atoms: O5_33  and  C29_34 
REMARK    9  A    between atoms: C30_36  and  C31_37 
REMARK   10  A    between atoms: C31_37  and  O7_38 
REMARK   11  A    between atoms: C32_39  and  O8_40 
REMARK   12  A    between atoms: C33_41  and  O9_42 
REMARK   13  A    between atoms: C34_43  and  O10_44 
ROOT
HETATM    1  C11 UNL     1     -16.802   1.925  15.769  1.00  0.00    -0.001 C 
HETATM    2  C12 UNL     1     -17.571   1.105  16.843  1.00  0.00     0.007 C 
HETATM    3  C13 UNL     1     -17.744  -0.327  16.310  1.00  0.00     0.024 C 
HETATM    4  C14 UNL     1     -17.033  -0.326  14.976  1.00  0.00     0.092 C 
HETATM    5  C15 UNL     1     -15.550  -0.748  15.122  1.00  0.00     0.272 C 
HETATM    6  O2  UNL     1     -14.830  -0.619  16.098  1.00  0.00    -0.264 OA
HETATM    7  O3  UNL     1     -15.139  -1.312  13.931  1.00  0.00    -0.305 OA
HETATM    8  C16 UNL     1     -16.242  -1.276  12.986  1.00  0.00     0.113 C 
HETATM    9  C17 UNL     1     -16.181   0.120  12.286  1.00  0.00     0.043 C 
HETATM   10  C18 UNL     1     -16.124   1.315  13.281  1.00  0.00     0.014 C 
HETATM   11  C19 UNL     1     -17.126   1.145  14.453  1.00  0.00    -0.020 C 
HETATM   12  C20 UNL     1     -18.544   1.515  13.942  1.00  0.00     0.017 C 
HETATM   13  C21 UNL     1     -17.404  -1.297  13.925  1.00  0.00     0.137 A 
HETATM   14  O4  UNL     1     -18.733  -1.446  13.470  1.00  0.00    -0.364 OA
HETATM   15  C22 UNL     1     -18.175  -2.560  14.206  1.00  0.00     0.162 A 
HETATM   16  C23 UNL     1     -17.928  -3.785  13.390  1.00  0.00     0.041 C 
HETATM   17  C24 UNL     1     -16.486  -3.825  12.829  1.00  0.00     0.009 C 
HETATM   18  C25 UNL     1     -16.132  -5.210  12.144  1.00  0.00    -0.017 C 
HETATM   19  C26 UNL     1     -17.326  -5.857  11.404  1.00  0.00     0.018 C 
HETATM   20  C27 UNL     1     -15.750  -6.207  13.278  1.00  0.00     0.018 C 
HETATM   21  C28 UNL     1     -14.895  -5.096  11.195  1.00  0.00     0.133 C 
HETATM   22  C35 UNL     1     -13.997  -3.937  11.619  1.00  0.00     0.034 C 
HETATM   23  C36 UNL     1     -14.692  -2.591  11.426  1.00  0.00     0.015 C 
HETATM   24  C37 UNL     1     -16.144  -2.516  12.010  1.00  0.00    -0.004 C 
HETATM   25  C38 UNL     1     -17.121  -2.328  10.819  1.00  0.00     0.019 C 
ENDROOT
BRANCH  21  26
HETATM   26  O5  UNL     1     -15.333  -4.882   9.850  1.00  0.00    -0.352 OA
BRANCH  26  27
HETATM   27  C29 UNL     1     -15.181  -6.019   8.992  1.00  0.00     0.292 C 
HETATM   28  O6  UNL     1     -14.055  -6.801   9.401  1.00  0.00    -0.348 OA
HETATM   29  C30 UNL     1     -13.604  -7.696   8.386  1.00  0.00     0.179 C 
HETATM   30  C32 UNL     1     -13.016  -6.930   7.177  1.00  0.00     0.180 C 
HETATM   31  C33 UNL     1     -13.643  -5.531   7.020  1.00  0.00     0.183 C 
HETATM   32  C34 UNL     1     -15.086  -5.508   7.526  1.00  0.00     0.204 C 
BRANCH  29  33
HETATM   33  C31 UNL     1     -12.609  -8.671   9.023  1.00  0.00     0.198 C 
BRANCH  33  34
HETATM   34  O7  UNL     1     -11.635  -7.971   9.793  1.00  0.00    -0.398 OA
HETATM   35  H49 UNL     1     -10.772  -8.124   9.364  1.00  0.00     0.209 HD
ENDBRANCH  33  34
ENDBRANCH  29  33
BRANCH  30  36
HETATM   36  O8  UNL     1     -11.589  -6.759   7.243  1.00  0.00    -0.390 OA
HETATM   37  H51 UNL     1     -11.215  -7.666   7.247  1.00  0.00     0.210 HD
ENDBRANCH  30  36
BRANCH  31  38
HETATM   38  O9  UNL     1     -12.851  -4.540   7.684  1.00  0.00    -0.390 OA
HETATM   39  H53 UNL     1     -11.953  -4.934   7.729  1.00  0.00     0.210 HD
ENDBRANCH  31  38
BRANCH  32  40
HETATM   40  O10 UNL     1     -15.880  -6.355   6.666  1.00  0.00    -0.388 OA
HETATM   41  H55 UNL     1     -16.053  -5.841   5.857  1.00  0.00     0.210 HD
ENDBRANCH  32  40
ENDBRANCH  26  27
ENDBRANCH  21  26
BRANCH   1  42
HETATM   42  C2  UNL     1     -17.111   3.451  15.859  1.00  0.00    -0.014 C 
HETATM   43  C1  UNL     1     -18.595   3.746  15.600  1.00  0.00     0.010 C 
BRANCH  42  44
HETATM   44  C3  UNL     1     -16.262   4.270  14.844  1.00  0.00     0.007 C 
BRANCH  44  45
HETATM   45  C4  UNL     1     -16.344   5.794  14.999  1.00  0.00     0.038 C 
BRANCH  45  46
HETATM   46  C5  UNL     1     -16.526   6.714  13.750  1.00  0.00     0.061 C 
HETATM   47  C6  UNL     1     -17.119   5.937  12.564  1.00  0.00     0.046 C 
BRANCH  46  48
HETATM   48  O1  UNL     1     -17.567   7.641  14.161  1.00  0.00    -0.389 OA
HETATM   49  H12 UNL     1     -18.372   7.133  14.354  1.00  0.00     0.210 HD
ENDBRANCH  46  48
BRANCH  46  50
HETATM   50  C7  UNL     1     -15.283   7.615  13.333  1.00  0.00    -0.021 C 
HETATM   51  C8  UNL     1     -14.022   6.754  13.100  1.00  0.00     0.017 C 
HETATM   52  C9  UNL     1     -15.512   8.473  12.072  1.00  0.00     0.017 C 
HETATM   53  C10 UNL     1     -14.927   8.612  14.471  1.00  0.00     0.017 C 
ENDBRANCH  46  50
ENDBRANCH  45  46
ENDBRANCH  44  45
ENDBRANCH  42  44
ENDBRANCH   1  42
TORSDOF 13
ENDMDL
