MODEL 1
REMARK minimizedAffinity -7.44520187
REMARK CNNscore 0.304574877
REMARK CNNaffinity 6.62957621
REMARK  8 active torsions:
REMARK  status: ('A' for Active; 'I' for Inactive)
REMARK    1  A    between atoms: C10_11  and  C11_12 
REMARK    2  A    between atoms: C29_32  and  C30_33 
REMARK    3  A    between atoms: C29_32  and  C31_35 
REMARK    4  A    between atoms: C30_33  and  O1_34 
REMARK    5  A    between atoms: C31_35  and  O3_37 
REMARK    6  A    between atoms: C38_45  and  O4_46 
REMARK    7  A    between atoms: C41_49  and  C42_50 
REMARK    8  A    between atoms: C42_50  and  O6_52 
ROOT
HETATM    1  C11 UNL     1     -14.209  44.745 -26.935  1.00  0.00     0.070 C 
HETATM    2  C12 UNL     1     -15.362  45.742 -26.656  1.00  0.00     0.026 C 
HETATM    3  C13 UNL     1     -16.830  45.217 -26.552  1.00  0.00     0.039 C 
HETATM    4  C14 UNL     1     -17.093  43.959 -27.380  1.00  0.00    -0.051 C 
HETATM    5  C15 UNL     1     -17.347  44.062 -28.702  1.00  0.00    -0.026 C 
HETATM    6  C16 UNL     1     -17.692  42.955 -29.649  1.00  0.00     0.036 C 
HETATM    7  C17 UNL     1     -17.110  42.646 -26.617  1.00  0.00     0.306 C 
HETATM    8  N2  UNL     1     -16.395  42.692 -25.352  1.00  0.00     0.094 N 
HETATM    9  C18 UNL     1     -16.427  41.412 -24.655  1.00  0.00     0.310 C 
HETATM   10  C19 UNL     1     -16.632  43.844 -24.445  1.00  0.00     0.248 C 
HETATM   11  C20 UNL     1     -15.293  44.271 -23.756  1.00  0.00     0.079 C 
HETATM   12  C21 UNL     1     -13.994  43.884 -24.406  1.00  0.00    -0.020 A 
HETATM   13  C22 UNL     1     -13.565  44.119 -25.708  1.00  0.00     0.025 A 
HETATM   14  N3  UNL     1     -12.300  43.570 -25.809  1.00  0.00    -0.358 N 
HETATM   15  C23 UNL     1     -11.889  43.017 -24.625  1.00  0.00     0.043 A 
HETATM   16  C24 UNL     1     -10.683  42.385 -24.298  1.00  0.00     0.030 A 
HETATM   17  C25 UNL     1     -10.541  41.896 -22.997  1.00  0.00     0.002 A 
HETATM   18  C26 UNL     1     -11.564  42.045 -22.065  1.00  0.00     0.001 A 
HETATM   19  C27 UNL     1     -12.757  42.692 -22.410  1.00  0.00     0.014 A 
HETATM   20  C28 UNL     1     -12.930  43.189 -23.722  1.00  0.00    -0.001 A 
HETATM   21  C29 UNL     1     -17.392  45.031 -25.111  1.00  0.00     0.107 C 
HETATM   22  H28 UNL     1     -11.734  43.590 -26.646  1.00  0.00     0.166 HD
ENDROOT
BRANCH   1  23
HETATM   23  C10 UNL     1     -13.140  45.431 -27.805  1.00  0.00    -0.048 A 
HETATM   24  C9  UNL     1     -12.317  44.685 -28.664  1.00  0.00     0.018 A 
HETATM   25  C8  UNL     1     -11.425  45.352 -29.494  1.00  0.00    -0.017 A 
HETATM   26  C7  UNL     1     -10.358  44.768 -30.392  1.00  0.00     0.061 C 
HETATM   27  C35 UNL     1     -11.344  46.744 -29.507  1.00  0.00     0.039 A 
HETATM   28  C6  UNL     1      -9.133  44.382 -29.517  1.00  0.00     0.050 C 
HETATM   29  C37 UNL     1      -9.856  46.061 -31.189  1.00  0.00     0.273 C 
HETATM   30  C41 UNL     1     -10.828  43.670 -31.371  1.00  0.00     0.111 C 
HETATM   31  C5  UNL     1      -8.072  45.419 -29.824  1.00  0.00     0.277 C 
HETATM   32  N1  UNL     1      -8.381  45.916 -31.167  1.00  0.00     0.125 N 
HETATM   33  C4  UNL     1      -7.811  45.058 -32.211  1.00  0.00     0.310 C 
HETATM   34  C3  UNL     1      -8.455  43.693 -32.418  1.00  0.00    -0.051 C 
HETATM   35  C2  UNL     1      -7.781  42.523 -32.437  1.00  0.00    -0.026 C 
HETATM   36  C40 UNL     1      -9.969  43.677 -32.666  1.00  0.00     0.033 C 
HETATM   37  C1  UNL     1      -6.320  42.279 -32.226  1.00  0.00     0.036 C 
HETATM   38  C39 UNL     1     -10.388  44.886 -33.509  1.00  0.00     0.046 C 
HETATM   39  C38 UNL     1     -10.451  46.166 -32.672  1.00  0.00     0.179 C 
HETATM   40  N4  UNL     1     -10.480  47.227 -30.483  1.00  0.00    -0.347 N 
HETATM   41  C36 UNL     1      -9.746  48.458 -30.290  1.00  0.00     0.152 C 
HETATM   42  C34 UNL     1     -12.135  47.491 -28.651  1.00  0.00     0.030 A 
HETATM   43  C33 UNL     1     -13.030  46.836 -27.800  1.00  0.00     0.010 A 
BRANCH  39  44
HETATM   44  O4  UNL     1     -11.835  46.576 -32.654  1.00  0.00    -0.391 OA
HETATM   45  H45 UNL     1     -11.890  47.172 -31.876  1.00  0.00     0.210 HD
ENDBRANCH  39  44
BRANCH  30  46
HETATM   46  C42 UNL     1     -10.950  42.271 -30.780  1.00  0.00     0.264 C 
HETATM   47  O5  UNL     1     -11.059  41.999 -29.592  1.00  0.00    -0.265 OA
BRANCH  46  48
HETATM   48  O6  UNL     1     -10.982  41.339 -31.778  1.00  0.00    -0.326 OA
HETATM   49  C43 UNL     1     -11.010  39.988 -31.313  1.00  0.00     0.213 C 
ENDBRANCH  46  48
ENDBRANCH  30  46
ENDBRANCH   1  23
BRANCH  21  50
HETATM   50  C30 UNL     1     -18.940  44.798 -25.187  1.00  0.00     0.186 C 
BRANCH  50  51
HETATM   51  O1  UNL     1     -19.624  45.880 -25.813  1.00  0.00    -0.399 OA
HETATM   52  H35 UNL     1     -20.570  45.647 -25.833  1.00  0.00     0.209 HD
ENDBRANCH  50  51
ENDBRANCH  21  50
BRANCH  21  53
HETATM   53  C31 UNL     1     -17.331  46.359 -24.344  1.00  0.00     0.272 C 
HETATM   54  O2  UNL     1     -16.546  47.261 -24.607  1.00  0.00    -0.264 OA
BRANCH  53  55
HETATM   55  O3  UNL     1     -18.306  46.459 -23.395  1.00  0.00    -0.326 OA
HETATM   56  C32 UNL     1     -17.836  46.326 -22.053  1.00  0.00     0.213 C 
ENDBRANCH  53  55
ENDBRANCH  21  53
TORSDOF 8
ENDMDL
MODEL 2
REMARK minimizedAffinity -8.56404114
REMARK CNNscore 0.198672354
REMARK CNNaffinity 6.53099012
REMARK  8 active torsions:
REMARK  status: ('A' for Active; 'I' for Inactive)
REMARK    1  A    between atoms: C10_11  and  C11_12 
REMARK    2  A    between atoms: C29_32  and  C30_33 
REMARK    3  A    between atoms: C29_32  and  C31_35 
REMARK    4  A    between atoms: C30_33  and  O1_34 
REMARK    5  A    between atoms: C31_35  and  O3_37 
REMARK    6  A    between atoms: C38_45  and  O4_46 
REMARK    7  A    between atoms: C41_49  and  C42_50 
REMARK    8  A    between atoms: C42_50  and  O6_52 
ROOT
HETATM    1  C11 UNL     1     -15.190  45.132 -22.996  1.00  0.00     0.070 C 
HETATM    2  C12 UNL     1     -16.344  45.055 -24.026  1.00  0.00     0.026 C 
HETATM    3  C13 UNL     1     -17.452  43.965 -23.865  1.00  0.00     0.039 C 
HETATM    4  C14 UNL     1     -16.969  42.696 -23.164  1.00  0.00    -0.051 C 
HETATM    5  C15 UNL     1     -16.306  41.749 -23.862  1.00  0.00    -0.026 C 
HETATM    6  C16 UNL     1     -15.823  40.424 -23.362  1.00  0.00     0.036 C 
HETATM    7  C17 UNL     1     -17.338  42.559 -21.697  1.00  0.00     0.306 C 
HETATM    8  N2  UNL     1     -17.636  43.824 -21.045  1.00  0.00     0.094 N 
HETATM    9  C18 UNL     1     -17.976  43.652 -19.639  1.00  0.00     0.310 C 
HETATM   10  C19 UNL     1     -18.533  44.784 -21.738  1.00  0.00     0.248 C 
HETATM   11  C20 UNL     1     -18.029  46.249 -21.515  1.00  0.00     0.079 C 
HETATM   12  C21 UNL     1     -16.590  46.465 -21.139  1.00  0.00    -0.020 A 
HETATM   13  C22 UNL     1     -15.443  46.017 -21.786  1.00  0.00     0.025 A 
HETATM   14  N3  UNL     1     -14.369  46.484 -21.048  1.00  0.00    -0.358 N 
HETATM   15  C23 UNL     1     -14.777  47.232 -19.975  1.00  0.00     0.043 A 
HETATM   16  C24 UNL     1     -14.019  47.895 -19.001  1.00  0.00     0.030 A 
HETATM   17  C25 UNL     1     -14.711  48.578 -17.998  1.00  0.00     0.002 A 
HETATM   18  C26 UNL     1     -16.103  48.602 -17.982  1.00  0.00     0.001 A 
HETATM   19  C27 UNL     1     -16.840  47.943 -18.974  1.00  0.00     0.014 A 
HETATM   20  C28 UNL     1     -16.165  47.236 -19.995  1.00  0.00    -0.001 A 
HETATM   21  C29 UNL     1     -18.795  44.441 -23.236  1.00  0.00     0.107 C 
HETATM   22  H28 UNL     1     -13.400  46.316 -21.281  1.00  0.00     0.166 HD
ENDROOT
BRANCH   1  23
HETATM   23  C10 UNL     1     -13.895  45.563 -23.709  1.00  0.00    -0.048 A 
HETATM   24  C9  UNL     1     -13.705  45.319 -25.078  1.00  0.00     0.018 A 
HETATM   25  C8  UNL     1     -12.560  45.802 -25.699  1.00  0.00    -0.017 A 
HETATM   26  C7  UNL     1     -12.079  45.553 -27.110  1.00  0.00     0.061 C 
HETATM   27  C35 UNL     1     -11.608  46.541 -24.997  1.00  0.00     0.039 A 
HETATM   28  C6  UNL     1     -11.421  44.146 -27.166  1.00  0.00     0.050 C 
HETATM   29  C37 UNL     1     -10.835  46.553 -27.213  1.00  0.00     0.273 C 
HETATM   30  C41 UNL     1     -13.102  45.835 -28.232  1.00  0.00     0.111 C 
HETATM   31  C5  UNL     1      -9.930  44.399 -27.270  1.00  0.00     0.277 C 
HETATM   32  N1  UNL     1      -9.795  45.727 -27.874  1.00  0.00     0.125 N 
HETATM   33  C4  UNL     1      -9.864  45.670 -29.338  1.00  0.00     0.310 C 
HETATM   34  C3  UNL     1     -11.223  45.374 -29.959  1.00  0.00    -0.051 C 
HETATM   35  C2  UNL     1     -11.453  44.406 -30.872  1.00  0.00    -0.026 C 
HETATM   36  C40 UNL     1     -12.386  46.282 -29.536  1.00  0.00     0.033 C 
HETATM   37  C1  UNL     1     -10.496  43.406 -31.440  1.00  0.00     0.036 C 
HETATM   38  C39 UNL     1     -11.900  47.722 -29.345  1.00  0.00     0.046 C 
HETATM   39  C38 UNL     1     -11.164  47.899 -28.014  1.00  0.00     0.179 C 
HETATM   40  N4  UNL     1     -10.596  47.033 -25.813  1.00  0.00    -0.347 N 
HETATM   41  C36 UNL     1      -9.253  47.220 -25.310  1.00  0.00     0.152 C 
HETATM   42  C34 UNL     1     -11.772  46.771 -23.642  1.00  0.00     0.030 A 
HETATM   43  C33 UNL     1     -12.912  46.282 -22.998  1.00  0.00     0.010 A 
BRANCH  39  44
HETATM   44  O4  UNL     1     -11.965  48.799 -27.220  1.00  0.00    -0.391 OA
HETATM   45  H45 UNL     1     -11.658  48.635 -26.302  1.00  0.00     0.210 HD
ENDBRANCH  39  44
BRANCH  30  46
HETATM   46  C42 UNL     1     -14.114  44.727 -28.492  1.00  0.00     0.264 C 
HETATM   47  O5  UNL     1     -13.896  43.525 -28.429  1.00  0.00    -0.265 OA
BRANCH  46  48
HETATM   48  O6  UNL     1     -15.343  45.264 -28.753  1.00  0.00    -0.326 OA
HETATM   49  C43 UNL     1     -16.393  44.742 -27.935  1.00  0.00     0.213 C 
ENDBRANCH  46  48
ENDBRANCH  30  46
ENDBRANCH   1  23
BRANCH  21  50
HETATM   50  C30 UNL     1     -19.879  43.324 -23.424  1.00  0.00     0.186 C 
BRANCH  50  51
HETATM   51  O1  UNL     1     -21.048  43.563 -22.644  1.00  0.00    -0.399 OA
HETATM   52  H35 UNL     1     -21.670  42.837 -22.834  1.00  0.00     0.209 HD
ENDBRANCH  50  51
ENDBRANCH  21  50
BRANCH  21  53
HETATM   53  C31 UNL     1     -19.398  45.580 -24.071  1.00  0.00     0.272 C 
HETATM   54  O2  UNL     1     -19.137  46.763 -23.895  1.00  0.00    -0.264 OA
BRANCH  53  55
HETATM   55  O3  UNL     1     -20.184  45.123 -25.088  1.00  0.00    -0.326 OA
HETATM   56  C32 UNL     1     -19.513  45.004 -26.342  1.00  0.00     0.213 C 
ENDBRANCH  53  55
ENDBRANCH  21  53
TORSDOF 8
ENDMDL
MODEL 3
REMARK minimizedAffinity -9.96049023
REMARK CNNscore 0.180484921
REMARK CNNaffinity 7.71909857
REMARK  8 active torsions:
REMARK  status: ('A' for Active; 'I' for Inactive)
REMARK    1  A    between atoms: C10_11  and  C11_12 
REMARK    2  A    between atoms: C29_32  and  C30_33 
REMARK    3  A    between atoms: C29_32  and  C31_35 
REMARK    4  A    between atoms: C30_33  and  O1_34 
REMARK    5  A    between atoms: C31_35  and  O3_37 
REMARK    6  A    between atoms: C38_45  and  O4_46 
REMARK    7  A    between atoms: C41_49  and  C42_50 
REMARK    8  A    between atoms: C42_50  and  O6_52 
ROOT
HETATM    1  C11 UNL     1      -0.128  50.709 -14.340  1.00  0.00     0.070 C 
HETATM    2  C12 UNL     1       0.904  49.594 -14.037  1.00  0.00     0.026 C 
HETATM    3  C13 UNL     1       2.378  49.980 -13.690  1.00  0.00     0.039 C 
HETATM    4  C14 UNL     1       2.837  51.292 -14.326  1.00  0.00    -0.051 C 
HETATM    5  C15 UNL     1       3.259  51.310 -15.608  1.00  0.00    -0.026 C 
HETATM    6  C16 UNL     1       3.804  52.478 -16.369  1.00  0.00     0.036 C 
HETATM    7  C17 UNL     1       2.844  52.510 -13.419  1.00  0.00     0.306 C 
HETATM    8  N2  UNL     1       1.964  52.390 -12.267  1.00  0.00     0.094 N 
HETATM    9  C18 UNL     1       1.992  53.580 -11.427  1.00  0.00     0.310 C 
HETATM   10  C19 UNL     1       1.996  51.131 -11.479  1.00  0.00     0.248 C 
HETATM   11  C20 UNL     1       0.551  50.748 -11.017  1.00  0.00     0.079 C 
HETATM   12  C21 UNL     1      -0.619  51.311 -11.775  1.00  0.00    -0.020 A 
HETATM   13  C22 UNL     1      -0.885  51.253 -13.139  1.00  0.00     0.025 A 
HETATM   14  N3  UNL     1      -2.084  51.916 -13.333  1.00  0.00    -0.358 N 
HETATM   15  C23 UNL     1      -2.610  52.372 -12.153  1.00  0.00     0.043 A 
HETATM   16  C24 UNL     1      -3.802  53.065 -11.908  1.00  0.00     0.030 A 
HETATM   17  C25 UNL     1      -4.082  53.423 -10.587  1.00  0.00     0.002 A 
HETATM   18  C26 UNL     1      -3.206  53.089  -9.558  1.00  0.00     0.001 A 
HETATM   19  C27 UNL     1      -2.026  52.384  -9.825  1.00  0.00     0.014 A 
HETATM   20  C28 UNL     1      -1.714  52.017 -11.153  1.00  0.00    -0.001 A 
HETATM   21  C29 UNL     1       2.754  49.962 -12.178  1.00  0.00     0.107 C 
HETATM   22  H28 UNL     1      -2.532  52.032 -14.231  1.00  0.00     0.166 HD
ENDROOT
BRANCH   1  23
HETATM   23  C10 UNL     1      -1.117  50.214 -15.412  1.00  0.00    -0.048 A 
HETATM   24  C9  UNL     1      -0.967  50.577 -16.759  1.00  0.00     0.018 A 
HETATM   25  C8  UNL     1      -1.831  50.037 -17.705  1.00  0.00    -0.017 A 
HETATM   26  C7  UNL     1      -1.950  50.378 -19.173  1.00  0.00     0.061 C 
HETATM   27  C35 UNL     1      -2.827  49.129 -17.347  1.00  0.00     0.039 A 
HETATM   28  C6  UNL     1      -2.753  51.701 -19.310  1.00  0.00     0.050 C 
HETATM   29  C37 UNL     1      -2.975  49.263 -19.686  1.00  0.00     0.273 C 
HETATM   30  C41 UNL     1      -0.637  50.329 -19.985  1.00  0.00     0.111 C 
HETATM   31  C5  UNL     1      -4.114  51.298 -19.839  1.00  0.00     0.277 C 
HETATM   32  N1  UNL     1      -3.904  50.033 -20.548  1.00  0.00     0.125 N 
HETATM   33  C4  UNL     1      -3.458  50.250 -21.928  1.00  0.00     0.310 C 
HETATM   34  C3  UNL     1      -2.035  50.758 -22.128  1.00  0.00    -0.051 C 
HETATM   35  C2  UNL     1      -1.704  51.834 -22.872  1.00  0.00    -0.026 C 
HETATM   36  C40 UNL     1      -0.915  49.944 -21.465  1.00  0.00     0.033 C 
HETATM   37  C1  UNL     1      -2.602  52.776 -23.610  1.00  0.00     0.036 C 
HETATM   38  C39 UNL     1      -1.235  48.447 -21.517  1.00  0.00     0.046 C 
HETATM   39  C38 UNL     1      -2.267  48.052 -20.457  1.00  0.00     0.179 C 
HETATM   40  N4  UNL     1      -3.509  48.616 -18.443  1.00  0.00    -0.347 N 
HETATM   41  C36 UNL     1      -4.900  48.230 -18.345  1.00  0.00     0.152 C 
HETATM   42  C34 UNL     1      -2.998  48.778 -16.019  1.00  0.00     0.030 A 
HETATM   43  C33 UNL     1      -2.146  49.321 -15.052  1.00  0.00     0.010 A 
BRANCH  39  44
HETATM   44  O4  UNL     1      -1.592  47.168 -19.537  1.00  0.00    -0.391 OA
HETATM   45  H45 UNL     1      -2.151  47.201 -18.731  1.00  0.00     0.210 HD
ENDBRANCH  39  44
BRANCH  30  46
HETATM   46  C42 UNL     1       0.249  51.563 -19.877  1.00  0.00     0.264 C 
HETATM   47  O5  UNL     1       0.382  52.268 -18.887  1.00  0.00    -0.265 OA
BRANCH  46  48
HETATM   48  O6  UNL     1       0.938  51.752 -21.042  1.00  0.00    -0.326 OA
HETATM   49  C43 UNL     1       1.342  53.104 -21.267  1.00  0.00     0.213 C 
ENDBRANCH  46  48
ENDBRANCH  30  46
ENDBRANCH   1  23
BRANCH  21  50
HETATM   50  C30 UNL     1       4.310  50.070 -12.031  1.00  0.00     0.186 C 
BRANCH  50  51
HETATM   51  O1  UNL     1       5.003  49.487 -13.132  1.00  0.00    -0.399 OA
HETATM   52  H35 UNL     1       5.956  49.613 -12.969  1.00  0.00     0.209 HD
ENDBRANCH  50  51
ENDBRANCH  21  50
BRANCH  21  53
HETATM   53  C31 UNL     1       2.498  48.570 -11.585  1.00  0.00     0.272 C 
HETATM   54  O2  UNL     1       1.643  48.338 -10.739  1.00  0.00    -0.264 OA
BRANCH  53  55
HETATM   55  O3  UNL     1       3.265  47.604 -12.168  1.00  0.00    -0.326 OA
HETATM   56  C32 UNL     1       2.615  46.339 -12.301  1.00  0.00     0.213 C 
ENDBRANCH  53  55
ENDBRANCH  21  53
TORSDOF 8
ENDMDL
MODEL 4
REMARK minimizedAffinity -7.48323059
REMARK CNNscore 0.150328919
REMARK CNNaffinity 5.83980036
REMARK  8 active torsions:
REMARK  status: ('A' for Active; 'I' for Inactive)
REMARK    1  A    between atoms: C10_11  and  C11_12 
REMARK    2  A    between atoms: C29_32  and  C30_33 
REMARK    3  A    between atoms: C29_32  and  C31_35 
REMARK    4  A    between atoms: C30_33  and  O1_34 
REMARK    5  A    between atoms: C31_35  and  O3_37 
REMARK    6  A    between atoms: C38_45  and  O4_46 
REMARK    7  A    between atoms: C41_49  and  C42_50 
REMARK    8  A    between atoms: C42_50  and  O6_52 
ROOT
HETATM    1  C11 UNL     1     -11.338  43.918 -27.868  1.00  0.00     0.070 C 
HETATM    2  C12 UNL     1     -10.737  43.837 -29.294  1.00  0.00     0.026 C 
HETATM    3  C13 UNL     1      -9.993  45.076 -29.889  1.00  0.00     0.039 C 
HETATM    4  C14 UNL     1     -10.495  46.414 -29.348  1.00  0.00    -0.051 C 
HETATM    5  C15 UNL     1     -11.605  46.979 -29.868  1.00  0.00    -0.026 C 
HETATM    6  C16 UNL     1     -12.200  48.306 -29.513  1.00  0.00     0.036 C 
HETATM    7  C17 UNL     1      -9.644  47.063 -28.270  1.00  0.00     0.306 C 
HETATM    8  N2  UNL     1      -8.786  46.130 -27.557  1.00  0.00     0.094 N 
HETATM    9  C18 UNL     1      -7.993  46.788 -26.527  1.00  0.00     0.310 C 
HETATM   10  C19 UNL     1      -8.000  45.146 -28.345  1.00  0.00     0.248 C 
HETATM   11  C20 UNL     1      -7.960  43.769 -27.601  1.00  0.00     0.079 C 
HETATM   12  C21 UNL     1      -9.028  43.469 -26.586  1.00  0.00    -0.020 A 
HETATM   13  C22 UNL     1     -10.410  43.511 -26.735  1.00  0.00     0.025 A 
HETATM   14  N3  UNL     1     -10.947  43.146 -25.514  1.00  0.00    -0.358 N 
HETATM   15  C23 UNL     1      -9.972  42.847 -24.598  1.00  0.00     0.043 A 
HETATM   16  C24 UNL     1     -10.087  42.421 -23.269  1.00  0.00     0.030 A 
HETATM   17  C25 UNL     1      -8.905  42.203 -22.556  1.00  0.00     0.002 A 
HETATM   18  C26 UNL     1      -7.665  42.396 -23.157  1.00  0.00     0.001 A 
HETATM   19  C27 UNL     1      -7.574  42.810 -24.492  1.00  0.00     0.014 A 
HETATM   20  C28 UNL     1      -8.753  43.046 -25.234  1.00  0.00    -0.001 A 
HETATM   21  C29 UNL     1      -8.436  45.032 -29.837  1.00  0.00     0.107 C 
HETATM   22  H28 UNL     1     -11.937  43.084 -25.321  1.00  0.00     0.166 HD
ENDROOT
BRANCH   1  23
HETATM   23  C10 UNL     1     -12.637  43.093 -27.814  1.00  0.00    -0.048 A 
HETATM   24  C9  UNL     1     -13.809  43.621 -27.249  1.00  0.00     0.018 A 
HETATM   25  C8  UNL     1     -14.980  42.875 -27.299  1.00  0.00    -0.017 A 
HETATM   26  C7  UNL     1     -16.312  43.171 -26.650  1.00  0.00     0.061 C 
HETATM   27  C35 UNL     1     -15.021  41.625 -27.915  1.00  0.00     0.039 A 
HETATM   28  C6  UNL     1     -16.225  42.789 -25.146  1.00  0.00     0.050 C 
HETATM   29  C37 UNL     1     -17.242  42.030 -27.273  1.00  0.00     0.273 C 
HETATM   30  C41 UNL     1     -16.902  44.571 -26.929  1.00  0.00     0.111 C 
HETATM   31  C5  UNL     1     -17.039  41.518 -25.002  1.00  0.00     0.277 C 
HETATM   32  N1  UNL     1     -18.008  41.543 -26.100  1.00  0.00     0.125 N 
HETATM   33  C4  UNL     1     -19.203  42.320 -25.755  1.00  0.00     0.310 C 
HETATM   34  C3  UNL     1     -19.049  43.834 -25.673  1.00  0.00    -0.051 C 
HETATM   35  C2  UNL     1     -19.434  44.586 -24.621  1.00  0.00    -0.026 C 
HETATM   36  C40 UNL     1     -18.456  44.533 -26.904  1.00  0.00     0.033 C 
HETATM   37  C1  UNL     1     -20.033  44.147 -23.323  1.00  0.00     0.036 C 
HETATM   38  C39 UNL     1     -18.937  43.855 -28.191  1.00  0.00     0.046 C 
HETATM   39  C38 UNL     1     -18.182  42.550 -28.460  1.00  0.00     0.179 C 
HETATM   40  N4  UNL     1     -16.302  41.088 -27.965  1.00  0.00    -0.347 N 
HETATM   41  C36 UNL     1     -16.516  39.658 -27.922  1.00  0.00     0.152 C 
HETATM   42  C34 UNL     1     -13.868  41.083 -28.458  1.00  0.00     0.030 A 
HETATM   43  C33 UNL     1     -12.678  41.814 -28.406  1.00  0.00     0.010 A 
BRANCH  39  44
HETATM   44  O4  UNL     1     -17.428  42.756 -29.674  1.00  0.00    -0.391 OA
HETATM   45  H45 UNL     1     -16.734  42.063 -29.636  1.00  0.00     0.210 HD
ENDBRANCH  39  44
BRANCH  30  46
HETATM   46  C42 UNL     1     -16.350  45.701 -26.070  1.00  0.00     0.264 C 
HETATM   47  O5  UNL     1     -15.185  46.072 -26.033  1.00  0.00    -0.265 OA
BRANCH  46  48
HETATM   48  O6  UNL     1     -17.360  46.299 -25.371  1.00  0.00    -0.326 OA
HETATM   49  C43 UNL     1     -16.931  46.968 -24.184  1.00  0.00     0.213 C 
ENDBRANCH  46  48
ENDBRANCH  30  46
ENDBRANCH   1  23
BRANCH  21  50
HETATM   50  C30 UNL     1      -7.856  46.181 -30.731  1.00  0.00     0.186 C 
BRANCH  50  51
HETATM   51  O1  UNL     1      -6.638  46.712 -30.213  1.00  0.00    -0.399 OA
HETATM   52  H35 UNL     1      -6.341  47.402 -30.834  1.00  0.00     0.209 HD
ENDBRANCH  50  51
ENDBRANCH  21  50
BRANCH  21  53
HETATM   53  C31 UNL     1      -7.916  43.792 -30.576  1.00  0.00     0.272 C 
HETATM   54  O2  UNL     1      -8.633  42.873 -30.952  1.00  0.00    -0.264 OA
BRANCH  53  55
HETATM   55  O3  UNL     1      -6.581  43.867 -30.849  1.00  0.00    -0.326 OA
HETATM   56  C32 UNL     1      -6.125  42.923 -31.818  1.00  0.00     0.213 C 
ENDBRANCH  53  55
ENDBRANCH  21  53
TORSDOF 8
ENDMDL
MODEL 5
REMARK minimizedAffinity -8.26084518
REMARK CNNscore 0.14943856
REMARK CNNaffinity 5.95006037
REMARK  8 active torsions:
REMARK  status: ('A' for Active; 'I' for Inactive)
REMARK    1  A    between atoms: C10_11  and  C11_12 
REMARK    2  A    between atoms: C29_32  and  C30_33 
REMARK    3  A    between atoms: C29_32  and  C31_35 
REMARK    4  A    between atoms: C30_33  and  O1_34 
REMARK    5  A    between atoms: C31_35  and  O3_37 
REMARK    6  A    between atoms: C38_45  and  O4_46 
REMARK    7  A    between atoms: C41_49  and  C42_50 
REMARK    8  A    between atoms: C42_50  and  O6_52 
ROOT
HETATM    1  C11 UNL     1     -15.348  44.389 -23.979  1.00  0.00     0.070 C 
HETATM    2  C12 UNL     1     -15.985  44.218 -25.380  1.00  0.00     0.026 C 
HETATM    3  C13 UNL     1     -16.883  42.973 -25.674  1.00  0.00     0.039 C 
HETATM    4  C14 UNL     1     -16.516  41.741 -24.847  1.00  0.00    -0.051 C 
HETATM    5  C15 UNL     1     -15.495  40.948 -25.233  1.00  0.00    -0.026 C 
HETATM    6  C16 UNL     1     -15.041  39.674 -24.591  1.00  0.00     0.036 C 
HETATM    7  C17 UNL     1     -17.398  41.455 -23.643  1.00  0.00     0.306 C 
HETATM    8  N2  UNL     1     -18.120  42.618 -23.154  1.00  0.00     0.094 N 
HETATM    9  C18 UNL     1     -18.947  42.306 -21.996  1.00  0.00     0.310 C 
HETATM   10  C19 UNL     1     -18.818  43.485 -24.139  1.00  0.00     0.248 C 
HETATM   11  C20 UNL     1     -18.677  44.989 -23.727  1.00  0.00     0.079 C 
HETATM   12  C21 UNL     1     -17.549  45.382 -22.814  1.00  0.00    -0.020 A 
HETATM   13  C22 UNL     1     -16.186  45.147 -22.961  1.00  0.00     0.025 A 
HETATM   14  N3  UNL     1     -15.570  45.711 -21.858  1.00  0.00    -0.358 N 
HETATM   15  C23 UNL     1     -16.474  46.320 -21.027  1.00  0.00     0.043 A 
HETATM   16  C24 UNL     1     -16.267  47.017 -19.830  1.00  0.00     0.030 A 
HETATM   17  C25 UNL     1     -17.391  47.526 -19.176  1.00  0.00     0.002 A 
HETATM   18  C26 UNL     1     -18.665  47.350 -19.708  1.00  0.00     0.001 A 
HETATM   19  C27 UNL     1     -18.847  46.660 -20.913  1.00  0.00     0.014 A 
HETATM   20  C28 UNL     1     -17.728  46.128 -21.591  1.00  0.00    -0.001 A 
HETATM   21  C29 UNL     1     -18.422  43.209 -25.621  1.00  0.00     0.107 C 
HETATM   22  H28 UNL     1     -14.573  45.698 -21.692  1.00  0.00     0.166 HD
ENDROOT
BRANCH   1  23
HETATM   23  C10 UNL     1     -13.964  45.047 -24.123  1.00  0.00    -0.048 A 
HETATM   24  C9  UNL     1     -13.224  44.928 -25.310  1.00  0.00     0.018 A 
HETATM   25  C8  UNL     1     -12.019  45.610 -25.428  1.00  0.00    -0.017 A 
HETATM   26  C7  UNL     1     -10.998  45.530 -26.539  1.00  0.00     0.061 C 
HETATM   27  C35 UNL     1     -11.540  46.425 -24.402  1.00  0.00     0.039 A 
HETATM   28  C6  UNL     1     -10.157  44.238 -26.345  1.00  0.00     0.050 C 
HETATM   29  C37 UNL     1      -9.984  46.700 -26.138  1.00  0.00     0.273 C 
HETATM   30  C41 UNL     1     -11.540  45.743 -27.970  1.00  0.00     0.111 C 
HETATM   31  C5  UNL     1      -8.802  44.704 -25.854  1.00  0.00     0.277 C 
HETATM   32  N1  UNL     1      -8.654  46.077 -26.345  1.00  0.00     0.125 N 
HETATM   33  C4  UNL     1      -8.143  46.113 -27.719  1.00  0.00     0.310 C 
HETATM   34  C3  UNL     1      -9.092  45.672 -28.826  1.00  0.00    -0.051 C 
HETATM   35  C2  UNL     1      -8.796  44.748 -29.765  1.00  0.00    -0.026 C 
HETATM   36  C40 UNL     1     -10.455  46.375 -28.885  1.00  0.00     0.033 C 
HETATM   37  C1  UNL     1      -7.550  43.935 -29.921  1.00  0.00     0.036 C 
HETATM   38  C39 UNL     1     -10.313  47.853 -28.506  1.00  0.00     0.046 C 
HETATM   39  C38 UNL     1     -10.185  48.039 -26.991  1.00  0.00     0.179 C 
HETATM   40  N4  UNL     1     -10.383  47.111 -24.752  1.00  0.00    -0.347 N 
HETATM   41  C36 UNL     1      -9.386  47.449 -23.760  1.00  0.00     0.152 C 
HETATM   42  C34 UNL     1     -12.249  46.535 -23.218  1.00  0.00     0.030 A 
HETATM   43  C33 UNL     1     -13.458  45.846 -23.077  1.00  0.00     0.010 A 
BRANCH  39  44
HETATM   44  O4  UNL     1     -11.362  48.760 -26.567  1.00  0.00    -0.391 OA
HETATM   45  H45 UNL     1     -11.411  48.577 -25.603  1.00  0.00     0.210 HD
ENDBRANCH  39  44
BRANCH  30  46
HETATM   46  C42 UNL     1     -12.185  44.524 -28.616  1.00  0.00     0.264 C 
HETATM   47  O5  UNL     1     -11.611  43.494 -28.942  1.00  0.00    -0.265 OA
BRANCH  46  48
HETATM   48  O6  UNL     1     -13.534  44.711 -28.733  1.00  0.00    -0.326 OA
HETATM   49  C43 UNL     1     -13.931  46.084 -28.753  1.00  0.00     0.213 C 
ENDBRANCH  46  48
ENDBRANCH  30  46
ENDBRANCH   1  23
BRANCH  21  50
HETATM   50  C30 UNL     1     -19.157  41.965 -26.226  1.00  0.00     0.186 C 
BRANCH  50  51
HETATM   51  O1  UNL     1     -20.433  41.742 -25.629  1.00  0.00    -0.399 OA
HETATM   52  H35 UNL     1     -20.824  40.968 -26.072  1.00  0.00     0.209 HD
ENDBRANCH  50  51
ENDBRANCH  21  50
BRANCH  21  53
HETATM   53  C31 UNL     1     -18.825  44.304 -26.619  1.00  0.00     0.272 C 
HETATM   54  O2  UNL     1     -18.479  45.475 -26.520  1.00  0.00    -0.264 OA
BRANCH  53  55
HETATM   55  O3  UNL     1     -19.534  43.813 -27.675  1.00  0.00    -0.326 OA
HETATM   56  C32 UNL     1     -18.842  43.867 -28.923  1.00  0.00     0.213 C 
ENDBRANCH  53  55
ENDBRANCH  21  53
TORSDOF 8
ENDMDL
MODEL 6
REMARK minimizedAffinity -7.58642244
REMARK CNNscore 0.109933577
REMARK CNNaffinity 5.42161322
REMARK  8 active torsions:
REMARK  status: ('A' for Active; 'I' for Inactive)
REMARK    1  A    between atoms: C10_11  and  C11_12 
REMARK    2  A    between atoms: C29_32  and  C30_33 
REMARK    3  A    between atoms: C29_32  and  C31_35 
REMARK    4  A    between atoms: C30_33  and  O1_34 
REMARK    5  A    between atoms: C31_35  and  O3_37 
REMARK    6  A    between atoms: C38_45  and  O4_46 
REMARK    7  A    between atoms: C41_49  and  C42_50 
REMARK    8  A    between atoms: C42_50  and  O6_52 
ROOT
HETATM    1  C11 UNL     1     -11.353  43.314 -28.350  1.00  0.00     0.070 C 
HETATM    2  C12 UNL     1     -11.294  44.623 -29.176  1.00  0.00     0.026 C 
HETATM    3  C13 UNL     1     -12.182  45.839 -28.759  1.00  0.00     0.039 C 
HETATM    4  C14 UNL     1     -13.477  45.442 -28.051  1.00  0.00    -0.051 C 
HETATM    5  C15 UNL     1     -14.550  45.055 -28.772  1.00  0.00    -0.026 C 
HETATM    6  C16 UNL     1     -15.911  44.699 -28.258  1.00  0.00     0.036 C 
HETATM    7  C17 UNL     1     -13.481  45.574 -26.538  1.00  0.00     0.306 C 
HETATM    8  N2  UNL     1     -12.154  45.565 -25.944  1.00  0.00     0.094 N 
HETATM    9  C18 UNL     1     -12.200  45.685 -24.492  1.00  0.00     0.310 C 
HETATM   10  C19 UNL     1     -11.097  46.411 -26.555  1.00  0.00     0.248 C 
HETATM   11  C20 UNL     1      -9.723  45.662 -26.525  1.00  0.00     0.079 C 
HETATM   12  C21 UNL     1      -9.723  44.164 -26.399  1.00  0.00    -0.020 A 
HETATM   13  C22 UNL     1     -10.380  43.223 -27.185  1.00  0.00     0.025 A 
HETATM   14  N3  UNL     1     -10.056  41.983 -26.664  1.00  0.00    -0.358 N 
HETATM   15  C23 UNL     1      -9.201  42.087 -25.598  1.00  0.00     0.043 A 
HETATM   16  C24 UNL     1      -8.621  41.085 -24.810  1.00  0.00     0.030 A 
HETATM   17  C25 UNL     1      -7.787  41.487 -23.764  1.00  0.00     0.002 A 
HETATM   18  C26 UNL     1      -7.540  42.837 -23.529  1.00  0.00     0.001 A 
HETATM   19  C27 UNL     1      -8.120  43.821 -24.339  1.00  0.00     0.014 A 
HETATM   20  C28 UNL     1      -8.974  43.442 -25.399  1.00  0.00    -0.001 A 
HETATM   21  C29 UNL     1     -11.467  46.970 -27.962  1.00  0.00     0.107 C 
HETATM   22  H28 UNL     1     -10.389  41.104 -27.035  1.00  0.00     0.166 HD
ENDROOT
BRANCH   1  23
HETATM   23  C10 UNL     1     -11.170  42.107 -29.290  1.00  0.00    -0.048 A 
HETATM   24  C9  UNL     1     -10.106  42.056 -30.204  1.00  0.00     0.018 A 
HETATM   25  C8  UNL     1      -9.929  40.911 -30.971  1.00  0.00    -0.017 A 
HETATM   26  C7  UNL     1      -8.952  40.677 -32.101  1.00  0.00     0.061 C 
HETATM   27  C35 UNL     1     -10.772  39.808 -30.838  1.00  0.00     0.039 A 
HETATM   28  C6  UNL     1      -9.508  41.356 -33.383  1.00  0.00     0.050 C 
HETATM   29  C37 UNL     1      -9.149  39.116 -32.388  1.00  0.00     0.273 C 
HETATM   30  C41 UNL     1      -7.473  40.994 -31.789  1.00  0.00     0.111 C 
HETATM   31  C5  UNL     1      -9.984  40.223 -34.270  1.00  0.00     0.277 C 
HETATM   32  N1  UNL     1      -9.200  39.052 -33.868  1.00  0.00     0.125 N 
HETATM   33  C4  UNL     1      -7.900  39.007 -34.547  1.00  0.00     0.310 C 
HETATM   34  C3  UNL     1      -6.854  40.027 -34.116  1.00  0.00    -0.051 C 
HETATM   35  C2  UNL     1      -6.183  40.839 -34.959  1.00  0.00    -0.026 C 
HETATM   36  C40 UNL     1      -6.525  40.082 -32.617  1.00  0.00     0.033 C 
HETATM   37  C1  UNL     1      -6.321  40.969 -36.443  1.00  0.00     0.036 C 
HETATM   38  C39 UNL     1      -6.559  38.678 -32.007  1.00  0.00     0.046 C 
HETATM   39  C38 UNL     1      -7.994  38.202 -31.762  1.00  0.00     0.179 C 
HETATM   40  N4  UNL     1     -10.365  38.721 -31.604  1.00  0.00    -0.347 N 
HETATM   41  C36 UNL     1     -11.327  37.785 -32.145  1.00  0.00     0.152 C 
HETATM   42  C34 UNL     1     -11.837  39.853 -29.956  1.00  0.00     0.030 A 
HETATM   43  C33 UNL     1     -12.038  41.001 -29.184  1.00  0.00     0.010 A 
BRANCH  39  44
HETATM   44  O4  UNL     1      -8.144  38.073 -30.332  1.00  0.00    -0.391 OA
HETATM   45  H45 UNL     1      -9.117  38.093 -30.198  1.00  0.00     0.210 HD
ENDBRANCH  39  44
BRANCH  30  46
HETATM   46  C42 UNL     1      -7.079  42.461 -31.890  1.00  0.00     0.264 C 
HETATM   47  O5  UNL     1      -7.848  43.413 -31.904  1.00  0.00    -0.265 OA
BRANCH  46  48
HETATM   48  O6  UNL     1      -5.719  42.584 -31.905  1.00  0.00    -0.326 OA
HETATM   49  C43 UNL     1      -5.250  43.808 -32.476  1.00  0.00     0.213 C 
ENDBRANCH  46  48
ENDBRANCH  30  46
ENDBRANCH   1  23
BRANCH  21  50
HETATM   50  C30 UNL     1     -12.403  48.225 -27.892  1.00  0.00     0.186 C 
BRANCH  50  51
HETATM   51  O1  UNL     1     -12.006  49.145 -26.878  1.00  0.00    -0.399 OA
HETATM   52  H35 UNL     1     -12.625  49.897 -26.916  1.00  0.00     0.209 HD
ENDBRANCH  50  51
ENDBRANCH  21  50
BRANCH  21  53
HETATM   53  C31 UNL     1     -10.289  47.527 -28.774  1.00  0.00     0.272 C 
HETATM   54  O2  UNL     1      -9.167  47.699 -28.314  1.00  0.00    -0.264 OA
BRANCH  53  55
HETATM   55  O3  UNL     1     -10.605  47.723 -30.086  1.00  0.00    -0.326 OA
HETATM   56  C32 UNL     1      -9.490  48.050 -30.916  1.00  0.00     0.213 C 
ENDBRANCH  53  55
ENDBRANCH  21  53
TORSDOF 8
ENDMDL
MODEL 7
REMARK minimizedAffinity -8.00856304
REMARK CNNscore 0.108629264
REMARK CNNaffinity 5.38791275
REMARK  8 active torsions:
REMARK  status: ('A' for Active; 'I' for Inactive)
REMARK    1  A    between atoms: C10_11  and  C11_12 
REMARK    2  A    between atoms: C29_32  and  C30_33 
REMARK    3  A    between atoms: C29_32  and  C31_35 
REMARK    4  A    between atoms: C30_33  and  O1_34 
REMARK    5  A    between atoms: C31_35  and  O3_37 
REMARK    6  A    between atoms: C38_45  and  O4_46 
REMARK    7  A    between atoms: C41_49  and  C42_50 
REMARK    8  A    between atoms: C42_50  and  O6_52 
ROOT
HETATM    1  C11 UNL     1     -12.541  44.004 -27.231  1.00  0.00     0.070 C 
HETATM    2  C12 UNL     1     -12.326  43.668 -28.728  1.00  0.00     0.026 C 
HETATM    3  C13 UNL     1     -11.383  44.564 -29.594  1.00  0.00     0.039 C 
HETATM    4  C14 UNL     1     -11.307  46.015 -29.120  1.00  0.00    -0.051 C 
HETATM    5  C15 UNL     1     -12.271  46.892 -29.473  1.00  0.00    -0.026 C 
HETATM    6  C16 UNL     1     -12.326  48.355 -29.161  1.00  0.00     0.036 C 
HETATM    7  C17 UNL     1     -10.080  46.392 -28.309  1.00  0.00     0.306 C 
HETATM    8  N2  UNL     1      -9.422  45.260 -27.676  1.00  0.00     0.094 N 
HETATM    9  C18 UNL     1      -8.255  45.663 -26.901  1.00  0.00     0.310 C 
HETATM   10  C19 UNL     1      -9.179  44.038 -28.486  1.00  0.00     0.248 C 
HETATM   11  C20 UNL     1      -9.409  42.759 -27.613  1.00  0.00     0.079 C 
HETATM   12  C21 UNL     1     -10.264  42.873 -26.382  1.00  0.00    -0.020 A 
HETATM   13  C22 UNL     1     -11.561  43.362 -26.262  1.00  0.00     0.025 A 
HETATM   14  N3  UNL     1     -11.901  43.248 -24.926  1.00  0.00    -0.358 N 
HETATM   15  C23 UNL     1     -10.891  42.684 -24.191  1.00  0.00     0.043 A 
HETATM   16  C24 UNL     1     -10.837  42.377 -22.826  1.00  0.00     0.030 A 
HETATM   17  C25 UNL     1      -9.656  41.813 -22.337  1.00  0.00     0.002 A 
HETATM   18  C26 UNL     1      -8.583  41.559 -23.186  1.00  0.00     0.001 A 
HETATM   19  C27 UNL     1      -8.665  41.861 -24.551  1.00  0.00     0.014 A 
HETATM   20  C28 UNL     1      -9.844  42.441 -25.070  1.00  0.00    -0.001 A 
HETATM   21  C29 UNL     1      -9.947  44.011 -29.841  1.00  0.00     0.107 C 
HETATM   22  H28 UNL     1     -12.792  43.525 -24.539  1.00  0.00     0.166 HD
ENDROOT
BRANCH   1  23
HETATM   23  C10 UNL     1     -13.987  43.657 -26.832  1.00  0.00    -0.048 A 
HETATM   24  C9  UNL     1     -14.682  44.427 -25.886  1.00  0.00     0.018 A 
HETATM   25  C8  UNL     1     -16.013  44.131 -25.620  1.00  0.00    -0.017 A 
HETATM   26  C7  UNL     1     -16.915  44.724 -24.561  1.00  0.00     0.061 C 
HETATM   27  C35 UNL     1     -16.677  43.101 -26.285  1.00  0.00     0.039 A 
HETATM   28  C6  UNL     1     -16.576  44.062 -23.196  1.00  0.00     0.050 C 
HETATM   29  C37 UNL     1     -18.332  44.088 -24.944  1.00  0.00     0.273 C 
HETATM   30  C41 UNL     1     -16.997  46.266 -24.531  1.00  0.00     0.111 C 
HETATM   31  C5  UNL     1     -17.731  43.127 -22.900  1.00  0.00     0.277 C 
HETATM   32  N1  UNL     1     -18.879  43.672 -23.629  1.00  0.00     0.125 N 
HETATM   33  C4  UNL     1     -19.562  44.721 -22.865  1.00  0.00     0.310 C 
HETATM   34  C3  UNL     1     -18.843  46.057 -22.720  1.00  0.00    -0.051 C 
HETATM   35  C2  UNL     1     -18.625  46.685 -21.546  1.00  0.00    -0.026 C 
HETATM   36  C40 UNL     1     -18.387  46.737 -24.019  1.00  0.00     0.033 C 
HETATM   37  C1  UNL     1     -18.973  46.235 -20.162  1.00  0.00     0.036 C 
HETATM   38  C39 UNL     1     -19.411  46.506 -25.135  1.00  0.00     0.046 C 
HETATM   39  C38 UNL     1     -19.293  45.099 -25.728  1.00  0.00     0.179 C 
HETATM   40  N4  UNL     1     -18.029  43.035 -25.968  1.00  0.00    -0.347 N 
HETATM   41  C36 UNL     1     -18.737  41.774 -25.969  1.00  0.00     0.152 C 
HETATM   42  C34 UNL     1     -15.998  42.321 -27.205  1.00  0.00     0.030 A 
HETATM   43  C33 UNL     1     -14.655  42.596 -27.477  1.00  0.00     0.010 A 
BRANCH  39  44
HETATM   44  O4  UNL     1     -18.872  45.267 -27.099  1.00  0.00    -0.391 OA
HETATM   45  H45 UNL     1     -18.500  44.390 -27.336  1.00  0.00     0.210 HD
ENDBRANCH  39  44
BRANCH  30  46
HETATM   46  C42 UNL     1     -15.858  46.971 -23.807  1.00  0.00     0.264 C 
HETATM   47  O5  UNL     1     -15.089  47.786 -24.298  1.00  0.00    -0.265 OA
BRANCH  46  48
HETATM   48  O6  UNL     1     -15.841  46.608 -22.490  1.00  0.00    -0.326 OA
HETATM   49  C43 UNL     1     -14.683  47.050 -21.779  1.00  0.00     0.213 C 
ENDBRANCH  46  48
ENDBRANCH  30  46
ENDBRANCH   1  23
BRANCH  21  50
HETATM   50  C30 UNL     1      -9.250  44.864 -30.955  1.00  0.00     0.186 C 
BRANCH  50  51
HETATM   51  O1  UNL     1      -9.818  44.646 -32.244  1.00  0.00    -0.399 OA
HETATM   52  H35 UNL     1      -9.341  45.224 -32.868  1.00  0.00     0.209 HD
ENDBRANCH  50  51
ENDBRANCH  21  50
BRANCH  21  53
HETATM   53  C31 UNL     1     -10.019  42.637 -30.523  1.00  0.00     0.272 C 
HETATM   54  O2  UNL     1      -9.037  42.024 -30.923  1.00  0.00    -0.264 OA
BRANCH  53  55
HETATM   55  O3  UNL     1     -11.287  42.134 -30.553  1.00  0.00    -0.326 OA
HETATM   56  C32 UNL     1     -11.354  40.708 -30.530  1.00  0.00     0.213 C 
ENDBRANCH  53  55
ENDBRANCH  21  53
TORSDOF 8
ENDMDL
MODEL 8
REMARK minimizedAffinity -7.29154873
REMARK CNNscore 0.0925294384
REMARK CNNaffinity 5.13679171
REMARK  8 active torsions:
REMARK  status: ('A' for Active; 'I' for Inactive)
REMARK    1  A    between atoms: C10_11  and  C11_12 
REMARK    2  A    between atoms: C29_32  and  C30_33 
REMARK    3  A    between atoms: C29_32  and  C31_35 
REMARK    4  A    between atoms: C30_33  and  O1_34 
REMARK    5  A    between atoms: C31_35  and  O3_37 
REMARK    6  A    between atoms: C38_45  and  O4_46 
REMARK    7  A    between atoms: C41_49  and  C42_50 
REMARK    8  A    between atoms: C42_50  and  O6_52 
ROOT
HETATM    1  C11 UNL     1     -12.472  45.051 -23.955  1.00  0.00     0.070 C 
HETATM    2  C12 UNL     1     -11.490  45.823 -24.871  1.00  0.00     0.026 C 
HETATM    3  C13 UNL     1     -11.302  45.372 -26.356  1.00  0.00     0.039 C 
HETATM    4  C14 UNL     1     -11.542  43.879 -26.580  1.00  0.00    -0.051 C 
HETATM    5  C15 UNL     1     -10.563  42.990 -26.310  1.00  0.00    -0.026 C 
HETATM    6  C16 UNL     1     -10.594  41.509 -26.531  1.00  0.00     0.036 C 
HETATM    7  C17 UNL     1     -12.889  43.497 -27.169  1.00  0.00     0.306 C 
HETATM    8  N2  UNL     1     -13.923  44.500 -26.969  1.00  0.00     0.094 N 
HETATM    9  C18 UNL     1     -15.201  44.094 -27.541  1.00  0.00     0.310 C 
HETATM   10  C19 UNL     1     -13.596  45.922 -27.250  1.00  0.00     0.248 C 
HETATM   11  C20 UNL     1     -14.279  46.850 -26.191  1.00  0.00     0.079 C 
HETATM   12  C21 UNL     1     -14.683  46.258 -24.869  1.00  0.00    -0.020 A 
HETATM   13  C22 UNL     1     -13.908  45.549 -23.958  1.00  0.00     0.025 A 
HETATM   14  N3  UNL     1     -14.742  45.227 -22.901  1.00  0.00    -0.358 N 
HETATM   15  C23 UNL     1     -16.007  45.721 -23.083  1.00  0.00     0.043 A 
HETATM   16  C24 UNL     1     -17.132  45.639 -22.254  1.00  0.00     0.030 A 
HETATM   17  C25 UNL     1     -18.314  46.230 -22.707  1.00  0.00     0.002 A 
HETATM   18  C26 UNL     1     -18.358  46.884 -23.935  1.00  0.00     0.001 A 
HETATM   19  C27 UNL     1     -17.216  46.966 -24.742  1.00  0.00     0.014 A 
HETATM   20  C28 UNL     1     -16.010  46.369 -24.312  1.00  0.00    -0.001 A 
HETATM   21  C29 UNL     1     -12.073  46.200 -27.427  1.00  0.00     0.107 C 
HETATM   22  H28 UNL     1     -14.452  44.710 -22.083  1.00  0.00     0.166 HD
ENDROOT
BRANCH   1  23
HETATM   23  C10 UNL     1     -11.920  45.029 -22.517  1.00  0.00    -0.048 A 
HETATM   24  C9  UNL     1     -10.802  45.800 -22.158  1.00  0.00     0.018 A 
HETATM   25  C8  UNL     1     -10.391  45.817 -20.831  1.00  0.00    -0.017 A 
HETATM   26  C7  UNL     1      -9.156  46.454 -20.237  1.00  0.00     0.061 C 
HETATM   27  C35 UNL     1     -11.076  45.104 -19.847  1.00  0.00     0.039 A 
HETATM   28  C6  UNL     1      -7.939  45.529 -20.520  1.00  0.00     0.050 C 
HETATM   29  C37 UNL     1      -9.412  46.267 -18.670  1.00  0.00     0.273 C 
HETATM   30  C41 UNL     1      -8.932  47.943 -20.582  1.00  0.00     0.111 C 
HETATM   31  C5  UNL     1      -7.599  44.887 -19.190  1.00  0.00     0.277 C 
HETATM   32  N1  UNL     1      -8.093  45.812 -18.167  1.00  0.00     0.125 N 
HETATM   33  C4  UNL     1      -7.123  46.873 -17.877  1.00  0.00     0.310 C 
HETATM   34  C3  UNL     1      -6.921  47.942 -18.943  1.00  0.00    -0.051 C 
HETATM   35  C2  UNL     1      -5.722  48.309 -19.442  1.00  0.00    -0.026 C 
HETATM   36  C40 UNL     1      -8.181  48.671 -19.433  1.00  0.00     0.033 C 
HETATM   37  C1  UNL     1      -4.367  47.759 -19.128  1.00  0.00     0.036 C 
HETATM   38  C39 UNL     1      -9.164  48.881 -18.277  1.00  0.00     0.046 C 
HETATM   39  C38 UNL     1      -9.930  47.597 -17.946  1.00  0.00     0.179 C 
HETATM   40  N4  UNL     1     -10.585  45.339 -18.568  1.00  0.00    -0.347 N 
HETATM   41  C36 UNL     1     -10.638  44.316 -17.547  1.00  0.00     0.152 C 
HETATM   42  C34 UNL     1     -12.167  44.324 -20.191  1.00  0.00     0.030 A 
HETATM   43  C33 UNL     1     -12.587  44.285 -21.524  1.00  0.00     0.010 A 
BRANCH  39  44
HETATM   44  O4  UNL     1     -11.316  47.857 -18.255  1.00  0.00    -0.391 OA
HETATM   45  H45 UNL     1     -11.705  46.960 -18.347  1.00  0.00     0.210 HD
ENDBRANCH  39  44
BRANCH  30  46
HETATM   46  C42 UNL     1      -8.295  48.215 -21.938  1.00  0.00     0.264 C 
HETATM   47  O5  UNL     1      -8.318  47.468 -22.906  1.00  0.00    -0.265 OA
BRANCH  46  48
HETATM   48  O6  UNL     1      -7.729  49.458 -21.952  1.00  0.00    -0.326 OA
HETATM   49  C43 UNL     1      -7.014  49.760 -23.152  1.00  0.00     0.213 C 
ENDBRANCH  46  48
ENDBRANCH  30  46
ENDBRANCH   1  23
BRANCH  21  50
HETATM   50  C30 UNL     1     -11.546  45.819 -28.852  1.00  0.00     0.186 C 
BRANCH  50  51
HETATM   51  O1  UNL     1     -12.409  46.273 -29.892  1.00  0.00    -0.399 OA
HETATM   52  H35 UNL     1     -12.001  46.012 -30.737  1.00  0.00     0.209 HD
ENDBRANCH  50  51
ENDBRANCH  21  50
BRANCH  21  53
HETATM   53  C31 UNL     1     -11.666  47.678 -27.347  1.00  0.00     0.272 C 
HETATM   54  O2  UNL     1     -12.267  48.515 -26.685  1.00  0.00    -0.264 OA
BRANCH  53  55
HETATM   55  O3  UNL     1     -10.509  47.939 -28.022  1.00  0.00    -0.326 OA
HETATM   56  C32 UNL     1      -9.442  48.411 -27.199  1.00  0.00     0.213 C 
ENDBRANCH  53  55
ENDBRANCH  21  53
TORSDOF 8
ENDMDL
MODEL 9
REMARK minimizedAffinity -7.60215092
REMARK CNNscore 0.0804222301
REMARK CNNaffinity 5.79711008
REMARK  8 active torsions:
REMARK  status: ('A' for Active; 'I' for Inactive)
REMARK    1  A    between atoms: C10_11  and  C11_12 
REMARK    2  A    between atoms: C29_32  and  C30_33 
REMARK    3  A    between atoms: C29_32  and  C31_35 
REMARK    4  A    between atoms: C30_33  and  O1_34 
REMARK    5  A    between atoms: C31_35  and  O3_37 
REMARK    6  A    between atoms: C38_45  and  O4_46 
REMARK    7  A    between atoms: C41_49  and  C42_50 
REMARK    8  A    between atoms: C42_50  and  O6_52 
ROOT
HETATM    1  C11 UNL     1      -8.040  46.372 -22.872  1.00  0.00     0.070 C 
HETATM    2  C12 UNL     1      -9.296  46.274 -21.972  1.00  0.00     0.026 C 
HETATM    3  C13 UNL     1      -9.172  45.668 -20.537  1.00  0.00     0.039 C 
HETATM    4  C14 UNL     1      -8.052  44.638 -20.398  1.00  0.00    -0.051 C 
HETATM    5  C15 UNL     1      -8.255  43.363 -20.791  1.00  0.00    -0.026 C 
HETATM    6  C16 UNL     1      -7.304  42.213 -20.669  1.00  0.00     0.036 C 
HETATM    7  C17 UNL     1      -6.768  45.127 -19.750  1.00  0.00     0.306 C 
HETATM    8  N2  UNL     1      -6.590  46.568 -19.814  1.00  0.00     0.094 N 
HETATM    9  C18 UNL     1      -5.344  46.997 -19.189  1.00  0.00     0.310 C 
HETATM   10  C19 UNL     1      -7.738  47.442 -19.460  1.00  0.00     0.248 C 
HETATM   11  C20 UNL     1      -7.779  48.687 -20.407  1.00  0.00     0.079 C 
HETATM   12  C21 UNL     1      -7.081  48.603 -21.737  1.00  0.00    -0.020 A 
HETATM   13  C22 UNL     1      -7.233  47.654 -22.742  1.00  0.00     0.025 A 
HETATM   14  N3  UNL     1      -6.373  48.023 -23.761  1.00  0.00    -0.358 N 
HETATM   15  C23 UNL     1      -5.698  49.179 -23.464  1.00  0.00     0.043 A 
HETATM   16  C24 UNL     1      -4.763  49.894 -24.223  1.00  0.00     0.030 A 
HETATM   17  C25 UNL     1      -4.217  51.048 -23.655  1.00  0.00     0.002 A 
HETATM   18  C26 UNL     1      -4.603  51.468 -22.385  1.00  0.00     0.001 A 
HETATM   19  C27 UNL     1      -5.551  50.744 -21.651  1.00  0.00     0.014 A 
HETATM   20  C28 UNL     1      -6.112  49.568 -22.198  1.00  0.00    -0.001 A 
HETATM   21  C29 UNL     1      -9.101  46.692 -19.364  1.00  0.00     0.107 C 
HETATM   22  H28 UNL     1      -6.268  47.518 -24.630  1.00  0.00     0.166 HD
ENDROOT
BRANCH   1  23
HETATM   23  C10 UNL     1      -8.444  46.146 -24.341  1.00  0.00    -0.048 A 
HETATM   24  C9  UNL     1      -9.792  46.171 -24.734  1.00  0.00     0.018 A 
HETATM   25  C8  UNL     1     -10.105  46.048 -26.082  1.00  0.00    -0.017 A 
HETATM   26  C7  UNL     1     -11.468  45.913 -26.723  1.00  0.00     0.061 C 
HETATM   27  C35 UNL     1      -9.112  45.922 -27.052  1.00  0.00     0.039 A 
HETATM   28  C6  UNL     1     -11.948  44.444 -26.558  1.00  0.00     0.050 C 
HETATM   29  C37 UNL     1     -11.111  46.018 -28.278  1.00  0.00     0.273 C 
HETATM   30  C41 UNL     1     -12.509  46.983 -26.326  1.00  0.00     0.111 C 
HETATM   31  C5  UNL     1     -11.827  43.821 -27.934  1.00  0.00     0.277 C 
HETATM   32  N1  UNL     1     -11.922  44.933 -28.882  1.00  0.00     0.125 N 
HETATM   33  C4  UNL     1     -13.316  45.275 -29.184  1.00  0.00     0.310 C 
HETATM   34  C3  UNL     1     -14.118  45.961 -28.085  1.00  0.00    -0.051 C 
HETATM   35  C2  UNL     1     -15.325  45.547 -27.645  1.00  0.00    -0.026 C 
HETATM   36  C40 UNL     1     -13.511  47.237 -27.485  1.00  0.00     0.033 C 
HETATM   37  C1  UNL     1     -16.117  44.350 -28.068  1.00  0.00     0.036 C 
HETATM   38  C39 UNL     1     -12.794  48.051 -28.567  1.00  0.00     0.046 C 
HETATM   39  C38 UNL     1     -11.425  47.456 -28.908  1.00  0.00     0.179 C 
HETATM   40  N4  UNL     1      -9.616  45.930 -28.348  1.00  0.00    -0.347 N 
HETATM   41  C36 UNL     1      -8.964  45.194 -29.408  1.00  0.00     0.152 C 
HETATM   42  C34 UNL     1      -7.780  45.876 -26.677  1.00  0.00     0.030 A 
HETATM   43  C33 UNL     1      -7.446  45.985 -25.324  1.00  0.00     0.010 A 
BRANCH  39  44
HETATM   44  O4  UNL     1     -10.442  48.433 -28.501  1.00  0.00    -0.391 OA
HETATM   45  H45 UNL     1      -9.614  47.910 -28.425  1.00  0.00     0.210 HD
ENDBRANCH  39  44
BRANCH  30  46
HETATM   46  C42 UNL     1     -13.222  46.747 -25.001  1.00  0.00     0.264 C 
HETATM   47  O5  UNL     1     -12.832  46.026 -24.093  1.00  0.00    -0.265 OA
BRANCH  46  48
HETATM   48  O6  UNL     1     -14.354  47.509 -24.933  1.00  0.00    -0.326 OA
HETATM   49  C43 UNL     1     -15.406  46.922 -24.165  1.00  0.00     0.213 C 
ENDBRANCH  46  48
ENDBRANCH  30  46
ENDBRANCH   1  23
BRANCH  21  50
HETATM   50  C30 UNL     1      -9.284  45.934 -18.005  1.00  0.00     0.186 C 
BRANCH  50  51
HETATM   51  O1  UNL     1     -10.184  46.604 -17.125  1.00  0.00    -0.399 OA
HETATM   52  H35 UNL     1     -10.253  46.061 -16.319  1.00  0.00     0.209 HD
ENDBRANCH  50  51
ENDBRANCH  21  50
BRANCH  21  53
HETATM   53  C31 UNL     1     -10.344  47.592 -19.370  1.00  0.00     0.272 C 
HETATM   54  O2  UNL     1     -10.321  48.785 -19.094  1.00  0.00    -0.264 OA
BRANCH  53  55
HETATM   55  O3  UNL     1     -11.460  46.939 -19.803  1.00  0.00    -0.326 OA
HETATM   56  C32 UNL     1     -12.685  47.614 -19.514  1.00  0.00     0.213 C 
ENDBRANCH  53  55
ENDBRANCH  21  53
TORSDOF 8
ENDMDL
