MODEL 1
REMARK minimizedAffinity -9.65834141
REMARK  6 active torsions:
REMARK  status: ('A' for Active; 'I' for Inactive)
REMARK    1  A    between atoms: C2_2  and  C30_31 
REMARK    2  A    between atoms: C3_3  and  C4_4 
REMARK    3  A    between atoms: C4_4  and  C5_5 
REMARK    4  A    between atoms: C5_5  and  C6_6 
REMARK    5  A    between atoms: C6_6  and  C8_8 
REMARK    6  A    between atoms: C30_31  and  O3_33 
ROOT
HETATM    1  C8  UNL     1      -3.265   7.590  14.511  1.00  0.00    -0.002 C 
HETATM    2  C9  UNL     1      -3.953   8.646  13.610  1.00  0.00     0.007 C 
HETATM    3  C10 UNL     1      -2.945   8.999  12.495  1.00  0.00     0.015 C 
HETATM    4  C11 UNL     1      -1.599   8.394  12.959  1.00  0.00    -0.013 C 
HETATM    5  C12 UNL     1      -0.961   9.449  13.913  1.00  0.00     0.021 C 
HETATM    6  C13 UNL     1      -0.547   8.062  11.918  1.00  0.00    -0.070 C 
HETATM    7  C14 UNL     1      -0.550   8.540  10.666  1.00  0.00    -0.022 C 
HETATM    8  C15 UNL     1       0.498   8.123   9.688  1.00  0.00     0.034 C 
HETATM    9  C16 UNL     1       1.911   8.150  10.323  1.00  0.00     0.013 C 
HETATM   10  C17 UNL     1       3.031   7.730   9.297  1.00  0.00     0.018 C 
HETATM   11  C18 UNL     1       4.419   8.251   9.717  1.00  0.00     0.023 C 
HETATM   12  C19 UNL     1       2.766   8.308   7.887  1.00  0.00     0.023 C 
HETATM   13  C20 UNL     1       3.110   6.204   9.179  1.00  0.00     0.135 C 
HETATM   14  O1  UNL     1       3.552   5.649   8.170  1.00  0.00    -0.297 OA
HETATM   15  C21 UNL     1       2.620   5.371  10.338  1.00  0.00     0.080 C 
HETATM   16  C22 UNL     1       2.814   6.107  11.653  1.00  0.00     0.017 C 
HETATM   17  C23 UNL     1       1.961   7.405  11.738  1.00  0.00    -0.031 C 
HETATM   18  C24 UNL     1       2.656   8.361  12.744  1.00  0.00     0.016 C 
HETATM   19  C25 UNL     1       0.507   7.019  12.279  1.00  0.00     0.024 C 
HETATM   20  C26 UNL     1       0.458   6.563  13.770  1.00  0.00     0.010 C 
HETATM   21  C27 UNL     1      -0.934   6.426  14.430  1.00  0.00     0.011 C 
HETATM   22  C28 UNL     1      -2.085   7.066  13.635  1.00  0.00    -0.029 C 
HETATM   23  C29 UNL     1      -2.596   6.004  12.618  1.00  0.00     0.016 C 
ENDROOT
BRANCH   1  24
HETATM   24  C6  UNL     1      -4.196   6.556  15.214  1.00  0.00    -0.014 C 
HETATM   25  C7  UNL     1      -5.555   7.234  15.476  1.00  0.00     0.010 C 
BRANCH  24  26
HETATM   26  C5  UNL     1      -4.409   5.231  14.438  1.00  0.00     0.008 C 
BRANCH  26  27
HETATM   27  C4  UNL     1      -5.407   5.309  13.271  1.00  0.00     0.028 C 
BRANCH  27  28
HETATM   28  C3  UNL     1      -5.523   4.060  12.443  1.00  0.00    -0.013 C 
HETATM   29  C2  UNL     1      -6.461   3.093  12.511  1.00  0.00     0.008 C 
HETATM   30  C1  UNL     1      -6.401   1.895  11.602  1.00  0.00     0.055 C 
BRANCH  29  31
HETATM   31  C30 UNL     1      -7.579   3.140  13.491  1.00  0.00     0.171 C 
HETATM   32  O2  UNL     1      -7.504   3.217  14.704  1.00  0.00    -0.646 OA
BRANCH  31  33
HETATM   33  O3  UNL     1      -8.781   3.085  12.888  1.00  0.00    -0.773 OA
HETATM   34  H46 UNL     1      -9.409   3.116  13.638  1.00  0.00     0.167 HD
ENDBRANCH  31  33
ENDBRANCH  29  31
ENDBRANCH  27  28
ENDBRANCH  26  27
ENDBRANCH  24  26
ENDBRANCH   1  24
TORSDOF 6
ENDMDL
MODEL 2
REMARK minimizedAffinity -9.52779293
REMARK  6 active torsions:
REMARK  status: ('A' for Active; 'I' for Inactive)
REMARK    1  A    between atoms: C2_2  and  C30_31 
REMARK    2  A    between atoms: C3_3  and  C4_4 
REMARK    3  A    between atoms: C4_4  and  C5_5 
REMARK    4  A    between atoms: C5_5  and  C6_6 
REMARK    5  A    between atoms: C6_6  and  C8_8 
REMARK    6  A    between atoms: C30_31  and  O3_33 
ROOT
HETATM    1  C8  UNL     1      -3.401   7.505  14.432  1.00  0.00    -0.002 C 
HETATM    2  C9  UNL     1      -4.075   8.579  13.542  1.00  0.00     0.007 C 
HETATM    3  C10 UNL     1      -3.049   8.956  12.452  1.00  0.00     0.015 C 
HETATM    4  C11 UNL     1      -1.710   8.342  12.926  1.00  0.00    -0.013 C 
HETATM    5  C12 UNL     1      -1.089   9.377  13.912  1.00  0.00     0.021 C 
HETATM    6  C13 UNL     1      -0.640   8.033  11.897  1.00  0.00    -0.070 C 
HETATM    7  C14 UNL     1      -0.622   8.537  10.655  1.00  0.00    -0.022 C 
HETATM    8  C15 UNL     1       0.444   8.141   9.687  1.00  0.00     0.034 C 
HETATM    9  C16 UNL     1       1.845   8.157  10.346  1.00  0.00     0.013 C 
HETATM   10  C17 UNL     1       2.983   7.759   9.332  1.00  0.00     0.018 C 
HETATM   11  C18 UNL     1       4.364   8.272   9.787  1.00  0.00     0.023 C 
HETATM   12  C19 UNL     1       2.742   8.366   7.930  1.00  0.00     0.023 C 
HETATM   13  C20 UNL     1       3.066   6.236   9.183  1.00  0.00     0.135 C 
HETATM   14  O1  UNL     1       3.526   5.703   8.170  1.00  0.00    -0.297 OA
HETATM   15  C21 UNL     1       2.558   5.378  10.316  1.00  0.00     0.080 C 
HETATM   16  C22 UNL     1       2.728   6.087  11.649  1.00  0.00     0.017 C 
HETATM   17  C23 UNL     1       1.872   7.382  11.746  1.00  0.00    -0.031 C 
HETATM   18  C24 UNL     1       2.548   8.318  12.784  1.00  0.00     0.016 C 
HETATM   19  C25 UNL     1       0.410   6.984  12.254  1.00  0.00     0.024 C 
HETATM   20  C26 UNL     1       0.335   6.496  13.734  1.00  0.00     0.010 C 
HETATM   21  C27 UNL     1      -1.068   6.345  14.368  1.00  0.00     0.011 C 
HETATM   22  C28 UNL     1      -2.206   7.000  13.566  1.00  0.00    -0.029 C 
HETATM   23  C29 UNL     1      -2.698   5.959  12.518  1.00  0.00     0.016 C 
ENDROOT
BRANCH   1  24
HETATM   24  C6  UNL     1      -4.343   6.455  15.098  1.00  0.00    -0.014 C 
HETATM   25  C7  UNL     1      -5.674   7.153  15.439  1.00  0.00     0.010 C 
BRANCH  24  26
HETATM   26  C5  UNL     1      -4.616   5.188  14.248  1.00  0.00     0.008 C 
BRANCH  26  27
HETATM   27  C4  UNL     1      -5.884   5.241  13.380  1.00  0.00     0.028 C 
BRANCH  27  28
HETATM   28  C3  UNL     1      -6.692   3.975  13.347  1.00  0.00    -0.013 C 
HETATM   29  C2  UNL     1      -6.590   2.936  12.492  1.00  0.00     0.008 C 
HETATM   30  C1  UNL     1      -7.509   1.750  12.607  1.00  0.00     0.055 C 
BRANCH  29  31
HETATM   31  C30 UNL     1      -5.595   2.914  11.387  1.00  0.00     0.171 C 
HETATM   32  O2  UNL     1      -4.646   3.660  11.223  1.00  0.00    -0.646 OA
BRANCH  31  33
HETATM   33  O3  UNL     1      -5.842   1.928  10.505  1.00  0.00    -0.773 OA
HETATM   34  H46 UNL     1      -5.130   2.036   9.843  1.00  0.00     0.167 HD
ENDBRANCH  31  33
ENDBRANCH  29  31
ENDBRANCH  27  28
ENDBRANCH  26  27
ENDBRANCH  24  26
ENDBRANCH   1  24
TORSDOF 6
ENDMDL
MODEL 3
REMARK minimizedAffinity -9.26456642
REMARK  6 active torsions:
REMARK  status: ('A' for Active; 'I' for Inactive)
REMARK    1  A    between atoms: C2_2  and  C30_31 
REMARK    2  A    between atoms: C3_3  and  C4_4 
REMARK    3  A    between atoms: C4_4  and  C5_5 
REMARK    4  A    between atoms: C5_5  and  C6_6 
REMARK    5  A    between atoms: C6_6  and  C8_8 
REMARK    6  A    between atoms: C30_31  and  O3_33 
ROOT
HETATM    1  C8  UNL     1       1.343   6.790  12.196  1.00  0.00    -0.002 C 
HETATM    2  C9  UNL     1       1.488   5.367  11.601  1.00  0.00     0.007 C 
HETATM    3  C10 UNL     1       0.136   4.655  11.825  1.00  0.00     0.015 C 
HETATM    4  C11 UNL     1      -0.636   5.554  12.820  1.00  0.00    -0.013 C 
HETATM    5  C12 UNL     1      -0.147   5.140  14.240  1.00  0.00     0.021 C 
HETATM    6  C13 UNL     1      -2.150   5.485  12.848  1.00  0.00    -0.070 C 
HETATM    7  C14 UNL     1      -2.867   4.485  12.316  1.00  0.00    -0.022 C 
HETATM    8  C15 UNL     1      -4.360   4.518  12.345  1.00  0.00     0.034 C 
HETATM    9  C16 UNL     1      -4.893   4.948  13.734  1.00  0.00     0.013 C 
HETATM   10  C17 UNL     1      -6.467   4.970  13.785  1.00  0.00     0.018 C 
HETATM   11  C18 UNL     1      -6.997   4.864  15.229  1.00  0.00     0.023 C 
HETATM   12  C19 UNL     1      -7.085   3.780  13.015  1.00  0.00     0.023 C 
HETATM   13  C20 UNL     1      -7.009   6.267  13.173  1.00  0.00     0.135 C 
HETATM   14  O1  UNL     1      -8.143   6.338  12.694  1.00  0.00    -0.297 OA
HETATM   15  C21 UNL     1      -6.111   7.480  13.158  1.00  0.00     0.080 C 
HETATM   16  C22 UNL     1      -5.158   7.462  14.341  1.00  0.00     0.017 C 
HETATM   17  C23 UNL     1      -4.169   6.263  14.288  1.00  0.00    -0.031 C 
HETATM   18  C24 UNL     1      -3.709   5.966  15.740  1.00  0.00     0.016 C 
HETATM   19  C25 UNL     1      -2.908   6.688  13.402  1.00  0.00     0.024 C 
HETATM   20  C26 UNL     1      -1.988   7.773  14.041  1.00  0.00     0.010 C 
HETATM   21  C27 UNL     1      -0.622   8.041  13.366  1.00  0.00     0.011 C 
HETATM   22  C28 UNL     1      -0.200   6.980  12.335  1.00  0.00    -0.029 C 
HETATM   23  C29 UNL     1      -0.820   7.386  10.966  1.00  0.00     0.016 C 
ENDROOT
BRANCH   1  24
HETATM   24  C6  UNL     1       2.182   7.919  11.522  1.00  0.00    -0.014 C 
HETATM   25  C7  UNL     1       2.191   9.138  12.466  1.00  0.00     0.010 C 
BRANCH  24  26
HETATM   26  C5  UNL     1       3.635   7.526  11.156  1.00  0.00     0.008 C 
BRANCH  26  27
HETATM   27  C4  UNL     1       4.095   7.953   9.752  1.00  0.00     0.028 C 
BRANCH  27  28
HETATM   28  C3  UNL     1       3.008   8.029   8.717  1.00  0.00    -0.013 C 
HETATM   29  C2  UNL     1       2.525   7.043   7.933  1.00  0.00     0.008 C 
HETATM   30  C1  UNL     1       1.435   7.318   6.932  1.00  0.00     0.055 C 
BRANCH  29  31
HETATM   31  C30 UNL     1       3.052   5.654   7.992  1.00  0.00     0.171 C 
HETATM   32  O2  UNL     1       3.676   5.131   8.899  1.00  0.00    -0.646 OA
BRANCH  31  33
HETATM   33  O3  UNL     1       2.767   4.958   6.876  1.00  0.00    -0.773 OA
HETATM   34  H46 UNL     1       3.173   4.084   7.048  1.00  0.00     0.167 HD
ENDBRANCH  31  33
ENDBRANCH  29  31
ENDBRANCH  27  28
ENDBRANCH  26  27
ENDBRANCH  24  26
ENDBRANCH   1  24
TORSDOF 6
ENDMDL
MODEL 4
REMARK minimizedAffinity -9.23239613
REMARK  6 active torsions:
REMARK  status: ('A' for Active; 'I' for Inactive)
REMARK    1  A    between atoms: C2_2  and  C30_31 
REMARK    2  A    between atoms: C3_3  and  C4_4 
REMARK    3  A    between atoms: C4_4  and  C5_5 
REMARK    4  A    between atoms: C5_5  and  C6_6 
REMARK    5  A    between atoms: C6_6  and  C8_8 
REMARK    6  A    between atoms: C30_31  and  O3_33 
ROOT
HETATM    1  C8  UNL     1      -3.174   7.576  15.139  1.00  0.00    -0.002 C 
HETATM    2  C9  UNL     1      -2.341   8.381  16.168  1.00  0.00     0.007 C 
HETATM    3  C10 UNL     1      -0.918   8.507  15.581  1.00  0.00     0.015 C 
HETATM    4  C11 UNL     1      -0.877   7.507  14.401  1.00  0.00    -0.013 C 
HETATM    5  C12 UNL     1      -0.530   6.122  15.024  1.00  0.00     0.021 C 
HETATM    6  C13 UNL     1       0.119   7.737  13.281  1.00  0.00    -0.070 C 
HETATM    7  C14 UNL     1       1.185   8.545  13.376  1.00  0.00    -0.022 C 
HETATM    8  C15 UNL     1       2.090   8.753  12.206  1.00  0.00     0.034 C 
HETATM    9  C16 UNL     1       2.430   7.414  11.505  1.00  0.00     0.013 C 
HETATM   10  C17 UNL     1       3.400   7.615  10.279  1.00  0.00     0.018 C 
HETATM   11  C18 UNL     1       4.151   6.318   9.923  1.00  0.00     0.023 C 
HETATM   12  C19 UNL     1       4.489   8.673  10.575  1.00  0.00     0.023 C 
HETATM   13  C20 UNL     1       2.618   8.069   9.041  1.00  0.00     0.135 C 
HETATM   14  O1  UNL     1       3.153   8.706   8.130  1.00  0.00    -0.297 OA
HETATM   15  C21 UNL     1       1.151   7.726   8.956  1.00  0.00     0.080 C 
HETATM   16  C22 UNL     1       0.857   6.426   9.686  1.00  0.00     0.017 C 
HETATM   17  C23 UNL     1       1.130   6.528  11.213  1.00  0.00    -0.031 C 
HETATM   18  C24 UNL     1       1.414   5.096  11.739  1.00  0.00     0.016 C 
HETATM   19  C25 UNL     1      -0.180   7.110  11.922  1.00  0.00     0.024 C 
HETATM   20  C26 UNL     1      -1.409   6.150  11.928  1.00  0.00     0.010 C 
HETATM   21  C27 UNL     1      -2.615   6.538  12.815  1.00  0.00     0.011 C 
HETATM   22  C28 UNL     1      -2.329   7.657  13.830  1.00  0.00    -0.029 C 
HETATM   23  C29 UNL     1      -2.575   9.015  13.110  1.00  0.00     0.016 C 
ENDROOT
BRANCH   1  24
HETATM   24  C6  UNL     1      -4.699   7.896  15.070  1.00  0.00    -0.014 C 
HETATM   25  C7  UNL     1      -4.975   8.635  13.746  1.00  0.00     0.010 C 
BRANCH  24  26
HETATM   26  C5  UNL     1      -5.633   6.665  15.191  1.00  0.00     0.008 C 
BRANCH  26  27
HETATM   27  C4  UNL     1      -6.398   6.295  13.909  1.00  0.00     0.028 C 
BRANCH  27  28
HETATM   28  C3  UNL     1      -5.810   5.162  13.116  1.00  0.00    -0.013 C 
HETATM   29  C2  UNL     1      -6.335   3.942  12.880  1.00  0.00     0.008 C 
HETATM   30  C1  UNL     1      -5.582   2.923  12.069  1.00  0.00     0.055 C 
BRANCH  29  31
HETATM   31  C30 UNL     1      -7.657   3.530  13.422  1.00  0.00     0.171 C 
HETATM   32  O2  UNL     1      -8.609   3.084  12.807  1.00  0.00    -0.646 OA
BRANCH  31  33
HETATM   33  O3  UNL     1      -7.732   3.703  14.754  1.00  0.00    -0.773 OA
HETATM   34  H46 UNL     1      -8.640   3.405  14.968  1.00  0.00     0.167 HD
ENDBRANCH  31  33
ENDBRANCH  29  31
ENDBRANCH  27  28
ENDBRANCH  26  27
ENDBRANCH  24  26
ENDBRANCH   1  24
TORSDOF 6
ENDMDL
MODEL 5
REMARK minimizedAffinity -9.14448261
REMARK  6 active torsions:
REMARK  status: ('A' for Active; 'I' for Inactive)
REMARK    1  A    between atoms: C2_2  and  C30_31 
REMARK    2  A    between atoms: C3_3  and  C4_4 
REMARK    3  A    between atoms: C4_4  and  C5_5 
REMARK    4  A    between atoms: C5_5  and  C6_6 
REMARK    5  A    between atoms: C6_6  and  C8_8 
REMARK    6  A    between atoms: C30_31  and  O3_33 
ROOT
HETATM    1  C8  UNL     1      -3.666   7.028  14.194  1.00  0.00    -0.002 C 
HETATM    2  C9  UNL     1      -4.275   8.223  13.418  1.00  0.00     0.007 C 
HETATM    3  C10 UNL     1      -3.197   8.695  12.418  1.00  0.00     0.015 C 
HETATM    4  C11 UNL     1      -1.895   7.984  12.860  1.00  0.00    -0.013 C 
HETATM    5  C12 UNL     1      -1.283   8.872  13.986  1.00  0.00     0.021 C 
HETATM    6  C13 UNL     1      -0.796   7.765  11.838  1.00  0.00    -0.070 C 
HETATM    7  C14 UNL     1      -0.716   8.415  10.669  1.00  0.00    -0.022 C 
HETATM    8  C15 UNL     1       0.373   8.104   9.697  1.00  0.00     0.034 C 
HETATM    9  C16 UNL     1       1.749   7.992  10.400  1.00  0.00     0.013 C 
HETATM   10  C17 UNL     1       2.913   7.682   9.385  1.00  0.00     0.018 C 
HETATM   11  C18 UNL     1       4.289   8.091   9.946  1.00  0.00     0.023 C 
HETATM   12  C19 UNL     1       2.743   8.462   8.060  1.00  0.00     0.023 C 
HETATM   13  C20 UNL     1       2.957   6.186   9.055  1.00  0.00     0.135 C 
HETATM   14  O1  UNL     1       3.439   5.764   8.001  1.00  0.00    -0.297 OA
HETATM   15  C21 UNL     1       2.381   5.216  10.057  1.00  0.00     0.080 C 
HETATM   16  C22 UNL     1       2.521   5.753  11.471  1.00  0.00     0.017 C 
HETATM   17  C23 UNL     1       1.700   7.054  11.696  1.00  0.00    -0.031 C 
HETATM   18  C24 UNL     1       2.362   7.835  12.862  1.00  0.00     0.016 C 
HETATM   19  C25 UNL     1       0.208   6.647  12.101  1.00  0.00     0.024 C 
HETATM   20  C26 UNL     1       0.063   5.987  13.507  1.00  0.00     0.010 C 
HETATM   21  C27 UNL     1      -1.367   5.807  14.069  1.00  0.00     0.011 C 
HETATM   22  C28 UNL     1      -2.454   6.592  13.314  1.00  0.00    -0.029 C 
HETATM   23  C29 UNL     1      -2.936   5.701  12.132  1.00  0.00     0.016 C 
ENDROOT
BRANCH   1  24
HETATM   24  C6  UNL     1      -4.663   5.938  14.694  1.00  0.00    -0.014 C 
HETATM   25  C7  UNL     1      -5.479   6.532  15.859  1.00  0.00     0.010 C 
BRANCH  24  26
HETATM   26  C5  UNL     1      -5.621   5.380  13.611  1.00  0.00     0.008 C 
BRANCH  26  27
HETATM   27  C4  UNL     1      -6.994   4.916  14.127  1.00  0.00     0.028 C 
BRANCH  27  28
HETATM   28  C3  UNL     1      -8.177   5.450  13.369  1.00  0.00    -0.013 C 
HETATM   29  C2  UNL     1      -9.074   6.378  13.761  1.00  0.00     0.008 C 
HETATM   30  C1  UNL     1     -10.214   6.775  12.862  1.00  0.00     0.055 C 
BRANCH  29  31
HETATM   31  C30 UNL     1      -9.006   7.034  15.094  1.00  0.00     0.171 C 
HETATM   32  O2  UNL     1      -8.704   8.187  15.343  1.00  0.00    -0.646 OA
BRANCH  31  33
HETATM   33  O3  UNL     1      -9.326   6.187  16.090  1.00  0.00    -0.773 OA
HETATM   34  H46 UNL     1      -9.232   6.740  16.892  1.00  0.00     0.167 HD
ENDBRANCH  31  33
ENDBRANCH  29  31
ENDBRANCH  27  28
ENDBRANCH  26  27
ENDBRANCH  24  26
ENDBRANCH   1  24
TORSDOF 6
ENDMDL
MODEL 6
REMARK minimizedAffinity -8.78160381
REMARK  6 active torsions:
REMARK  status: ('A' for Active; 'I' for Inactive)
REMARK    1  A    between atoms: C2_2  and  C30_31 
REMARK    2  A    between atoms: C3_3  and  C4_4 
REMARK    3  A    between atoms: C4_4  and  C5_5 
REMARK    4  A    between atoms: C5_5  and  C6_6 
REMARK    5  A    between atoms: C6_6  and  C8_8 
REMARK    6  A    between atoms: C30_31  and  O3_33 
ROOT
HETATM    1  C8  UNL     1      -6.200   6.300  13.629  1.00  0.00    -0.002 C 
HETATM    2  C9  UNL     1      -5.068   5.422  13.039  1.00  0.00     0.007 C 
HETATM    3  C10 UNL     1      -3.736   6.071  13.471  1.00  0.00     0.015 C 
HETATM    4  C11 UNL     1      -4.122   7.468  14.013  1.00  0.00    -0.013 C 
HETATM    5  C12 UNL     1      -4.209   8.402  12.769  1.00  0.00     0.021 C 
HETATM    6  C13 UNL     1      -3.197   8.152  15.001  1.00  0.00    -0.070 C 
HETATM    7  C14 UNL     1      -1.919   7.801  15.203  1.00  0.00    -0.022 C 
HETATM    8  C15 UNL     1      -1.091   8.497  16.232  1.00  0.00     0.034 C 
HETATM    9  C16 UNL     1      -1.272  10.033  16.165  1.00  0.00     0.013 C 
HETATM   10  C17 UNL     1      -0.390  10.783  17.233  1.00  0.00     0.018 C 
HETATM   11  C18 UNL     1      -0.144  12.254  16.844  1.00  0.00     0.023 C 
HETATM   12  C19 UNL     1       1.009  10.140  17.378  1.00  0.00     0.023 C 
HETATM   13  C20 UNL     1      -1.070  10.760  18.607  1.00  0.00     0.135 C 
HETATM   14  O1  UNL     1      -0.427  10.862  19.655  1.00  0.00    -0.297 OA
HETATM   15  C21 UNL     1      -2.569  10.599  18.660  1.00  0.00     0.080 C 
HETATM   16  C22 UNL     1      -3.222  11.202  17.428  1.00  0.00     0.017 C 
HETATM   17  C23 UNL     1      -2.812  10.467  16.120  1.00  0.00    -0.031 C 
HETATM   18  C24 UNL     1      -2.981  11.465  14.944  1.00  0.00     0.016 C 
HETATM   19  C25 UNL     1      -3.793   9.222  15.912  1.00  0.00     0.024 C 
HETATM   20  C26 UNL     1      -5.267   9.594  15.565  1.00  0.00     0.010 C 
HETATM   21  C27 UNL     1      -6.203   8.454  15.098  1.00  0.00     0.011 C 
HETATM   22  C28 UNL     1      -5.481   7.147  14.725  1.00  0.00    -0.029 C 
HETATM   23  C29 UNL     1      -5.316   6.316  16.031  1.00  0.00     0.016 C 
ENDROOT
BRANCH   1  24
HETATM   24  C6  UNL     1      -7.532   5.575  13.994  1.00  0.00    -0.014 C 
HETATM   25  C7  UNL     1      -7.754   5.715  15.512  1.00  0.00     0.010 C 
BRANCH  24  26
HETATM   26  C5  UNL     1      -8.782   6.079  13.229  1.00  0.00     0.008 C 
BRANCH  26  27
HETATM   27  C4  UNL     1      -9.737   6.965  14.047  1.00  0.00     0.028 C 
BRANCH  27  28
HETATM   28  C3  UNL     1     -11.193   6.825  13.704  1.00  0.00    -0.013 C 
HETATM   29  C2  UNL     1     -12.027   7.751  13.189  1.00  0.00     0.008 C 
HETATM   30  C1  UNL     1     -13.473   7.427  12.927  1.00  0.00     0.055 C 
BRANCH  29  31
HETATM   31  C30 UNL     1     -11.579   9.135  12.878  1.00  0.00     0.171 C 
HETATM   32  O2  UNL     1     -11.148   9.971  13.651  1.00  0.00    -0.646 OA
BRANCH  31  33
HETATM   33  O3  UNL     1     -11.698   9.421  11.568  1.00  0.00    -0.773 OA
HETATM   34  H46 UNL     1     -11.382  10.346  11.511  1.00  0.00     0.167 HD
ENDBRANCH  31  33
ENDBRANCH  29  31
ENDBRANCH  27  28
ENDBRANCH  26  27
ENDBRANCH  24  26
ENDBRANCH   1  24
TORSDOF 6
ENDMDL
MODEL 7
REMARK minimizedAffinity -8.77604198
REMARK  6 active torsions:
REMARK  status: ('A' for Active; 'I' for Inactive)
REMARK    1  A    between atoms: C2_2  and  C30_31 
REMARK    2  A    between atoms: C3_3  and  C4_4 
REMARK    3  A    between atoms: C4_4  and  C5_5 
REMARK    4  A    between atoms: C5_5  and  C6_6 
REMARK    5  A    between atoms: C6_6  and  C8_8 
REMARK    6  A    between atoms: C30_31  and  O3_33 
ROOT
HETATM    1  C8  UNL     1      -5.233   7.813  15.568  1.00  0.00    -0.002 C 
HETATM    2  C9  UNL     1      -5.268   9.321  15.213  1.00  0.00     0.007 C 
HETATM    3  C10 UNL     1      -3.970   9.621  14.433  1.00  0.00     0.015 C 
HETATM    4  C11 UNL     1      -3.077   8.374  14.637  1.00  0.00    -0.013 C 
HETATM    5  C12 UNL     1      -2.345   8.588  15.996  1.00  0.00     0.021 C 
HETATM    6  C13 UNL     1      -2.001   8.068  13.612  1.00  0.00    -0.070 C 
HETATM    7  C14 UNL     1      -1.541   8.953  12.717  1.00  0.00    -0.022 C 
HETATM    8  C15 UNL     1      -0.513   8.553  11.710  1.00  0.00     0.034 C 
HETATM    9  C16 UNL     1       0.626   7.726  12.356  1.00  0.00     0.013 C 
HETATM   10  C17 UNL     1       1.728   7.313  11.309  1.00  0.00     0.018 C 
HETATM   11  C18 UNL     1       3.072   6.984  11.989  1.00  0.00     0.023 C 
HETATM   12  C19 UNL     1       2.024   8.452  10.306  1.00  0.00     0.023 C 
HETATM   13  C20 UNL     1       1.282   6.082  10.513  1.00  0.00     0.135 C 
HETATM   14  O1  UNL     1       1.719   5.840   9.385  1.00  0.00    -0.297 OA
HETATM   15  C21 UNL     1       0.271   5.153  11.140  1.00  0.00     0.080 C 
HETATM   16  C22 UNL     1       0.402   5.153  12.654  1.00  0.00     0.017 C 
HETATM   17  C23 UNL     1       0.075   6.540  13.278  1.00  0.00    -0.031 C 
HETATM   18  C24 UNL     1       0.809   6.629  14.642  1.00  0.00     0.016 C 
HETATM   19  C25 UNL     1      -1.504   6.628  13.511  1.00  0.00     0.024 C 
HETATM   20  C26 UNL     1      -2.060   5.689  14.626  1.00  0.00     0.010 C 
HETATM   21  C27 UNL     1      -3.522   5.908  15.082  1.00  0.00     0.011 C 
HETATM   22  C28 UNL     1      -4.148   7.231  14.608  1.00  0.00    -0.029 C 
HETATM   23  C29 UNL     1      -4.753   6.982  13.196  1.00  0.00     0.016 C 
ENDROOT
BRANCH   1  24
HETATM   24  C6  UNL     1      -6.609   7.087  15.676  1.00  0.00    -0.014 C 
HETATM   25  C7  UNL     1      -7.655   7.927  14.918  1.00  0.00     0.010 C 
BRANCH  24  26
HETATM   26  C5  UNL     1      -6.623   5.629  15.151  1.00  0.00     0.008 C 
BRANCH  26  27
HETATM   27  C4  UNL     1      -7.420   5.407  13.855  1.00  0.00     0.028 C 
BRANCH  27  28
HETATM   28  C3  UNL     1      -7.744   3.974  13.539  1.00  0.00    -0.013 C 
HETATM   29  C2  UNL     1      -7.005   3.078  12.854  1.00  0.00     0.008 C 
HETATM   30  C1  UNL     1      -7.509   1.679  12.622  1.00  0.00     0.055 C 
BRANCH  29  31
HETATM   31  C30 UNL     1      -5.679   3.422  12.275  1.00  0.00     0.171 C 
HETATM   32  O2  UNL     1      -4.628   3.593  12.867  1.00  0.00    -0.646 OA
BRANCH  31  33
HETATM   33  O3  UNL     1      -5.730   3.544  10.936  1.00  0.00    -0.773 OA
HETATM   34  H46 UNL     1      -4.809   3.776  10.697  1.00  0.00     0.167 HD
ENDBRANCH  31  33
ENDBRANCH  29  31
ENDBRANCH  27  28
ENDBRANCH  26  27
ENDBRANCH  24  26
ENDBRANCH   1  24
TORSDOF 6
ENDMDL
MODEL 8
REMARK minimizedAffinity -8.75944996
REMARK  6 active torsions:
REMARK  status: ('A' for Active; 'I' for Inactive)
REMARK    1  A    between atoms: C2_2  and  C30_31 
REMARK    2  A    between atoms: C3_3  and  C4_4 
REMARK    3  A    between atoms: C4_4  and  C5_5 
REMARK    4  A    between atoms: C5_5  and  C6_6 
REMARK    5  A    between atoms: C6_6  and  C8_8 
REMARK    6  A    between atoms: C30_31  and  O3_33 
ROOT
HETATM    1  C8  UNL     1      -3.291   7.148  14.602  1.00  0.00    -0.002 C 
HETATM    2  C9  UNL     1      -2.602   7.960  15.728  1.00  0.00     0.007 C 
HETATM    3  C10 UNL     1      -1.143   8.188  15.279  1.00  0.00     0.015 C 
HETATM    4  C11 UNL     1      -0.936   7.237  14.076  1.00  0.00    -0.013 C 
HETATM    5  C12 UNL     1      -0.564   5.851  14.684  1.00  0.00     0.021 C 
HETATM    6  C13 UNL     1       0.141   7.565  13.060  1.00  0.00    -0.070 C 
HETATM    7  C14 UNL     1       1.144   8.427  13.278  1.00  0.00    -0.022 C 
HETATM    8  C15 UNL     1       2.136   8.729  12.204  1.00  0.00     0.034 C 
HETATM    9  C16 UNL     1       2.617   7.439  11.494  1.00  0.00     0.013 C 
HETATM   10  C17 UNL     1       3.680   7.741  10.370  1.00  0.00     0.018 C 
HETATM   11  C18 UNL     1       4.536   6.502  10.043  1.00  0.00     0.023 C 
HETATM   12  C19 UNL     1       4.673   8.846  10.799  1.00  0.00     0.023 C 
HETATM   13  C20 UNL     1       2.987   8.196   9.081  1.00  0.00     0.135 C 
HETATM   14  O1  UNL     1       3.562   8.895   8.243  1.00  0.00    -0.297 OA
HETATM   15  C21 UNL     1       1.557   7.773   8.850  1.00  0.00     0.080 C 
HETATM   16  C22 UNL     1       1.276   6.433   9.507  1.00  0.00     0.017 C 
HETATM   17  C23 UNL     1       1.404   6.493  11.056  1.00  0.00    -0.031 C 
HETATM   18  C24 UNL     1       1.725   5.060  11.560  1.00  0.00     0.016 C 
HETATM   19  C25 UNL     1       0.004   6.973  11.660  1.00  0.00     0.024 C 
HETATM   20  C26 UNL     1      -1.161   5.945  11.522  1.00  0.00     0.010 C 
HETATM   21  C27 UNL     1      -2.464   6.231  12.306  1.00  0.00     0.011 C 
HETATM   22  C28 UNL     1      -2.337   7.326  13.379  1.00  0.00    -0.029 C 
HETATM   23  C29 UNL     1      -2.599   8.694  12.684  1.00  0.00     0.016 C 
ENDROOT
BRANCH   1  24
HETATM   24  C6  UNL     1      -4.819   7.384  14.403  1.00  0.00    -0.014 C 
HETATM   25  C7  UNL     1      -5.007   8.334  13.204  1.00  0.00     0.010 C 
BRANCH  24  26
HETATM   26  C5  UNL     1      -5.658   6.098  14.192  1.00  0.00     0.008 C 
BRANCH  26  27
HETATM   27  C4  UNL     1      -5.232   5.225  13.000  1.00  0.00     0.028 C 
BRANCH  27  28
HETATM   28  C3  UNL     1      -5.952   3.912  12.877  1.00  0.00    -0.013 C 
HETATM   29  C2  UNL     1      -5.797   2.955  11.938  1.00  0.00     0.008 C 
HETATM   30  C1  UNL     1      -6.631   1.703  11.970  1.00  0.00     0.055 C 
BRANCH  29  31
HETATM   31  C30 UNL     1      -4.826   3.091  10.820  1.00  0.00     0.171 C 
HETATM   32  O2  UNL     1      -3.622   3.259  10.895  1.00  0.00    -0.646 OA
BRANCH  31  33
HETATM   33  O3  UNL     1      -5.427   3.012   9.618  1.00  0.00    -0.773 OA
HETATM   34  H46 UNL     1      -4.684   3.124   8.990  1.00  0.00     0.167 HD
ENDBRANCH  31  33
ENDBRANCH  29  31
ENDBRANCH  27  28
ENDBRANCH  26  27
ENDBRANCH  24  26
ENDBRANCH   1  24
TORSDOF 6
ENDMDL
MODEL 9
REMARK minimizedAffinity -8.59135342
REMARK  6 active torsions:
REMARK  status: ('A' for Active; 'I' for Inactive)
REMARK    1  A    between atoms: C2_2  and  C30_31 
REMARK    2  A    between atoms: C3_3  and  C4_4 
REMARK    3  A    between atoms: C4_4  and  C5_5 
REMARK    4  A    between atoms: C5_5  and  C6_6 
REMARK    5  A    between atoms: C6_6  and  C8_8 
REMARK    6  A    between atoms: C30_31  and  O3_33 
ROOT
HETATM    1  C8  UNL     1      -5.449   7.123  14.999  1.00  0.00    -0.002 C 
HETATM    2  C9  UNL     1      -5.742   8.481  14.312  1.00  0.00     0.007 C 
HETATM    3  C10 UNL     1      -4.462   8.870  13.542  1.00  0.00     0.015 C 
HETATM    4  C11 UNL     1      -3.367   7.907  14.060  1.00  0.00    -0.013 C 
HETATM    5  C12 UNL     1      -2.814   8.551  15.367  1.00  0.00     0.021 C 
HETATM    6  C13 UNL     1      -2.167   7.620  13.180  1.00  0.00    -0.070 C 
HETATM    7  C14 UNL     1      -1.807   8.370  12.129  1.00  0.00    -0.022 C 
HETATM    8  C15 UNL     1      -0.637   7.988  11.284  1.00  0.00     0.034 C 
HETATM    9  C16 UNL     1       0.578   7.571  12.149  1.00  0.00     0.013 C 
HETATM   10  C17 UNL     1       1.827   7.182  11.271  1.00  0.00     0.018 C 
HETATM   11  C18 UNL     1       3.144   7.290  12.066  1.00  0.00     0.023 C 
HETATM   12  C19 UNL     1       1.986   8.119  10.051  1.00  0.00     0.023 C 
HETATM   13  C20 UNL     1       1.698   5.745  10.755  1.00  0.00     0.135 C 
HETATM   14  O1  UNL     1       2.271   5.366   9.731  1.00  0.00    -0.297 OA
HETATM   15  C21 UNL     1       0.833   4.782  11.530  1.00  0.00     0.080 C 
HETATM   16  C22 UNL     1       0.827   5.130  13.009  1.00  0.00     0.017 C 
HETATM   17  C23 UNL     1       0.186   6.519  13.289  1.00  0.00    -0.031 C 
HETATM   18  C24 UNL     1       0.766   7.046  14.629  1.00  0.00     0.016 C 
HETATM   19  C25 UNL     1      -1.395   6.326  13.427  1.00  0.00     0.024 C 
HETATM   20  C26 UNL     1      -1.856   5.551  14.700  1.00  0.00     0.010 C 
HETATM   21  C27 UNL     1      -3.367   5.554  15.031  1.00  0.00     0.011 C 
HETATM   22  C28 UNL     1      -4.192   6.587  14.244  1.00  0.00    -0.029 C 
HETATM   23  C29 UNL     1      -4.611   5.925  12.899  1.00  0.00     0.016 C 
ENDROOT
BRANCH   1  24
HETATM   24  C6  UNL     1      -6.664   6.167  15.208  1.00  0.00    -0.014 C 
HETATM   25  C7  UNL     1      -7.143   6.313  16.665  1.00  0.00     0.010 C 
BRANCH  24  26
HETATM   26  C5  UNL     1      -7.851   6.395  14.238  1.00  0.00     0.008 C 
BRANCH  26  27
HETATM   27  C4  UNL     1      -9.039   7.174  14.827  1.00  0.00     0.028 C 
BRANCH  27  28
HETATM   28  C3  UNL     1     -10.341   7.008  14.095  1.00  0.00    -0.013 C 
HETATM   29  C2  UNL     1     -11.202   7.963  13.688  1.00  0.00     0.008 C 
HETATM   30  C1  UNL     1     -12.478   7.599  12.978  1.00  0.00     0.055 C 
BRANCH  29  31
HETATM   31  C30 UNL     1     -10.958   9.409  13.938  1.00  0.00     0.171 C 
HETATM   32  O2  UNL     1     -10.210   9.908  14.759  1.00  0.00    -0.646 OA
BRANCH  31  33
HETATM   33  O3  UNL     1     -11.689  10.192  13.122  1.00  0.00    -0.773 OA
HETATM   34  H46 UNL     1     -11.439  11.097  13.398  1.00  0.00     0.167 HD
ENDBRANCH  31  33
ENDBRANCH  29  31
ENDBRANCH  27  28
ENDBRANCH  26  27
ENDBRANCH  24  26
ENDBRANCH   1  24
TORSDOF 6
ENDMDL
