MODEL 1
REMARK minimizedAffinity -8.27421665
REMARK CNNscore 0.311263442
REMARK CNNaffinity 7.59203911
REMARK  13 active torsions:
REMARK  status: ('A' for Active; 'I' for Inactive)
REMARK    1  A    between atoms: C3_3  and  O1_4 
REMARK    2  A    between atoms: N1_14  and  O2_16 
REMARK    3  A    between atoms: O2_16  and  C13_17 
REMARK    4  A    between atoms: C13_17  and  C14_18 
REMARK       I    between atoms: C14_18  and  N2_20 
REMARK    5  A    between atoms: N2_20  and  C15_21 
REMARK    6  A    between atoms: C15_21  and  C16_22 
REMARK    7  A    between atoms: C15_21  and  C21_32 
REMARK       I    between atoms: C16_22  and  N3_24 
REMARK    8  A    between atoms: N3_24  and  C17_25 
REMARK    9  A    between atoms: C17_25  and  C18_26 
REMARK   10  A    between atoms: C17_25  and  C19_28 
REMARK   11  A    between atoms: C18_26  and  S1_27 
REMARK   12  A    between atoms: C19_28  and  C20_29 
REMARK   13  A    between atoms: C20_29  and  O6_31 
ROOT
HETATM    1  C1  UNL     1     -14.191   9.850  12.704  1.00  0.00     0.015 C 
HETATM    2  C2  UNL     1     -13.148   9.603  13.251  1.00  0.00    -0.078 C 
HETATM    3  C3  UNL     1     -11.888   9.321  13.963  1.00  0.00     0.128 C 
HETATM    4  C4  UNL     1     -12.053   9.514  15.479  1.00  0.00     0.052 C 
HETATM    5  C5  UNL     1     -10.802   8.857  16.042  1.00  0.00     0.010 C 
HETATM    6  C6  UNL     1     -10.629   7.591  15.184  1.00  0.00     0.002 C 
HETATM    7  C7  UNL     1      -9.191   7.034  15.081  1.00  0.00    -0.004 C 
HETATM    8  C8  UNL     1      -8.061   8.064  14.885  1.00  0.00     0.010 C 
HETATM    9  C9  UNL     1      -6.952   7.677  13.901  1.00  0.00     0.035 C 
HETATM   10  C10 UNL     1      -6.627   6.210  13.747  1.00  0.00    -0.069 C 
HETATM   11  C11 UNL     1      -5.430   5.838  13.263  1.00  0.00     0.030 C 
HETATM   12  C12 UNL     1      -5.112   4.411  12.956  1.00  0.00     0.032 C 
HETATM   13  N1  UNL     1      -3.922   3.945  12.709  1.00  0.00    -0.271 N 
ATOM     14  H1  UNL     1      -3.727   2.981  12.438  1.00  0.00     0.194 HD
HETATM   15  C24 UNL     1      -6.255   3.408  12.928  1.00  0.00     0.060 C 
HETATM   16  C25 UNL     1      -7.637   4.055  13.007  1.00  0.00     0.020 C 
HETATM   17  C26 UNL     1      -7.719   5.196  14.057  1.00  0.00    -0.016 C 
HETATM   18  C27 UNL     1      -7.440   4.604  15.467  1.00  0.00     0.020 C 
HETATM   19  C28 UNL     1      -9.133   5.884  14.047  1.00  0.00     0.002 C 
HETATM   20  C29 UNL     1      -9.624   6.337  12.647  1.00  0.00     0.007 C 
HETATM   21  C30 UNL     1     -10.402   7.659  12.628  1.00  0.00     0.014 C 
HETATM   22  C31 UNL     1     -11.358   7.850  13.824  1.00  0.00     0.003 C 
HETATM   23  C32 UNL     1     -12.519   6.827  13.694  1.00  0.00     0.020 C 
ENDROOT
BRANCH   3  24
HETATM   24  O1  UNL     1     -10.902  10.255  13.508  1.00  0.00    -0.377 OA
HETATM   25  H2  UNL     1     -11.281  11.146  13.618  1.00  0.00     0.211 HD
ENDBRANCH   3  24
BRANCH  13  26
HETATM   26  O2  UNL     1      -2.942   4.938  12.862  1.00  0.00    -0.271 OA
BRANCH  26  27
HETATM   27  C13 UNL     1      -1.698   4.327  13.194  1.00  0.00     0.303 C 
BRANCH  27  28
HETATM   28  C14 UNL     1      -0.726   4.770  12.116  1.00  0.00     0.244 C 
HETATM   29  O3  UNL     1      -0.512   4.121  11.098  1.00  0.00    -0.271 OA
HETATM   30  N2  UNL     1      -0.074   5.948  12.419  1.00  0.00    -0.346 N 
HETATM   31  H16 UNL     1      -0.254   6.379  13.322  1.00  0.00     0.163 HD
BRANCH  30  32
HETATM   32  C15 UNL     1       1.049   6.473  11.631  1.00  0.00     0.180 C 
BRANCH  32  33
HETATM   33  C16 UNL     1       2.021   7.176  12.613  1.00  0.00     0.241 C 
HETATM   34  O4  UNL     1       2.787   8.081  12.288  1.00  0.00    -0.271 OA
HETATM   35  N3  UNL     1       2.010   6.614  13.882  1.00  0.00    -0.353 N 
HETATM   36  H18 UNL     1       1.300   5.901  14.014  1.00  0.00     0.163 HD
BRANCH  35  37
HETATM   37  C17 UNL     1       2.453   7.359  15.060  1.00  0.00     0.103 C 
BRANCH  37  38
HETATM   38  C18 UNL     1       1.224   7.905  15.817  1.00  0.00     0.096 C 
BRANCH  38  39
HETATM   39  S1  UNL     1       0.038   8.802  14.774  1.00  0.00    -0.180 SA
HETATM   40  H22 UNL     1      -0.470   7.728  14.143  1.00  0.00     0.101 HD
ENDBRANCH  38  39
ENDBRANCH  37  38
BRANCH  37  41
HETATM   41  C19 UNL     1       3.486   8.421  14.646  1.00  0.00     0.136 C 
BRANCH  41  42
HETATM   42  C20 UNL     1       4.889   8.037  15.025  1.00  0.00     0.141 C 
HETATM   43  O5  UNL     1       5.896   8.688  14.797  1.00  0.00    -0.650 OA
BRANCH  42  44
HETATM   44  O6  UNL     1       4.954   6.848  15.662  1.00  0.00    -0.776 OA
HETATM   45  H25 UNL     1       5.925   6.675  15.762  1.00  0.00     0.167 HD
ENDBRANCH  42  44
ENDBRANCH  41  42
ENDBRANCH  37  41
ENDBRANCH  35  37
ENDBRANCH  32  33
BRANCH  32  46
HETATM   46  C21 UNL     1       0.582   7.401  10.491  1.00  0.00     0.009 C 
HETATM   47  C22 UNL     1      -0.098   8.656  11.047  1.00  0.00     0.012 C 
HETATM   48  C23 UNL     1       1.716   7.802   9.537  1.00  0.00     0.012 C 
ENDBRANCH  32  46
ENDBRANCH  30  32
ENDBRANCH  27  28
ENDBRANCH  26  27
ENDBRANCH  13  26
TORSDOF 13
ENDMDL
MODEL 2
REMARK minimizedAffinity -7.78676176
REMARK CNNscore 0.266114295
REMARK CNNaffinity 6.95708418
REMARK  13 active torsions:
REMARK  status: ('A' for Active; 'I' for Inactive)
REMARK    1  A    between atoms: C3_3  and  O1_4 
REMARK    2  A    between atoms: N1_14  and  O2_16 
REMARK    3  A    between atoms: O2_16  and  C13_17 
REMARK    4  A    between atoms: C13_17  and  C14_18 
REMARK       I    between atoms: C14_18  and  N2_20 
REMARK    5  A    between atoms: N2_20  and  C15_21 
REMARK    6  A    between atoms: C15_21  and  C16_22 
REMARK    7  A    between atoms: C15_21  and  C21_32 
REMARK       I    between atoms: C16_22  and  N3_24 
REMARK    8  A    between atoms: N3_24  and  C17_25 
REMARK    9  A    between atoms: C17_25  and  C18_26 
REMARK   10  A    between atoms: C17_25  and  C19_28 
REMARK   11  A    between atoms: C18_26  and  S1_27 
REMARK   12  A    between atoms: C19_28  and  C20_29 
REMARK   13  A    between atoms: C20_29  and  O6_31 
ROOT
HETATM    1  C1  UNL     1       0.079   8.105  12.427  1.00  0.00     0.015 C 
HETATM    2  C2  UNL     1      -0.875   7.495  12.836  1.00  0.00    -0.078 C 
HETATM    3  C3  UNL     1      -2.012   6.716  13.357  1.00  0.00     0.128 C 
HETATM    4  C4  UNL     1      -1.549   5.702  14.416  1.00  0.00     0.052 C 
HETATM    5  C5  UNL     1      -2.855   5.267  15.062  1.00  0.00     0.010 C 
HETATM    6  C6  UNL     1      -3.665   6.571  15.178  1.00  0.00     0.002 C 
HETATM    7  C7  UNL     1      -5.201   6.412  15.225  1.00  0.00    -0.004 C 
HETATM    8  C8  UNL     1      -5.823   5.391  14.250  1.00  0.00     0.010 C 
HETATM    9  C9  UNL     1      -7.131   5.810  13.571  1.00  0.00     0.035 C 
HETATM   10  C10 UNL     1      -8.050   6.740  14.326  1.00  0.00    -0.069 C 
HETATM   11  C11 UNL     1      -9.354   6.799  14.004  1.00  0.00     0.030 C 
HETATM   12  C12 UNL     1     -10.274   7.802  14.617  1.00  0.00     0.032 C 
HETATM   13  N1  UNL     1     -11.573   7.776  14.536  1.00  0.00    -0.271 N 
ATOM     14  H1  UNL     1     -12.187   8.502  14.906  1.00  0.00     0.194 HD
HETATM   15  C24 UNL     1      -9.665   8.950  15.406  1.00  0.00     0.060 C 
HETATM   16  C25 UNL     1      -8.145   9.042  15.276  1.00  0.00     0.020 C 
HETATM   17  C26 UNL     1      -7.439   7.662  15.370  1.00  0.00    -0.016 C 
HETATM   18  C27 UNL     1      -7.714   7.051  16.773  1.00  0.00     0.020 C 
HETATM   19  C28 UNL     1      -5.888   7.797  15.152  1.00  0.00     0.002 C 
HETATM   20  C29 UNL     1      -5.478   8.581  13.877  1.00  0.00     0.007 C 
HETATM   21  C30 UNL     1      -4.238   8.041  13.154  1.00  0.00     0.014 C 
HETATM   22  C31 UNL     1      -3.115   7.555  14.094  1.00  0.00     0.003 C 
HETATM   23  C32 UNL     1      -2.513   8.789  14.820  1.00  0.00     0.020 C 
ENDROOT
BRANCH   3  24
HETATM   24  O1  UNL     1      -2.584   5.981  12.269  1.00  0.00    -0.377 OA
HETATM   25  H2  UNL     1      -1.859   5.480  11.851  1.00  0.00     0.211 HD
ENDBRANCH   3  24
BRANCH  13  26
HETATM   26  O2  UNL     1     -12.020   6.622  13.875  1.00  0.00    -0.271 OA
BRANCH  26  27
HETATM   27  C13 UNL     1     -13.027   6.978  12.930  1.00  0.00     0.303 C 
BRANCH  27  28
HETATM   28  C14 UNL     1     -14.350   6.728  13.630  1.00  0.00     0.244 C 
HETATM   29  O3  UNL     1     -15.339   7.434  13.467  1.00  0.00    -0.271 OA
HETATM   30  N2  UNL     1     -14.313   5.660  14.503  1.00  0.00    -0.346 N 
HETATM   31  H16 UNL     1     -13.427   5.178  14.637  1.00  0.00     0.163 HD
BRANCH  30  32
HETATM   32  C15 UNL     1     -15.402   5.344  15.437  1.00  0.00     0.180 C 
BRANCH  32  33
HETATM   33  C16 UNL     1     -16.333   4.318  14.740  1.00  0.00     0.241 C 
HETATM   34  O4  UNL     1     -16.840   4.495  13.635  1.00  0.00    -0.271 OA
HETATM   35  N3  UNL     1     -16.616   3.216  15.535  1.00  0.00    -0.353 N 
HETATM   36  H18 UNL     1     -16.097   3.188  16.406  1.00  0.00     0.163 HD
BRANCH  35  37
HETATM   37  C17 UNL     1     -17.054   1.944  14.962  1.00  0.00     0.103 C 
BRANCH  37  38
HETATM   38  C18 UNL     1     -18.571   2.000  14.682  1.00  0.00     0.096 C 
BRANCH  38  39
HETATM   39  S1  UNL     1     -19.531   0.689  15.493  1.00  0.00    -0.180 SA
HETATM   40  H22 UNL     1     -19.454   1.179  16.743  1.00  0.00     0.101 HD
ENDBRANCH  38  39
ENDBRANCH  37  38
BRANCH  37  41
HETATM   41  C19 UNL     1     -16.602   0.783  15.865  1.00  0.00     0.136 C 
BRANCH  41  42
HETATM   42  C20 UNL     1     -15.172   0.388  15.621  1.00  0.00     0.141 C 
HETATM   43  O5  UNL     1     -14.689  -0.714  15.825  1.00  0.00    -0.650 OA
BRANCH  42  44
HETATM   44  O6  UNL     1     -14.422   1.403  15.143  1.00  0.00    -0.776 OA
HETATM   45  H25 UNL     1     -13.499   1.040  15.123  1.00  0.00     0.167 HD
ENDBRANCH  42  44
ENDBRANCH  41  42
ENDBRANCH  37  41
ENDBRANCH  35  37
ENDBRANCH  32  33
BRANCH  32  46
HETATM   46  C21 UNL     1     -16.155   6.604  15.909  1.00  0.00     0.009 C 
HETATM   47  C22 UNL     1     -17.577   6.258  16.361  1.00  0.00     0.012 C 
HETATM   48  C23 UNL     1     -15.423   7.361  17.026  1.00  0.00     0.012 C 
ENDBRANCH  32  46
ENDBRANCH  30  32
ENDBRANCH  27  28
ENDBRANCH  26  27
ENDBRANCH  13  26
TORSDOF 13
ENDMDL
MODEL 3
REMARK minimizedAffinity -7.15123653
REMARK CNNscore 0.234261006
REMARK CNNaffinity 5.56977034
REMARK  13 active torsions:
REMARK  status: ('A' for Active; 'I' for Inactive)
REMARK    1  A    between atoms: C3_3  and  O1_4 
REMARK    2  A    between atoms: N1_14  and  O2_16 
REMARK    3  A    between atoms: O2_16  and  C13_17 
REMARK    4  A    between atoms: C13_17  and  C14_18 
REMARK       I    between atoms: C14_18  and  N2_20 
REMARK    5  A    between atoms: N2_20  and  C15_21 
REMARK    6  A    between atoms: C15_21  and  C16_22 
REMARK    7  A    between atoms: C15_21  and  C21_32 
REMARK       I    between atoms: C16_22  and  N3_24 
REMARK    8  A    between atoms: N3_24  and  C17_25 
REMARK    9  A    between atoms: C17_25  and  C18_26 
REMARK   10  A    between atoms: C17_25  and  C19_28 
REMARK   11  A    between atoms: C18_26  and  S1_27 
REMARK   12  A    between atoms: C19_28  and  C20_29 
REMARK   13  A    between atoms: C20_29  and  O6_31 
ROOT
HETATM    1  C1  UNL     1       1.976   8.084  22.620  1.00  0.00     0.015 C 
HETATM    2  C2  UNL     1       2.389   9.085  22.094  1.00  0.00    -0.078 C 
HETATM    3  C3  UNL     1       2.851  10.317  21.428  1.00  0.00     0.128 C 
HETATM    4  C4  UNL     1       1.671  11.095  20.824  1.00  0.00     0.052 C 
HETATM    5  C5  UNL     1       2.286  12.450  20.510  1.00  0.00     0.010 C 
HETATM    6  C6  UNL     1       3.188  12.739  21.723  1.00  0.00     0.002 C 
HETATM    7  C7  UNL     1       4.374  13.698  21.471  1.00  0.00    -0.004 C 
HETATM    8  C8  UNL     1       5.159  13.501  20.159  1.00  0.00     0.010 C 
HETATM    9  C9  UNL     1       6.683  13.635  20.251  1.00  0.00     0.035 C 
HETATM   10  C10 UNL     1       7.245  14.568  21.296  1.00  0.00    -0.069 C 
HETATM   11  C11 UNL     1       8.490  15.056  21.156  1.00  0.00     0.030 C 
HETATM   12  C12 UNL     1       9.146  15.863  22.227  1.00  0.00     0.032 C 
HETATM   13  N1  UNL     1      10.239  16.556  22.081  1.00  0.00    -0.271 N 
ATOM     14  H1  UNL     1      10.711  17.052  22.836  1.00  0.00     0.194 HD
HETATM   15  C24 UNL     1       8.501  15.894  23.604  1.00  0.00     0.060 C 
HETATM   16  C25 UNL     1       7.357  14.893  23.764  1.00  0.00     0.020 C 
HETATM   17  C26 UNL     1       6.409  14.846  22.536  1.00  0.00    -0.016 C 
HETATM   18  C27 UNL     1       5.740  16.239  22.363  1.00  0.00     0.020 C 
HETATM   19  C28 UNL     1       5.297  13.749  22.713  1.00  0.00     0.002 C 
HETATM   20  C29 UNL     1       5.828  12.343  23.099  1.00  0.00     0.007 C 
HETATM   21  C30 UNL     1       5.080  11.168  22.458  1.00  0.00     0.014 C 
HETATM   22  C31 UNL     1       3.552  11.361  22.368  1.00  0.00     0.003 C 
HETATM   23  C32 UNL     1       2.965  11.329  23.805  1.00  0.00     0.020 C 
ENDROOT
BRANCH   3  24
HETATM   24  O1  UNL     1       3.723   9.942  20.355  1.00  0.00    -0.377 OA
HETATM   25  H2  UNL     1       3.240   9.298  19.806  1.00  0.00     0.211 HD
ENDBRANCH   3  24
BRANCH  13  26
HETATM   26  O2  UNL     1      10.683  16.533  20.749  1.00  0.00    -0.271 OA
BRANCH  26  27
HETATM   27  C13 UNL     1      11.540  17.649  20.518  1.00  0.00     0.303 C 
BRANCH  27  28
HETATM   28  C14 UNL     1      12.235  17.362  19.200  1.00  0.00     0.244 C 
HETATM   29  O3  UNL     1      11.655  17.369  18.119  1.00  0.00    -0.271 OA
HETATM   30  N2  UNL     1      13.571  17.044  19.344  1.00  0.00    -0.346 N 
HETATM   31  H16 UNL     1      13.952  16.983  20.285  1.00  0.00     0.163 HD
BRANCH  30  32
HETATM   32  C15 UNL     1      14.402  16.538  18.244  1.00  0.00     0.180 C 
BRANCH  32  33
HETATM   33  C16 UNL     1      14.568  15.010  18.447  1.00  0.00     0.241 C 
HETATM   34  O4  UNL     1      13.641  14.206  18.374  1.00  0.00    -0.271 OA
HETATM   35  N3  UNL     1      15.856  14.649  18.817  1.00  0.00    -0.353 N 
HETATM   36  H18 UNL     1      16.523  15.414  18.801  1.00  0.00     0.163 HD
BRANCH  35  37
HETATM   37  C17 UNL     1      16.368  13.295  18.609  1.00  0.00     0.103 C 
BRANCH  37  38
HETATM   38  C18 UNL     1      15.351  12.482  17.779  1.00  0.00     0.096 C 
BRANCH  38  39
HETATM   39  S1  UNL     1      15.958  11.967  16.147  1.00  0.00    -0.180 SA
HETATM   40  H22 UNL     1      16.801  11.013  16.578  1.00  0.00     0.101 HD
ENDBRANCH  38  39
ENDBRANCH  37  38
BRANCH  37  41
HETATM   41  C19 UNL     1      16.752  12.669  19.960  1.00  0.00     0.136 C 
BRANCH  41  42
HETATM   42  C20 UNL     1      15.694  12.872  21.009  1.00  0.00     0.141 C 
HETATM   43  O5  UNL     1      14.616  12.301  21.058  1.00  0.00    -0.650 OA
BRANCH  42  44
HETATM   44  O6  UNL     1      16.042  13.790  21.935  1.00  0.00    -0.776 OA
HETATM   45  H25 UNL     1      15.230  13.895  22.495  1.00  0.00     0.167 HD
ENDBRANCH  42  44
ENDBRANCH  41  42
ENDBRANCH  37  41
ENDBRANCH  35  37
ENDBRANCH  32  33
BRANCH  32  46
HETATM   46  C21 UNL     1      15.754  17.274  18.144  1.00  0.00     0.009 C 
HETATM   47  C22 UNL     1      15.836  18.101  16.857  1.00  0.00     0.012 C 
HETATM   48  C23 UNL     1      16.046  18.168  19.358  1.00  0.00     0.012 C 
ENDBRANCH  32  46
ENDBRANCH  30  32
ENDBRANCH  27  28
ENDBRANCH  26  27
ENDBRANCH  13  26
TORSDOF 13
ENDMDL
MODEL 4
REMARK minimizedAffinity -7.31823921
REMARK CNNscore 0.229535684
REMARK CNNaffinity 5.68652868
REMARK  13 active torsions:
REMARK  status: ('A' for Active; 'I' for Inactive)
REMARK    1  A    between atoms: C3_3  and  O1_4 
REMARK    2  A    between atoms: N1_14  and  O2_16 
REMARK    3  A    between atoms: O2_16  and  C13_17 
REMARK    4  A    between atoms: C13_17  and  C14_18 
REMARK       I    between atoms: C14_18  and  N2_20 
REMARK    5  A    between atoms: N2_20  and  C15_21 
REMARK    6  A    between atoms: C15_21  and  C16_22 
REMARK    7  A    between atoms: C15_21  and  C21_32 
REMARK       I    between atoms: C16_22  and  N3_24 
REMARK    8  A    between atoms: N3_24  and  C17_25 
REMARK    9  A    between atoms: C17_25  and  C18_26 
REMARK   10  A    between atoms: C17_25  and  C19_28 
REMARK   11  A    between atoms: C18_26  and  S1_27 
REMARK   12  A    between atoms: C19_28  and  C20_29 
REMARK   13  A    between atoms: C20_29  and  O6_31 
ROOT
HETATM    1  C1  UNL     1       1.956   8.069  22.640  1.00  0.00     0.015 C 
HETATM    2  C2  UNL     1       2.307   9.058  22.051  1.00  0.00    -0.078 C 
HETATM    3  C3  UNL     1       2.689  10.276  21.314  1.00  0.00     0.128 C 
HETATM    4  C4  UNL     1       1.448  11.071  20.876  1.00  0.00     0.052 C 
HETATM    5  C5  UNL     1       2.034  12.413  20.465  1.00  0.00     0.010 C 
HETATM    6  C6  UNL     1       3.105  12.694  21.533  1.00  0.00     0.002 C 
HETATM    7  C7  UNL     1       4.259  13.630  21.106  1.00  0.00    -0.004 C 
HETATM    8  C8  UNL     1       4.844  13.410  19.697  1.00  0.00     0.010 C 
HETATM    9  C9  UNL     1       6.368  13.516  19.569  1.00  0.00     0.035 C 
HETATM   10  C10 UNL     1       7.089  14.447  20.514  1.00  0.00    -0.069 C 
HETATM   11  C11 UNL     1       8.309  14.911  20.193  1.00  0.00     0.030 C 
HETATM   12  C12 UNL     1       9.125  15.715  21.151  1.00  0.00     0.032 C 
HETATM   13  N1  UNL     1      10.197  16.387  20.843  1.00  0.00    -0.271 N 
ATOM     14  H1  UNL     1      10.781  16.880  21.519  1.00  0.00     0.194 HD
HETATM   15  C24 UNL     1       8.684  15.767  22.605  1.00  0.00     0.060 C 
HETATM   16  C25 UNL     1       7.559  14.788  22.937  1.00  0.00     0.020 C 
HETATM   17  C26 UNL     1       6.443  14.749  21.858  1.00  0.00    -0.016 C 
HETATM   18  C27 UNL     1       5.780  16.153  21.769  1.00  0.00     0.020 C 
HETATM   19  C28 UNL     1       5.350  13.673  22.202  1.00  0.00     0.002 C 
HETATM   20  C29 UNL     1       5.908  12.261  22.523  1.00  0.00     0.007 C 
HETATM   21  C30 UNL     1       5.056  11.095  22.006  1.00  0.00     0.014 C 
HETATM   22  C31 UNL     1       3.535  11.315  22.133  1.00  0.00     0.003 C 
HETATM   23  C32 UNL     1       3.159  11.304  23.640  1.00  0.00     0.020 C 
ENDROOT
BRANCH   3  24
HETATM   24  O1  UNL     1       3.393   9.878  20.131  1.00  0.00    -0.377 OA
HETATM   25  H2  UNL     1       2.825   9.239  19.663  1.00  0.00     0.211 HD
ENDBRANCH   3  24
BRANCH  13  26
HETATM   26  O2  UNL     1      10.446  16.346  19.462  1.00  0.00    -0.271 OA
BRANCH  26  27
HETATM   27  C13 UNL     1      11.842  16.166  19.239  1.00  0.00     0.303 C 
BRANCH  27  28
HETATM   28  C14 UNL     1      11.997  14.732  18.767  1.00  0.00     0.244 C 
HETATM   29  O3  UNL     1      11.211  13.839  19.065  1.00  0.00    -0.271 OA
HETATM   30  N2  UNL     1      13.134  14.524  18.013  1.00  0.00    -0.346 N 
HETATM   31  H16 UNL     1      13.773  15.305  17.880  1.00  0.00     0.163 HD
BRANCH  30  32
HETATM   32  C15 UNL     1      13.602  13.192  17.611  1.00  0.00     0.180 C 
BRANCH  32  33
HETATM   33  C16 UNL     1      14.938  12.923  18.351  1.00  0.00     0.241 C 
HETATM   34  O4  UNL     1      15.436  11.807  18.481  1.00  0.00    -0.271 OA
HETATM   35  N3  UNL     1      15.470  14.062  18.939  1.00  0.00    -0.353 N 
HETATM   36  H18 UNL     1      14.971  14.917  18.716  1.00  0.00     0.163 HD
BRANCH  35  37
HETATM   37  C17 UNL     1      16.892  14.169  19.266  1.00  0.00     0.103 C 
BRANCH  37  38
HETATM   38  C18 UNL     1      17.732  13.961  17.987  1.00  0.00     0.096 C 
BRANCH  38  39
HETATM   39  S1  UNL     1      18.713  12.433  17.976  1.00  0.00    -0.180 SA
HETATM   40  H22 UNL     1      17.689  11.582  17.786  1.00  0.00     0.101 HD
ENDBRANCH  38  39
ENDBRANCH  37  38
BRANCH  37  41
HETATM   41  C19 UNL     1      17.233  13.222  20.429  1.00  0.00     0.136 C 
BRANCH  41  42
HETATM   42  C20 UNL     1      16.187  13.238  21.509  1.00  0.00     0.141 C 
HETATM   43  O5  UNL     1      15.444  12.315  21.799  1.00  0.00    -0.650 OA
BRANCH  42  44
HETATM   44  O6  UNL     1      16.124  14.419  22.160  1.00  0.00    -0.776 OA
HETATM   45  H25 UNL     1      15.343  14.326  22.764  1.00  0.00     0.167 HD
ENDBRANCH  42  44
ENDBRANCH  41  42
ENDBRANCH  37  41
ENDBRANCH  35  37
ENDBRANCH  32  33
BRANCH  32  46
HETATM   46  C21 UNL     1      13.733  13.052  16.081  1.00  0.00     0.009 C 
HETATM   47  C22 UNL     1      14.982  13.775  15.567  1.00  0.00     0.012 C 
HETATM   48  C23 UNL     1      13.744  11.592  15.607  1.00  0.00     0.012 C 
ENDBRANCH  32  46
ENDBRANCH  30  32
ENDBRANCH  27  28
ENDBRANCH  26  27
ENDBRANCH  13  26
TORSDOF 13
ENDMDL
MODEL 5
REMARK minimizedAffinity -8.98988724
REMARK CNNscore 0.220811397
REMARK CNNaffinity 7.44023466
REMARK  13 active torsions:
REMARK  status: ('A' for Active; 'I' for Inactive)
REMARK    1  A    between atoms: C3_3  and  O1_4 
REMARK    2  A    between atoms: N1_14  and  O2_16 
REMARK    3  A    between atoms: O2_16  and  C13_17 
REMARK    4  A    between atoms: C13_17  and  C14_18 
REMARK       I    between atoms: C14_18  and  N2_20 
REMARK    5  A    between atoms: N2_20  and  C15_21 
REMARK    6  A    between atoms: C15_21  and  C16_22 
REMARK    7  A    between atoms: C15_21  and  C21_32 
REMARK       I    between atoms: C16_22  and  N3_24 
REMARK    8  A    between atoms: N3_24  and  C17_25 
REMARK    9  A    between atoms: C17_25  and  C18_26 
REMARK   10  A    between atoms: C17_25  and  C19_28 
REMARK   11  A    between atoms: C18_26  and  S1_27 
REMARK   12  A    between atoms: C19_28  and  C20_29 
REMARK   13  A    between atoms: C20_29  and  O6_31 
ROOT
HETATM    1  C1  UNL     1     -14.080   9.300  13.072  1.00  0.00     0.015 C 
HETATM    2  C2  UNL     1     -12.994   9.199  13.581  1.00  0.00    -0.078 C 
HETATM    3  C3  UNL     1     -11.682   9.096  14.246  1.00  0.00     0.128 C 
HETATM    4  C4  UNL     1     -11.811   9.310  15.763  1.00  0.00     0.052 C 
HETATM    5  C5  UNL     1     -10.467   8.830  16.287  1.00  0.00     0.010 C 
HETATM    6  C6  UNL     1     -10.171   7.571  15.453  1.00  0.00     0.002 C 
HETATM    7  C7  UNL     1      -8.680   7.193  15.304  1.00  0.00    -0.004 C 
HETATM    8  C8  UNL     1      -7.695   8.349  15.036  1.00  0.00     0.010 C 
HETATM    9  C9  UNL     1      -6.585   8.074  14.016  1.00  0.00     0.035 C 
HETATM   10  C10 UNL     1      -6.086   6.655  13.884  1.00  0.00    -0.069 C 
HETATM   11  C11 UNL     1      -4.871   6.420  13.359  1.00  0.00     0.030 C 
HETATM   12  C12 UNL     1      -4.390   5.035  13.072  1.00  0.00     0.032 C 
HETATM   13  N1  UNL     1      -3.162   4.713  12.787  1.00  0.00    -0.271 N 
ATOM     14  H1  UNL     1      -2.858   3.773  12.531  1.00  0.00     0.194 HD
HETATM   15  C24 UNL     1      -5.399   3.898  13.117  1.00  0.00     0.060 C 
HETATM   16  C25 UNL     1      -6.847   4.372  13.238  1.00  0.00     0.020 C 
HETATM   17  C26 UNL     1      -7.030   5.523  14.263  1.00  0.00    -0.016 C 
HETATM   18  C27 UNL     1      -6.625   5.011  15.673  1.00  0.00     0.020 C 
HETATM   19  C28 UNL     1      -8.518   6.030  14.296  1.00  0.00     0.002 C 
HETATM   20  C29 UNL     1      -9.115   6.379  12.907  1.00  0.00     0.007 C 
HETATM   21  C30 UNL     1     -10.052   7.593  12.889  1.00  0.00     0.014 C 
HETATM   22  C31 UNL     1     -10.978   7.698  14.119  1.00  0.00     0.003 C 
HETATM   23  C32 UNL     1     -12.007   6.537  14.063  1.00  0.00     0.020 C 
ENDROOT
BRANCH   3  24
HETATM   24  O1  UNL     1     -10.838  10.132  13.728  1.00  0.00    -0.377 OA
HETATM   25  H2  UNL     1     -11.321  10.972  13.832  1.00  0.00     0.211 HD
ENDBRANCH   3  24
BRANCH  13  26
HETATM   26  O2  UNL     1      -2.308   5.824  12.876  1.00  0.00    -0.271 OA
BRANCH  26  27
HETATM   27  C13 UNL     1      -0.957   5.376  12.965  1.00  0.00     0.303 C 
BRANCH  27  28
HETATM   28  C14 UNL     1      -0.461   5.290  11.534  1.00  0.00     0.244 C 
HETATM   29  O3  UNL     1      -0.869   4.457  10.731  1.00  0.00    -0.271 OA
HETATM   30  N2  UNL     1       0.525   6.209  11.241  1.00  0.00    -0.346 N 
HETATM   31  H16 UNL     1       0.859   6.812  11.990  1.00  0.00     0.163 HD
BRANCH  30  32
HETATM   32  C15 UNL     1       1.296   6.194   9.991  1.00  0.00     0.180 C 
BRANCH  32  33
HETATM   33  C16 UNL     1       2.800   6.187  10.369  1.00  0.00     0.241 C 
HETATM   34  O4  UNL     1       3.689   5.767   9.632  1.00  0.00    -0.271 OA
HETATM   35  N3  UNL     1       3.034   6.613  11.669  1.00  0.00    -0.353 N 
HETATM   36  H18 UNL     1       2.210   6.964  12.146  1.00  0.00     0.163 HD
BRANCH  35  37
HETATM   37  C17 UNL     1       4.335   7.132  12.088  1.00  0.00     0.103 C 
BRANCH  37  38
HETATM   38  C18 UNL     1       4.140   8.467  12.840  1.00  0.00     0.096 C 
BRANCH  38  39
HETATM   39  S1  UNL     1       4.057   8.304  14.646  1.00  0.00    -0.180 SA
HETATM   40  H22 UNL     1       5.362   8.052  14.849  1.00  0.00     0.101 HD
ENDBRANCH  38  39
ENDBRANCH  37  38
BRANCH  37  41
HETATM   41  C19 UNL     1       5.284   7.200  10.879  1.00  0.00     0.136 C 
BRANCH  41  42
HETATM   42  C20 UNL     1       6.536   6.394  11.085  1.00  0.00     0.141 C 
HETATM   43  O5  UNL     1       7.595   6.816  11.522  1.00  0.00    -0.650 OA
BRANCH  42  44
HETATM   44  O6  UNL     1       6.395   5.103  10.721  1.00  0.00    -0.776 OA
HETATM   45  H25 UNL     1       7.305   4.720  10.813  1.00  0.00     0.167 HD
ENDBRANCH  42  44
ENDBRANCH  41  42
ENDBRANCH  37  41
ENDBRANCH  35  37
ENDBRANCH  32  33
BRANCH  32  46
HETATM   46  C21 UNL     1       0.925   7.364   9.057  1.00  0.00     0.009 C 
HETATM   47  C22 UNL     1       0.132   8.437   9.810  1.00  0.00     0.012 C 
HETATM   48  C23 UNL     1       2.142   7.999   8.372  1.00  0.00     0.012 C 
ENDBRANCH  32  46
ENDBRANCH  30  32
ENDBRANCH  27  28
ENDBRANCH  26  27
ENDBRANCH  13  26
TORSDOF 13
ENDMDL
MODEL 6
REMARK minimizedAffinity -8.71081924
REMARK CNNscore 0.212652162
REMARK CNNaffinity 7.16167593
REMARK  13 active torsions:
REMARK  status: ('A' for Active; 'I' for Inactive)
REMARK    1  A    between atoms: C3_3  and  O1_4 
REMARK    2  A    between atoms: N1_14  and  O2_16 
REMARK    3  A    between atoms: O2_16  and  C13_17 
REMARK    4  A    between atoms: C13_17  and  C14_18 
REMARK       I    between atoms: C14_18  and  N2_20 
REMARK    5  A    between atoms: N2_20  and  C15_21 
REMARK    6  A    between atoms: C15_21  and  C16_22 
REMARK    7  A    between atoms: C15_21  and  C21_32 
REMARK       I    between atoms: C16_22  and  N3_24 
REMARK    8  A    between atoms: N3_24  and  C17_25 
REMARK    9  A    between atoms: C17_25  and  C18_26 
REMARK   10  A    between atoms: C17_25  and  C19_28 
REMARK   11  A    between atoms: C18_26  and  S1_27 
REMARK   12  A    between atoms: C19_28  and  C20_29 
REMARK   13  A    between atoms: C20_29  and  O6_31 
ROOT
HETATM    1  C1  UNL     1     -11.008   6.892  13.957  1.00  0.00     0.015 C 
HETATM    2  C2  UNL     1      -9.901   7.062  14.398  1.00  0.00    -0.078 C 
HETATM    3  C3  UNL     1      -8.565   7.267  14.984  1.00  0.00     0.128 C 
HETATM    4  C4  UNL     1      -8.570   6.972  16.493  1.00  0.00     0.052 C 
HETATM    5  C5  UNL     1      -7.088   6.898  16.829  1.00  0.00     0.010 C 
HETATM    6  C6  UNL     1      -6.476   6.137  15.639  1.00  0.00     0.002 C 
HETATM    7  C7  UNL     1      -4.978   6.402  15.364  1.00  0.00    -0.004 C 
HETATM    8  C8  UNL     1      -4.503   7.865  15.464  1.00  0.00     0.010 C 
HETATM    9  C9  UNL     1      -3.504   8.329  14.398  1.00  0.00     0.035 C 
HETATM   10  C10 UNL     1      -2.560   7.301  13.823  1.00  0.00    -0.069 C 
HETATM   11  C11 UNL     1      -1.416   7.697  13.239  1.00  0.00     0.030 C 
HETATM   12  C12 UNL     1      -0.519   6.736  12.529  1.00  0.00     0.032 C 
HETATM   13  N1  UNL     1       0.698   6.991  12.145  1.00  0.00    -0.271 N 
ATOM     14  H1  UNL     1       1.278   6.349  11.605  1.00  0.00     0.194 HD
HETATM   15  C24 UNL     1      -1.051   5.345  12.224  1.00  0.00     0.060 C 
HETATM   16  C25 UNL     1      -2.546   5.189  12.501  1.00  0.00     0.020 C 
HETATM   17  C26 UNL     1      -2.991   5.842  13.837  1.00  0.00    -0.016 C 
HETATM   18  C27 UNL     1      -2.260   5.134  15.012  1.00  0.00     0.020 C 
HETATM   19  C28 UNL     1      -4.546   5.725  14.041  1.00  0.00     0.002 C 
HETATM   20  C29 UNL     1      -5.397   6.210  12.837  1.00  0.00     0.007 C 
HETATM   21  C30 UNL     1      -6.694   6.938  13.210  1.00  0.00     0.014 C 
HETATM   22  C31 UNL     1      -7.436   6.333  14.420  1.00  0.00     0.003 C 
HETATM   23  C32 UNL     1      -7.991   4.941  14.011  1.00  0.00     0.020 C 
ENDROOT
BRANCH   3  24
HETATM   24  O1  UNL     1      -8.209   8.645  14.809  1.00  0.00    -0.377 OA
HETATM   25  H2  UNL     1      -8.939   9.176  15.177  1.00  0.00     0.211 HD
ENDBRANCH   3  24
BRANCH  13  26
HETATM   26  O2  UNL     1       1.112   8.264  12.570  1.00  0.00    -0.271 OA
BRANCH  26  27
HETATM   27  C13 UNL     1       2.112   8.124  13.577  1.00  0.00     0.303 C 
BRANCH  27  28
HETATM   28  C14 UNL     1       3.439   8.288  12.858  1.00  0.00     0.244 C 
HETATM   29  O3  UNL     1       3.929   9.381  12.596  1.00  0.00    -0.271 OA
HETATM   30  N2  UNL     1       4.011   7.088  12.487  1.00  0.00    -0.346 N 
HETATM   31  H16 UNL     1       3.496   6.231  12.674  1.00  0.00     0.163 HD
BRANCH  30  32
HETATM   32  C15 UNL     1       5.188   6.993  11.613  1.00  0.00     0.180 C 
BRANCH  32  33
HETATM   33  C16 UNL     1       6.404   7.539  12.405  1.00  0.00     0.241 C 
HETATM   34  O4  UNL     1       7.548   7.579  11.960  1.00  0.00    -0.271 OA
HETATM   35  N3  UNL     1       6.087   7.891  13.710  1.00  0.00    -0.353 N 
HETATM   36  H18 UNL     1       5.096   7.840  13.925  1.00  0.00     0.163 HD
BRANCH  35  37
HETATM   37  C17 UNL     1       6.902   8.835  14.474  1.00  0.00     0.103 C 
BRANCH  37  38
HETATM   38  C18 UNL     1       7.136  10.110  13.636  1.00  0.00     0.096 C 
BRANCH  38  39
HETATM   39  S1  UNL     1       7.131  11.650  14.599  1.00  0.00    -0.180 SA
HETATM   40  H22 UNL     1       8.325  11.477  15.192  1.00  0.00     0.101 HD
ENDBRANCH  38  39
ENDBRANCH  37  38
BRANCH  37  41
HETATM   41  C19 UNL     1       8.181   8.138  14.968  1.00  0.00     0.136 C 
BRANCH  41  42
HETATM   42  C20 UNL     1       8.399   8.315  16.444  1.00  0.00     0.141 C 
HETATM   43  O5  UNL     1       8.012   9.257  17.117  1.00  0.00    -0.650 OA
BRANCH  42  44
HETATM   44  O6  UNL     1       9.104   7.305  16.996  1.00  0.00    -0.776 OA
HETATM   45  H25 UNL     1       9.257   7.593  17.932  1.00  0.00     0.167 HD
ENDBRANCH  42  44
ENDBRANCH  41  42
ENDBRANCH  37  41
ENDBRANCH  35  37
ENDBRANCH  32  33
BRANCH  32  46
HETATM   46  C21 UNL     1       4.981   7.718  10.268  1.00  0.00     0.009 C 
HETATM   47  C22 UNL     1       3.541   7.554   9.771  1.00  0.00     0.012 C 
HETATM   48  C23 UNL     1       5.346   9.208  10.324  1.00  0.00     0.012 C 
ENDBRANCH  32  46
ENDBRANCH  30  32
ENDBRANCH  27  28
ENDBRANCH  26  27
ENDBRANCH  13  26
TORSDOF 13
ENDMDL
MODEL 7
REMARK minimizedAffinity -8.15793419
REMARK CNNscore 0.204588771
REMARK CNNaffinity 6.13831282
REMARK  13 active torsions:
REMARK  status: ('A' for Active; 'I' for Inactive)
REMARK    1  A    between atoms: C3_3  and  O1_4 
REMARK    2  A    between atoms: N1_14  and  O2_16 
REMARK    3  A    between atoms: O2_16  and  C13_17 
REMARK    4  A    between atoms: C13_17  and  C14_18 
REMARK       I    between atoms: C14_18  and  N2_20 
REMARK    5  A    between atoms: N2_20  and  C15_21 
REMARK    6  A    between atoms: C15_21  and  C16_22 
REMARK    7  A    between atoms: C15_21  and  C21_32 
REMARK       I    between atoms: C16_22  and  N3_24 
REMARK    8  A    between atoms: N3_24  and  C17_25 
REMARK    9  A    between atoms: C17_25  and  C18_26 
REMARK   10  A    between atoms: C17_25  and  C19_28 
REMARK   11  A    between atoms: C18_26  and  S1_27 
REMARK   12  A    between atoms: C19_28  and  C20_29 
REMARK   13  A    between atoms: C20_29  and  O6_31 
ROOT
HETATM    1  C1  UNL     1      -5.886   4.546  13.107  1.00  0.00     0.015 C 
HETATM    2  C2  UNL     1      -4.893   5.172  13.375  1.00  0.00    -0.078 C 
HETATM    3  C3  UNL     1      -3.656   5.918  13.664  1.00  0.00     0.128 C 
HETATM    4  C4  UNL     1      -2.695   5.884  12.463  1.00  0.00     0.052 C 
HETATM    5  C5  UNL     1      -1.680   6.961  12.812  1.00  0.00     0.010 C 
HETATM    6  C6  UNL     1      -2.532   8.096  13.410  1.00  0.00     0.002 C 
HETATM    7  C7  UNL     1      -1.803   9.049  14.383  1.00  0.00    -0.004 C 
HETATM    8  C8  UNL     1      -0.846   8.400  15.404  1.00  0.00     0.010 C 
HETATM    9  C9  UNL     1      -0.873   8.977  16.823  1.00  0.00     0.035 C 
HETATM   10  C10 UNL     1      -1.216  10.439  16.982  1.00  0.00    -0.069 C 
HETATM   11  C11 UNL     1      -0.846  11.094  18.096  1.00  0.00     0.030 C 
HETATM   12  C12 UNL     1      -1.283  12.497  18.368  1.00  0.00     0.032 C 
HETATM   13  N1  UNL     1      -0.788  13.269  19.292  1.00  0.00    -0.271 N 
ATOM     14  H1  UNL     1      -1.139  14.203  19.509  1.00  0.00     0.194 HD
HETATM   15  C24 UNL     1      -2.387  13.087  17.506  1.00  0.00     0.060 C 
HETATM   16  C25 UNL     1      -3.067  12.062  16.599  1.00  0.00     0.020 C 
HETATM   17  C26 UNL     1      -2.065  11.099  15.906  1.00  0.00    -0.016 C 
HETATM   18  C27 UNL     1      -1.122  11.928  14.990  1.00  0.00     0.020 C 
HETATM   19  C28 UNL     1      -2.813  10.015  15.047  1.00  0.00     0.002 C 
HETATM   20  C29 UNL     1      -3.936   9.254  15.798  1.00  0.00     0.007 C 
HETATM   21  C30 UNL     1      -4.061   7.766  15.445  1.00  0.00     0.014 C 
HETATM   22  C31 UNL     1      -3.850   7.449  13.950  1.00  0.00     0.003 C 
HETATM   23  C32 UNL     1      -5.042   8.039  13.148  1.00  0.00     0.020 C 
ENDROOT
BRANCH   3  24
HETATM   24  O1  UNL     1      -2.999   5.281  14.767  1.00  0.00    -0.377 OA
HETATM   25  H2  UNL     1      -2.903   4.339  14.536  1.00  0.00     0.211 HD
ENDBRANCH   3  24
BRANCH  13  26
HETATM   26  O2  UNL     1       0.288  12.655  19.950  1.00  0.00    -0.271 OA
BRANCH  26  27
HETATM   27  C13 UNL     1       1.307  13.621  20.195  1.00  0.00     0.303 C 
BRANCH  27  28
HETATM   28  C14 UNL     1       2.201  13.010  21.259  1.00  0.00     0.244 C 
HETATM   29  O3  UNL     1       2.205  13.384  22.427  1.00  0.00    -0.271 OA
HETATM   30  N2  UNL     1       3.039  12.029  20.771  1.00  0.00    -0.346 N 
HETATM   31  H16 UNL     1       3.025  11.837  19.772  1.00  0.00     0.163 HD
BRANCH  30  32
HETATM   32  C15 UNL     1       4.126  11.433  21.558  1.00  0.00     0.180 C 
BRANCH  32  33
HETATM   33  C16 UNL     1       5.404  11.449  20.680  1.00  0.00     0.241 C 
HETATM   34  O4  UNL     1       5.481  10.917  19.575  1.00  0.00    -0.271 OA
HETATM   35  N3  UNL     1       6.487  12.044  21.311  1.00  0.00    -0.353 N 
HETATM   36  H18 UNL     1       6.265  12.472  22.204  1.00  0.00     0.163 HD
BRANCH  35  37
HETATM   37  C17 UNL     1       7.615  12.591  20.557  1.00  0.00     0.103 C 
BRANCH  37  38
HETATM   38  C18 UNL     1       7.737  11.854  19.206  1.00  0.00     0.096 C 
BRANCH  38  39
HETATM   39  S1  UNL     1       9.366  11.112  18.901  1.00  0.00    -0.180 SA
HETATM   40  H22 UNL     1       9.248  10.094  19.771  1.00  0.00     0.101 HD
ENDBRANCH  38  39
ENDBRANCH  37  38
BRANCH  37  41
HETATM   41  C19 UNL     1       8.883  12.568  21.426  1.00  0.00     0.136 C 
BRANCH  41  42
HETATM   42  C20 UNL     1       8.576  12.383  22.886  1.00  0.00     0.141 C 
HETATM   43  O5  UNL     1       8.262  13.266  23.669  1.00  0.00    -0.650 OA
BRANCH  42  44
HETATM   44  O6  UNL     1       8.691  11.100  23.288  1.00  0.00    -0.776 OA
HETATM   45  H25 UNL     1       8.562  11.137  24.271  1.00  0.00     0.167 HD
ENDBRANCH  42  44
ENDBRANCH  41  42
ENDBRANCH  37  41
ENDBRANCH  35  37
ENDBRANCH  32  33
BRANCH  32  46
HETATM   46  C21 UNL     1       3.774  10.020  22.069  1.00  0.00     0.009 C 
HETATM   47  C22 UNL     1       3.682   9.996  23.598  1.00  0.00     0.012 C 
HETATM   48  C23 UNL     1       2.480   9.464  21.459  1.00  0.00     0.012 C 
ENDBRANCH  32  46
ENDBRANCH  30  32
ENDBRANCH  27  28
ENDBRANCH  26  27
ENDBRANCH  13  26
TORSDOF 13
ENDMDL
MODEL 8
REMARK minimizedAffinity -7.45910835
REMARK CNNscore 0.202663302
REMARK CNNaffinity 5.54434586
REMARK  13 active torsions:
REMARK  status: ('A' for Active; 'I' for Inactive)
REMARK    1  A    between atoms: C3_3  and  O1_4 
REMARK    2  A    between atoms: N1_14  and  O2_16 
REMARK    3  A    between atoms: O2_16  and  C13_17 
REMARK    4  A    between atoms: C13_17  and  C14_18 
REMARK       I    between atoms: C14_18  and  N2_20 
REMARK    5  A    between atoms: N2_20  and  C15_21 
REMARK    6  A    between atoms: C15_21  and  C16_22 
REMARK    7  A    between atoms: C15_21  and  C21_32 
REMARK       I    between atoms: C16_22  and  N3_24 
REMARK    8  A    between atoms: N3_24  and  C17_25 
REMARK    9  A    between atoms: C17_25  and  C18_26 
REMARK   10  A    between atoms: C17_25  and  C19_28 
REMARK   11  A    between atoms: C18_26  and  S1_27 
REMARK   12  A    between atoms: C19_28  and  C20_29 
REMARK   13  A    between atoms: C20_29  and  O6_31 
ROOT
HETATM    1  C1  UNL     1       8.445  17.078  23.118  1.00  0.00     0.015 C 
HETATM    2  C2  UNL     1       8.098  15.974  22.789  1.00  0.00    -0.078 C 
HETATM    3  C3  UNL     1       7.708  14.603  22.415  1.00  0.00     0.128 C 
HETATM    4  C4  UNL     1       8.342  13.569  23.360  1.00  0.00     0.052 C 
HETATM    5  C5  UNL     1       7.566  12.300  23.043  1.00  0.00     0.010 C 
HETATM    6  C6  UNL     1       6.113  12.783  22.882  1.00  0.00     0.002 C 
HETATM    7  C7  UNL     1       5.200  11.902  22.000  1.00  0.00    -0.004 C 
HETATM    8  C8  UNL     1       5.813  11.358  20.693  1.00  0.00     0.010 C 
HETATM    9  C9  UNL     1       4.902  11.366  19.461  1.00  0.00     0.035 C 
HETATM   10  C10 UNL     1       3.416  11.208  19.684  1.00  0.00    -0.069 C 
HETATM   11  C11 UNL     1       2.632  10.780  18.679  1.00  0.00     0.030 C 
HETATM   12  C12 UNL     1       1.144  10.745  18.800  1.00  0.00     0.032 C 
HETATM   13  N1  UNL     1       0.339  10.137  17.977  1.00  0.00    -0.271 N 
ATOM     14  H1  UNL     1      -0.678  10.174  18.035  1.00  0.00     0.194 HD
HETATM   15  C24 UNL     1       0.499  11.466  19.973  1.00  0.00     0.060 C 
HETATM   16  C25 UNL     1       1.475  12.334  20.767  1.00  0.00     0.020 C 
HETATM   17  C26 UNL     1       2.840  11.640  21.024  1.00  0.00    -0.016 C 
HETATM   18  C27 UNL     1       2.604  10.365  21.880  1.00  0.00     0.020 C 
HETATM   19  C28 UNL     1       3.837  12.598  21.773  1.00  0.00     0.002 C 
HETATM   20  C29 UNL     1       4.002  13.998  21.125  1.00  0.00     0.007 C 
HETATM   21  C30 UNL     1       5.422  14.576  21.179  1.00  0.00     0.014 C 
HETATM   22  C31 UNL     1       6.169  14.300  22.500  1.00  0.00     0.003 C 
HETATM   23  C32 UNL     1       5.484  15.110  23.633  1.00  0.00     0.020 C 
ENDROOT
BRANCH   3  24
HETATM   24  O1  UNL     1       8.197  14.346  21.093  1.00  0.00    -0.377 OA
HETATM   25  H2  UNL     1       9.151  14.548  21.098  1.00  0.00     0.211 HD
ENDBRANCH   3  24
BRANCH  13  26
HETATM   26  O2  UNL     1       1.051   9.425  16.998  1.00  0.00    -0.271 OA
BRANCH  26  27
HETATM   27  C13 UNL     1       0.860  10.046  15.729  1.00  0.00     0.303 C 
BRANCH  27  28
HETATM   28  C14 UNL     1      -0.014   9.092  14.937  1.00  0.00     0.244 C 
HETATM   29  O3  UNL     1      -0.479   9.366  13.835  1.00  0.00    -0.271 OA
HETATM   30  N2  UNL     1      -0.274   7.910  15.599  1.00  0.00    -0.346 N 
HETATM   31  H16 UNL     1       0.087   7.798  16.544  1.00  0.00     0.163 HD
BRANCH  30  32
HETATM   32  C15 UNL     1      -1.248   6.918  15.127  1.00  0.00     0.180 C 
BRANCH  32  33
HETATM   33  C16 UNL     1      -0.831   6.498  13.694  1.00  0.00     0.241 C 
HETATM   34  O4  UNL     1      -1.465   6.791  12.682  1.00  0.00    -0.271 OA
HETATM   35  N3  UNL     1       0.284   5.672  13.674  1.00  0.00    -0.353 N 
HETATM   36  H18 UNL     1       0.725   5.547  14.580  1.00  0.00     0.163 HD
BRANCH  35  37
HETATM   37  C17 UNL     1       1.125   5.537  12.485  1.00  0.00     0.103 C 
BRANCH  37  38
HETATM   38  C18 UNL     1       1.842   6.876  12.206  1.00  0.00     0.096 C 
BRANCH  38  39
HETATM   39  S1  UNL     1       1.241   7.755  10.735  1.00  0.00    -0.180 SA
HETATM   40  H22 UNL     1       0.069   8.162  11.253  1.00  0.00     0.101 HD
ENDBRANCH  38  39
ENDBRANCH  37  38
BRANCH  37  41
HETATM   41  C19 UNL     1       0.289   4.992  11.315  1.00  0.00     0.136 C 
BRANCH  41  42
HETATM   42  C20 UNL     1      -0.251   3.615  11.587  1.00  0.00     0.141 C 
HETATM   43  O5  UNL     1      -1.281   3.356  12.188  1.00  0.00    -0.650 OA
BRANCH  42  44
HETATM   44  O6  UNL     1       0.539   2.636  11.098  1.00  0.00    -0.776 OA
HETATM   45  H25 UNL     1       0.125   1.798  11.428  1.00  0.00     0.167 HD
ENDBRANCH  42  44
ENDBRANCH  41  42
ENDBRANCH  37  41
ENDBRANCH  35  37
ENDBRANCH  32  33
BRANCH  32  46
HETATM   46  C21 UNL     1      -2.698   7.441  15.194  1.00  0.00     0.009 C 
HETATM   47  C22 UNL     1      -3.686   6.293  15.425  1.00  0.00     0.012 C 
HETATM   48  C23 UNL     1      -2.899   8.525  16.261  1.00  0.00     0.012 C 
ENDBRANCH  32  46
ENDBRANCH  30  32
ENDBRANCH  27  28
ENDBRANCH  26  27
ENDBRANCH  13  26
TORSDOF 13
ENDMDL
MODEL 9
REMARK minimizedAffinity -7.92700768
REMARK CNNscore 0.193692029
REMARK CNNaffinity 6.22204399
REMARK  13 active torsions:
REMARK  status: ('A' for Active; 'I' for Inactive)
REMARK    1  A    between atoms: C3_3  and  O1_4 
REMARK    2  A    between atoms: N1_14  and  O2_16 
REMARK    3  A    between atoms: O2_16  and  C13_17 
REMARK    4  A    between atoms: C13_17  and  C14_18 
REMARK       I    between atoms: C14_18  and  N2_20 
REMARK    5  A    between atoms: N2_20  and  C15_21 
REMARK    6  A    between atoms: C15_21  and  C16_22 
REMARK    7  A    between atoms: C15_21  and  C21_32 
REMARK       I    between atoms: C16_22  and  N3_24 
REMARK    8  A    between atoms: N3_24  and  C17_25 
REMARK    9  A    between atoms: C17_25  and  C18_26 
REMARK   10  A    between atoms: C17_25  and  C19_28 
REMARK   11  A    between atoms: C18_26  and  S1_27 
REMARK   12  A    between atoms: C19_28  and  C20_29 
REMARK   13  A    between atoms: C20_29  and  O6_31 
ROOT
HETATM    1  C1  UNL     1       6.188  13.317  23.110  1.00  0.00     0.015 C 
HETATM    2  C2  UNL     1       5.489  12.587  22.456  1.00  0.00    -0.078 C 
HETATM    3  C3  UNL     1       4.645  11.656  21.687  1.00  0.00     0.128 C 
HETATM    4  C4  UNL     1       4.369  10.370  22.484  1.00  0.00     0.052 C 
HETATM    5  C5  UNL     1       3.237   9.722  21.700  1.00  0.00     0.010 C 
HETATM    6  C6  UNL     1       2.328  10.903  21.315  1.00  0.00     0.002 C 
HETATM    7  C7  UNL     1       1.452  10.702  20.058  1.00  0.00    -0.004 C 
HETATM    8  C8  UNL     1       2.123  10.027  18.845  1.00  0.00     0.010 C 
HETATM    9  C9  UNL     1       1.782  10.607  17.469  1.00  0.00     0.035 C 
HETATM   10  C10 UNL     1       0.419  11.230  17.286  1.00  0.00    -0.069 C 
HETATM   11  C11 UNL     1      -0.098  11.356  16.052  1.00  0.00     0.030 C 
HETATM   12  C12 UNL     1      -1.374  12.092  15.802  1.00  0.00     0.032 C 
HETATM   13  N1  UNL     1      -2.051  12.062  14.690  1.00  0.00    -0.271 N 
ATOM     14  H1  UNL     1      -2.886  12.619  14.510  1.00  0.00     0.194 HD
HETATM   15  C24 UNL     1      -1.944  12.946  16.923  1.00  0.00     0.060 C 
HETATM   16  C25 UNL     1      -0.994  13.110  18.109  1.00  0.00     0.020 C 
HETATM   17  C26 UNL     1      -0.287  11.789  18.513  1.00  0.00    -0.016 C 
HETATM   18  C27 UNL     1      -1.361  10.759  18.962  1.00  0.00     0.020 C 
HETATM   19  C28 UNL     1       0.738  12.022  19.683  1.00  0.00     0.002 C 
HETATM   20  C29 UNL     1       1.744  13.178  19.443  1.00  0.00     0.007 C 
HETATM   21  C30 UNL     1       3.162  12.924  19.970  1.00  0.00     0.014 C 
HETATM   22  C31 UNL     1       3.214  12.193  21.327  1.00  0.00     0.003 C 
HETATM   23  C32 UNL     1       2.665  13.147  22.422  1.00  0.00     0.020 C 
ENDROOT
BRANCH   3  24
HETATM   24  O1  UNL     1       5.356  11.289  20.497  1.00  0.00    -0.377 OA
HETATM   25  H2  UNL     1       6.230  10.962  20.778  1.00  0.00     0.211 HD
ENDBRANCH   3  24
BRANCH  13  26
HETATM   26  O2  UNL     1      -1.484  11.166  13.771  1.00  0.00    -0.271 OA
BRANCH  26  27
HETATM   27  C13 UNL     1      -2.264   9.973  13.732  1.00  0.00     0.303 C 
BRANCH  27  28
HETATM   28  C14 UNL     1      -1.263   8.832  13.703  1.00  0.00     0.244 C 
HETATM   29  O3  UNL     1      -1.543   7.685  14.033  1.00  0.00    -0.271 OA
HETATM   30  N2  UNL     1       0.002   9.225  13.315  1.00  0.00    -0.346 N 
HETATM   31  H16 UNL     1       0.165  10.213  13.135  1.00  0.00     0.163 HD
BRANCH  30  32
HETATM   32  C15 UNL     1       1.179   8.350  13.398  1.00  0.00     0.180 C 
BRANCH  32  33
HETATM   33  C16 UNL     1       1.522   7.891  11.958  1.00  0.00     0.241 C 
HETATM   34  O4  UNL     1       1.127   8.463  10.944  1.00  0.00    -0.271 OA
HETATM   35  N3  UNL     1       2.245   6.707  11.925  1.00  0.00    -0.353 N 
HETATM   36  H18 UNL     1       2.533   6.369  12.838  1.00  0.00     0.163 HD
BRANCH  35  37
HETATM   37  C17 UNL     1       3.067   6.336  10.773  1.00  0.00     0.103 C 
BRANCH  37  38
HETATM   38  C18 UNL     1       4.559   6.521  11.124  1.00  0.00     0.096 C 
BRANCH  38  39
HETATM   39  S1  UNL     1       4.888   7.845  12.322  1.00  0.00    -0.180 SA
HETATM   40  H22 UNL     1       4.418   7.205  13.407  1.00  0.00     0.101 HD
ENDBRANCH  38  39
ENDBRANCH  37  38
BRANCH  37  41
HETATM   41  C19 UNL     1       2.593   7.101   9.526  1.00  0.00     0.136 C 
BRANCH  41  42
HETATM   42  C20 UNL     1       2.669   6.269   8.277  1.00  0.00     0.141 C 
HETATM   43  O5  UNL     1       3.170   5.160   8.185  1.00  0.00    -0.650 OA
BRANCH  42  44
HETATM   44  O6  UNL     1       2.121   6.880   7.205  1.00  0.00    -0.776 OA
HETATM   45  H25 UNL     1       2.326   6.275   6.446  1.00  0.00     0.167 HD
ENDBRANCH  42  44
ENDBRANCH  41  42
ENDBRANCH  37  41
ENDBRANCH  35  37
ENDBRANCH  32  33
BRANCH  32  46
HETATM   46  C21 UNL     1       0.963   7.166  14.363  1.00  0.00     0.009 C 
HETATM   47  C22 UNL     1       0.631   7.661  15.775  1.00  0.00     0.012 C 
HETATM   48  C23 UNL     1      -0.119   6.188  13.886  1.00  0.00     0.012 C 
ENDBRANCH  32  46
ENDBRANCH  30  32
ENDBRANCH  27  28
ENDBRANCH  26  27
ENDBRANCH  13  26
TORSDOF 13
ENDMDL
