MODEL 1
REMARK minimizedAffinity -10.2033167
REMARK  9 active torsions:
REMARK  status: ('A' for Active; 'I' for Inactive)
REMARK    1  A    between atoms: C2_2  and  C17_19 
REMARK    2  A    between atoms: C3_3  and  C4_4 
REMARK    3  A    between atoms: C4_4  and  C5_5 
REMARK    4  A    between atoms: C5_5  and  C6_6 
REMARK    5  A    between atoms: C12_12  and  O1_13 
REMARK    6  A    between atoms: C17_19  and  C18_20 
REMARK    7  A    between atoms: C18_20  and  C19_21 
REMARK    8  A    between atoms: C23_25  and  C24_26 
REMARK    9  A    between atoms: C24_26  and  O3_29 
ROOT
HETATM    1  C1  UNL     1      -5.963   1.266  11.378  1.00  0.00     0.043 C 
HETATM    2  C2  UNL     1      -5.547   2.700  11.573  1.00  0.00    -0.087 C 
HETATM    3  C3  UNL     1      -6.154   3.561  12.417  1.00  0.00    -0.024 C 
ENDROOT
BRANCH   2   4
HETATM    4  C17 UNL     1      -4.402   3.178  10.694  1.00  0.00     0.037 C 
BRANCH   4   5
HETATM    5  C18 UNL     1      -3.021   3.136  11.366  1.00  0.00     0.032 C 
BRANCH   5   6
HETATM    6  C19 UNL     1      -2.331   4.473  11.460  1.00  0.00    -0.013 C 
HETATM    7  C20 UNL     1      -1.008   4.742  11.490  1.00  0.00     0.013 C 
HETATM    8  C21 UNL     1      -0.525   6.159  11.526  1.00  0.00     0.047 C 
HETATM    9  C27 UNL     1       0.021   3.669  11.479  1.00  0.00     0.289 C 
HETATM   10  C22 UNL     1       0.636   6.335  10.568  1.00  0.00     0.040 C 
HETATM   11  C23 UNL     1       1.749   5.384  10.987  1.00  0.00     0.166 C 
HETATM   12  O4  UNL     1       1.257   4.019  11.050  1.00  0.00    -0.309 OA
HETATM   13  O5  UNL     1      -0.215   2.512  11.804  1.00  0.00    -0.260 OA
BRANCH  11  14
HETATM   14  C24 UNL     1       2.973   5.391  10.028  1.00  0.00     0.077 C 
HETATM   15  C25 UNL     1       4.159   6.142  10.651  1.00  0.00     0.048 C 
HETATM   16  C26 UNL     1       2.641   6.007   8.666  1.00  0.00     0.048 C 
BRANCH  14  17
HETATM   17  O3  UNL     1       3.396   4.041   9.794  1.00  0.00    -0.388 OA
HETATM   18  H36 UNL     1       3.605   3.659  10.667  1.00  0.00     0.210 HD
ENDBRANCH  14  17
ENDBRANCH  11  14
ENDBRANCH   5   6
ENDBRANCH   4   5
ENDBRANCH   2   4
BRANCH   3  19
HETATM   19  C4  UNL     1      -7.297   3.285  13.359  1.00  0.00     0.030 C 
BRANCH  19  20
HETATM   20  C5  UNL     1      -7.509   4.466  14.317  1.00  0.00     0.046 C 
BRANCH  20  21
HETATM   21  C6  UNL     1      -7.587   5.848  13.622  1.00  0.00     0.082 C 
HETATM   22  C7  UNL     1      -6.188   6.419  13.348  1.00  0.00     0.051 C 
HETATM   23  C8  UNL     1      -8.292   5.680  12.290  1.00  0.00     0.012 C 
HETATM   24  C9  UNL     1      -9.515   6.159  12.046  1.00  0.00     0.013 C 
HETATM   25  C10 UNL     1     -10.197   6.865  13.120  1.00  0.00     0.000 A 
HETATM   26  C11 UNL     1     -11.521   7.287  12.959  1.00  0.00     0.050 A 
HETATM   27  C16 UNL     1      -9.518   7.139  14.315  1.00  0.00     0.086 A 
HETATM   28  C12 UNL     1     -12.152   7.976  13.992  1.00  0.00     0.067 A 
HETATM   29  C13 UNL     1     -11.482   8.255  15.178  1.00  0.00     0.046 A 
HETATM   30  C14 UNL     1     -10.154   7.844  15.351  1.00  0.00    -0.025 A 
HETATM   31  C15 UNL     1      -9.433   8.147  16.633  1.00  0.00     0.051 C 
HETATM   32  O2  UNL     1      -8.216   6.776  14.528  1.00  0.00    -0.335 OA
BRANCH  28  33
HETATM   33  O1  UNL     1     -13.442   8.404  13.876  1.00  0.00    -0.361 OA
HETATM   34  H15 UNL     1     -13.783   8.141  13.005  1.00  0.00     0.217 HD
ENDBRANCH  28  33
ENDBRANCH  20  21
ENDBRANCH  19  20
ENDBRANCH   3  19
TORSDOF 9
ENDMDL
MODEL 2
REMARK minimizedAffinity -9.58964634
REMARK  9 active torsions:
REMARK  status: ('A' for Active; 'I' for Inactive)
REMARK    1  A    between atoms: C2_2  and  C17_19 
REMARK    2  A    between atoms: C3_3  and  C4_4 
REMARK    3  A    between atoms: C4_4  and  C5_5 
REMARK    4  A    between atoms: C5_5  and  C6_6 
REMARK    5  A    between atoms: C12_12  and  O1_13 
REMARK    6  A    between atoms: C17_19  and  C18_20 
REMARK    7  A    between atoms: C18_20  and  C19_21 
REMARK    8  A    between atoms: C23_25  and  C24_26 
REMARK    9  A    between atoms: C24_26  and  O3_29 
ROOT
HETATM    1  C1  UNL     1      -5.590   3.057  10.664  1.00  0.00     0.043 C 
HETATM    2  C2  UNL     1      -5.155   3.330  12.080  1.00  0.00    -0.087 C 
HETATM    3  C3  UNL     1      -5.956   3.844  13.037  1.00  0.00    -0.024 C 
ENDROOT
BRANCH   2   4
HETATM    4  C17 UNL     1      -3.691   3.048  12.385  1.00  0.00     0.037 C 
BRANCH   4   5
HETATM    5  C18 UNL     1      -2.721   3.419  11.253  1.00  0.00     0.032 C 
BRANCH   5   6
HETATM    6  C19 UNL     1      -1.969   4.707  11.473  1.00  0.00    -0.013 C 
HETATM    7  C20 UNL     1      -0.635   4.915  11.495  1.00  0.00     0.013 C 
HETATM    8  C21 UNL     1      -0.088   6.297  11.671  1.00  0.00     0.047 C 
HETATM    9  C27 UNL     1       0.343   3.806  11.337  1.00  0.00     0.289 C 
HETATM   10  C22 UNL     1       1.057   6.528  10.705  1.00  0.00     0.040 C 
HETATM   11  C23 UNL     1       2.136   5.490  10.985  1.00  0.00     0.166 C 
HETATM   12  O4  UNL     1       1.583   4.149  10.913  1.00  0.00    -0.309 OA
HETATM   13  O5  UNL     1       0.063   2.632  11.540  1.00  0.00    -0.260 OA
BRANCH  11  14
HETATM   14  C24 UNL     1       3.336   5.551   9.999  1.00  0.00     0.077 C 
HETATM   15  C25 UNL     1       4.515   6.322  10.608  1.00  0.00     0.048 C 
HETATM   16  C26 UNL     1       2.954   6.185   8.658  1.00  0.00     0.048 C 
BRANCH  14  17
HETATM   17  O3  UNL     1       3.790   4.218   9.726  1.00  0.00    -0.388 OA
HETATM   18  H36 UNL     1       4.030   3.825  10.586  1.00  0.00     0.210 HD
ENDBRANCH  14  17
ENDBRANCH  11  14
ENDBRANCH   5   6
ENDBRANCH   4   5
ENDBRANCH   2   4
BRANCH   3  19
HETATM   19  C4  UNL     1      -7.418   4.192  12.934  1.00  0.00     0.030 C 
BRANCH  19  20
HETATM   20  C5  UNL     1      -7.635   5.697  13.150  1.00  0.00     0.046 C 
BRANCH  20  21
HETATM   21  C6  UNL     1      -7.916   6.099  14.619  1.00  0.00     0.082 C 
HETATM   22  C7  UNL     1      -7.653   4.931  15.581  1.00  0.00     0.051 C 
HETATM   23  C8  UNL     1      -6.985   7.234  14.996  1.00  0.00     0.012 C 
HETATM   24  C9  UNL     1      -7.406   8.485  15.205  1.00  0.00     0.013 C 
HETATM   25  C10 UNL     1      -8.826   8.760  15.049  1.00  0.00     0.000 A 
HETATM   26  C11 UNL     1      -9.306  10.072  15.143  1.00  0.00     0.050 A 
HETATM   27  C16 UNL     1      -9.720   7.706  14.823  1.00  0.00     0.086 A 
HETATM   28  C12 UNL     1     -10.670  10.314  15.008  1.00  0.00     0.067 A 
HETATM   29  C13 UNL     1     -11.563   9.271  14.787  1.00  0.00     0.046 A 
HETATM   30  C14 UNL     1     -11.098   7.953  14.698  1.00  0.00    -0.025 A 
HETATM   31  C15 UNL     1     -12.064   6.828  14.461  1.00  0.00     0.051 C 
HETATM   32  O2  UNL     1      -9.320   6.399  14.745  1.00  0.00    -0.335 OA
BRANCH  28  33
HETATM   33  O1  UNL     1     -11.179  11.577  15.090  1.00  0.00    -0.361 OA
HETATM   34  H15 UNL     1     -10.449  12.200  15.243  1.00  0.00     0.217 HD
ENDBRANCH  28  33
ENDBRANCH  20  21
ENDBRANCH  19  20
ENDBRANCH   3  19
TORSDOF 9
ENDMDL
MODEL 3
REMARK minimizedAffinity -9.56182575
REMARK  9 active torsions:
REMARK  status: ('A' for Active; 'I' for Inactive)
REMARK    1  A    between atoms: C2_2  and  C17_19 
REMARK    2  A    between atoms: C3_3  and  C4_4 
REMARK    3  A    between atoms: C4_4  and  C5_5 
REMARK    4  A    between atoms: C5_5  and  C6_6 
REMARK    5  A    between atoms: C12_12  and  O1_13 
REMARK    6  A    between atoms: C17_19  and  C18_20 
REMARK    7  A    between atoms: C18_20  and  C19_21 
REMARK    8  A    between atoms: C23_25  and  C24_26 
REMARK    9  A    between atoms: C24_26  and  O3_29 
ROOT
HETATM    1  C1  UNL     1      -6.119   1.716  11.393  1.00  0.00     0.043 C 
HETATM    2  C2  UNL     1      -5.484   3.045  11.706  1.00  0.00    -0.087 C 
HETATM    3  C3  UNL     1      -6.035   3.984  12.504  1.00  0.00    -0.024 C 
ENDROOT
BRANCH   2   4
HETATM    4  C17 UNL     1      -4.162   3.323  11.006  1.00  0.00     0.037 C 
BRANCH   4   5
HETATM    5  C18 UNL     1      -2.937   3.331  11.934  1.00  0.00     0.032 C 
BRANCH   5   6
HETATM    6  C19 UNL     1      -2.220   4.655  12.008  1.00  0.00    -0.013 C 
HETATM    7  C20 UNL     1      -0.902   4.912  11.863  1.00  0.00     0.013 C 
HETATM    8  C21 UNL     1      -0.396   6.320  11.914  1.00  0.00     0.047 C 
HETATM    9  C27 UNL     1       0.097   3.834  11.638  1.00  0.00     0.289 C 
HETATM   10  C22 UNL     1       0.618   6.547  10.810  1.00  0.00     0.040 C 
HETATM   11  C23 UNL     1       1.764   5.563  11.006  1.00  0.00     0.166 C 
HETATM   12  O4  UNL     1       1.264   4.201  11.056  1.00  0.00    -0.309 OA
HETATM   13  O5  UNL     1      -0.109   2.661  11.923  1.00  0.00    -0.260 OA
BRANCH  11  14
HETATM   14  C24 UNL     1       2.838   5.620   9.882  1.00  0.00     0.077 C 
HETATM   15  C25 UNL     1       4.151   6.222  10.402  1.00  0.00     0.048 C 
HETATM   16  C26 UNL     1       2.362   6.417   8.664  1.00  0.00     0.048 C 
BRANCH  14  17
HETATM   17  O3  UNL     1       3.124   4.289   9.435  1.00  0.00    -0.388 OA
HETATM   18  H36 UNL     1       3.425   3.791  10.218  1.00  0.00     0.210 HD
ENDBRANCH  14  17
ENDBRANCH  11  14
ENDBRANCH   5   6
ENDBRANCH   4   5
ENDBRANCH   2   4
BRANCH   3  19
HETATM   19  C4  UNL     1      -7.325   3.903  13.276  1.00  0.00     0.030 C 
BRANCH  19  20
HETATM   20  C5  UNL     1      -8.124   5.208  13.140  1.00  0.00     0.046 C 
BRANCH  20  21
HETATM   21  C6  UNL     1      -7.852   6.244  14.258  1.00  0.00     0.082 C 
HETATM   22  C7  UNL     1      -9.054   7.178  14.463  1.00  0.00     0.051 C 
HETATM   23  C8  UNL     1      -7.610   5.502  15.557  1.00  0.00     0.012 C 
HETATM   24  C9  UNL     1      -6.415   5.442  16.152  1.00  0.00     0.013 C 
HETATM   25  C10 UNL     1      -5.298   6.116  15.507  1.00  0.00     0.000 A 
HETATM   26  C11 UNL     1      -4.004   5.990  16.023  1.00  0.00     0.050 A 
HETATM   27  C16 UNL     1      -5.524   6.909  14.375  1.00  0.00     0.086 A 
HETATM   28  C12 UNL     1      -2.951   6.656  15.402  1.00  0.00     0.067 A 
HETATM   29  C13 UNL     1      -3.168   7.449  14.280  1.00  0.00     0.046 A 
HETATM   30  C14 UNL     1      -4.460   7.589  13.756  1.00  0.00    -0.025 A 
HETATM   31  C15 UNL     1      -4.693   8.446  12.546  1.00  0.00     0.051 C 
HETATM   32  O2  UNL     1      -6.767   7.094  13.833  1.00  0.00    -0.335 OA
BRANCH  28  33
HETATM   33  O1  UNL     1      -1.673   6.559  15.871  1.00  0.00    -0.361 OA
HETATM   34  H15 UNL     1      -1.668   5.978  16.650  1.00  0.00     0.217 HD
ENDBRANCH  28  33
ENDBRANCH  20  21
ENDBRANCH  19  20
ENDBRANCH   3  19
TORSDOF 9
ENDMDL
MODEL 4
REMARK minimizedAffinity -9.4457159
REMARK  9 active torsions:
REMARK  status: ('A' for Active; 'I' for Inactive)
REMARK    1  A    between atoms: C2_2  and  C17_19 
REMARK    2  A    between atoms: C3_3  and  C4_4 
REMARK    3  A    between atoms: C4_4  and  C5_5 
REMARK    4  A    between atoms: C5_5  and  C6_6 
REMARK    5  A    between atoms: C12_12  and  O1_13 
REMARK    6  A    between atoms: C17_19  and  C18_20 
REMARK    7  A    between atoms: C18_20  and  C19_21 
REMARK    8  A    between atoms: C23_25  and  C24_26 
REMARK    9  A    between atoms: C24_26  and  O3_29 
ROOT
HETATM    1  C1  UNL     1      -1.195   9.256  14.296  1.00  0.00     0.043 C 
HETATM    2  C2  UNL     1      -1.344   8.345  15.485  1.00  0.00    -0.087 C 
HETATM    3  C3  UNL     1      -2.519   8.068  16.089  1.00  0.00    -0.024 C 
ENDROOT
BRANCH   2   4
HETATM    4  C17 UNL     1      -0.050   7.772  16.042  1.00  0.00     0.037 C 
BRANCH   4   5
HETATM    5  C18 UNL     1       1.079   7.625  15.010  1.00  0.00     0.032 C 
BRANCH   5   6
HETATM    6  C19 UNL     1       0.837   6.563  13.968  1.00  0.00    -0.013 C 
HETATM    7  C20 UNL     1       0.966   6.650  12.627  1.00  0.00     0.013 C 
HETATM    8  C21 UNL     1       0.732   5.448  11.765  1.00  0.00     0.047 C 
HETATM    9  C27 UNL     1       1.349   7.915  11.946  1.00  0.00     0.289 C 
HETATM   10  C22 UNL     1       1.810   5.354  10.704  1.00  0.00     0.040 C 
HETATM   11  C23 UNL     1       1.767   6.624   9.865  1.00  0.00     0.166 C 
HETATM   12  O4  UNL     1       1.893   7.798  10.711  1.00  0.00    -0.309 OA
HETATM   13  O5  UNL     1       1.222   9.018  12.463  1.00  0.00    -0.260 OA
BRANCH  11  14
HETATM   14  C24 UNL     1       2.888   6.705   8.791  1.00  0.00     0.077 C 
HETATM   15  C25 UNL     1       3.440   8.133   8.673  1.00  0.00     0.048 C 
HETATM   16  C26 UNL     1       2.409   6.231   7.416  1.00  0.00     0.048 C 
BRANCH  14  17
HETATM   17  O3  UNL     1       3.975   5.855   9.180  1.00  0.00    -0.388 OA
HETATM   18  H36 UNL     1       4.272   6.166  10.056  1.00  0.00     0.210 HD
ENDBRANCH  14  17
ENDBRANCH  11  14
ENDBRANCH   5   6
ENDBRANCH   4   5
ENDBRANCH   2   4
BRANCH   3  19
HETATM   19  C4  UNL     1      -3.896   8.535  15.698  1.00  0.00     0.030 C 
BRANCH  19  20
HETATM   20  C5  UNL     1      -4.789   7.343  15.322  1.00  0.00     0.046 C 
BRANCH  20  21
HETATM   21  C6  UNL     1      -4.910   7.090  13.800  1.00  0.00     0.082 C 
HETATM   22  C7  UNL     1      -4.598   8.358  12.991  1.00  0.00     0.051 C 
HETATM   23  C8  UNL     1      -3.906   6.026  13.405  1.00  0.00     0.012 C 
HETATM   24  C9  UNL     1      -4.257   4.793  13.029  1.00  0.00     0.013 C 
HETATM   25  C10 UNL     1      -5.675   4.464  13.012  1.00  0.00     0.000 A 
HETATM   26  C11 UNL     1      -6.093   3.157  12.738  1.00  0.00     0.050 A 
HETATM   27  C16 UNL     1      -6.624   5.465  13.252  1.00  0.00     0.086 A 
HETATM   28  C12 UNL     1      -7.454   2.865  12.710  1.00  0.00     0.067 A 
HETATM   29  C13 UNL     1      -8.403   3.855  12.944  1.00  0.00     0.046 A 
HETATM   30  C14 UNL     1      -7.998   5.169  13.212  1.00  0.00    -0.025 A 
HETATM   31  C15 UNL     1      -9.024   6.237  13.463  1.00  0.00     0.051 C 
HETATM   32  O2  UNL     1      -6.283   6.767  13.502  1.00  0.00    -0.335 OA
BRANCH  28  33
HETATM   33  O1  UNL     1      -7.906   1.604  12.449  1.00  0.00    -0.361 OA
HETATM   34  H15 UNL     1      -7.142   1.021  12.309  1.00  0.00     0.217 HD
ENDBRANCH  28  33
ENDBRANCH  20  21
ENDBRANCH  19  20
ENDBRANCH   3  19
TORSDOF 9
ENDMDL
MODEL 5
REMARK minimizedAffinity -9.34819698
REMARK  9 active torsions:
REMARK  status: ('A' for Active; 'I' for Inactive)
REMARK    1  A    between atoms: C2_2  and  C17_19 
REMARK    2  A    between atoms: C3_3  and  C4_4 
REMARK    3  A    between atoms: C4_4  and  C5_5 
REMARK    4  A    between atoms: C5_5  and  C6_6 
REMARK    5  A    between atoms: C12_12  and  O1_13 
REMARK    6  A    between atoms: C17_19  and  C18_20 
REMARK    7  A    between atoms: C18_20  and  C19_21 
REMARK    8  A    between atoms: C23_25  and  C24_26 
REMARK    9  A    between atoms: C24_26  and  O3_29 
ROOT
HETATM    1  C1  UNL     1      -3.726   2.554  11.783  1.00  0.00     0.043 C 
HETATM    2  C2  UNL     1      -4.598   3.683  12.264  1.00  0.00    -0.087 C 
HETATM    3  C3  UNL     1      -4.169   4.697  13.045  1.00  0.00    -0.024 C 
ENDROOT
BRANCH   2   4
HETATM    4  C17 UNL     1      -6.064   3.599  11.866  1.00  0.00     0.037 C 
BRANCH   4   5
HETATM    5  C18 UNL     1      -7.022   3.277  13.023  1.00  0.00     0.032 C 
BRANCH   5   6
HETATM    6  C19 UNL     1      -7.124   4.359  14.068  1.00  0.00    -0.013 C 
HETATM    7  C20 UNL     1      -7.904   5.461  14.070  1.00  0.00     0.013 C 
HETATM    8  C21 UNL     1      -7.898   6.389  15.245  1.00  0.00     0.047 C 
HETATM    9  C27 UNL     1      -8.800   5.801  12.934  1.00  0.00     0.289 C 
HETATM   10  C22 UNL     1      -9.317   6.794  15.592  1.00  0.00     0.040 C 
HETATM   11  C23 UNL     1      -9.928   7.480  14.377  1.00  0.00     0.166 C 
HETATM   12  O4  UNL     1      -9.844   6.619  13.210  1.00  0.00    -0.309 OA
HETATM   13  O5  UNL     1      -8.648   5.355  11.804  1.00  0.00    -0.260 OA
BRANCH  11  14
HETATM   14  C24 UNL     1     -11.423   7.866  14.561  1.00  0.00     0.077 C 
HETATM   15  C25 UNL     1     -12.341   6.660  14.317  1.00  0.00     0.048 C 
HETATM   16  C26 UNL     1     -11.843   9.017  13.642  1.00  0.00     0.048 C 
BRANCH  14  17
HETATM   17  O3  UNL     1     -11.634   8.301  15.911  1.00  0.00    -0.388 OA
HETATM   18  H36 UNL     1     -11.364   7.561  16.487  1.00  0.00     0.210 HD
ENDBRANCH  14  17
ENDBRANCH  11  14
ENDBRANCH   5   6
ENDBRANCH   4   5
ENDBRANCH   2   4
BRANCH   3  19
HETATM   19  C4  UNL     1      -2.772   4.955  13.545  1.00  0.00     0.030 C 
BRANCH  19  20
HETATM   20  C5  UNL     1      -1.898   5.557  12.434  1.00  0.00     0.046 C 
BRANCH  20  21
HETATM   21  C6  UNL     1      -1.068   6.789  12.871  1.00  0.00     0.082 C 
HETATM   22  C7  UNL     1      -1.926   7.802  13.643  1.00  0.00     0.051 C 
HETATM   23  C8  UNL     1       0.043   6.322  13.790  1.00  0.00     0.012 C 
HETATM   24  C9  UNL     1       1.332   6.329  13.440  1.00  0.00     0.013 C 
HETATM   25  C10 UNL     1       1.673   6.801  12.106  1.00  0.00     0.000 A 
HETATM   26  C11 UNL     1       2.992   6.723  11.645  1.00  0.00     0.050 A 
HETATM   27  C16 UNL     1       0.679   7.352  11.287  1.00  0.00     0.086 A 
HETATM   28  C12 UNL     1       3.302   7.194  10.372  1.00  0.00     0.067 A 
HETATM   29  C13 UNL     1       2.321   7.746   9.555  1.00  0.00     0.046 A 
HETATM   30  C14 UNL     1       0.998   7.836  10.006  1.00  0.00    -0.025 A 
HETATM   31  C15 UNL     1      -0.060   8.433   9.124  1.00  0.00     0.051 C 
HETATM   32  O2  UNL     1      -0.624   7.479  11.685  1.00  0.00    -0.335 OA
BRANCH  28  33
HETATM   33  O1  UNL     1       4.574   7.136   9.883  1.00  0.00    -0.361 OA
HETATM   34  H15 UNL     1       5.149   6.729  10.552  1.00  0.00     0.217 HD
ENDBRANCH  28  33
ENDBRANCH  20  21
ENDBRANCH  19  20
ENDBRANCH   3  19
TORSDOF 9
ENDMDL
MODEL 6
REMARK minimizedAffinity -9.22242069
REMARK  9 active torsions:
REMARK  status: ('A' for Active; 'I' for Inactive)
REMARK    1  A    between atoms: C2_2  and  C17_19 
REMARK    2  A    between atoms: C3_3  and  C4_4 
REMARK    3  A    between atoms: C4_4  and  C5_5 
REMARK    4  A    between atoms: C5_5  and  C6_6 
REMARK    5  A    between atoms: C12_12  and  O1_13 
REMARK    6  A    between atoms: C17_19  and  C18_20 
REMARK    7  A    between atoms: C18_20  and  C19_21 
REMARK    8  A    between atoms: C23_25  and  C24_26 
REMARK    9  A    between atoms: C24_26  and  O3_29 
ROOT
HETATM    1  C1  UNL     1      -3.290   8.888  15.517  1.00  0.00     0.043 C 
HETATM    2  C2  UNL     1      -3.828   8.773  14.115  1.00  0.00    -0.087 C 
HETATM    3  C3  UNL     1      -5.068   8.336  13.808  1.00  0.00    -0.024 C 
ENDROOT
BRANCH   2   4
HETATM    4  C17 UNL     1      -2.852   9.129  13.004  1.00  0.00     0.037 C 
BRANCH   4   5
HETATM    5  C18 UNL     1      -1.376   8.869  13.344  1.00  0.00     0.032 C 
BRANCH   5   6
HETATM    6  C19 UNL     1      -0.847   7.545  12.853  1.00  0.00    -0.013 C 
HETATM    7  C20 UNL     1      -0.319   7.239  11.649  1.00  0.00     0.013 C 
HETATM    8  C21 UNL     1       0.208   5.864  11.381  1.00  0.00     0.047 C 
HETATM    9  C27 UNL     1      -0.224   8.234  10.548  1.00  0.00     0.289 C 
HETATM   10  C22 UNL     1       1.532   5.950  10.649  1.00  0.00     0.040 C 
HETATM   11  C23 UNL     1       1.308   6.696   9.341  1.00  0.00     0.166 C 
HETATM   12  O4  UNL     1       0.704   7.992   9.591  1.00  0.00    -0.309 OA
HETATM   13  O5  UNL     1      -0.912   9.246  10.499  1.00  0.00    -0.260 OA
BRANCH  11  14
HETATM   14  C24 UNL     1       2.610   6.941   8.528  1.00  0.00     0.077 C 
HETATM   15  C25 UNL     1       3.574   7.863   9.290  1.00  0.00     0.048 C 
HETATM   16  C26 UNL     1       2.329   7.535   7.145  1.00  0.00     0.048 C 
BRANCH  14  17
HETATM   17  O3  UNL     1       3.282   5.691   8.326  1.00  0.00    -0.388 OA
HETATM   18  H36 UNL     1       3.457   5.323   9.213  1.00  0.00     0.210 HD
ENDBRANCH  14  17
ENDBRANCH  11  14
ENDBRANCH   5   6
ENDBRANCH   4   5
ENDBRANCH   2   4
BRANCH   3  19
HETATM   19  C4  UNL     1      -6.170   7.935  14.754  1.00  0.00     0.030 C 
BRANCH  19  20
HETATM   20  C5  UNL     1      -7.180   7.015  14.053  1.00  0.00     0.046 C 
BRANCH  20  21
HETATM   21  C6  UNL     1      -6.974   5.507  14.334  1.00  0.00     0.082 C 
HETATM   22  C7  UNL     1      -7.538   5.108  15.705  1.00  0.00     0.051 C 
HETATM   23  C8  UNL     1      -7.712   4.712  13.276  1.00  0.00     0.012 C 
HETATM   24  C9  UNL     1      -7.091   4.006  12.327  1.00  0.00     0.013 C 
HETATM   25  C10 UNL     1      -5.635   4.016  12.313  1.00  0.00     0.000 A 
HETATM   26  C11 UNL     1      -4.935   3.389  11.276  1.00  0.00     0.050 A 
HETATM   27  C16 UNL     1      -4.933   4.640  13.351  1.00  0.00     0.086 A 
HETATM   28  C12 UNL     1      -3.542   3.396  11.288  1.00  0.00     0.067 A 
HETATM   29  C13 UNL     1      -2.839   4.010  12.318  1.00  0.00     0.046 A 
HETATM   30  C14 UNL     1      -3.528   4.636  13.366  1.00  0.00    -0.025 A 
HETATM   31  C15 UNL     1      -2.767   5.298  14.478  1.00  0.00     0.051 C 
HETATM   32  O2  UNL     1      -5.557   5.250  14.406  1.00  0.00    -0.335 OA
BRANCH  28  33
HETATM   33  O1  UNL     1      -2.821   2.798  10.296  1.00  0.00    -0.361 OA
HETATM   34  H15 UNL     1      -3.435   2.415   9.648  1.00  0.00     0.217 HD
ENDBRANCH  28  33
ENDBRANCH  20  21
ENDBRANCH  19  20
ENDBRANCH   3  19
TORSDOF 9
ENDMDL
MODEL 7
REMARK minimizedAffinity -9.15610695
REMARK  9 active torsions:
REMARK  status: ('A' for Active; 'I' for Inactive)
REMARK    1  A    between atoms: C2_2  and  C17_19 
REMARK    2  A    between atoms: C3_3  and  C4_4 
REMARK    3  A    between atoms: C4_4  and  C5_5 
REMARK    4  A    between atoms: C5_5  and  C6_6 
REMARK    5  A    between atoms: C12_12  and  O1_13 
REMARK    6  A    between atoms: C17_19  and  C18_20 
REMARK    7  A    between atoms: C18_20  and  C19_21 
REMARK    8  A    between atoms: C23_25  and  C24_26 
REMARK    9  A    between atoms: C24_26  and  O3_29 
ROOT
HETATM    1  C1  UNL     1      -3.523   6.091  15.287  1.00  0.00     0.043 C 
HETATM    2  C2  UNL     1      -3.074   5.955  13.856  1.00  0.00    -0.087 C 
HETATM    3  C3  UNL     1      -3.770   5.308  12.897  1.00  0.00    -0.024 C 
ENDROOT
BRANCH   2   4
HETATM    4  C17 UNL     1      -1.712   6.551  13.535  1.00  0.00     0.037 C 
BRANCH   4   5
HETATM    5  C18 UNL     1      -0.528   5.600  13.765  1.00  0.00     0.032 C 
BRANCH   5   6
HETATM    6  C19 UNL     1       0.807   6.147  13.325  1.00  0.00    -0.013 C 
HETATM    7  C20 UNL     1       1.344   6.173  12.087  1.00  0.00     0.013 C 
HETATM    8  C21 UNL     1       2.671   6.823  11.852  1.00  0.00     0.047 C 
HETATM    9  C27 UNL     1       0.656   5.578  10.911  1.00  0.00     0.289 C 
HETATM   10  C22 UNL     1       2.621   7.665  10.592  1.00  0.00     0.040 C 
HETATM   11  C23 UNL     1       2.261   6.756   9.425  1.00  0.00     0.166 C 
HETATM   12  O4  UNL     1       1.023   6.047   9.694  1.00  0.00    -0.309 OA
HETATM   13  O5  UNL     1      -0.224   4.732  11.007  1.00  0.00    -0.260 OA
BRANCH  11  14
HETATM   14  C24 UNL     1       2.080   7.509   8.076  1.00  0.00     0.077 C 
HETATM   15  C25 UNL     1       2.239   6.554   6.884  1.00  0.00     0.048 C 
HETATM   16  C26 UNL     1       3.061   8.675   7.926  1.00  0.00     0.048 C 
BRANCH  14  17
HETATM   17  O3  UNL     1       0.756   8.055   8.015  1.00  0.00    -0.388 OA
HETATM   18  H36 UNL     1       0.141   7.304   8.111  1.00  0.00     0.210 HD
ENDBRANCH  14  17
ENDBRANCH  11  14
ENDBRANCH   5   6
ENDBRANCH   4   5
ENDBRANCH   2   4
BRANCH   3  19
HETATM   19  C4  UNL     1      -5.121   4.653  13.015  1.00  0.00     0.030 C 
BRANCH  19  20
HETATM   20  C5  UNL     1      -6.201   5.690  13.354  1.00  0.00     0.046 C 
BRANCH  20  21
HETATM   21  C6  UNL     1      -7.338   5.157  14.260  1.00  0.00     0.082 C 
HETATM   22  C7  UNL     1      -7.519   3.640  14.102  1.00  0.00     0.051 C 
HETATM   23  C8  UNL     1      -6.976   5.436  15.705  1.00  0.00     0.012 C 
HETATM   24  C9  UNL     1      -7.615   6.337  16.457  1.00  0.00     0.013 C 
HETATM   25  C10 UNL     1      -8.701   7.087  15.846  1.00  0.00     0.000 A 
HETATM   26  C11 UNL     1      -9.329   8.122  16.549  1.00  0.00     0.050 A 
HETATM   27  C16 UNL     1      -9.133   6.760  14.554  1.00  0.00     0.086 A 
HETATM   28  C12 UNL     1     -10.377   8.818  15.954  1.00  0.00     0.067 A 
HETATM   29  C13 UNL     1     -10.813   8.495  14.673  1.00  0.00     0.046 A 
HETATM   30  C14 UNL     1     -10.199   7.458  13.960  1.00  0.00    -0.025 A 
HETATM   31  C15 UNL     1     -10.672   7.111  12.578  1.00  0.00     0.051 C 
HETATM   32  O2  UNL     1      -8.579   5.745  13.822  1.00  0.00    -0.335 OA
BRANCH  28  33
HETATM   33  O1  UNL     1     -11.015   9.834  16.603  1.00  0.00    -0.361 OA
HETATM   34  H15 UNL     1     -10.609   9.951  17.478  1.00  0.00     0.217 HD
ENDBRANCH  28  33
ENDBRANCH  20  21
ENDBRANCH  19  20
ENDBRANCH   3  19
TORSDOF 9
ENDMDL
MODEL 8
REMARK minimizedAffinity -9.11999607
REMARK  9 active torsions:
REMARK  status: ('A' for Active; 'I' for Inactive)
REMARK    1  A    between atoms: C2_2  and  C17_19 
REMARK    2  A    between atoms: C3_3  and  C4_4 
REMARK    3  A    between atoms: C4_4  and  C5_5 
REMARK    4  A    between atoms: C5_5  and  C6_6 
REMARK    5  A    between atoms: C12_12  and  O1_13 
REMARK    6  A    between atoms: C17_19  and  C18_20 
REMARK    7  A    between atoms: C18_20  and  C19_21 
REMARK    8  A    between atoms: C23_25  and  C24_26 
REMARK    9  A    between atoms: C24_26  and  O3_29 
ROOT
HETATM    1  C1  UNL     1      -2.281   7.370  15.378  1.00  0.00     0.043 C 
HETATM    2  C2  UNL     1      -2.515   7.348  13.891  1.00  0.00    -0.087 C 
HETATM    3  C3  UNL     1      -3.677   7.691  13.297  1.00  0.00    -0.024 C 
ENDROOT
BRANCH   2   4
HETATM    4  C17 UNL     1      -1.352   6.841  13.050  1.00  0.00     0.037 C 
BRANCH   4   5
HETATM    5  C18 UNL     1      -0.154   6.326  13.862  1.00  0.00     0.032 C 
BRANCH   5   6
HETATM    6  C19 UNL     1       1.191   6.656  13.266  1.00  0.00    -0.013 C 
HETATM    7  C20 UNL     1       1.615   6.496  11.994  1.00  0.00     0.013 C 
HETATM    8  C21 UNL     1       2.984   6.949  11.591  1.00  0.00     0.047 C 
HETATM    9  C27 UNL     1       0.760   5.884  10.943  1.00  0.00     0.289 C 
HETATM   10  C22 UNL     1       2.921   7.667  10.258  1.00  0.00     0.040 C 
HETATM   11  C23 UNL     1       2.354   6.703   9.224  1.00  0.00     0.166 C 
HETATM   12  O4  UNL     1       1.070   6.185   9.659  1.00  0.00    -0.309 OA
HETATM   13  O5  UNL     1      -0.201   5.169  11.195  1.00  0.00    -0.260 OA
BRANCH  11  14
HETATM   14  C24 UNL     1       2.144   7.342   7.821  1.00  0.00     0.077 C 
HETATM   15  C25 UNL     1       2.464   6.339   6.703  1.00  0.00     0.048 C 
HETATM   16  C26 UNL     1       2.988   8.605   7.626  1.00  0.00     0.048 C 
BRANCH  14  17
HETATM   17  O3  UNL     1       0.769   7.721   7.677  1.00  0.00    -0.388 OA
HETATM   18  H36 UNL     1       0.242   6.910   7.803  1.00  0.00     0.210 HD
ENDBRANCH  14  17
ENDBRANCH  11  14
ENDBRANCH   5   6
ENDBRANCH   4   5
ENDBRANCH   2   4
BRANCH   3  19
HETATM   19  C4  UNL     1      -4.933   8.208  13.947  1.00  0.00     0.030 C 
BRANCH  19  20
HETATM   20  C5  UNL     1      -6.118   7.275  13.659  1.00  0.00     0.046 C 
BRANCH  20  21
HETATM   21  C6  UNL     1      -6.108   5.958  14.474  1.00  0.00     0.082 C 
HETATM   22  C7  UNL     1      -5.653   6.195  15.921  1.00  0.00     0.051 C 
HETATM   23  C8  UNL     1      -7.517   5.401  14.512  1.00  0.00     0.012 C 
HETATM   24  C9  UNL     1      -7.882   4.293  13.862  1.00  0.00     0.013 C 
HETATM   25  C10 UNL     1      -6.873   3.601  13.075  1.00  0.00     0.000 A 
HETATM   26  C11 UNL     1      -7.225   2.502  12.283  1.00  0.00     0.050 A 
HETATM   27  C16 UNL     1      -5.539   4.026  13.125  1.00  0.00     0.086 A 
HETATM   28  C12 UNL     1      -6.242   1.842  11.550  1.00  0.00     0.067 A 
HETATM   29  C13 UNL     1      -4.915   2.257  11.598  1.00  0.00     0.046 A 
HETATM   30  C14 UNL     1      -4.548   3.351  12.391  1.00  0.00    -0.025 A 
HETATM   31  C15 UNL     1      -3.114   3.796  12.443  1.00  0.00     0.051 C 
HETATM   32  O2  UNL     1      -5.124   5.077  13.896  1.00  0.00    -0.335 OA
BRANCH  28  33
HETATM   33  O1  UNL     1      -6.543   0.768  10.764  1.00  0.00    -0.361 OA
HETATM   34  H15 UNL     1      -7.497   0.593  10.823  1.00  0.00     0.217 HD
ENDBRANCH  28  33
ENDBRANCH  20  21
ENDBRANCH  19  20
ENDBRANCH   3  19
TORSDOF 9
ENDMDL
MODEL 9
REMARK minimizedAffinity -9.08276081
REMARK  9 active torsions:
REMARK  status: ('A' for Active; 'I' for Inactive)
REMARK    1  A    between atoms: C2_2  and  C17_19 
REMARK    2  A    between atoms: C3_3  and  C4_4 
REMARK    3  A    between atoms: C4_4  and  C5_5 
REMARK    4  A    between atoms: C5_5  and  C6_6 
REMARK    5  A    between atoms: C12_12  and  O1_13 
REMARK    6  A    between atoms: C17_19  and  C18_20 
REMARK    7  A    between atoms: C18_20  and  C19_21 
REMARK    8  A    between atoms: C23_25  and  C24_26 
REMARK    9  A    between atoms: C24_26  and  O3_29 
ROOT
HETATM    1  C1  UNL     1      -7.544   8.547  15.118  1.00  0.00     0.043 C 
HETATM    2  C2  UNL     1      -8.682   7.658  15.544  1.00  0.00    -0.087 C 
HETATM    3  C3  UNL     1      -8.571   6.332  15.770  1.00  0.00    -0.024 C 
ENDROOT
BRANCH   2   4
HETATM    4  C17 UNL     1     -10.040   8.336  15.656  1.00  0.00     0.037 C 
BRANCH   4   5
HETATM    5  C18 UNL     1     -10.148   9.675  14.910  1.00  0.00     0.032 C 
BRANCH   5   6
HETATM    6  C19 UNL     1     -11.516  10.307  14.957  1.00  0.00    -0.013 C 
HETATM    7  C20 UNL     1     -12.531  10.194  14.074  1.00  0.00     0.013 C 
HETATM    8  C21 UNL     1     -13.843  10.862  14.340  1.00  0.00     0.047 C 
HETATM    9  C27 UNL     1     -12.406   9.407  12.819  1.00  0.00     0.289 C 
HETATM   10  C22 UNL     1     -14.983   9.918  14.010  1.00  0.00     0.040 C 
HETATM   11  C23 UNL     1     -14.871   9.533  12.541  1.00  0.00     0.166 C 
HETATM   12  O4  UNL     1     -13.561   8.975  12.258  1.00  0.00    -0.309 OA
HETATM   13  O5  UNL     1     -11.329   9.120  12.312  1.00  0.00    -0.260 OA
BRANCH  11  14
HETATM   14  C24 UNL     1     -15.928   8.487  12.086  1.00  0.00     0.077 C 
HETATM   15  C25 UNL     1     -17.240   8.649  12.868  1.00  0.00     0.048 C 
HETATM   16  C26 UNL     1     -15.424   7.049  12.234  1.00  0.00     0.048 C 
BRANCH  14  17
HETATM   17  O3  UNL     1     -16.229   8.692  10.699  1.00  0.00    -0.388 OA
HETATM   18  H36 UNL     1     -16.549   9.610  10.617  1.00  0.00     0.210 HD
ENDBRANCH  14  17
ENDBRANCH  11  14
ENDBRANCH   5   6
ENDBRANCH   4   5
ENDBRANCH   2   4
BRANCH   3  19
HETATM   19  C4  UNL     1      -7.329   5.483  15.708  1.00  0.00     0.030 C 
BRANCH  19  20
HETATM   20  C5  UNL     1      -7.442   4.433  14.592  1.00  0.00     0.046 C 
BRANCH  20  21
HETATM   21  C6  UNL     1      -6.958   4.920  13.205  1.00  0.00     0.082 C 
HETATM   22  C7  UNL     1      -8.084   5.622  12.430  1.00  0.00     0.051 C 
HETATM   23  C8  UNL     1      -5.837   5.920  13.406  1.00  0.00     0.012 C 
HETATM   24  C9  UNL     1      -4.564   5.663  13.092  1.00  0.00     0.013 C 
HETATM   25  C10 UNL     1      -4.249   4.354  12.540  1.00  0.00     0.000 A 
HETATM   26  C11 UNL     1      -2.920   3.990  12.300  1.00  0.00     0.050 A 
HETATM   27  C16 UNL     1      -5.284   3.462  12.230  1.00  0.00     0.086 A 
HETATM   28  C12 UNL     1      -2.639   2.739  11.756  1.00  0.00     0.067 A 
HETATM   29  C13 UNL     1      -3.662   1.851  11.442  1.00  0.00     0.046 A 
HETATM   30  C14 UNL     1      -4.998   2.205  11.671  1.00  0.00    -0.025 A 
HETATM   31  C15 UNL     1      -6.100   1.244  11.330  1.00  0.00     0.051 C 
HETATM   32  O2  UNL     1      -6.605   3.765  12.417  1.00  0.00    -0.335 OA
BRANCH  28  33
HETATM   33  O1  UNL     1      -1.357   2.344  11.508  1.00  0.00    -0.361 OA
HETATM   34  H15 UNL     1      -0.752   3.055  11.775  1.00  0.00     0.217 HD
ENDBRANCH  28  33
ENDBRANCH  20  21
ENDBRANCH  19  20
ENDBRANCH   3  19
TORSDOF 9
ENDMDL
