MODEL 1
REMARK minimizedAffinity -7.413486
REMARK CNNscore 0.682424545
REMARK CNNaffinity 6.93983078
REMARK  7 active torsions:
REMARK  status: ('A' for Active; 'I' for Inactive)
REMARK    1  A    between atoms: C4_4  and  C5_5 
REMARK    2  A    between atoms: C5_5  and  O1_6 
REMARK    3  A    between atoms: C5_5  and  C6_7 
REMARK    4  A    between atoms: C6_7  and  C7_8 
REMARK    5  A    between atoms: C7_8  and  C8_9 
REMARK    6  A    between atoms: C7_8  and  C9_11 
REMARK    7  A    between atoms: C8_9  and  O2_10 
ROOT
HETATM    1  C9  UNL     1       1.555  55.642  -9.619  1.00  0.00     0.001 C 
HETATM    2  C10 UNL     1       0.977  55.899  -8.193  1.00  0.00     0.007 C 
HETATM    3  C11 UNL     1      -0.223  54.960  -7.995  1.00  0.00     0.015 C 
HETATM    4  C12 UNL     1      -0.520  54.397  -9.398  1.00  0.00    -0.013 C 
HETATM    5  C13 UNL     1      -1.419  55.456 -10.104  1.00  0.00     0.021 C 
HETATM    6  C14 UNL     1      -1.240  53.063  -9.483  1.00  0.00    -0.070 C 
HETATM    7  C15 UNL     1      -1.930  52.511  -8.473  1.00  0.00    -0.022 C 
HETATM    8  C16 UNL     1      -2.507  51.139  -8.596  1.00  0.00     0.034 C 
HETATM    9  C17 UNL     1      -3.174  50.870  -9.967  1.00  0.00     0.013 C 
HETATM   10  C18 UNL     1      -3.538  49.357 -10.158  1.00  0.00     0.018 C 
HETATM   11  C19 UNL     1      -4.631  48.950  -9.135  1.00  0.00     0.023 C 
HETATM   12  C20 UNL     1      -2.359  48.386  -9.964  1.00  0.00     0.023 C 
HETATM   13  C21 UNL     1      -4.117  49.167 -11.564  1.00  0.00     0.135 C 
HETATM   14  O3  UNL     1      -5.172  48.557 -11.766  1.00  0.00    -0.297 OA
HETATM   15  C22 UNL     1      -3.348  49.712 -12.742  1.00  0.00     0.080 C 
HETATM   16  C23 UNL     1      -2.163  50.579 -12.353  1.00  0.00     0.017 C 
HETATM   17  C24 UNL     1      -2.445  51.574 -11.198  1.00  0.00    -0.031 C 
HETATM   18  C25 UNL     1      -3.431  52.652 -11.744  1.00  0.00     0.016 C 
HETATM   19  C26 UNL     1      -1.079  52.251 -10.763  1.00  0.00     0.024 C 
HETATM   20  C27 UNL     1      -0.356  53.026 -11.898  1.00  0.00     0.010 C 
HETATM   21  C28 UNL     1       0.844  53.907 -11.488  1.00  0.00     0.011 C 
HETATM   22  C29 UNL     1       0.932  54.250  -9.986  1.00  0.00    -0.029 C 
HETATM   23  C30 UNL     1       1.772  53.131  -9.292  1.00  0.00     0.016 C 
ENDROOT
BRANCH   1  24
HETATM   24  C7  UNL     1       3.107  55.862  -9.665  1.00  0.00     0.017 C 
BRANCH  24  25
HETATM   25  C6  UNL     1       3.538  56.747  -8.450  1.00  0.00     0.043 C 
BRANCH  25  26
HETATM   26  C5  UNL     1       4.514  56.192  -7.396  1.00  0.00     0.141 C 
BRANCH  26  27
HETATM   27  C4  UNL     1       5.182  57.245  -6.550  1.00  0.00     0.006 C 
HETATM   28  C2  UNL     1       6.433  57.206  -6.045  1.00  0.00    -0.089 C 
HETATM   29  C1  UNL     1       7.397  56.067  -6.229  1.00  0.00     0.042 C 
HETATM   30  C3  UNL     1       6.972  58.351  -5.230  1.00  0.00     0.042 C 
ENDBRANCH  26  27
BRANCH  26  31
HETATM   31  O1  UNL     1       5.504  55.365  -7.991  1.00  0.00    -0.392 OA
HETATM   32  H9  UNL     1       6.029  55.948  -8.580  1.00  0.00     0.210 HD
ENDBRANCH  26  31
ENDBRANCH  25  26
ENDBRANCH  24  25
BRANCH  24  33
HETATM   33  C8  UNL     1       3.567  56.458 -11.002  1.00  0.00     0.169 C 
BRANCH  33  34
HETATM   34  O2  UNL     1       4.077  55.429 -11.847  1.00  0.00    -0.400 OA
HETATM   35  H15 UNL     1       4.213  55.830 -12.725  1.00  0.00     0.209 HD
ENDBRANCH  33  34
ENDBRANCH  24  33
ENDBRANCH   1  24
TORSDOF 7
ENDMDL
MODEL 2
REMARK minimizedAffinity -7.59329414
REMARK CNNscore 0.653392673
REMARK CNNaffinity 7.28746462
REMARK  7 active torsions:
REMARK  status: ('A' for Active; 'I' for Inactive)
REMARK    1  A    between atoms: C4_4  and  C5_5 
REMARK    2  A    between atoms: C5_5  and  O1_6 
REMARK    3  A    between atoms: C5_5  and  C6_7 
REMARK    4  A    between atoms: C6_7  and  C7_8 
REMARK    5  A    between atoms: C7_8  and  C8_9 
REMARK    6  A    between atoms: C7_8  and  C9_11 
REMARK    7  A    between atoms: C8_9  and  O2_10 
ROOT
HETATM    1  C9  UNL     1      -1.888  51.881 -10.740  1.00  0.00     0.001 C 
HETATM    2  C10 UNL     1      -2.562  52.002  -9.338  1.00  0.00     0.007 C 
HETATM    3  C11 UNL     1      -1.539  52.627  -8.377  1.00  0.00     0.015 C 
HETATM    4  C12 UNL     1      -0.199  52.577  -9.137  1.00  0.00    -0.013 C 
HETATM    5  C13 UNL     1       0.382  51.153  -8.887  1.00  0.00     0.021 C 
HETATM    6  C14 UNL     1       0.871  53.579  -8.742  1.00  0.00    -0.070 C 
HETATM    7  C15 UNL     1       0.879  54.261  -7.585  1.00  0.00    -0.022 C 
HETATM    8  C16 UNL     1       1.900  55.319  -7.325  1.00  0.00     0.034 C 
HETATM    9  C17 UNL     1       3.328  54.923  -7.773  1.00  0.00     0.013 C 
HETATM   10  C18 UNL     1       4.319  56.137  -7.723  1.00  0.00     0.018 C 
HETATM   11  C19 UNL     1       4.511  56.593  -6.253  1.00  0.00     0.023 C 
HETATM   12  C20 UNL     1       3.858  57.371  -8.519  1.00  0.00     0.023 C 
HETATM   13  C21 UNL     1       5.681  55.679  -8.254  1.00  0.00     0.135 C 
HETATM   14  O3  UNL     1       6.735  55.902  -7.649  1.00  0.00    -0.297 OA
HETATM   15  C22 UNL     1       5.735  54.964  -9.583  1.00  0.00     0.080 C 
HETATM   16  C23 UNL     1       4.370  54.605 -10.143  1.00  0.00     0.017 C 
HETATM   17  C24 UNL     1       3.376  54.037  -9.098  1.00  0.00    -0.031 C 
HETATM   18  C25 UNL     1       3.900  52.630  -8.675  1.00  0.00     0.016 C 
HETATM   19  C26 UNL     1       1.946  53.908  -9.771  1.00  0.00     0.024 C 
HETATM   20  C27 UNL     1       1.905  52.990 -11.022  1.00  0.00     0.010 C 
HETATM   21  C28 UNL     1       0.510  52.628 -11.577  1.00  0.00     0.011 C 
HETATM   22  C29 UNL     1      -0.670  52.862 -10.611  1.00  0.00    -0.029 C 
HETATM   23  C30 UNL     1      -1.181  54.321 -10.828  1.00  0.00     0.016 C 
ENDROOT
BRANCH   1  24
HETATM   24  C7  UNL     1      -2.928  52.045 -11.902  1.00  0.00     0.017 C 
BRANCH  24  25
HETATM   25  C6  UNL     1      -2.169  52.090 -13.269  1.00  0.00     0.043 C 
BRANCH  25  26
HETATM   26  C5  UNL     1      -2.538  51.102 -14.391  1.00  0.00     0.141 C 
BRANCH  26  27
HETATM   27  C4  UNL     1      -1.408  50.782 -15.334  1.00  0.00     0.006 C 
HETATM   28  C2  UNL     1      -1.503  50.520 -16.655  1.00  0.00    -0.089 C 
HETATM   29  C1  UNL     1      -2.790  50.486 -17.432  1.00  0.00     0.042 C 
HETATM   30  C3  UNL     1      -0.274  50.236 -17.476  1.00  0.00     0.042 C 
ENDBRANCH  26  27
BRANCH  26  31
HETATM   31  O1  UNL     1      -3.660  51.558 -15.134  1.00  0.00    -0.392 OA
HETATM   32  H9  UNL     1      -3.378  52.389 -15.573  1.00  0.00     0.210 HD
ENDBRANCH  26  31
ENDBRANCH  25  26
ENDBRANCH  24  25
BRANCH  24  33
HETATM   33  C8  UNL     1      -3.828  53.272 -11.704  1.00  0.00     0.169 C 
BRANCH  33  34
HETATM   34  O2  UNL     1      -4.234  53.790 -12.968  1.00  0.00    -0.400 OA
HETATM   35  H15 UNL     1      -4.914  54.464 -12.788  1.00  0.00     0.209 HD
ENDBRANCH  33  34
ENDBRANCH  24  33
ENDBRANCH   1  24
TORSDOF 7
ENDMDL
MODEL 3
REMARK minimizedAffinity -7.63903522
REMARK CNNscore 0.547604024
REMARK CNNaffinity 6.22209167
REMARK  7 active torsions:
REMARK  status: ('A' for Active; 'I' for Inactive)
REMARK    1  A    between atoms: C4_4  and  C5_5 
REMARK    2  A    between atoms: C5_5  and  O1_6 
REMARK    3  A    between atoms: C5_5  and  C6_7 
REMARK    4  A    between atoms: C6_7  and  C7_8 
REMARK    5  A    between atoms: C7_8  and  C8_9 
REMARK    6  A    between atoms: C7_8  and  C9_11 
REMARK    7  A    between atoms: C8_9  and  O2_10 
ROOT
HETATM    1  C9  UNL     1      -7.747  46.863 -30.719  1.00  0.00     0.001 C 
HETATM    2  C10 UNL     1      -8.541  46.161 -29.575  1.00  0.00     0.007 C 
HETATM    3  C11 UNL     1      -9.618  45.278 -30.224  1.00  0.00     0.015 C 
HETATM    4  C12 UNL     1      -9.644  45.707 -31.703  1.00  0.00    -0.013 C 
HETATM    5  C13 UNL     1     -10.575  46.955 -31.771  1.00  0.00     0.021 C 
HETATM    6  C14 UNL     1     -10.159  44.702 -32.719  1.00  0.00    -0.070 C 
HETATM    7  C15 UNL     1     -10.897  43.625 -32.409  1.00  0.00    -0.022 C 
HETATM    8  C16 UNL     1     -11.261  42.618 -33.449  1.00  0.00     0.034 C 
HETATM    9  C17 UNL     1     -11.694  43.249 -34.795  1.00  0.00     0.013 C 
HETATM   10  C18 UNL     1     -11.821  42.178 -35.934  1.00  0.00     0.018 C 
HETATM   11  C19 UNL     1     -12.975  41.198 -35.602  1.00  0.00     0.023 C 
HETATM   12  C20 UNL     1     -10.558  41.326 -36.153  1.00  0.00     0.023 C 
HETATM   13  C21 UNL     1     -12.174  42.894 -37.241  1.00  0.00     0.135 C 
HETATM   14  O3  UNL     1     -13.100  42.521 -37.969  1.00  0.00    -0.297 OA
HETATM   15  C22 UNL     1     -11.334  44.073 -37.669  1.00  0.00     0.080 C 
HETATM   16  C23 UNL     1     -10.341  44.534 -36.617  1.00  0.00     0.017 C 
HETATM   17  C24 UNL     1     -10.908  44.583 -35.175  1.00  0.00    -0.031 C 
HETATM   18  C25 UNL     1     -11.949  45.744 -35.125  1.00  0.00     0.016 C 
HETATM   19  C26 UNL     1      -9.718  44.872 -34.168  1.00  0.00     0.024 C 
HETATM   20  C27 UNL     1      -8.961  46.201 -34.431  1.00  0.00     0.010 C 
HETATM   21  C28 UNL     1      -7.958  46.660 -33.351  1.00  0.00     0.011 C 
HETATM   22  C29 UNL     1      -8.120  45.992 -31.969  1.00  0.00    -0.029 C 
HETATM   23  C30 UNL     1      -7.237  44.704 -31.958  1.00  0.00     0.016 C 
ENDROOT
BRANCH   1  24
HETATM   24  C7  UNL     1      -6.247  47.099 -30.327  1.00  0.00     0.017 C 
BRANCH  24  25
HETATM   25  C6  UNL     1      -6.186  47.967 -29.027  1.00  0.00     0.043 C 
BRANCH  25  26
HETATM   26  C5  UNL     1      -4.835  48.234 -28.337  1.00  0.00     0.141 C 
BRANCH  26  27
HETATM   27  C4  UNL     1      -4.902  48.275 -26.833  1.00  0.00     0.006 C 
HETATM   28  C2  UNL     1      -3.870  48.453 -25.980  1.00  0.00    -0.089 C 
HETATM   29  C1  UNL     1      -2.435  48.627 -26.394  1.00  0.00     0.042 C 
HETATM   30  C3  UNL     1      -4.097  48.492 -24.493  1.00  0.00     0.042 C 
ENDBRANCH  26  27
BRANCH  26  31
HETATM   31  O1  UNL     1      -4.236  49.430 -28.817  1.00  0.00    -0.392 OA
HETATM   32  H9  UNL     1      -4.835  50.161 -28.554  1.00  0.00     0.210 HD
ENDBRANCH  26  31
ENDBRANCH  25  26
ENDBRANCH  24  25
BRANCH  24  33
HETATM   33  C8  UNL     1      -5.440  47.723 -31.472  1.00  0.00     0.169 C 
BRANCH  33  34
HETATM   34  O2  UNL     1      -4.235  46.989 -31.678  1.00  0.00    -0.400 OA
HETATM   35  H15 UNL     1      -3.838  47.329 -32.501  1.00  0.00     0.209 HD
ENDBRANCH  33  34
ENDBRANCH  24  33
ENDBRANCH   1  24
TORSDOF 7
ENDMDL
MODEL 4
REMARK minimizedAffinity -7.48041487
REMARK CNNscore 0.471802473
REMARK CNNaffinity 7.02107668
REMARK  7 active torsions:
REMARK  status: ('A' for Active; 'I' for Inactive)
REMARK    1  A    between atoms: C4_4  and  C5_5 
REMARK    2  A    between atoms: C5_5  and  O1_6 
REMARK    3  A    between atoms: C5_5  and  C6_7 
REMARK    4  A    between atoms: C6_7  and  C7_8 
REMARK    5  A    between atoms: C7_8  and  C8_9 
REMARK    6  A    between atoms: C7_8  and  C9_11 
REMARK    7  A    between atoms: C8_9  and  O2_10 
ROOT
HETATM    1  C9  UNL     1       0.044  50.368 -14.867  1.00  0.00     0.001 C 
HETATM    2  C10 UNL     1      -1.344  51.046 -14.647  1.00  0.00     0.007 C 
HETATM    3  C11 UNL     1      -1.224  51.978 -13.431  1.00  0.00     0.015 C 
HETATM    4  C12 UNL     1       0.121  51.605 -12.777  1.00  0.00    -0.013 C 
HETATM    5  C13 UNL     1      -0.175  50.384 -11.856  1.00  0.00     0.021 C 
HETATM    6  C14 UNL     1       0.805  52.660 -11.925  1.00  0.00    -0.070 C 
HETATM    7  C15 UNL     1       0.190  53.742 -11.423  1.00  0.00    -0.022 C 
HETATM    8  C16 UNL     1       0.961  54.796 -10.698  1.00  0.00     0.034 C 
HETATM    9  C17 UNL     1       2.019  54.226  -9.722  1.00  0.00     0.013 C 
HETATM   10  C18 UNL     1       2.975  55.341  -9.174  1.00  0.00     0.018 C 
HETATM   11  C19 UNL     1       2.170  56.336  -8.299  1.00  0.00     0.023 C 
HETATM   12  C20 UNL     1       3.679  56.171 -10.263  1.00  0.00     0.023 C 
HETATM   13  C21 UNL     1       4.034  54.683  -8.284  1.00  0.00     0.135 C 
HETATM   14  O3  UNL     1       4.302  55.106  -7.154  1.00  0.00    -0.297 OA
HETATM   15  C22 UNL     1       4.801  53.502  -8.826  1.00  0.00     0.080 C 
HETATM   16  C23 UNL     1       4.269  52.979 -10.148  1.00  0.00     0.017 C 
HETATM   17  C24 UNL     1       2.724  52.889 -10.229  1.00  0.00    -0.031 C 
HETATM   18  C25 UNL     1       2.273  51.752  -9.261  1.00  0.00     0.016 C 
HETATM   19  C26 UNL     1       2.310  52.534 -11.718  1.00  0.00     0.024 C 
HETATM   20  C27 UNL     1       2.897  51.199 -12.248  1.00  0.00     0.010 C 
HETATM   21  C28 UNL     1       2.343  50.675 -13.591  1.00  0.00     0.011 C 
HETATM   22  C29 UNL     1       1.004  51.295 -14.042  1.00  0.00    -0.029 C 
HETATM   23  C30 UNL     1       1.330  52.560 -14.897  1.00  0.00     0.016 C 
ENDROOT
BRANCH   1  24
HETATM   24  C7  UNL     1       0.317  50.082 -16.385  1.00  0.00     0.017 C 
BRANCH  24  25
HETATM   25  C6  UNL     1      -0.258  51.258 -17.241  1.00  0.00     0.043 C 
BRANCH  25  26
HETATM   26  C5  UNL     1      -1.191  50.965 -18.431  1.00  0.00     0.141 C 
BRANCH  26  27
HETATM   27  C4  UNL     1      -0.527  51.059 -19.780  1.00  0.00     0.006 C 
HETATM   28  C2  UNL     1       0.119  52.127 -20.294  1.00  0.00    -0.089 C 
HETATM   29  C1  UNL     1       0.278  53.450 -19.597  1.00  0.00     0.042 C 
HETATM   30  C3  UNL     1       0.754  52.063 -21.657  1.00  0.00     0.042 C 
ENDBRANCH  26  27
BRANCH  26  31
HETATM   31  O1  UNL     1      -2.338  51.802 -18.409  1.00  0.00    -0.392 OA
HETATM   32  H9  UNL     1      -2.010  52.719 -18.528  1.00  0.00     0.210 HD
ENDBRANCH  26  31
ENDBRANCH  25  26
ENDBRANCH  24  25
BRANCH  24  33
HETATM   33  C8  UNL     1      -0.241  48.723 -16.827  1.00  0.00     0.169 C 
BRANCH  33  34
HETATM   34  O2  UNL     1      -0.172  47.792 -15.750  1.00  0.00    -0.400 OA
HETATM   35  H15 UNL     1      -0.668  47.002 -16.032  1.00  0.00     0.209 HD
ENDBRANCH  33  34
ENDBRANCH  24  33
ENDBRANCH   1  24
TORSDOF 7
ENDMDL
MODEL 5
REMARK minimizedAffinity -7.60460997
REMARK CNNscore 0.434242517
REMARK CNNaffinity 6.89413881
REMARK  7 active torsions:
REMARK  status: ('A' for Active; 'I' for Inactive)
REMARK    1  A    between atoms: C4_4  and  C5_5 
REMARK    2  A    between atoms: C5_5  and  O1_6 
REMARK    3  A    between atoms: C5_5  and  C6_7 
REMARK    4  A    between atoms: C6_7  and  C7_8 
REMARK    5  A    between atoms: C7_8  and  C8_9 
REMARK    6  A    between atoms: C7_8  and  C9_11 
REMARK    7  A    between atoms: C8_9  and  O2_10 
ROOT
HETATM    1  C9  UNL     1      -2.855  49.390 -21.450  1.00  0.00     0.001 C 
HETATM    2  C10 UNL     1      -1.939  50.548 -21.955  1.00  0.00     0.007 C 
HETATM    3  C11 UNL     1      -1.191  51.120 -20.740  1.00  0.00     0.015 C 
HETATM    4  C12 UNL     1      -1.898  50.507 -19.516  1.00  0.00    -0.013 C 
HETATM    5  C13 UNL     1      -3.129  51.419 -19.232  1.00  0.00     0.021 C 
HETATM    6  C14 UNL     1      -1.105  50.402 -18.225  1.00  0.00    -0.070 C 
HETATM    7  C15 UNL     1       0.017  51.093 -17.968  1.00  0.00    -0.022 C 
HETATM    8  C16 UNL     1       0.806  50.843 -16.726  1.00  0.00     0.034 C 
HETATM    9  C17 UNL     1      -0.070  50.671 -15.461  1.00  0.00     0.013 C 
HETATM   10  C18 UNL     1       0.761  50.160 -14.234  1.00  0.00     0.018 C 
HETATM   11  C19 UNL     1       1.795  51.239 -13.818  1.00  0.00     0.023 C 
HETATM   12  C20 UNL     1       1.547  48.861 -14.490  1.00  0.00     0.023 C 
HETATM   13  C21 UNL     1      -0.192  49.943 -13.054  1.00  0.00     0.135 C 
HETATM   14  O3  UNL     1       0.040  50.393 -11.927  1.00  0.00    -0.297 OA
HETATM   15  C22 UNL     1      -1.436  49.117 -13.273  1.00  0.00     0.080 C 
HETATM   16  C23 UNL     1      -1.691  48.764 -14.727  1.00  0.00     0.017 C 
HETATM   17  C24 UNL     1      -1.458  49.930 -15.723  1.00  0.00    -0.031 C 
HETATM   18  C25 UNL     1      -2.580  50.984 -15.475  1.00  0.00     0.016 C 
HETATM   19  C26 UNL     1      -1.554  49.366 -17.201  1.00  0.00     0.024 C 
HETATM   20  C27 UNL     1      -2.913  48.703 -17.549  1.00  0.00     0.010 C 
HETATM   21  C28 UNL     1      -3.162  48.355 -19.033  1.00  0.00     0.011 C 
HETATM   22  C29 UNL     1      -2.238  49.065 -20.045  1.00  0.00    -0.029 C 
HETATM   23  C30 UNL     1      -0.978  48.166 -20.250  1.00  0.00     0.016 C 
ENDROOT
BRANCH   1  24
HETATM   24  C7  UNL     1      -3.020  48.266 -22.531  1.00  0.00     0.017 C 
BRANCH  24  25
HETATM   25  C6  UNL     1      -3.156  48.926 -23.943  1.00  0.00     0.043 C 
BRANCH  25  26
HETATM   26  C5  UNL     1      -4.549  49.174 -24.550  1.00  0.00     0.141 C 
BRANCH  26  27
HETATM   27  C4  UNL     1      -4.760  48.543 -25.901  1.00  0.00     0.006 C 
HETATM   28  C2  UNL     1      -4.111  48.840 -27.046  1.00  0.00    -0.089 C 
HETATM   29  C1  UNL     1      -3.046  49.894 -27.180  1.00  0.00     0.042 C 
HETATM   30  C3  UNL     1      -4.419  48.103 -28.322  1.00  0.00     0.042 C 
ENDBRANCH  26  27
BRANCH  26  31
HETATM   31  O1  UNL     1      -4.841  50.563 -24.625  1.00  0.00    -0.392 OA
HETATM   32  H9  UNL     1      -4.190  50.945 -25.251  1.00  0.00     0.210 HD
ENDBRANCH  26  31
ENDBRANCH  25  26
ENDBRANCH  24  25
BRANCH  24  33
HETATM   33  C8  UNL     1      -4.194  47.331 -22.219  1.00  0.00     0.169 C 
BRANCH  33  34
HETATM   34  O2  UNL     1      -5.278  48.074 -21.666  1.00  0.00    -0.400 OA
HETATM   35  H15 UNL     1      -6.041  47.468 -21.626  1.00  0.00     0.209 HD
ENDBRANCH  33  34
ENDBRANCH  24  33
ENDBRANCH   1  24
TORSDOF 7
ENDMDL
MODEL 6
REMARK minimizedAffinity -7.48191643
REMARK CNNscore 0.421188563
REMARK CNNaffinity 5.63772392
REMARK  7 active torsions:
REMARK  status: ('A' for Active; 'I' for Inactive)
REMARK    1  A    between atoms: C4_4  and  C5_5 
REMARK    2  A    between atoms: C5_5  and  O1_6 
REMARK    3  A    between atoms: C5_5  and  C6_7 
REMARK    4  A    between atoms: C6_7  and  C7_8 
REMARK    5  A    between atoms: C7_8  and  C8_9 
REMARK    6  A    between atoms: C7_8  and  C9_11 
REMARK    7  A    between atoms: C8_9  and  O2_10 
ROOT
HETATM    1  C9  UNL     1       3.744  67.299 -35.801  1.00  0.00     0.001 C 
HETATM    2  C10 UNL     1       3.308  65.824 -36.060  1.00  0.00     0.007 C 
HETATM    3  C11 UNL     1       2.193  65.843 -37.117  1.00  0.00     0.015 C 
HETATM    4  C12 UNL     1       1.781  67.323 -37.233  1.00  0.00    -0.013 C 
HETATM    5  C13 UNL     1       0.752  67.571 -36.090  1.00  0.00     0.021 C 
HETATM    6  C14 UNL     1       1.135  67.774 -38.531  1.00  0.00    -0.070 C 
HETATM    7  C15 UNL     1       0.591  66.943 -39.434  1.00  0.00    -0.022 C 
HETATM    8  C16 UNL     1       0.086  67.454 -40.742  1.00  0.00     0.034 C 
HETATM    9  C17 UNL     1      -0.707  68.779 -40.623  1.00  0.00     0.013 C 
HETATM   10  C18 UNL     1      -1.001  69.418 -42.024  1.00  0.00     0.018 C 
HETATM   11  C19 UNL     1      -1.951  68.495 -42.830  1.00  0.00     0.023 C 
HETATM   12  C20 UNL     1       0.247  69.646 -42.897  1.00  0.00     0.023 C 
HETATM   13  C21 UNL     1      -1.715  70.757 -41.812  1.00  0.00     0.135 C 
HETATM   14  O3  UNL     1      -2.748  71.057 -42.419  1.00  0.00    -0.297 OA
HETATM   15  C22 UNL     1      -1.109  71.755 -40.856  1.00  0.00     0.080 C 
HETATM   16  C23 UNL     1       0.058  71.206 -40.054  1.00  0.00     0.017 C 
HETATM   17  C24 UNL     1      -0.156  69.773 -39.504  1.00  0.00    -0.031 C 
HETATM   18  C25 UNL     1      -1.256  69.857 -38.402  1.00  0.00     0.016 C 
HETATM   19  C26 UNL     1       1.206  69.257 -38.878  1.00  0.00     0.024 C 
HETATM   20  C27 UNL     1       1.757  70.135 -37.724  1.00  0.00     0.010 C 
HETATM   21  C28 UNL     1       2.940  69.563 -36.913  1.00  0.00     0.011 C 
HETATM   22  C29 UNL     1       3.168  68.044 -37.056  1.00  0.00    -0.029 C 
HETATM   23  C30 UNL     1       4.142  67.821 -38.256  1.00  0.00     0.016 C 
ENDROOT
BRANCH   1  24
HETATM   24  C7  UNL     1       5.267  67.401 -35.439  1.00  0.00     0.017 C 
BRANCH  24  25
HETATM   25  C6  UNL     1       5.543  66.571 -34.142  1.00  0.00     0.043 C 
BRANCH  25  26
HETATM   26  C5  UNL     1       6.432  65.315 -34.202  1.00  0.00     0.141 C 
BRANCH  26  27
HETATM   27  C4  UNL     1       5.678  64.014 -34.126  1.00  0.00     0.006 C 
HETATM   28  C2  UNL     1       4.733  63.675 -33.223  1.00  0.00    -0.089 C 
HETATM   29  C1  UNL     1       4.270  64.554 -32.095  1.00  0.00     0.042 C 
HETATM   30  C3  UNL     1       4.048  62.336 -33.289  1.00  0.00     0.042 C 
ENDBRANCH  26  27
BRANCH  26  31
HETATM   31  O1  UNL     1       7.434  65.341 -33.194  1.00  0.00    -0.392 OA
HETATM   32  H9  UNL     1       6.959  65.308 -32.337  1.00  0.00     0.210 HD
ENDBRANCH  26  31
ENDBRANCH  25  26
ENDBRANCH  24  25
BRANCH  24  33
HETATM   33  C8  UNL     1       5.733  68.855 -35.300  1.00  0.00     0.169 C 
BRANCH  33  34
HETATM   34  O2  UNL     1       5.990  69.159 -33.931  1.00  0.00    -0.400 OA
HETATM   35  H15 UNL     1       6.420  70.033 -33.915  1.00  0.00     0.209 HD
ENDBRANCH  33  34
ENDBRANCH  24  33
ENDBRANCH   1  24
TORSDOF 7
ENDMDL
MODEL 7
REMARK minimizedAffinity -7.36099815
REMARK CNNscore 0.412986726
REMARK CNNaffinity 6.62991524
REMARK  7 active torsions:
REMARK  status: ('A' for Active; 'I' for Inactive)
REMARK    1  A    between atoms: C4_4  and  C5_5 
REMARK    2  A    between atoms: C5_5  and  O1_6 
REMARK    3  A    between atoms: C5_5  and  C6_7 
REMARK    4  A    between atoms: C6_7  and  C7_8 
REMARK    5  A    between atoms: C7_8  and  C8_9 
REMARK    6  A    between atoms: C7_8  and  C9_11 
REMARK    7  A    between atoms: C8_9  and  O2_10 
ROOT
HETATM    1  C9  UNL     1      -3.994  50.084 -23.742  1.00  0.00     0.001 C 
HETATM    2  C10 UNL     1      -3.449  51.302 -22.934  1.00  0.00     0.007 C 
HETATM    3  C11 UNL     1      -3.562  50.965 -21.440  1.00  0.00     0.015 C 
HETATM    4  C12 UNL     1      -4.445  49.703 -21.384  1.00  0.00    -0.013 C 
HETATM    5  C13 UNL     1      -5.918  50.210 -21.419  1.00  0.00     0.021 C 
HETATM    6  C14 UNL     1      -4.305  48.799 -20.173  1.00  0.00    -0.070 C 
HETATM    7  C15 UNL     1      -3.743  49.172 -19.012  1.00  0.00    -0.022 C 
HETATM    8  C16 UNL     1      -3.532  48.187 -17.910  1.00  0.00     0.034 C 
HETATM    9  C17 UNL     1      -4.734  47.236 -17.692  1.00  0.00     0.013 C 
HETATM   10  C18 UNL     1      -4.386  46.062 -16.713  1.00  0.00     0.018 C 
HETATM   11  C19 UNL     1      -4.108  46.628 -15.297  1.00  0.00     0.023 C 
HETATM   12  C20 UNL     1      -3.150  45.238 -17.117  1.00  0.00     0.023 C 
HETATM   13  C21 UNL     1      -5.599  45.130 -16.616  1.00  0.00     0.135 C 
HETATM   14  O3  UNL     1      -6.056  44.752 -15.533  1.00  0.00    -0.297 OA
HETATM   15  C22 UNL     1      -6.228  44.629 -17.893  1.00  0.00     0.080 C 
HETATM   16  C23 UNL     1      -5.685  45.292 -19.147  1.00  0.00     0.017 C 
HETATM   17  C24 UNL     1      -5.495  46.826 -19.032  1.00  0.00    -0.031 C 
HETATM   18  C25 UNL     1      -6.915  47.466 -18.953  1.00  0.00     0.016 C 
HETATM   19  C26 UNL     1      -4.733  47.344 -20.323  1.00  0.00     0.024 C 
HETATM   20  C27 UNL     1      -5.462  47.050 -21.661  1.00  0.00     0.010 C 
HETATM   21  C28 UNL     1      -4.903  47.735 -22.927  1.00  0.00     0.011 C 
HETATM   22  C29 UNL     1      -3.968  48.936 -22.673  1.00  0.00    -0.029 C 
HETATM   23  C30 UNL     1      -2.510  48.389 -22.566  1.00  0.00     0.016 C 
ENDROOT
BRANCH   1  24
HETATM   24  C7  UNL     1      -3.254  49.917 -25.114  1.00  0.00     0.017 C 
BRANCH  24  25
HETATM   25  C6  UNL     1      -3.344  51.258 -25.913  1.00  0.00     0.043 C 
BRANCH  25  26
HETATM   26  C5  UNL     1      -2.172  51.707 -26.806  1.00  0.00     0.141 C 
BRANCH  26  27
HETATM   27  C4  UNL     1      -0.809  51.481 -26.205  1.00  0.00     0.006 C 
HETATM   28  C2  UNL     1       0.377  51.505 -26.850  1.00  0.00    -0.089 C 
HETATM   29  C1  UNL     1       0.546  51.751 -28.324  1.00  0.00     0.042 C 
HETATM   30  C3  UNL     1       1.665  51.280 -26.105  1.00  0.00     0.042 C 
ENDBRANCH  26  27
BRANCH  26  31
HETATM   31  O1  UNL     1      -2.302  53.071 -27.184  1.00  0.00    -0.392 OA
HETATM   32  H9  UNL     1      -2.239  53.591 -26.355  1.00  0.00     0.210 HD
ENDBRANCH  26  31
ENDBRANCH  25  26
ENDBRANCH  24  25
BRANCH  24  33
HETATM   33  C8  UNL     1      -3.793  48.730 -25.922  1.00  0.00     0.169 C 
BRANCH  33  34
HETATM   34  O2  UNL     1      -5.184  48.903 -26.179  1.00  0.00    -0.400 OA
HETATM   35  H15 UNL     1      -5.440  48.209 -26.813  1.00  0.00     0.209 HD
ENDBRANCH  33  34
ENDBRANCH  24  33
ENDBRANCH   1  24
TORSDOF 7
ENDMDL
MODEL 8
REMARK minimizedAffinity -8.02372837
REMARK CNNscore 0.400009632
REMARK CNNaffinity 6.64725065
REMARK  7 active torsions:
REMARK  status: ('A' for Active; 'I' for Inactive)
REMARK    1  A    between atoms: C4_4  and  C5_5 
REMARK    2  A    between atoms: C5_5  and  O1_6 
REMARK    3  A    between atoms: C5_5  and  C6_7 
REMARK    4  A    between atoms: C6_7  and  C7_8 
REMARK    5  A    between atoms: C7_8  and  C8_9 
REMARK    6  A    between atoms: C7_8  and  C9_11 
REMARK    7  A    between atoms: C8_9  and  O2_10 
ROOT
HETATM    1  C9  UNL     1      -2.795  51.032 -24.453  1.00  0.00     0.001 C 
HETATM    2  C10 UNL     1      -2.675  52.187 -23.412  1.00  0.00     0.007 C 
HETATM    3  C11 UNL     1      -3.555  51.827 -22.206  1.00  0.00     0.015 C 
HETATM    4  C12 UNL     1      -4.409  50.635 -22.680  1.00  0.00    -0.013 C 
HETATM    5  C13 UNL     1      -5.627  51.253 -23.431  1.00  0.00     0.021 C 
HETATM    6  C14 UNL     1      -4.958  49.697 -21.620  1.00  0.00    -0.070 C 
HETATM    7  C15 UNL     1      -5.051  50.001 -20.316  1.00  0.00    -0.022 C 
HETATM    8  C16 UNL     1      -5.487  48.979 -19.319  1.00  0.00     0.034 C 
HETATM    9  C17 UNL     1      -6.681  48.118 -19.798  1.00  0.00     0.013 C 
HETATM   10  C18 UNL     1      -6.947  46.899 -18.848  1.00  0.00     0.018 C 
HETATM   11  C19 UNL     1      -7.404  47.412 -17.458  1.00  0.00     0.023 C 
HETATM   12  C20 UNL     1      -5.726  45.993 -18.613  1.00  0.00     0.023 C 
HETATM   13  C21 UNL     1      -8.087  46.060 -19.436  1.00  0.00     0.135 C 
HETATM   14  O3  UNL     1      -9.054  45.695 -18.760  1.00  0.00    -0.297 OA
HETATM   15  C22 UNL     1      -8.000  45.636 -20.882  1.00  0.00     0.080 C 
HETATM   16  C23 UNL     1      -6.857  46.283 -21.644  1.00  0.00     0.017 C 
HETATM   17  C24 UNL     1      -6.669  47.796 -21.360  1.00  0.00    -0.031 C 
HETATM   18  C25 UNL     1      -7.892  48.540 -21.978  1.00  0.00     0.016 C 
HETATM   19  C26 UNL     1      -5.327  48.282 -22.051  1.00  0.00     0.024 C 
HETATM   20  C27 UNL     1      -5.284  48.073 -23.588  1.00  0.00     0.010 C 
HETATM   21  C28 UNL     1      -4.119  48.741 -24.351  1.00  0.00     0.011 C 
HETATM   22  C29 UNL     1      -3.383  49.862 -23.588  1.00  0.00    -0.029 C 
HETATM   23  C30 UNL     1      -2.216  49.204 -22.785  1.00  0.00     0.016 C 
ENDROOT
BRANCH   1  24
HETATM   24  C7  UNL     1      -1.467  50.838 -25.264  1.00  0.00     0.017 C 
BRANCH  24  25
HETATM   25  C6  UNL     1      -0.448  51.953 -24.856  1.00  0.00     0.043 C 
BRANCH  25  26
HETATM   26  C5  UNL     1      -0.189  53.146 -25.794  1.00  0.00     0.141 C 
BRANCH  26  27
HETATM   27  C4  UNL     1       0.562  52.796 -27.053  1.00  0.00     0.006 C 
HETATM   28  C2  UNL     1       1.635  51.983 -27.159  1.00  0.00    -0.089 C 
HETATM   29  C1  UNL     1       2.295  51.281 -26.005  1.00  0.00     0.042 C 
HETATM   30  C3  UNL     1       2.268  51.712 -28.497  1.00  0.00     0.042 C 
ENDBRANCH  26  27
BRANCH  26  31
HETATM   31  O1  UNL     1       0.484  54.199 -25.119  1.00  0.00    -0.392 OA
HETATM   32  H9  UNL     1       1.363  53.844 -24.866  1.00  0.00     0.210 HD
ENDBRANCH  26  31
ENDBRANCH  25  26
ENDBRANCH  24  25
BRANCH  24  33
HETATM   33  C8  UNL     1      -1.712  50.811 -26.778  1.00  0.00     0.169 C 
BRANCH  33  34
HETATM   34  O2  UNL     1      -3.027  51.278 -27.070  1.00  0.00    -0.400 OA
HETATM   35  H15 UNL     1      -3.079  51.382 -28.038  1.00  0.00     0.209 HD
ENDBRANCH  33  34
ENDBRANCH  24  33
ENDBRANCH   1  24
TORSDOF 7
ENDMDL
MODEL 9
REMARK minimizedAffinity -8.76883221
REMARK CNNscore 0.390966952
REMARK CNNaffinity 6.82280016
REMARK  7 active torsions:
REMARK  status: ('A' for Active; 'I' for Inactive)
REMARK    1  A    between atoms: C4_4  and  C5_5 
REMARK    2  A    between atoms: C5_5  and  O1_6 
REMARK    3  A    between atoms: C5_5  and  C6_7 
REMARK    4  A    between atoms: C6_7  and  C7_8 
REMARK    5  A    between atoms: C7_8  and  C8_9 
REMARK    6  A    between atoms: C7_8  and  C9_11 
REMARK    7  A    between atoms: C8_9  and  O2_10 
ROOT
HETATM    1  C9  UNL     1      -3.190  51.411 -25.461  1.00  0.00     0.001 C 
HETATM    2  C10 UNL     1      -2.823  52.612 -24.535  1.00  0.00     0.007 C 
HETATM    3  C11 UNL     1      -3.155  52.210 -23.090  1.00  0.00     0.015 C 
HETATM    4  C12 UNL     1      -3.988  50.921 -23.219  1.00  0.00    -0.013 C 
HETATM    5  C13 UNL     1      -5.456  51.382 -23.467  1.00  0.00     0.021 C 
HETATM    6  C14 UNL     1      -4.006  49.972 -22.033  1.00  0.00    -0.070 C 
HETATM    7  C15 UNL     1      -3.647  50.315 -20.786  1.00  0.00    -0.022 C 
HETATM    8  C16 UNL     1      -3.573  49.293 -19.700  1.00  0.00     0.034 C 
HETATM    9  C17 UNL     1      -4.758  48.297 -19.708  1.00  0.00     0.013 C 
HETATM   10  C18 UNL     1      -4.524  47.095 -18.729  1.00  0.00     0.018 C 
HETATM   11  C19 UNL     1      -4.492  47.611 -17.267  1.00  0.00     0.023 C 
HETATM   12  C20 UNL     1      -3.210  46.327 -18.962  1.00  0.00     0.023 C 
HETATM   13  C21 UNL     1      -5.701  46.122 -18.857  1.00  0.00     0.135 C 
HETATM   14  O3  UNL     1      -6.307  45.686 -17.874  1.00  0.00    -0.297 OA
HETATM   15  C22 UNL     1      -6.104  45.654 -20.235  1.00  0.00     0.080 C 
HETATM   16  C23 UNL     1      -5.397  46.384 -21.363  1.00  0.00     0.017 C 
HETATM   17  C24 UNL     1      -5.284  47.918 -21.165  1.00  0.00    -0.031 C 
HETATM   18  C25 UNL     1      -6.722  48.509 -21.288  1.00  0.00     0.016 C 
HETATM   19  C26 UNL     1      -4.350  48.512 -22.300  1.00  0.00     0.024 C 
HETATM   20  C27 UNL     1      -4.850  48.250 -23.746  1.00  0.00     0.010 C 
HETATM   21  C28 UNL     1      -4.126  49.003 -24.883  1.00  0.00     0.011 C 
HETATM   22  C29 UNL     1      -3.288  50.222 -24.443  1.00  0.00    -0.029 C 
HETATM   23  C30 UNL     1      -1.844  49.717 -24.126  1.00  0.00     0.016 C 
ENDROOT
BRANCH   1  24
HETATM   24  C7  UNL     1      -2.238  51.324 -26.704  1.00  0.00     0.017 C 
BRANCH  24  25
HETATM   25  C6  UNL     1      -2.080  52.748 -27.332  1.00  0.00     0.043 C 
BRANCH  25  26
HETATM   26  C5  UNL     1      -0.709  53.214 -27.856  1.00  0.00     0.141 C 
BRANCH  26  27
HETATM   27  C4  UNL     1       0.428  52.277 -27.546  1.00  0.00     0.006 C 
HETATM   28  C2  UNL     1       1.056  52.128 -26.360  1.00  0.00    -0.089 C 
HETATM   29  C1  UNL     1       0.733  52.906 -25.114  1.00  0.00     0.042 C 
HETATM   30  C3  UNL     1       2.170  51.129 -26.196  1.00  0.00     0.042 C 
ENDBRANCH  26  27
BRANCH  26  31
HETATM   31  O1  UNL     1      -0.391  54.517 -27.386  1.00  0.00    -0.392 OA
HETATM   32  H9  UNL     1      -0.308  54.443 -26.412  1.00  0.00     0.210 HD
ENDBRANCH  26  31
ENDBRANCH  25  26
ENDBRANCH  24  25
BRANCH  24  33
HETATM   33  C8  UNL     1      -2.722  50.293 -27.732  1.00  0.00     0.169 C 
BRANCH  33  34
HETATM   34  O2  UNL     1      -3.365  50.953 -28.821  1.00  0.00    -0.400 OA
HETATM   35  H15 UNL     1      -3.517  50.277 -29.507  1.00  0.00     0.209 HD
ENDBRANCH  33  34
ENDBRANCH  24  33
ENDBRANCH   1  24
TORSDOF 7
ENDMDL
