MODEL 1
REMARK minimizedAffinity -9.87294006
REMARK  6 active torsions:
REMARK  status: ('A' for Active; 'I' for Inactive)
REMARK    1  A    between atoms: C2_2  and  C30_31 
REMARK    2  A    between atoms: C3_3  and  C4_4 
REMARK    3  A    between atoms: C4_4  and  C5_5 
REMARK    4  A    between atoms: C5_5  and  C6_6 
REMARK    5  A    between atoms: C6_6  and  C8_8 
REMARK    6  A    between atoms: C30_31  and  O3_33 
ROOT
HETATM    1  C8  UNL     1      -0.346  50.701 -21.643  1.00  0.00    -0.002 C 
HETATM    2  C9  UNL     1      -0.502  50.667 -20.091  1.00  0.00     0.007 C 
HETATM    3  C10 UNL     1      -1.850  49.981 -19.776  1.00  0.00     0.015 C 
HETATM    4  C11 UNL     1      -2.275  49.342 -21.110  1.00  0.00    -0.013 C 
HETATM    5  C12 UNL     1      -1.480  47.992 -21.217  1.00  0.00     0.021 C 
HETATM    6  C13 UNL     1      -3.745  48.960 -21.312  1.00  0.00    -0.070 C 
HETATM    7  C14 UNL     1      -4.423  48.323 -20.341  1.00  0.00    -0.022 C 
HETATM    8  C15 UNL     1      -5.707  47.596 -20.571  1.00  0.00     0.034 C 
HETATM    9  C16 UNL     1      -5.868  47.175 -22.049  1.00  0.00     0.013 C 
HETATM   10  C17 UNL     1      -7.115  46.252 -22.318  1.00  0.00     0.018 C 
HETATM   11  C18 UNL     1      -6.640  44.780 -22.340  1.00  0.00     0.023 C 
HETATM   12  C19 UNL     1      -8.208  46.373 -21.227  1.00  0.00     0.023 C 
HETATM   13  C20 UNL     1      -7.813  46.479 -23.672  1.00  0.00     0.135 C 
HETATM   14  O1  UNL     1      -8.943  46.019 -23.890  1.00  0.00    -0.297 OA
HETATM   15  C21 UNL     1      -7.122  47.215 -24.789  1.00  0.00     0.080 C 
HETATM   16  C22 UNL     1      -5.802  47.869 -24.437  1.00  0.00     0.017 C 
HETATM   17  C23 UNL     1      -5.714  48.404 -22.994  1.00  0.00    -0.031 C 
HETATM   18  C24 UNL     1      -6.851  49.435 -22.753  1.00  0.00     0.016 C 
HETATM   19  C25 UNL     1      -4.330  49.161 -22.721  1.00  0.00     0.024 C 
HETATM   20  C26 UNL     1      -3.218  48.994 -23.784  1.00  0.00     0.010 C 
HETATM   21  C27 UNL     1      -1.966  49.885 -23.561  1.00  0.00     0.011 C 
HETATM   22  C28 UNL     1      -1.812  50.444 -22.128  1.00  0.00    -0.029 C 
HETATM   23  C29 UNL     1      -2.594  51.792 -21.997  1.00  0.00     0.016 C 
ENDROOT
BRANCH   1  24
HETATM   24  C6  UNL     1       0.426  51.956 -22.140  1.00  0.00    -0.014 C 
HETATM   25  C7  UNL     1       0.520  53.048 -21.069  1.00  0.00     0.010 C 
BRANCH  24  26
HETATM   26  C5  UNL     1      -0.165  52.546 -23.447  1.00  0.00     0.008 C 
BRANCH  26  27
HETATM   27  C4  UNL     1       0.864  53.000 -24.491  1.00  0.00     0.028 C 
BRANCH  27  28
HETATM   28  C3  UNL     1       0.408  52.646 -25.881  1.00  0.00    -0.013 C 
HETATM   29  C2  UNL     1       1.068  51.963 -26.840  1.00  0.00     0.008 C 
HETATM   30  C1  UNL     1       0.434  51.693 -28.177  1.00  0.00     0.055 C 
BRANCH  29  31
HETATM   31  C30 UNL     1       2.461  51.488 -26.661  1.00  0.00     0.171 C 
HETATM   32  O2  UNL     1       2.855  50.597 -25.934  1.00  0.00    -0.646 OA
BRANCH  31  33
HETATM   33  O3  UNL     1       3.324  52.189 -27.418  1.00  0.00    -0.773 OA
HETATM   34  H46 UNL     1       4.187  51.774 -27.215  1.00  0.00     0.167 HD
ENDBRANCH  31  33
ENDBRANCH  29  31
ENDBRANCH  27  28
ENDBRANCH  26  27
ENDBRANCH  24  26
ENDBRANCH   1  24
TORSDOF 6
ENDMDL
MODEL 2
REMARK minimizedAffinity -9.85981369
REMARK  6 active torsions:
REMARK  status: ('A' for Active; 'I' for Inactive)
REMARK    1  A    between atoms: C2_2  and  C30_31 
REMARK    2  A    between atoms: C3_3  and  C4_4 
REMARK    3  A    between atoms: C4_4  and  C5_5 
REMARK    4  A    between atoms: C5_5  and  C6_6 
REMARK    5  A    between atoms: C6_6  and  C8_8 
REMARK    6  A    between atoms: C30_31  and  O3_33 
ROOT
HETATM    1  C8  UNL     1      -1.774  48.676 -18.457  1.00  0.00    -0.002 C 
HETATM    2  C9  UNL     1      -2.852  47.679 -18.984  1.00  0.00     0.007 C 
HETATM    3  C10 UNL     1      -3.092  48.002 -20.476  1.00  0.00     0.015 C 
HETATM    4  C11 UNL     1      -1.927  48.931 -20.858  1.00  0.00    -0.013 C 
HETATM    5  C12 UNL     1      -0.698  47.994 -21.137  1.00  0.00     0.021 C 
HETATM    6  C13 UNL     1      -2.058  49.806 -22.109  1.00  0.00    -0.070 C 
HETATM    7  C14 UNL     1      -2.536  49.289 -23.255  1.00  0.00    -0.022 C 
HETATM    8  C15 UNL     1      -2.359  49.935 -24.589  1.00  0.00     0.034 C 
HETATM    9  C16 UNL     1      -1.146  50.892 -24.603  1.00  0.00     0.013 C 
HETATM   10  C17 UNL     1      -0.803  51.466 -26.030  1.00  0.00     0.018 C 
HETATM   11  C18 UNL     1       0.336  50.614 -26.639  1.00  0.00     0.023 C 
HETATM   12  C19 UNL     1      -2.000  51.414 -27.011  1.00  0.00     0.023 C 
HETATM   13  C20 UNL     1      -0.283  52.915 -26.040  1.00  0.00     0.135 C 
HETATM   14  O1  UNL     1      -0.233  53.565 -27.094  1.00  0.00    -0.297 OA
HETATM   15  C21 UNL     1       0.235  53.565 -24.784  1.00  0.00     0.080 C 
HETATM   16  C22 UNL     1       0.035  52.783 -23.502  1.00  0.00     0.017 C 
HETATM   17  C23 UNL     1      -1.254  51.940 -23.456  1.00  0.00    -0.031 C 
HETATM   18  C24 UNL     1      -2.486  52.863 -23.663  1.00  0.00     0.016 C 
HETATM   19  C25 UNL     1      -1.445  51.215 -22.042  1.00  0.00     0.024 C 
HETATM   20  C26 UNL     1      -0.229  51.217 -21.083  1.00  0.00     0.010 C 
HETATM   21  C27 UNL     1      -0.520  50.660 -19.663  1.00  0.00     0.011 C 
HETATM   22  C28 UNL     1      -1.794  49.794 -19.553  1.00  0.00    -0.029 C 
HETATM   23  C29 UNL     1      -3.033  50.705 -19.271  1.00  0.00     0.016 C 
ENDROOT
BRANCH   1  24
HETATM   24  C6  UNL     1      -1.984  49.050 -16.963  1.00  0.00    -0.014 C 
HETATM   25  C7  UNL     1      -2.612  50.438 -16.789  1.00  0.00     0.010 C 
BRANCH  24  26
HETATM   26  C5  UNL     1      -0.680  48.952 -16.130  1.00  0.00     0.008 C 
BRANCH  26  27
HETATM   27  C4  UNL     1       0.351  50.061 -16.382  1.00  0.00     0.028 C 
BRANCH  27  28
HETATM   28  C3  UNL     1       1.157  50.334 -15.141  1.00  0.00    -0.013 C 
HETATM   29  C2  UNL     1       2.048  51.321 -14.909  1.00  0.00     0.008 C 
HETATM   30  C1  UNL     1       2.750  51.439 -13.585  1.00  0.00     0.055 C 
BRANCH  29  31
HETATM   31  C30 UNL     1       2.426  52.308 -15.948  1.00  0.00     0.171 C 
HETATM   32  O2  UNL     1       3.439  52.328 -16.621  1.00  0.00    -0.646 OA
BRANCH  31  33
HETATM   33  O3  UNL     1       1.490  53.264 -16.088  1.00  0.00    -0.773 OA
HETATM   34  H46 UNL     1       1.855  53.831 -16.797  1.00  0.00     0.167 HD
ENDBRANCH  31  33
ENDBRANCH  29  31
ENDBRANCH  27  28
ENDBRANCH  26  27
ENDBRANCH  24  26
ENDBRANCH   1  24
TORSDOF 6
ENDMDL
MODEL 3
REMARK minimizedAffinity -9.52121544
REMARK  6 active torsions:
REMARK  status: ('A' for Active; 'I' for Inactive)
REMARK    1  A    between atoms: C2_2  and  C30_31 
REMARK    2  A    between atoms: C3_3  and  C4_4 
REMARK    3  A    between atoms: C4_4  and  C5_5 
REMARK    4  A    between atoms: C5_5  and  C6_6 
REMARK    5  A    between atoms: C6_6  and  C8_8 
REMARK    6  A    between atoms: C30_31  and  O3_33 
ROOT
HETATM    1  C8  UNL     1      -0.774  50.229 -21.861  1.00  0.00    -0.002 C 
HETATM    2  C9  UNL     1      -0.870  50.017 -20.318  1.00  0.00     0.007 C 
HETATM    3  C10 UNL     1      -2.218  49.318 -20.030  1.00  0.00     0.015 C 
HETATM    4  C11 UNL     1      -2.706  48.845 -21.410  1.00  0.00    -0.013 C 
HETATM    5  C12 UNL     1      -1.940  47.506 -21.705  1.00  0.00     0.021 C 
HETATM    6  C13 UNL     1      -4.189  48.509 -21.595  1.00  0.00    -0.070 C 
HETATM    7  C14 UNL     1      -4.841  47.773 -20.678  1.00  0.00    -0.022 C 
HETATM    8  C15 UNL     1      -6.146  47.096 -20.938  1.00  0.00     0.034 C 
HETATM    9  C16 UNL     1      -6.371  46.852 -22.447  1.00  0.00     0.013 C 
HETATM   10  C17 UNL     1      -7.646  45.984 -22.770  1.00  0.00     0.018 C 
HETATM   11  C18 UNL     1      -7.198  44.518 -22.981  1.00  0.00     0.023 C 
HETATM   12  C19 UNL     1      -8.693  45.992 -21.628  1.00  0.00     0.023 C 
HETATM   13  C20 UNL     1      -8.391  46.376 -24.059  1.00  0.00     0.135 C 
HETATM   14  O1  UNL     1      -9.537  45.961 -24.283  1.00  0.00    -0.297 OA
HETATM   15  C21 UNL     1      -7.730  47.228 -25.111  1.00  0.00     0.080 C 
HETATM   16  C22 UNL     1      -6.385  47.818 -24.739  1.00  0.00     0.017 C 
HETATM   17  C23 UNL     1      -6.231  48.181 -23.249  1.00  0.00    -0.031 C 
HETATM   18  C24 UNL     1      -7.339  49.191 -22.844  1.00  0.00     0.016 C 
HETATM   19  C25 UNL     1      -4.824  48.880 -22.946  1.00  0.00     0.024 C 
HETATM   20  C26 UNL     1      -3.758  48.823 -24.066  1.00  0.00     0.010 C 
HETATM   21  C27 UNL     1      -2.481  49.664 -23.792  1.00  0.00     0.011 C 
HETATM   22  C28 UNL     1      -2.262  50.051 -22.312  1.00  0.00    -0.029 C 
HETATM   23  C29 UNL     1      -3.013  51.385 -21.995  1.00  0.00     0.016 C 
ENDROOT
BRANCH   1  24
HETATM   24  C6  UNL     1       0.001  51.522 -22.240  1.00  0.00    -0.014 C 
HETATM   25  C7  UNL     1      -0.063  52.588 -21.140  1.00  0.00     0.010 C 
BRANCH  24  26
HETATM   26  C5  UNL     1      -0.463  52.127 -23.590  1.00  0.00     0.008 C 
BRANCH  26  27
HETATM   27  C4  UNL     1       0.575  52.991 -24.319  1.00  0.00     0.028 C 
BRANCH  27  28
HETATM   28  C3  UNL     1       1.010  52.335 -25.602  1.00  0.00    -0.013 C 
HETATM   29  C2  UNL     1       0.644  52.625 -26.869  1.00  0.00     0.008 C 
HETATM   30  C1  UNL     1       1.204  51.857 -28.034  1.00  0.00     0.055 C 
BRANCH  29  31
HETATM   31  C30 UNL     1      -0.360  53.669 -27.185  1.00  0.00     0.171 C 
HETATM   32  O2  UNL     1      -1.486  53.511 -27.616  1.00  0.00    -0.646 OA
BRANCH  31  33
HETATM   33  O3  UNL     1       0.120  54.904 -26.953  1.00  0.00    -0.773 OA
HETATM   34  H46 UNL     1      -0.632  55.484 -27.189  1.00  0.00     0.167 HD
ENDBRANCH  31  33
ENDBRANCH  29  31
ENDBRANCH  27  28
ENDBRANCH  26  27
ENDBRANCH  24  26
ENDBRANCH   1  24
TORSDOF 6
ENDMDL
MODEL 4
REMARK minimizedAffinity -9.41703796
REMARK  6 active torsions:
REMARK  status: ('A' for Active; 'I' for Inactive)
REMARK    1  A    between atoms: C2_2  and  C30_31 
REMARK    2  A    between atoms: C3_3  and  C4_4 
REMARK    3  A    between atoms: C4_4  and  C5_5 
REMARK    4  A    between atoms: C5_5  and  C6_6 
REMARK    5  A    between atoms: C6_6  and  C8_8 
REMARK    6  A    between atoms: C30_31  and  O3_33 
ROOT
HETATM    1  C8  UNL     1      -1.130  52.208 -22.510  1.00  0.00    -0.002 C 
HETATM    2  C9  UNL     1      -0.498  51.733 -23.855  1.00  0.00     0.007 C 
HETATM    3  C10 UNL     1      -1.467  50.708 -24.486  1.00  0.00     0.015 C 
HETATM    4  C11 UNL     1      -2.768  50.865 -23.679  1.00  0.00    -0.013 C 
HETATM    5  C12 UNL     1      -3.506  52.112 -24.285  1.00  0.00     0.021 C 
HETATM    6  C13 UNL     1      -3.799  49.733 -23.710  1.00  0.00    -0.070 C 
HETATM    7  C14 UNL     1      -4.130  49.145 -24.873  1.00  0.00    -0.022 C 
HETATM    8  C15 UNL     1      -5.358  48.316 -25.059  1.00  0.00     0.034 C 
HETATM    9  C16 UNL     1      -6.443  48.661 -24.015  1.00  0.00     0.013 C 
HETATM   10  C17 UNL     1      -7.824  47.947 -24.269  1.00  0.00     0.018 C 
HETATM   11  C18 UNL     1      -8.756  48.933 -25.013  1.00  0.00     0.023 C 
HETATM   12  C19 UNL     1      -7.699  46.674 -25.143  1.00  0.00     0.023 C 
HETATM   13  C20 UNL     1      -8.589  47.537 -22.997  1.00  0.00     0.135 C 
HETATM   14  O1  UNL     1      -9.539  46.744 -23.054  1.00  0.00    -0.297 OA
HETATM   15  C21 UNL     1      -8.245  48.133 -21.657  1.00  0.00     0.080 C 
HETATM   16  C22 UNL     1      -7.000  48.994 -21.614  1.00  0.00     0.017 C 
HETATM   17  C23 UNL     1      -5.875  48.549 -22.569  1.00  0.00    -0.031 C 
HETATM   18  C24 UNL     1      -5.469  47.085 -22.245  1.00  0.00     0.016 C 
HETATM   19  C25 UNL     1      -4.560  49.447 -22.405  1.00  0.00     0.024 C 
HETATM   20  C26 UNL     1      -4.699  50.748 -21.578  1.00  0.00     0.010 C 
HETATM   21  C27 UNL     1      -3.363  51.489 -21.301  1.00  0.00     0.011 C 
HETATM   22  C28 UNL     1      -2.196  51.096 -22.235  1.00  0.00    -0.029 C 
HETATM   23  C29 UNL     1      -1.442  49.857 -21.650  1.00  0.00     0.016 C 
ENDROOT
BRANCH   1  24
HETATM   24  C6  UNL     1      -0.061  52.542 -21.432  1.00  0.00    -0.014 C 
HETATM   25  C7  UNL     1       1.348  52.669 -22.022  1.00  0.00     0.010 C 
BRANCH  24  26
HETATM   26  C5  UNL     1      -0.054  51.526 -20.259  1.00  0.00     0.008 C 
BRANCH  26  27
HETATM   27  C4  UNL     1      -0.218  52.132 -18.859  1.00  0.00     0.028 C 
BRANCH  27  28
HETATM   28  C3  UNL     1      -0.051  51.078 -17.797  1.00  0.00    -0.013 C 
HETATM   29  C2  UNL     1       0.705  51.113 -16.680  1.00  0.00     0.008 C 
HETATM   30  C1  UNL     1       0.730  49.955 -15.722  1.00  0.00     0.055 C 
BRANCH  29  31
HETATM   31  C30 UNL     1       1.589  52.258 -16.356  1.00  0.00     0.171 C 
HETATM   32  O2  UNL     1       2.603  52.602 -16.933  1.00  0.00    -0.646 OA
BRANCH  31  33
HETATM   33  O3  UNL     1       1.152  52.931 -15.276  1.00  0.00    -0.773 OA
HETATM   34  H46 UNL     1       1.808  53.651 -15.181  1.00  0.00     0.167 HD
ENDBRANCH  31  33
ENDBRANCH  29  31
ENDBRANCH  27  28
ENDBRANCH  26  27
ENDBRANCH  24  26
ENDBRANCH   1  24
TORSDOF 6
ENDMDL
MODEL 5
REMARK minimizedAffinity -9.08733463
REMARK  6 active torsions:
REMARK  status: ('A' for Active; 'I' for Inactive)
REMARK    1  A    between atoms: C2_2  and  C30_31 
REMARK    2  A    between atoms: C3_3  and  C4_4 
REMARK    3  A    between atoms: C4_4  and  C5_5 
REMARK    4  A    between atoms: C5_5  and  C6_6 
REMARK    5  A    between atoms: C6_6  and  C8_8 
REMARK    6  A    between atoms: C30_31  and  O3_33 
ROOT
HETATM    1  C8  UNL     1      -6.249  49.437 -21.156  1.00  0.00    -0.002 C 
HETATM    2  C9  UNL     1      -5.204  48.868 -20.146  1.00  0.00     0.007 C 
HETATM    3  C10 UNL     1      -3.800  49.150 -20.725  1.00  0.00     0.015 C 
HETATM    4  C11 UNL     1      -4.050  50.155 -21.863  1.00  0.00    -0.013 C 
HETATM    5  C12 UNL     1      -4.179  51.563 -21.178  1.00  0.00     0.021 C 
HETATM    6  C13 UNL     1      -2.979  50.331 -22.944  1.00  0.00    -0.070 C 
HETATM    7  C14 UNL     1      -1.681  50.439 -22.606  1.00  0.00    -0.022 C 
HETATM    8  C15 UNL     1      -0.631  50.972 -23.524  1.00  0.00     0.034 C 
HETATM    9  C16 UNL     1      -1.237  51.876 -24.621  1.00  0.00     0.013 C 
HETATM   10  C17 UNL     1      -0.162  52.608 -25.510  1.00  0.00     0.018 C 
HETATM   11  C18 UNL     1       0.033  54.041 -24.961  1.00  0.00     0.023 C 
HETATM   12  C19 UNL     1       1.221  51.910 -25.492  1.00  0.00     0.023 C 
HETATM   13  C20 UNL     1      -0.551  52.784 -26.989  1.00  0.00     0.135 C 
HETATM   14  O1  UNL     1       0.297  53.094 -27.837  1.00  0.00    -0.297 OA
HETATM   15  C21 UNL     1      -1.982  52.642 -27.439  1.00  0.00     0.080 C 
HETATM   16  C22 UNL     1      -2.958  52.137 -26.397  1.00  0.00     0.017 C 
HETATM   17  C23 UNL     1      -2.364  51.129 -25.393  1.00  0.00    -0.031 C 
HETATM   18  C24 UNL     1      -1.793  49.906 -26.162  1.00  0.00     0.016 C 
HETATM   19  C25 UNL     1      -3.471  50.570 -24.381  1.00  0.00     0.024 C 
HETATM   20  C26 UNL     1      -4.834  51.304 -24.358  1.00  0.00     0.010 C 
HETATM   21  C27 UNL     1      -5.927  50.618 -23.493  1.00  0.00     0.011 C 
HETATM   22  C28 UNL     1      -5.395  49.604 -22.457  1.00  0.00    -0.029 C 
HETATM   23  C29 UNL     1      -5.261  48.192 -23.115  1.00  0.00     0.016 C 
ENDROOT
BRANCH   1  24
HETATM   24  C6  UNL     1      -7.562  48.605 -21.192  1.00  0.00    -0.014 C 
HETATM   25  C7  UNL     1      -7.861  47.923 -19.852  1.00  0.00     0.010 C 
BRANCH  24  26
HETATM   26  C5  UNL     1      -7.576  47.556 -22.334  1.00  0.00     0.008 C 
BRANCH  26  27
HETATM   27  C4  UNL     1      -8.681  47.737 -23.384  1.00  0.00     0.028 C 
BRANCH  27  28
HETATM   28  C3  UNL     1      -8.146  47.496 -24.770  1.00  0.00    -0.013 C 
HETATM   29  C2  UNL     1      -8.594  47.981 -25.947  1.00  0.00     0.008 C 
HETATM   30  C1  UNL     1      -7.912  47.634 -27.241  1.00  0.00     0.055 C 
BRANCH  29  31
HETATM   31  C30 UNL     1      -9.803  48.833 -26.046  1.00  0.00     0.171 C 
HETATM   32  O2  UNL     1     -10.948  48.479 -26.252  1.00  0.00    -0.646 OA
BRANCH  31  33
HETATM   33  O3  UNL     1      -9.505  50.136 -25.889  1.00  0.00    -0.773 OA
HETATM   34  H46 UNL     1     -10.377  50.575 -25.966  1.00  0.00     0.167 HD
ENDBRANCH  31  33
ENDBRANCH  29  31
ENDBRANCH  27  28
ENDBRANCH  26  27
ENDBRANCH  24  26
ENDBRANCH   1  24
TORSDOF 6
ENDMDL
MODEL 6
REMARK minimizedAffinity -9.01795292
REMARK  6 active torsions:
REMARK  status: ('A' for Active; 'I' for Inactive)
REMARK    1  A    between atoms: C2_2  and  C30_31 
REMARK    2  A    between atoms: C3_3  and  C4_4 
REMARK    3  A    between atoms: C4_4  and  C5_5 
REMARK    4  A    between atoms: C5_5  and  C6_6 
REMARK    5  A    between atoms: C6_6  and  C8_8 
REMARK    6  A    between atoms: C30_31  and  O3_33 
ROOT
HETATM    1  C8  UNL     1      -2.668  50.443 -22.592  1.00  0.00    -0.002 C 
HETATM    2  C9  UNL     1      -3.181  50.500 -21.120  1.00  0.00     0.007 C 
HETATM    3  C10 UNL     1      -4.522  49.735 -21.067  1.00  0.00     0.015 C 
HETATM    4  C11 UNL     1      -4.583  48.977 -22.405  1.00  0.00    -0.013 C 
HETATM    5  C12 UNL     1      -3.706  47.689 -22.215  1.00  0.00     0.021 C 
HETATM    6  C13 UNL     1      -5.939  48.470 -22.907  1.00  0.00    -0.070 C 
HETATM    7  C14 UNL     1      -6.787  47.848 -22.068  1.00  0.00    -0.022 C 
HETATM    8  C15 UNL     1      -7.934  47.010 -22.526  1.00  0.00     0.034 C 
HETATM    9  C16 UNL     1      -7.718  46.481 -23.961  1.00  0.00     0.013 C 
HETATM   10  C17 UNL     1      -8.810  45.448 -24.432  1.00  0.00     0.018 C 
HETATM   11  C18 UNL     1      -8.255  44.019 -24.222  1.00  0.00     0.023 C 
HETATM   12  C19 UNL     1     -10.134  45.556 -23.635  1.00  0.00     0.023 C 
HETATM   13  C20 UNL     1      -9.183  45.529 -25.924  1.00  0.00     0.135 C 
HETATM   14  O1  UNL     1     -10.200  44.969 -26.356  1.00  0.00    -0.297 OA
HETATM   15  C21 UNL     1      -8.294  46.240 -26.910  1.00  0.00     0.080 C 
HETATM   16  C22 UNL     1      -7.135  47.016 -26.319  1.00  0.00     0.017 C 
HETATM   17  C23 UNL     1      -7.421  47.652 -24.944  1.00  0.00    -0.031 C 
HETATM   18  C24 UNL     1      -8.642  48.605 -25.056  1.00  0.00     0.016 C 
HETATM   19  C25 UNL     1      -6.188  48.530 -24.424  1.00  0.00     0.024 C 
HETATM   20  C26 UNL     1      -4.849  48.380 -25.186  1.00  0.00     0.010 C 
HETATM   21  C27 UNL     1      -3.740  49.378 -24.756  1.00  0.00     0.011 C 
HETATM   22  C28 UNL     1      -3.961  50.041 -23.378  1.00  0.00    -0.029 C 
HETATM   23  C29 UNL     1      -4.831  51.330 -23.542  1.00  0.00     0.016 C 
ENDROOT
BRANCH   1  24
HETATM   24  C6  UNL     1      -1.877  51.718 -23.000  1.00  0.00    -0.014 C 
HETATM   25  C7  UNL     1      -2.742  52.724 -23.768  1.00  0.00     0.010 C 
BRANCH  24  26
HETATM   26  C5  UNL     1      -0.595  51.396 -23.811  1.00  0.00     0.008 C 
BRANCH  26  27
HETATM   27  C4  UNL     1      -0.804  51.175 -25.316  1.00  0.00     0.028 C 
BRANCH  27  28
HETATM   28  C3  UNL     1       0.517  51.128 -26.037  1.00  0.00    -0.013 C 
HETATM   29  C2  UNL     1       1.043  52.022 -26.900  1.00  0.00     0.008 C 
HETATM   30  C1  UNL     1       2.398  51.804 -27.514  1.00  0.00     0.055 C 
BRANCH  29  31
HETATM   31  C30 UNL     1       0.308  53.234 -27.333  1.00  0.00     0.171 C 
HETATM   32  O2  UNL     1       0.164  54.275 -26.720  1.00  0.00    -0.646 OA
BRANCH  31  33
HETATM   33  O3  UNL     1      -0.241  53.072 -28.550  1.00  0.00    -0.773 OA
HETATM   34  H46 UNL     1      -0.678  53.932 -28.714  1.00  0.00     0.167 HD
ENDBRANCH  31  33
ENDBRANCH  29  31
ENDBRANCH  27  28
ENDBRANCH  26  27
ENDBRANCH  24  26
ENDBRANCH   1  24
TORSDOF 6
ENDMDL
MODEL 7
REMARK minimizedAffinity -8.95218182
REMARK  6 active torsions:
REMARK  status: ('A' for Active; 'I' for Inactive)
REMARK    1  A    between atoms: C2_2  and  C30_31 
REMARK    2  A    between atoms: C3_3  and  C4_4 
REMARK    3  A    between atoms: C4_4  and  C5_5 
REMARK    4  A    between atoms: C5_5  and  C6_6 
REMARK    5  A    between atoms: C6_6  and  C8_8 
REMARK    6  A    between atoms: C30_31  and  O3_33 
ROOT
HETATM    1  C8  UNL     1      -1.629  51.374 -22.053  1.00  0.00    -0.002 C 
HETATM    2  C9  UNL     1      -2.736  50.296 -22.271  1.00  0.00     0.007 C 
HETATM    3  C10 UNL     1      -2.991  49.612 -20.910  1.00  0.00     0.015 C 
HETATM    4  C11 UNL     1      -2.288  50.522 -19.887  1.00  0.00    -0.013 C 
HETATM    5  C12 UNL     1      -3.278  51.709 -19.609  1.00  0.00     0.021 C 
HETATM    6  C13 UNL     1      -1.943  49.955 -18.506  1.00  0.00    -0.070 C 
HETATM    7  C14 UNL     1      -2.845  49.226 -17.824  1.00  0.00    -0.022 C 
HETATM    8  C15 UNL     1      -2.747  48.952 -16.360  1.00  0.00     0.034 C 
HETATM    9  C16 UNL     1      -1.882  50.009 -15.638  1.00  0.00     0.013 C 
HETATM   10  C17 UNL     1      -1.888  49.875 -14.068  1.00  0.00     0.018 C 
HETATM   11  C18 UNL     1      -2.921  50.874 -13.496  1.00  0.00     0.023 C 
HETATM   12  C19 UNL     1      -2.287  48.460 -13.580  1.00  0.00     0.023 C 
HETATM   13  C20 UNL     1      -0.555  50.222 -13.380  1.00  0.00     0.135 C 
HETATM   14  O1  UNL     1      -0.347  49.906 -12.200  1.00  0.00    -0.297 OA
HETATM   15  C21 UNL     1       0.511  51.006 -14.100  1.00  0.00     0.080 C 
HETATM   16  C22 UNL     1       0.268  51.257 -15.574  1.00  0.00     0.017 C 
HETATM   17  C23 UNL     1      -0.479  50.125 -16.306  1.00  0.00    -0.031 C 
HETATM   18  C24 UNL     1       0.316  48.799 -16.159  1.00  0.00     0.016 C 
HETATM   19  C25 UNL     1      -0.620  50.417 -17.873  1.00  0.00     0.024 C 
HETATM   20  C26 UNL     1      -0.275  51.847 -18.354  1.00  0.00     0.010 C 
HETATM   21  C27 UNL     1      -0.257  52.029 -19.896  1.00  0.00     0.011 C 
HETATM   22  C28 UNL     1      -1.002  50.931 -20.689  1.00  0.00    -0.029 C 
HETATM   23  C29 UNL     1      -0.034  49.738 -20.981  1.00  0.00     0.016 C 
ENDROOT
BRANCH   1  24
HETATM   24  C6  UNL     1      -0.720  51.558 -23.300  1.00  0.00    -0.014 C 
HETATM   25  C7  UNL     1       0.269  52.718 -23.139  1.00  0.00     0.010 C 
BRANCH  24  26
HETATM   26  C5  UNL     1      -1.529  51.732 -24.612  1.00  0.00     0.008 C 
BRANCH  26  27
HETATM   27  C4  UNL     1      -1.182  50.747 -25.737  1.00  0.00     0.028 C 
BRANCH  27  28
HETATM   28  C3  UNL     1       0.273  50.849 -26.107  1.00  0.00    -0.013 C 
HETATM   29  C2  UNL     1       0.908  51.827 -26.787  1.00  0.00     0.008 C 
HETATM   30  C1  UNL     1       2.387  51.757 -27.050  1.00  0.00     0.055 C 
BRANCH  29  31
HETATM   31  C30 UNL     1       0.191  52.992 -27.357  1.00  0.00     0.171 C 
HETATM   32  O2  UNL     1      -0.143  54.012 -26.785  1.00  0.00    -0.646 OA
BRANCH  31  33
HETATM   33  O3  UNL     1      -0.096  52.809 -28.659  1.00  0.00    -0.773 OA
HETATM   34  H46 UNL     1      -0.551  53.640 -28.906  1.00  0.00     0.167 HD
ENDBRANCH  31  33
ENDBRANCH  29  31
ENDBRANCH  27  28
ENDBRANCH  26  27
ENDBRANCH  24  26
ENDBRANCH   1  24
TORSDOF 6
ENDMDL
MODEL 8
REMARK minimizedAffinity -8.93527985
REMARK  6 active torsions:
REMARK  status: ('A' for Active; 'I' for Inactive)
REMARK    1  A    between atoms: C2_2  and  C30_31 
REMARK    2  A    between atoms: C3_3  and  C4_4 
REMARK    3  A    between atoms: C4_4  and  C5_5 
REMARK    4  A    between atoms: C5_5  and  C6_6 
REMARK    5  A    between atoms: C6_6  and  C8_8 
REMARK    6  A    between atoms: C30_31  and  O3_33 
ROOT
HETATM    1  C8  UNL     1      -0.436  50.981 -22.303  1.00  0.00    -0.002 C 
HETATM    2  C9  UNL     1      -0.190  51.745 -20.965  1.00  0.00     0.007 C 
HETATM    3  C10 UNL     1      -1.292  51.309 -19.974  1.00  0.00     0.015 C 
HETATM    4  C11 UNL     1      -1.932  50.074 -20.632  1.00  0.00    -0.013 C 
HETATM    5  C12 UNL     1      -0.988  48.865 -20.297  1.00  0.00     0.021 C 
HETATM    6  C13 UNL     1      -3.327  49.633 -20.178  1.00  0.00    -0.070 C 
HETATM    7  C14 UNL     1      -3.631  49.578 -18.869  1.00  0.00    -0.022 C 
HETATM    8  C15 UNL     1      -4.801  48.827 -18.324  1.00  0.00     0.034 C 
HETATM    9  C16 UNL     1      -5.259  47.708 -19.286  1.00  0.00     0.013 C 
HETATM   10  C17 UNL     1      -6.374  46.769 -18.688  1.00  0.00     0.018 C 
HETATM   11  C18 UNL     1      -5.694  45.497 -18.129  1.00  0.00     0.023 C 
HETATM   12  C19 UNL     1      -7.163  47.425 -17.527  1.00  0.00     0.023 C 
HETATM   13  C20 UNL     1      -7.416  46.266 -19.704  1.00  0.00     0.135 C 
HETATM   14  O1  UNL     1      -8.477  45.752 -19.325  1.00  0.00    -0.297 OA
HETATM   15  C21 UNL     1      -7.151  46.331 -21.186  1.00  0.00     0.080 C 
HETATM   16  C22 UNL     1      -5.904  47.082 -21.604  1.00  0.00     0.017 C 
HETATM   17  C23 UNL     1      -5.542  48.281 -20.706  1.00  0.00    -0.031 C 
HETATM   18  C24 UNL     1      -6.729  49.282 -20.674  1.00  0.00     0.016 C 
HETATM   19  C25 UNL     1      -4.270  49.080 -21.259  1.00  0.00     0.024 C 
HETATM   20  C26 UNL     1      -3.448  48.400 -22.381  1.00  0.00     0.010 C 
HETATM   21  C27 UNL     1      -2.336  49.288 -23.002  1.00  0.00     0.011 C 
HETATM   22  C28 UNL     1      -1.918  50.502 -22.143  1.00  0.00    -0.029 C 
HETATM   23  C29 UNL     1      -2.843  51.722 -22.461  1.00  0.00     0.016 C 
ENDROOT
BRANCH   1  24
HETATM   24  C6  UNL     1      -0.020  51.810 -23.551  1.00  0.00    -0.014 C 
HETATM   25  C7  UNL     1       0.412  53.236 -23.190  1.00  0.00     0.010 C 
BRANCH  24  26
HETATM   26  C5  UNL     1      -1.123  51.851 -24.640  1.00  0.00     0.008 C 
BRANCH  26  27
HETATM   27  C4  UNL     1      -0.936  50.871 -25.806  1.00  0.00     0.028 C 
BRANCH  27  28
HETATM   28  C3  UNL     1       0.483  50.902 -26.308  1.00  0.00    -0.013 C 
HETATM   29  C2  UNL     1       1.123  51.882 -26.979  1.00  0.00     0.008 C 
HETATM   30  C1  UNL     1       2.562  51.732 -27.388  1.00  0.00     0.055 C 
BRANCH  29  31
HETATM   31  C30 UNL     1       0.444  53.132 -27.398  1.00  0.00     0.171 C 
HETATM   32  O2  UNL     1       0.352  54.172 -26.776  1.00  0.00    -0.646 OA
BRANCH  31  33
HETATM   33  O3  UNL     1      -0.120  53.006 -28.613  1.00  0.00    -0.773 OA
HETATM   34  H46 UNL     1      -0.516  53.888 -28.768  1.00  0.00     0.167 HD
ENDBRANCH  31  33
ENDBRANCH  29  31
ENDBRANCH  27  28
ENDBRANCH  26  27
ENDBRANCH  24  26
ENDBRANCH   1  24
TORSDOF 6
ENDMDL
MODEL 9
REMARK minimizedAffinity -8.77573872
REMARK  6 active torsions:
REMARK  status: ('A' for Active; 'I' for Inactive)
REMARK    1  A    between atoms: C2_2  and  C30_31 
REMARK    2  A    between atoms: C3_3  and  C4_4 
REMARK    3  A    between atoms: C4_4  and  C5_5 
REMARK    4  A    between atoms: C5_5  and  C6_6 
REMARK    5  A    between atoms: C6_6  and  C8_8 
REMARK    6  A    between atoms: C30_31  and  O3_33 
ROOT
HETATM    1  C8  UNL     1      -2.112  51.528 -22.322  1.00  0.00    -0.002 C 
HETATM    2  C9  UNL     1      -3.070  52.442 -23.148  1.00  0.00     0.007 C 
HETATM    3  C10 UNL     1      -4.472  51.796 -23.112  1.00  0.00     0.015 C 
HETATM    4  C11 UNL     1      -4.374  50.729 -22.008  1.00  0.00    -0.013 C 
HETATM    5  C12 UNL     1      -4.562  51.493 -20.648  1.00  0.00     0.021 C 
HETATM    6  C13 UNL     1      -5.405  49.596 -21.978  1.00  0.00    -0.070 C 
HETATM    7  C14 UNL     1      -6.712  49.861 -22.149  1.00  0.00    -0.022 C 
HETATM    8  C15 UNL     1      -7.802  48.910 -21.776  1.00  0.00     0.034 C 
HETATM    9  C16 UNL     1      -7.337  47.900 -20.704  1.00  0.00     0.013 C 
HETATM   10  C17 UNL     1      -8.492  46.988 -20.143  1.00  0.00     0.018 C 
HETATM   11  C18 UNL     1      -8.996  47.598 -18.814  1.00  0.00     0.023 C 
HETATM   12  C19 UNL     1      -9.706  46.886 -21.099  1.00  0.00     0.023 C 
HETATM   13  C20 UNL     1      -8.074  45.546 -19.801  1.00  0.00     0.135 C 
HETATM   14  O1  UNL     1      -8.925  44.665 -19.611  1.00  0.00    -0.297 OA
HETATM   15  C21 UNL     1      -6.624  45.176 -19.631  1.00  0.00     0.080 C 
HETATM   16  C22 UNL     1      -5.619  46.247 -19.999  1.00  0.00     0.017 C 
HETATM   17  C23 UNL     1      -6.047  47.159 -21.165  1.00  0.00    -0.031 C 
HETATM   18  C24 UNL     1      -6.324  46.295 -22.425  1.00  0.00     0.016 C 
HETATM   19  C25 UNL     1      -4.901  48.205 -21.557  1.00  0.00     0.024 C 
HETATM   20  C26 UNL     1      -3.715  48.348 -20.573  1.00  0.00     0.010 C 
HETATM   21  C27 UNL     1      -2.550  49.240 -21.083  1.00  0.00     0.011 C 
HETATM   22  C28 UNL     1      -2.919  50.189 -22.245  1.00  0.00    -0.029 C 
HETATM   23  C29 UNL     1      -2.736  49.451 -23.612  1.00  0.00     0.016 C 
ENDROOT
BRANCH   1  24
HETATM   24  C6  UNL     1      -0.660  51.528 -22.876  1.00  0.00    -0.014 C 
HETATM   25  C7  UNL     1       0.387  51.758 -21.780  1.00  0.00     0.010 C 
BRANCH  24  26
HETATM   26  C5  UNL     1      -0.455  52.550 -24.025  1.00  0.00     0.008 C 
BRANCH  26  27
HETATM   27  C4  UNL     1       0.972  52.641 -24.582  1.00  0.00     0.028 C 
BRANCH  27  28
HETATM   28  C3  UNL     1       1.046  52.046 -25.963  1.00  0.00    -0.013 C 
HETATM   29  C2  UNL     1       0.565  52.537 -27.124  1.00  0.00     0.008 C 
HETATM   30  C1  UNL     1       0.752  51.795 -28.418  1.00  0.00     0.055 C 
BRANCH  29  31
HETATM   31  C30 UNL     1      -0.215  53.796 -27.191  1.00  0.00     0.171 C 
HETATM   32  O2  UNL     1       0.154  54.915 -26.891  1.00  0.00    -0.646 OA
BRANCH  31  33
HETATM   33  O3  UNL     1      -1.467  53.580 -27.632  1.00  0.00    -0.773 OA
HETATM   34  H46 UNL     1      -1.860  54.477 -27.637  1.00  0.00     0.167 HD
ENDBRANCH  31  33
ENDBRANCH  29  31
ENDBRANCH  27  28
ENDBRANCH  26  27
ENDBRANCH  24  26
ENDBRANCH   1  24
TORSDOF 6
ENDMDL
