MODEL 1
REMARK minimizedAffinity -9.99291611
REMARK  9 active torsions:
REMARK  status: ('A' for Active; 'I' for Inactive)
REMARK    1  A    between atoms: C3_3  and  C4_4 
REMARK    2  A    between atoms: C3_3  and  C27_30 
REMARK    3  A    between atoms: C4_4  and  C5_5 
REMARK    4  A    between atoms: C5_5  and  C6_6 
REMARK    5  A    between atoms: C6_6  and  C8_8 
REMARK    6  A    between atoms: C15_15  and  O1_16 
REMARK    7  A    between atoms: C18_19  and  C19_20 
REMARK    8  A    between atoms: C19_20  and  O2_21 
REMARK    9  A    between atoms: C22_24  and  O3_25 
ROOT
HETATM    1  C8  UNL     1      -0.755  51.075 -23.750  1.00  0.00     0.001 C 
HETATM    2  C9  UNL     1      -0.084  52.469 -23.812  1.00  0.00     0.006 C 
HETATM    3  C10 UNL     1       0.359  52.803 -22.375  1.00  0.00     0.010 C 
HETATM    4  C11 UNL     1       0.115  51.515 -21.586  1.00  0.00     0.026 C 
HETATM    5  C12 UNL     1       0.063  51.517 -20.074  1.00  0.00    -0.072 C 
HETATM    6  C13 UNL     1      -0.586  50.519 -19.417  1.00  0.00    -0.064 C 
HETATM    7  C14 UNL     1      -1.347  49.432 -20.190  1.00  0.00     0.068 C 
HETATM    8  C15 UNL     1      -1.251  49.478 -21.735  1.00  0.00     0.131 C 
HETATM    9  C16 UNL     1      -1.159  50.928 -22.251  1.00  0.00    -0.006 C 
HETATM   10  C17 UNL     1      -2.441  51.729 -21.912  1.00  0.00     0.019 C 
HETATM   11  C18 UNL     1      -0.656  50.475 -17.859  1.00  0.00     0.009 C 
HETATM   12  C20 UNL     1      -0.539  49.024 -17.285  1.00  0.00     0.019 C 
HETATM   13  C21 UNL     1       0.381  48.846 -16.065  1.00  0.00     0.033 C 
HETATM   14  C22 UNL     1       0.365  50.000 -15.071  1.00  0.00     0.118 C 
HETATM   15  C23 UNL     1       0.556  51.369 -15.731  1.00  0.00     0.037 C 
HETATM   16  C24 UNL     1       0.532  51.306 -17.269  1.00  0.00     0.003 C 
HETATM   17  C25 UNL     1       0.604  52.707 -17.872  1.00  0.00     0.010 C 
HETATM   18  C26 UNL     1       0.813  52.631 -19.383  1.00  0.00     0.035 C 
ENDROOT
BRANCH   1  19
HETATM   19  C6  UNL     1      -1.814  50.770 -24.852  1.00  0.00    -0.013 C 
HETATM   20  C7  UNL     1      -2.516  52.084 -25.242  1.00  0.00     0.010 C 
BRANCH  19  21
HETATM   21  C5  UNL     1      -2.880  49.714 -24.476  1.00  0.00     0.009 C 
BRANCH  21  22
HETATM   22  C4  UNL     1      -2.957  48.473 -25.387  1.00  0.00     0.034 C 
BRANCH  22  23
HETATM   23  C3  UNL     1      -4.211  48.371 -26.241  1.00  0.00    -0.081 C 
HETATM   24  C2  UNL     1      -5.447  48.255 -25.708  1.00  0.00    -0.028 C 
HETATM   25  C1  UNL     1      -5.815  48.157 -24.260  1.00  0.00     0.036 C 
BRANCH  23  26
HETATM   26  C27 UNL     1      -3.981  48.505 -27.750  1.00  0.00     0.006 C 
HETATM   27  C28 UNL     1      -5.182  48.121 -28.625  1.00  0.00     0.014 C 
HETATM   28  C29 UNL     1      -3.513  49.923 -28.097  1.00  0.00     0.014 C 
ENDBRANCH  23  26
ENDBRANCH  22  23
ENDBRANCH  21  22
ENDBRANCH  19  21
ENDBRANCH   1  19
BRANCH   8  29
HETATM   29  O1  UNL     1      -2.344  48.762 -22.306  1.00  0.00    -0.394 OA
HETATM   30  H22 UNL     1      -3.170  49.210 -22.063  1.00  0.00     0.210 HD
ENDBRANCH   8  29
BRANCH  11  31
HETATM   31  C19 UNL     1      -2.064  51.068 -17.513  1.00  0.00     0.178 C 
BRANCH  31  32
HETATM   32  O2  UNL     1      -2.588  51.931 -18.515  1.00  0.00    -0.400 OA
HETATM   33  H28 UNL     1      -3.482  52.189 -18.217  1.00  0.00     0.209 HD
ENDBRANCH  31  32
ENDBRANCH  11  31
BRANCH  14  34
HETATM   34  O3  UNL     1      -0.851  49.974 -14.327  1.00  0.00    -0.396 OA
HETATM   35  H34 UNL     1      -1.553  50.281 -14.940  1.00  0.00     0.210 HD
ENDBRANCH  14  34
TORSDOF 9
ENDMDL
MODEL 2
REMARK minimizedAffinity -9.66735458
REMARK  9 active torsions:
REMARK  status: ('A' for Active; 'I' for Inactive)
REMARK    1  A    between atoms: C3_3  and  C4_4 
REMARK    2  A    between atoms: C3_3  and  C27_30 
REMARK    3  A    between atoms: C4_4  and  C5_5 
REMARK    4  A    between atoms: C5_5  and  C6_6 
REMARK    5  A    between atoms: C6_6  and  C8_8 
REMARK    6  A    between atoms: C15_15  and  O1_16 
REMARK    7  A    between atoms: C18_19  and  C19_20 
REMARK    8  A    between atoms: C19_20  and  O2_21 
REMARK    9  A    between atoms: C22_24  and  O3_25 
ROOT
HETATM    1  C8  UNL     1      -1.067  50.912 -24.408  1.00  0.00     0.001 C 
HETATM    2  C9  UNL     1      -0.341  52.265 -24.611  1.00  0.00     0.006 C 
HETATM    3  C10 UNL     1       0.179  52.693 -23.226  1.00  0.00     0.010 C 
HETATM    4  C11 UNL     1      -0.084  51.485 -22.324  1.00  0.00     0.026 C 
HETATM    5  C12 UNL     1      -0.070  51.611 -20.817  1.00  0.00    -0.072 C 
HETATM    6  C13 UNL     1      -0.731  50.701 -20.053  1.00  0.00    -0.064 C 
HETATM    7  C14 UNL     1      -1.570  49.591 -20.703  1.00  0.00     0.068 C 
HETATM    8  C15 UNL     1      -1.541  49.507 -22.249  1.00  0.00     0.131 C 
HETATM    9  C16 UNL     1      -1.410  50.905 -22.886  1.00  0.00    -0.006 C 
HETATM   10  C17 UNL     1      -2.641  51.789 -22.563  1.00  0.00     0.019 C 
HETATM   11  C18 UNL     1      -0.734  50.786 -18.496  1.00  0.00     0.009 C 
HETATM   12  C20 UNL     1      -0.653  49.382 -17.809  1.00  0.00     0.019 C 
HETATM   13  C21 UNL     1       0.311  49.261 -16.617  1.00  0.00     0.033 C 
HETATM   14  C22 UNL     1       0.388  50.492 -15.722  1.00  0.00     0.118 C 
HETATM   15  C23 UNL     1       0.607  51.793 -16.500  1.00  0.00     0.037 C 
HETATM   16  C24 UNL     1       0.513  51.606 -18.025  1.00  0.00     0.003 C 
HETATM   17  C25 UNL     1       0.618  52.949 -18.744  1.00  0.00     0.010 C 
HETATM   18  C26 UNL     1       0.757  52.742 -20.251  1.00  0.00     0.035 C 
ENDROOT
BRANCH   1  19
HETATM   19  C6  UNL     1      -2.185  50.568 -25.437  1.00  0.00    -0.013 C 
HETATM   20  C7  UNL     1      -3.138  51.772 -25.555  1.00  0.00     0.010 C 
BRANCH  19  21
HETATM   21  C5  UNL     1      -3.007  49.294 -25.125  1.00  0.00     0.009 C 
BRANCH  21  22
HETATM   22  C4  UNL     1      -3.464  48.467 -26.343  1.00  0.00     0.034 C 
BRANCH  22  23
HETATM   23  C3  UNL     1      -4.962  48.220 -26.435  1.00  0.00    -0.081 C 
HETATM   24  C2  UNL     1      -5.599  48.042 -27.612  1.00  0.00    -0.028 C 
HETATM   25  C1  UNL     1      -5.013  48.097 -28.989  1.00  0.00     0.036 C 
BRANCH  23  26
HETATM   26  C27 UNL     1      -5.682  48.095 -25.088  1.00  0.00     0.006 C 
HETATM   27  C28 UNL     1      -5.869  49.415 -24.328  1.00  0.00     0.014 C 
HETATM   28  C29 UNL     1      -7.036  47.400 -25.269  1.00  0.00     0.014 C 
ENDBRANCH  23  26
ENDBRANCH  22  23
ENDBRANCH  21  22
ENDBRANCH  19  21
ENDBRANCH   1  19
BRANCH   8  29
HETATM   29  O1  UNL     1      -2.688  48.798 -22.714  1.00  0.00    -0.394 OA
HETATM   30  H22 UNL     1      -3.482  49.302 -22.476  1.00  0.00     0.210 HD
ENDBRANCH   8  29
BRANCH  11  31
HETATM   31  C19 UNL     1      -2.099  51.469 -18.143  1.00  0.00     0.178 C 
BRANCH  31  32
HETATM   32  O2  UNL     1      -2.961  51.645 -19.261  1.00  0.00    -0.400 OA
HETATM   33  H28 UNL     1      -3.792  52.022 -18.912  1.00  0.00     0.209 HD
ENDBRANCH  31  32
ENDBRANCH  11  31
BRANCH  14  34
HETATM   34  O3  UNL     1      -0.794  50.582 -14.930  1.00  0.00    -0.396 OA
HETATM   35  H34 UNL     1      -1.509  50.870 -15.537  1.00  0.00     0.210 HD
ENDBRANCH  14  34
TORSDOF 9
ENDMDL
MODEL 3
REMARK minimizedAffinity -9.56575966
REMARK  9 active torsions:
REMARK  status: ('A' for Active; 'I' for Inactive)
REMARK    1  A    between atoms: C3_3  and  C4_4 
REMARK    2  A    between atoms: C3_3  and  C27_30 
REMARK    3  A    between atoms: C4_4  and  C5_5 
REMARK    4  A    between atoms: C5_5  and  C6_6 
REMARK    5  A    between atoms: C6_6  and  C8_8 
REMARK    6  A    between atoms: C15_15  and  O1_16 
REMARK    7  A    between atoms: C18_19  and  C19_20 
REMARK    8  A    between atoms: C19_20  and  O2_21 
REMARK    9  A    between atoms: C22_24  and  O3_25 
ROOT
HETATM    1  C8  UNL     1      -0.157  50.422 -18.810  1.00  0.00     0.001 C 
HETATM    2  C9  UNL     1      -0.805  49.091 -18.356  1.00  0.00     0.006 C 
HETATM    3  C10 UNL     1      -1.487  48.492 -19.600  1.00  0.00     0.010 C 
HETATM    4  C11 UNL     1      -1.037  49.387 -20.757  1.00  0.00     0.026 C 
HETATM    5  C12 UNL     1      -1.763  49.382 -22.084  1.00  0.00    -0.072 C 
HETATM    6  C13 UNL     1      -1.668  50.455 -22.913  1.00  0.00    -0.064 C 
HETATM    7  C14 UNL     1      -0.904  51.716 -22.483  1.00  0.00     0.068 C 
HETATM    8  C15 UNL     1      -0.176  51.660 -21.118  1.00  0.00     0.131 C 
HETATM    9  C16 UNL     1      -0.947  50.793 -20.103  1.00  0.00    -0.006 C 
HETATM   10  C17 UNL     1      -2.336  51.400 -19.784  1.00  0.00     0.019 C 
HETATM   11  C18 UNL     1      -2.390  50.488 -24.295  1.00  0.00     0.009 C 
HETATM   12  C20 UNL     1      -1.539  51.181 -25.411  1.00  0.00     0.019 C 
HETATM   13  C21 UNL     1      -1.507  50.479 -26.779  1.00  0.00     0.033 C 
HETATM   14  C22 UNL     1      -2.815  49.818 -27.195  1.00  0.00     0.118 C 
HETATM   15  C23 UNL     1      -3.411  48.918 -26.108  1.00  0.00     0.037 C 
HETATM   16  C24 UNL     1      -2.667  49.022 -24.765  1.00  0.00     0.003 C 
HETATM   17  C25 UNL     1      -3.372  48.201 -23.688  1.00  0.00     0.010 C 
HETATM   18  C26 UNL     1      -2.514  48.117 -22.427  1.00  0.00     0.035 C 
ENDROOT
BRANCH   1  19
HETATM   19  C6  UNL     1       0.038  51.506 -17.707  1.00  0.00    -0.013 C 
HETATM   20  C7  UNL     1       1.133  52.487 -18.164  1.00  0.00     0.010 C 
BRANCH  19  21
HETATM   21  C5  UNL     1       0.391  50.966 -16.300  1.00  0.00     0.009 C 
BRANCH  21  22
HETATM   22  C4  UNL     1       1.150  51.936 -15.373  1.00  0.00     0.034 C 
BRANCH  22  23
HETATM   23  C3  UNL     1       2.405  51.369 -14.729  1.00  0.00    -0.081 C 
HETATM   24  C2  UNL     1       3.646  51.795 -15.052  1.00  0.00    -0.028 C 
HETATM   25  C1  UNL     1       4.025  52.813 -16.082  1.00  0.00     0.036 C 
BRANCH  23  26
HETATM   26  C27 UNL     1       2.158  50.343 -13.618  1.00  0.00     0.006 C 
HETATM   27  C28 UNL     1       3.425  49.736 -13.002  1.00  0.00     0.014 C 
HETATM   28  C29 UNL     1       1.280  50.949 -12.517  1.00  0.00     0.014 C 
ENDBRANCH  23  26
ENDBRANCH  22  23
ENDBRANCH  21  22
ENDBRANCH  19  21
ENDBRANCH   1  19
BRANCH   8  29
HETATM   29  O1  UNL     1       0.057  52.984 -20.642  1.00  0.00    -0.394 OA
HETATM   30  H22 UNL     1      -0.800  53.412 -20.485  1.00  0.00     0.210 HD
ENDBRANCH   8  29
BRANCH  11  31
HETATM   31  C19 UNL     1      -3.695  51.316 -24.036  1.00  0.00     0.178 C 
BRANCH  31  32
HETATM   32  O2  UNL     1      -4.674  51.183 -25.059  1.00  0.00    -0.400 OA
HETATM   33  H28 UNL     1      -5.454  51.692 -24.762  1.00  0.00     0.209 HD
ENDBRANCH  31  32
ENDBRANCH  11  31
BRANCH  14  34
HETATM   34  O3  UNL     1      -3.755  50.818 -27.580  1.00  0.00    -0.396 OA
HETATM   35  H34 UNL     1      -4.052  51.249 -26.750  1.00  0.00     0.210 HD
ENDBRANCH  14  34
TORSDOF 9
ENDMDL
MODEL 4
REMARK minimizedAffinity -9.47866535
REMARK  9 active torsions:
REMARK  status: ('A' for Active; 'I' for Inactive)
REMARK    1  A    between atoms: C3_3  and  C4_4 
REMARK    2  A    between atoms: C3_3  and  C27_30 
REMARK    3  A    between atoms: C4_4  and  C5_5 
REMARK    4  A    between atoms: C5_5  and  C6_6 
REMARK    5  A    between atoms: C6_6  and  C8_8 
REMARK    6  A    between atoms: C15_15  and  O1_16 
REMARK    7  A    between atoms: C18_19  and  C19_20 
REMARK    8  A    between atoms: C19_20  and  O2_21 
REMARK    9  A    between atoms: C22_24  and  O3_25 
ROOT
HETATM    1  C8  UNL     1      -1.228  49.140 -19.172  1.00  0.00     0.001 C 
HETATM    2  C9  UNL     1      -2.269  48.005 -19.334  1.00  0.00     0.006 C 
HETATM    3  C10 UNL     1      -2.643  47.967 -20.828  1.00  0.00     0.010 C 
HETATM    4  C11 UNL     1      -1.663  48.933 -21.497  1.00  0.00     0.026 C 
HETATM    5  C12 UNL     1      -1.918  49.475 -22.886  1.00  0.00    -0.072 C 
HETATM    6  C13 UNL     1      -1.328  50.635 -23.280  1.00  0.00    -0.064 C 
HETATM    7  C14 UNL     1      -0.472  51.454 -22.302  1.00  0.00     0.068 C 
HETATM    8  C15 UNL     1      -0.242  50.845 -20.897  1.00  0.00     0.131 C 
HETATM    9  C16 UNL     1      -1.468  50.038 -20.425  1.00  0.00    -0.006 C 
HETATM   10  C17 UNL     1      -2.711  50.947 -20.260  1.00  0.00     0.019 C 
HETATM   11  C18 UNL     1      -1.554  51.224 -24.706  1.00  0.00     0.009 C 
HETATM   12  C20 UNL     1      -0.262  51.871 -25.309  1.00  0.00     0.019 C 
HETATM   13  C21 UNL     1       0.037  51.548 -26.783  1.00  0.00     0.033 C 
HETATM   14  C22 UNL     1      -1.188  51.445 -27.683  1.00  0.00     0.118 C 
HETATM   15  C23 UNL     1      -2.281  50.537 -27.112  1.00  0.00     0.037 C 
HETATM   16  C24 UNL     1      -1.993  50.075 -25.673  1.00  0.00     0.003 C 
HETATM   17  C25 UNL     1      -3.167  49.275 -25.112  1.00  0.00     0.010 C 
HETATM   18  C26 UNL     1      -2.789  48.627 -23.782  1.00  0.00     0.035 C 
ENDROOT
BRANCH   1  19
HETATM   19  C6  UNL     1      -1.149  49.807 -17.766  1.00  0.00    -0.013 C 
HETATM   20  C7  UNL     1      -1.987  51.099 -17.783  1.00  0.00     0.010 C 
BRANCH  19  21
HETATM   21  C5  UNL     1       0.279  50.131 -17.263  1.00  0.00     0.009 C 
BRANCH  21  22
HETATM   22  C4  UNL     1       0.392  51.273 -16.235  1.00  0.00     0.034 C 
BRANCH  22  23
HETATM   23  C3  UNL     1       1.716  51.347 -15.491  1.00  0.00    -0.081 C 
HETATM   24  C2  UNL     1       2.062  50.462 -14.530  1.00  0.00    -0.028 C 
HETATM   25  C1  UNL     1       1.247  49.326 -13.995  1.00  0.00     0.036 C 
BRANCH  23  26
HETATM   26  C27 UNL     1       2.671  52.444 -15.974  1.00  0.00     0.006 C 
HETATM   27  C28 UNL     1       4.159  52.070 -15.935  1.00  0.00     0.014 C 
HETATM   28  C29 UNL     1       2.285  52.906 -17.384  1.00  0.00     0.014 C 
ENDBRANCH  23  26
ENDBRANCH  22  23
ENDBRANCH  21  22
ENDBRANCH  19  21
ENDBRANCH   1  19
BRANCH   8  29
HETATM   29  O1  UNL     1       0.123  51.876 -19.981  1.00  0.00    -0.394 OA
HETATM   30  H22 UNL     1      -0.620  52.495 -19.899  1.00  0.00     0.210 HD
ENDBRANCH   8  29
BRANCH  11  31
HETATM   31  C19 UNL     1      -2.651  52.325 -24.506  1.00  0.00     0.178 C 
BRANCH  31  32
HETATM   32  O2  UNL     1      -3.260  52.757 -25.717  1.00  0.00    -0.400 OA
HETATM   33  H28 UNL     1      -3.957  53.392 -25.463  1.00  0.00     0.209 HD
ENDBRANCH  31  32
ENDBRANCH  11  31
BRANCH  14  34
HETATM   34  O3  UNL     1      -1.708  52.748 -27.933  1.00  0.00    -0.396 OA
HETATM   35  H34 UNL     1      -2.144  53.034 -27.102  1.00  0.00     0.210 HD
ENDBRANCH  14  34
TORSDOF 9
ENDMDL
MODEL 5
REMARK minimizedAffinity -8.89406109
REMARK  9 active torsions:
REMARK  status: ('A' for Active; 'I' for Inactive)
REMARK    1  A    between atoms: C3_3  and  C4_4 
REMARK    2  A    between atoms: C3_3  and  C27_30 
REMARK    3  A    between atoms: C4_4  and  C5_5 
REMARK    4  A    between atoms: C5_5  and  C6_6 
REMARK    5  A    between atoms: C6_6  and  C8_8 
REMARK    6  A    between atoms: C15_15  and  O1_16 
REMARK    7  A    between atoms: C18_19  and  C19_20 
REMARK    8  A    between atoms: C19_20  and  O2_21 
REMARK    9  A    between atoms: C22_24  and  O3_25 
ROOT
HETATM    1  C8  UNL     1      -1.687  49.050 -19.330  1.00  0.00     0.001 C 
HETATM    2  C9  UNL     1      -2.884  48.096 -19.562  1.00  0.00     0.006 C 
HETATM    3  C10 UNL     1      -3.187  48.136 -21.072  1.00  0.00     0.010 C 
HETATM    4  C11 UNL     1      -2.036  48.943 -21.676  1.00  0.00     0.026 C 
HETATM    5  C12 UNL     1      -2.134  49.535 -23.064  1.00  0.00    -0.072 C 
HETATM    6  C13 UNL     1      -1.351  50.592 -23.408  1.00  0.00    -0.064 C 
HETATM    7  C14 UNL     1      -0.426  51.255 -22.376  1.00  0.00     0.068 C 
HETATM    8  C15 UNL     1      -0.363  50.600 -20.974  1.00  0.00     0.131 C 
HETATM    9  C16 UNL     1      -1.721  49.991 -20.574  1.00  0.00    -0.006 C 
HETATM   10  C17 UNL     1      -2.813  51.082 -20.450  1.00  0.00     0.019 C 
HETATM   11  C18 UNL     1      -1.411  51.227 -24.831  1.00  0.00     0.009 C 
HETATM   12  C20 UNL     1      -0.006  51.669 -25.361  1.00  0.00     0.019 C 
HETATM   13  C21 UNL     1       0.310  51.321 -26.825  1.00  0.00     0.033 C 
HETATM   14  C22 UNL     1      -0.870  51.423 -27.783  1.00  0.00     0.118 C 
HETATM   15  C23 UNL     1      -2.119  50.692 -27.282  1.00  0.00     0.037 C 
HETATM   16  C24 UNL     1      -1.977  50.173 -25.839  1.00  0.00     0.003 C 
HETATM   17  C25 UNL     1      -3.288  49.562 -25.350  1.00  0.00     0.010 C 
HETATM   18  C26 UNL     1      -3.082  48.846 -24.017  1.00  0.00     0.035 C 
ENDROOT
BRANCH   1  19
HETATM   19  C6  UNL     1      -1.573  49.680 -17.909  1.00  0.00    -0.013 C 
HETATM   20  C7  UNL     1      -1.916  51.179 -18.002  1.00  0.00     0.010 C 
BRANCH  19  21
HETATM   21  C5  UNL     1      -0.199  49.513 -17.216  1.00  0.00     0.009 C 
BRANCH  21  22
HETATM   22  C4  UNL     1       0.648  50.792 -17.073  1.00  0.00     0.034 C 
BRANCH  22  23
HETATM   23  C3  UNL     1       1.149  51.085 -15.668  1.00  0.00    -0.081 C 
HETATM   24  C2  UNL     1       2.186  51.916 -15.423  1.00  0.00    -0.028 C 
HETATM   25  C1  UNL     1       3.038  52.637 -16.421  1.00  0.00     0.036 C 
BRANCH  23  26
HETATM   26  C27 UNL     1       0.334  50.442 -14.541  1.00  0.00     0.006 C 
HETATM   27  C28 UNL     1       1.098  49.419 -13.690  1.00  0.00     0.014 C 
HETATM   28  C29 UNL     1      -0.275  51.522 -13.639  1.00  0.00     0.014 C 
ENDBRANCH  23  26
ENDBRANCH  22  23
ENDBRANCH  21  22
ENDBRANCH  19  21
ENDBRANCH   1  19
BRANCH   8  29
HETATM   29  O1  UNL     1       0.114  51.549 -20.021  1.00  0.00    -0.394 OA
HETATM   30  H22 UNL     1      -0.525  52.277 -19.962  1.00  0.00     0.210 HD
ENDBRANCH   8  29
BRANCH  11  31
HETATM   31  C19 UNL     1      -2.330  52.484 -24.661  1.00  0.00     0.178 C 
BRANCH  31  32
HETATM   32  O2  UNL     1      -3.242  52.388 -23.573  1.00  0.00    -0.400 OA
HETATM   33  H28 UNL     1      -3.715  53.242 -23.533  1.00  0.00     0.209 HD
ENDBRANCH  31  32
ENDBRANCH  11  31
BRANCH  14  34
HETATM   34  O3  UNL     1      -1.166  52.795 -28.032  1.00  0.00    -0.396 OA
HETATM   35  H34 UNL     1      -1.592  53.136 -27.216  1.00  0.00     0.210 HD
ENDBRANCH  14  34
TORSDOF 9
ENDMDL
MODEL 6
REMARK minimizedAffinity -8.88343716
REMARK  9 active torsions:
REMARK  status: ('A' for Active; 'I' for Inactive)
REMARK    1  A    between atoms: C3_3  and  C4_4 
REMARK    2  A    between atoms: C3_3  and  C27_30 
REMARK    3  A    between atoms: C4_4  and  C5_5 
REMARK    4  A    between atoms: C5_5  and  C6_6 
REMARK    5  A    between atoms: C6_6  and  C8_8 
REMARK    6  A    between atoms: C15_15  and  O1_16 
REMARK    7  A    between atoms: C18_19  and  C19_20 
REMARK    8  A    between atoms: C19_20  and  O2_21 
REMARK    9  A    between atoms: C22_24  and  O3_25 
ROOT
HETATM    1  C8  UNL     1      -1.145  50.751 -21.968  1.00  0.00     0.001 C 
HETATM    2  C9  UNL     1      -0.575  52.182 -22.126  1.00  0.00     0.006 C 
HETATM    3  C10 UNL     1       0.093  52.536 -20.784  1.00  0.00     0.010 C 
HETATM    4  C11 UNL     1       0.064  51.233 -19.982  1.00  0.00     0.026 C 
HETATM    5  C12 UNL     1       0.276  51.227 -18.484  1.00  0.00    -0.072 C 
HETATM    6  C13 UNL     1      -0.191  50.191 -17.738  1.00  0.00    -0.064 C 
HETATM    7  C14 UNL     1      -1.012  49.064 -18.382  1.00  0.00     0.068 C 
HETATM    8  C15 UNL     1      -1.190  49.121 -19.919  1.00  0.00     0.131 C 
HETATM    9  C16 UNL     1      -1.272  50.576 -20.423  1.00  0.00    -0.006 C 
HETATM   10  C17 UNL     1      -2.518  51.300 -19.855  1.00  0.00     0.019 C 
HETATM   11  C18 UNL     1       0.015  50.138 -16.193  1.00  0.00     0.009 C 
HETATM   12  C20 UNL     1       0.313  48.693 -15.668  1.00  0.00     0.019 C 
HETATM   13  C21 UNL     1       1.440  48.565 -14.629  1.00  0.00     0.033 C 
HETATM   14  C22 UNL     1       1.533  49.713 -13.631  1.00  0.00     0.118 C 
HETATM   15  C23 UNL     1       1.527  51.093 -14.296  1.00  0.00     0.037 C 
HETATM   16  C24 UNL     1       1.239  51.033 -15.807  1.00  0.00     0.003 C 
HETATM   17  C25 UNL     1       1.125  52.438 -16.394  1.00  0.00     0.010 C 
HETATM   18  C26 UNL     1       1.071  52.380 -17.920  1.00  0.00     0.035 C 
ENDROOT
BRANCH   1  19
HETATM   19  C6  UNL     1      -2.360  50.389 -22.873  1.00  0.00    -0.013 C 
HETATM   20  C7  UNL     1      -2.412  48.860 -23.045  1.00  0.00     0.010 C 
BRANCH  19  21
HETATM   21  C5  UNL     1      -2.375  51.061 -24.267  1.00  0.00     0.009 C 
BRANCH  21  22
HETATM   22  C4  UNL     1      -1.003  51.463 -24.841  1.00  0.00     0.034 C 
BRANCH  22  23
HETATM   23  C3  UNL     1      -0.718  50.967 -26.250  1.00  0.00    -0.081 C 
HETATM   24  C2  UNL     1       0.532  50.897 -26.758  1.00  0.00    -0.028 C 
HETATM   25  C1  UNL     1       1.813  51.311 -26.102  1.00  0.00     0.036 C 
BRANCH  23  26
HETATM   26  C27 UNL     1      -1.943  50.466 -27.021  1.00  0.00     0.006 C 
HETATM   27  C28 UNL     1      -2.549  49.158 -26.495  1.00  0.00     0.014 C 
HETATM   28  C29 UNL     1      -3.020  51.554 -27.081  1.00  0.00     0.014 C 
ENDBRANCH  23  26
ENDBRANCH  22  23
ENDBRANCH  21  22
ENDBRANCH  19  21
ENDBRANCH   1  19
BRANCH   8  29
HETATM   29  O1  UNL     1      -2.324  48.344 -20.300  1.00  0.00    -0.394 OA
HETATM   30  H22 UNL     1      -3.118  48.743 -19.911  1.00  0.00     0.210 HD
ENDBRANCH   8  29
BRANCH  11  31
HETATM   31  C19 UNL     1      -1.342  50.647 -15.598  1.00  0.00     0.178 C 
BRANCH  31  32
HETATM   32  O2  UNL     1      -1.914  49.769 -14.635  1.00  0.00    -0.400 OA
HETATM   33  H28 UNL     1      -2.716  50.215 -14.299  1.00  0.00     0.209 HD
ENDBRANCH  31  32
ENDBRANCH  11  31
BRANCH  14  34
HETATM   34  O3  UNL     1       0.468  49.614 -12.688  1.00  0.00    -0.396 OA
HETATM   35  H34 UNL     1      -0.346  49.882 -13.165  1.00  0.00     0.210 HD
ENDBRANCH  14  34
TORSDOF 9
ENDMDL
MODEL 7
REMARK minimizedAffinity -8.84354782
REMARK  9 active torsions:
REMARK  status: ('A' for Active; 'I' for Inactive)
REMARK    1  A    between atoms: C3_3  and  C4_4 
REMARK    2  A    between atoms: C3_3  and  C27_30 
REMARK    3  A    between atoms: C4_4  and  C5_5 
REMARK    4  A    between atoms: C5_5  and  C6_6 
REMARK    5  A    between atoms: C6_6  and  C8_8 
REMARK    6  A    between atoms: C15_15  and  O1_16 
REMARK    7  A    between atoms: C18_19  and  C19_20 
REMARK    8  A    between atoms: C19_20  and  O2_21 
REMARK    9  A    between atoms: C22_24  and  O3_25 
ROOT
HETATM    1  C8  UNL     1      -1.785  52.120 -22.350  1.00  0.00     0.001 C 
HETATM    2  C9  UNL     1      -2.516  52.541 -23.648  1.00  0.00     0.006 C 
HETATM    3  C10 UNL     1      -3.943  51.970 -23.550  1.00  0.00     0.010 C 
HETATM    4  C11 UNL     1      -4.044  51.424 -22.124  1.00  0.00     0.026 C 
HETATM    5  C12 UNL     1      -5.134  50.452 -21.729  1.00  0.00    -0.072 C 
HETATM    6  C13 UNL     1      -4.962  49.641 -20.652  1.00  0.00    -0.064 C 
HETATM    7  C14 UNL     1      -3.636  49.633 -19.877  1.00  0.00     0.068 C 
HETATM    8  C15 UNL     1      -2.560  50.654 -20.323  1.00  0.00     0.131 C 
HETATM    9  C16 UNL     1      -2.611  50.896 -21.845  1.00  0.00    -0.006 C 
HETATM   10  C17 UNL     1      -2.278  49.605 -22.632  1.00  0.00     0.019 C 
HETATM   11  C18 UNL     1      -6.064  48.633 -20.202  1.00  0.00     0.009 C 
HETATM   12  C20 UNL     1      -6.186  48.518 -18.646  1.00  0.00     0.019 C 
HETATM   13  C21 UNL     1      -7.613  48.504 -18.074  1.00  0.00     0.033 C 
HETATM   14  C22 UNL     1      -8.641  47.763 -18.920  1.00  0.00     0.118 C 
HETATM   15  C23 UNL     1      -8.623  48.180 -20.394  1.00  0.00     0.037 C 
HETATM   16  C24 UNL     1      -7.451  49.114 -20.743  1.00  0.00     0.003 C 
HETATM   17  C25 UNL     1      -7.411  49.400 -22.242  1.00  0.00     0.010 C 
HETATM   18  C26 UNL     1      -6.399  50.501 -22.553  1.00  0.00     0.035 C 
ENDROOT
BRANCH   1  19
HETATM   19  C6  UNL     1      -0.234  52.002 -22.438  1.00  0.00    -0.013 C 
HETATM   20  C7  UNL     1       0.392  52.829 -21.301  1.00  0.00     0.010 C 
BRANCH  19  21
HETATM   21  C5  UNL     1       0.390  52.434 -23.787  1.00  0.00     0.009 C 
BRANCH  21  22
HETATM   22  C4  UNL     1      -0.536  52.359 -25.017  1.00  0.00     0.034 C 
BRANCH  22  23
HETATM   23  C3  UNL     1      -0.030  51.490 -26.158  1.00  0.00    -0.081 C 
HETATM   24  C2  UNL     1      -0.722  50.427 -26.624  1.00  0.00    -0.028 C 
HETATM   25  C1  UNL     1      -2.022  49.885 -26.117  1.00  0.00     0.036 C 
BRANCH  23  26
HETATM   26  C27 UNL     1       1.277  51.961 -26.803  1.00  0.00     0.006 C 
HETATM   27  C28 UNL     1       2.531  51.196 -26.361  1.00  0.00     0.014 C 
HETATM   28  C29 UNL     1       1.159  51.933 -28.331  1.00  0.00     0.014 C 
ENDBRANCH  23  26
ENDBRANCH  22  23
ENDBRANCH  21  22
ENDBRANCH  19  21
ENDBRANCH   1  19
BRANCH   8  29
HETATM   29  O1  UNL     1      -1.275  50.223 -19.879  1.00  0.00    -0.394 OA
HETATM   30  H22 UNL     1      -1.062  49.383 -20.314  1.00  0.00     0.210 HD
ENDBRANCH   8  29
BRANCH  11  31
HETATM   31  C19 UNL     1      -5.604  47.259 -20.799  1.00  0.00     0.178 C 
BRANCH  31  32
HETATM   32  O2  UNL     1      -4.882  47.373 -22.019  1.00  0.00    -0.400 OA
HETATM   33  H28 UNL     1      -4.603  46.469 -22.260  1.00  0.00     0.209 HD
ENDBRANCH  31  32
ENDBRANCH  11  31
BRANCH  14  34
HETATM   34  O3  UNL     1      -8.434  46.358 -18.800  1.00  0.00    -0.396 OA
HETATM   35  H34 UNL     1      -7.625  46.154 -19.317  1.00  0.00     0.210 HD
ENDBRANCH  14  34
TORSDOF 9
ENDMDL
MODEL 8
REMARK minimizedAffinity -8.78581524
REMARK  9 active torsions:
REMARK  status: ('A' for Active; 'I' for Inactive)
REMARK    1  A    between atoms: C3_3  and  C4_4 
REMARK    2  A    between atoms: C3_3  and  C27_30 
REMARK    3  A    between atoms: C4_4  and  C5_5 
REMARK    4  A    between atoms: C5_5  and  C6_6 
REMARK    5  A    between atoms: C6_6  and  C8_8 
REMARK    6  A    between atoms: C15_15  and  O1_16 
REMARK    7  A    between atoms: C18_19  and  C19_20 
REMARK    8  A    between atoms: C19_20  and  O2_21 
REMARK    9  A    between atoms: C22_24  and  O3_25 
ROOT
HETATM    1  C8  UNL     1      -1.557  50.041 -23.590  1.00  0.00     0.001 C 
HETATM    2  C9  UNL     1      -1.380  49.572 -22.125  1.00  0.00     0.006 C 
HETATM    3  C10 UNL     1      -2.605  48.699 -21.795  1.00  0.00     0.010 C 
HETATM    4  C11 UNL     1      -3.330  48.530 -23.132  1.00  0.00     0.026 C 
HETATM    5  C12 UNL     1      -4.767  48.062 -23.194  1.00  0.00    -0.072 C 
HETATM    6  C13 UNL     1      -5.527  48.345 -24.286  1.00  0.00    -0.064 C 
HETATM    7  C14 UNL     1      -4.973  49.214 -25.425  1.00  0.00     0.068 C 
HETATM    8  C15 UNL     1      -3.494  49.658 -25.310  1.00  0.00     0.131 C 
HETATM    9  C16 UNL     1      -3.089  49.891 -23.840  1.00  0.00    -0.006 C 
HETATM   10  C17 UNL     1      -3.899  51.051 -23.210  1.00  0.00     0.019 C 
HETATM   11  C18 UNL     1      -7.009  47.873 -24.397  1.00  0.00     0.009 C 
HETATM   12  C20 UNL     1      -7.398  47.424 -25.845  1.00  0.00     0.019 C 
HETATM   13  C21 UNL     1      -8.221  46.130 -25.959  1.00  0.00     0.033 C 
HETATM   14  C22 UNL     1      -9.247  45.918 -24.853  1.00  0.00     0.118 C 
HETATM   15  C23 UNL     1      -8.667  46.100 -23.447  1.00  0.00     0.037 C 
HETATM   16  C24 UNL     1      -7.227  46.643 -23.455  1.00  0.00     0.003 C 
HETATM   17  C25 UNL     1      -6.743  46.919 -22.033  1.00  0.00     0.010 C 
HETATM   18  C26 UNL     1      -5.248  47.234 -22.026  1.00  0.00     0.035 C 
ENDROOT
BRANCH   1  19
HETATM   19  C6  UNL     1      -0.855  51.378 -23.976  1.00  0.00    -0.013 C 
HETATM   20  C7  UNL     1      -0.079  51.168 -25.290  1.00  0.00     0.010 C 
BRANCH  19  21
HETATM   21  C5  UNL     1       0.100  51.961 -22.906  1.00  0.00     0.009 C 
BRANCH  21  22
HETATM   22  C4  UNL     1      -0.569  52.549 -21.649  1.00  0.00     0.034 C 
BRANCH  22  23
HETATM   23  C3  UNL     1       0.353  52.751 -20.457  1.00  0.00    -0.081 C 
HETATM   24  C2  UNL     1       1.344  53.670 -20.451  1.00  0.00    -0.028 C 
HETATM   25  C1  UNL     1       1.749  54.588 -21.563  1.00  0.00     0.036 C 
BRANCH  23  26
HETATM   26  C27 UNL     1       0.019  51.902 -19.226  1.00  0.00     0.006 C 
HETATM   27  C28 UNL     1       0.711  52.341 -17.929  1.00  0.00     0.014 C 
HETATM   28  C29 UNL     1      -1.498  51.841 -19.015  1.00  0.00     0.014 C 
ENDBRANCH  23  26
ENDBRANCH  22  23
ENDBRANCH  21  22
ENDBRANCH  19  21
ENDBRANCH   1  19
BRANCH   8  29
HETATM   29  O1  UNL     1      -3.271  50.804 -26.128  1.00  0.00    -0.394 OA
HETATM   30  H22 UNL     1      -3.811  51.536 -25.790  1.00  0.00     0.210 HD
ENDBRANCH   8  29
BRANCH  11  31
HETATM   31  C19 UNL     1      -7.852  49.128 -23.988  1.00  0.00     0.178 C 
BRANCH  31  32
HETATM   32  O2  UNL     1      -8.797  49.532 -24.972  1.00  0.00    -0.400 OA
HETATM   33  H28 UNL     1      -9.295  50.278 -24.585  1.00  0.00     0.209 HD
ENDBRANCH  31  32
ENDBRANCH  11  31
BRANCH  14  34
HETATM   34  O3  UNL     1     -10.352  46.797 -25.051  1.00  0.00    -0.396 OA
HETATM   35  H34 UNL     1     -10.036  47.693 -24.806  1.00  0.00     0.210 HD
ENDBRANCH  14  34
TORSDOF 9
ENDMDL
MODEL 9
REMARK minimizedAffinity -8.76816654
REMARK  9 active torsions:
REMARK  status: ('A' for Active; 'I' for Inactive)
REMARK    1  A    between atoms: C3_3  and  C4_4 
REMARK    2  A    between atoms: C3_3  and  C27_30 
REMARK    3  A    between atoms: C4_4  and  C5_5 
REMARK    4  A    between atoms: C5_5  and  C6_6 
REMARK    5  A    between atoms: C6_6  and  C8_8 
REMARK    6  A    between atoms: C15_15  and  O1_16 
REMARK    7  A    between atoms: C18_19  and  C19_20 
REMARK    8  A    between atoms: C19_20  and  O2_21 
REMARK    9  A    between atoms: C22_24  and  O3_25 
ROOT
HETATM    1  C8  UNL     1       0.237  50.547 -17.948  1.00  0.00     0.001 C 
HETATM    2  C9  UNL     1      -0.410  49.144 -17.843  1.00  0.00     0.006 C 
HETATM    3  C10 UNL     1      -0.990  48.826 -19.234  1.00  0.00     0.010 C 
HETATM    4  C11 UNL     1      -0.482  49.956 -20.132  1.00  0.00     0.026 C 
HETATM    5  C12 UNL     1      -1.114  50.236 -21.478  1.00  0.00    -0.072 C 
HETATM    6  C13 UNL     1      -0.988  51.466 -22.044  1.00  0.00    -0.064 C 
HETATM    7  C14 UNL     1      -0.284  52.608 -21.296  1.00  0.00     0.068 C 
HETATM    8  C15 UNL     1       0.349  52.259 -19.927  1.00  0.00     0.131 C 
HETATM    9  C16 UNL     1      -0.470  51.185 -19.184  1.00  0.00    -0.006 C 
HETATM   10  C17 UNL     1      -1.891  51.698 -18.841  1.00  0.00     0.019 C 
HETATM   11  C18 UNL     1      -1.614  51.794 -23.434  1.00  0.00     0.009 C 
HETATM   12  C20 UNL     1      -0.703  52.721 -24.308  1.00  0.00     0.019 C 
HETATM   13  C21 UNL     1      -0.561  52.335 -25.790  1.00  0.00     0.033 C 
HETATM   14  C22 UNL     1      -1.821  51.772 -26.434  1.00  0.00     0.118 C 
HETATM   15  C23 UNL     1      -2.470  50.651 -25.614  1.00  0.00     0.037 C 
HETATM   16  C24 UNL     1      -1.823  50.464 -24.231  1.00  0.00     0.003 C 
HETATM   17  C25 UNL     1      -2.582  49.422 -23.412  1.00  0.00     0.010 C 
HETATM   18  C26 UNL     1      -1.810  49.071 -22.142  1.00  0.00     0.035 C 
ENDROOT
BRANCH   1  19
HETATM   19  C6  UNL     1       0.330  51.364 -16.625  1.00  0.00    -0.013 C 
HETATM   20  C7  UNL     1       1.427  52.434 -16.779  1.00  0.00     0.010 C 
BRANCH  19  21
HETATM   21  C5  UNL     1       0.604  50.534 -15.348  1.00  0.00     0.009 C 
BRANCH  21  22
HETATM   22  C4  UNL     1      -0.637  49.973 -14.625  1.00  0.00     0.034 C 
BRANCH  22  23
HETATM   23  C3  UNL     1      -1.610  51.018 -14.102  1.00  0.00    -0.081 C 
HETATM   24  C2  UNL     1      -2.782  51.292 -14.714  1.00  0.00    -0.028 C 
HETATM   25  C1  UNL     1      -3.314  50.701 -15.983  1.00  0.00     0.036 C 
BRANCH  23  26
HETATM   26  C27 UNL     1      -1.208  51.672 -12.775  1.00  0.00     0.006 C 
HETATM   27  C28 UNL     1      -0.078  52.705 -12.879  1.00  0.00     0.014 C 
HETATM   28  C29 UNL     1      -2.431  52.300 -12.097  1.00  0.00     0.014 C 
ENDBRANCH  23  26
ENDBRANCH  22  23
ENDBRANCH  21  22
ENDBRANCH  19  21
ENDBRANCH   1  19
BRANCH   8  29
HETATM   29  O1  UNL     1       0.517  53.449 -19.158  1.00  0.00    -0.394 OA
HETATM   30  H22 UNL     1      -0.358  53.826 -18.975  1.00  0.00     0.210 HD
ENDBRANCH   8  29
BRANCH  11  31
HETATM   31  C19 UNL     1      -2.952  52.536 -23.096  1.00  0.00     0.178 C 
BRANCH  31  32
HETATM   32  O2  UNL     1      -4.011  52.254 -24.003  1.00  0.00    -0.400 OA
HETATM   33  H28 UNL     1      -4.798  52.721 -23.661  1.00  0.00     0.209 HD
ENDBRANCH  31  32
ENDBRANCH  11  31
BRANCH  14  34
HETATM   34  O3  UNL     1      -2.755  52.825 -26.659  1.00  0.00    -0.396 OA
HETATM   35  H34 UNL     1      -3.119  53.062 -25.778  1.00  0.00     0.210 HD
ENDBRANCH  14  34
TORSDOF 9
ENDMDL
