MODEL 1
REMARK minimizedAffinity -7.0618248
REMARK CNNscore 0.552942216
REMARK CNNaffinity 6.47775269
REMARK  18 active torsions:
REMARK  status: ('A' for Active; 'I' for Inactive)
REMARK    1  A    between atoms: C4_4  and  C5_5 
REMARK    2  A    between atoms: C5_5  and  C6_6 
REMARK    3  A    between atoms: C6_6  and  C7_7 
REMARK    4  A    between atoms: C9_9  and  C10_10 
REMARK    5  A    between atoms: C10_10  and  O1_11 
REMARK    6  A    between atoms: C10_10  and  C11_12 
REMARK    7  A    between atoms: C11_12  and  C12_13 
REMARK    8  A    between atoms: C14_15  and  C15_16 
REMARK    9  A    between atoms: C15_16  and  C16_17 
REMARK   10  A    between atoms: C16_17  and  C17_18 
REMARK   11  A    between atoms: C17_18  and  C18_19 
REMARK   12  A    between atoms: C18_19  and  O2_20 
REMARK   13  A    between atoms: C19_21  and  C20_22 
REMARK   14  A    between atoms: C20_22  and  C21_23 
REMARK   15  A    between atoms: C21_23  and  C22_24 
REMARK   16  A    between atoms: C22_24  and  O3_25 
REMARK   17  A    between atoms: C24_27  and  C26_29 
REMARK   18  A    between atoms: C29_33  and  O5_35 
ROOT
HETATM    1  C17 UNL     1      -5.889  47.695 -30.084  1.00  0.00     0.019 C 
HETATM    2  C19 UNL     1      -5.554  46.602 -31.219  1.00  0.00     0.029 C 
HETATM    3  C23 UNL     1      -6.791  46.171 -32.030  1.00  0.00    -0.066 C 
HETATM    4  C24 UNL     1      -7.119  44.900 -32.390  1.00  0.00    -0.021 C 
HETATM    5  C25 UNL     1      -8.350  44.531 -33.183  1.00  0.00     0.052 C 
HETATM    6  C27 UNL     1      -7.737  47.321 -32.272  1.00  0.00     0.038 C 
HETATM    7  C28 UNL     1      -8.316  47.835 -30.950  1.00  0.00     0.042 C 
HETATM    8  C29 UNL     1      -7.425  47.600 -29.698  1.00  0.00     0.065 C 
HETATM    9  C30 UNL     1      -7.836  46.295 -28.995  1.00  0.00     0.047 C 
ENDROOT
BRANCH   1  10
HETATM   10  C16 UNL     1      -4.943  47.533 -28.824  1.00  0.00     0.019 C 
BRANCH  10  11
HETATM   11  C15 UNL     1      -4.457  48.791 -28.086  1.00  0.00     0.028 C 
BRANCH  11  12
HETATM   12  C14 UNL     1      -4.051  48.462 -26.673  1.00  0.00    -0.024 C 
HETATM   13  C12 UNL     1      -3.133  49.080 -25.903  1.00  0.00    -0.085 C 
HETATM   14  C13 UNL     1      -2.268  50.228 -26.350  1.00  0.00     0.043 C 
BRANCH  13  15
HETATM   15  C11 UNL     1      -2.902  48.616 -24.469  1.00  0.00     0.069 C 
BRANCH  15  16
HETATM   16  C10 UNL     1      -3.049  49.734 -23.412  1.00  0.00     0.145 C 
BRANCH  16  17
HETATM   17  C9  UNL     1      -2.287  49.393 -22.158  1.00  0.00     0.007 C 
HETATM   18  C7  UNL     1      -2.316  48.243 -21.454  1.00  0.00    -0.085 C 
HETATM   19  C8  UNL     1      -3.213  47.079 -21.799  1.00  0.00     0.043 C 
BRANCH  18  20
HETATM   20  C6  UNL     1      -1.465  47.985 -20.213  1.00  0.00     0.037 C 
BRANCH  20  21
HETATM   21  C5  UNL     1      -1.737  48.786 -18.928  1.00  0.00     0.031 C 
BRANCH  21  22
HETATM   22  C4  UNL     1      -1.118  50.161 -18.953  1.00  0.00    -0.024 C 
HETATM   23  C2  UNL     1      -0.198  50.676 -18.112  1.00  0.00    -0.091 C 
HETATM   24  C1  UNL     1       0.437  49.950 -16.959  1.00  0.00     0.042 C 
HETATM   25  C3  UNL     1       0.294  52.089 -18.294  1.00  0.00     0.042 C 
ENDBRANCH  21  22
ENDBRANCH  20  21
ENDBRANCH  18  20
ENDBRANCH  16  17
BRANCH  16  26
HETATM   26  O1  UNL     1      -4.410  49.910 -23.011  1.00  0.00    -0.391 OA
HETATM   27  H17 UNL     1      -4.931  49.172 -23.373  1.00  0.00     0.210 HD
ENDBRANCH  16  26
ENDBRANCH  15  16
ENDBRANCH  13  15
ENDBRANCH  11  12
ENDBRANCH  10  11
ENDBRANCH   1  10
BRANCH   1  28
HETATM   28  C18 UNL     1      -5.604  49.166 -30.590  1.00  0.00     0.177 C 
BRANCH  28  29
HETATM   29  O2  UNL     1      -4.315  49.641 -30.214  1.00  0.00    -0.400 OA
HETATM   30  H30 UNL     1      -4.250  49.520 -29.242  1.00  0.00     0.209 HD
ENDBRANCH  28  29
ENDBRANCH   1  28
BRANCH   2  31
HETATM   31  C20 UNL     1      -4.361  47.040 -32.116  1.00  0.00     0.012 C 
BRANCH  31  32
HETATM   32  C21 UNL     1      -4.530  46.884 -33.629  1.00  0.00     0.027 C 
BRANCH  32  33
HETATM   33  C22 UNL     1      -4.797  48.189 -34.366  1.00  0.00     0.164 C 
BRANCH  33  34
HETATM   34  O3  UNL     1      -5.868  47.973 -35.274  1.00  0.00    -0.401 OA
HETATM   35  H38 UNL     1      -6.027  48.812 -35.741  1.00  0.00     0.209 HD
ENDBRANCH  33  34
ENDBRANCH  32  33
ENDBRANCH  31  32
ENDBRANCH   2  31
BRANCH   8  36
HETATM   36  O5  UNL     1      -7.778  48.661 -28.785  1.00  0.00    -0.389 OA
HETATM   37  H50 UNL     1      -7.528  48.390 -27.882  1.00  0.00     0.210 HD
ENDBRANCH   8  36
BRANCH   4  38
HETATM   38  C26 UNL     1      -6.294  43.704 -32.012  1.00  0.00     0.265 C 
HETATM   39  O4  UNL     1      -6.644  42.899 -31.155  1.00  0.00    -0.302 OA
ENDBRANCH   4  38
TORSDOF 18
ENDMDL
MODEL 2
REMARK minimizedAffinity -6.42844343
REMARK CNNscore 0.52381134
REMARK CNNaffinity 6.50794411
REMARK  18 active torsions:
REMARK  status: ('A' for Active; 'I' for Inactive)
REMARK    1  A    between atoms: C4_4  and  C5_5 
REMARK    2  A    between atoms: C5_5  and  C6_6 
REMARK    3  A    between atoms: C6_6  and  C7_7 
REMARK    4  A    between atoms: C9_9  and  C10_10 
REMARK    5  A    between atoms: C10_10  and  O1_11 
REMARK    6  A    between atoms: C10_10  and  C11_12 
REMARK    7  A    between atoms: C11_12  and  C12_13 
REMARK    8  A    between atoms: C14_15  and  C15_16 
REMARK    9  A    between atoms: C15_16  and  C16_17 
REMARK   10  A    between atoms: C16_17  and  C17_18 
REMARK   11  A    between atoms: C17_18  and  C18_19 
REMARK   12  A    between atoms: C18_19  and  O2_20 
REMARK   13  A    between atoms: C19_21  and  C20_22 
REMARK   14  A    between atoms: C20_22  and  C21_23 
REMARK   15  A    between atoms: C21_23  and  C22_24 
REMARK   16  A    between atoms: C22_24  and  O3_25 
REMARK   17  A    between atoms: C24_27  and  C26_29 
REMARK   18  A    between atoms: C29_33  and  O5_35 
ROOT
HETATM    1  C17 UNL     1       3.449  55.197  -9.134  1.00  0.00     0.019 C 
HETATM    2  C19 UNL     1       4.035  56.071  -7.914  1.00  0.00     0.029 C 
HETATM    3  C23 UNL     1       5.533  55.822  -7.654  1.00  0.00    -0.066 C 
HETATM    4  C24 UNL     1       6.128  55.659  -6.440  1.00  0.00    -0.021 C 
HETATM    5  C25 UNL     1       7.604  55.412  -6.243  1.00  0.00     0.052 C 
HETATM    6  C27 UNL     1       6.301  55.609  -8.936  1.00  0.00     0.038 C 
HETATM    7  C28 UNL     1       5.828  54.337  -9.647  1.00  0.00     0.042 C 
HETATM    8  C29 UNL     1       4.361  53.917  -9.351  1.00  0.00     0.065 C 
HETATM    9  C30 UNL     1       4.327  52.894  -8.201  1.00  0.00     0.047 C 
ENDROOT
BRANCH   1  10
HETATM   10  C16 UNL     1       1.930  54.818  -8.900  1.00  0.00     0.019 C 
BRANCH  10  11
HETATM   11  C15 UNL     1       0.879  55.263  -9.932  1.00  0.00     0.028 C 
BRANCH  11  12
HETATM   12  C14 UNL     1       0.691  54.212 -10.994  1.00  0.00    -0.024 C 
HETATM   13  C12 UNL     1      -0.447  53.584 -11.354  1.00  0.00    -0.085 C 
HETATM   14  C13 UNL     1      -1.785  53.783 -10.695  1.00  0.00     0.043 C 
BRANCH  13  15
HETATM   15  C11 UNL     1      -0.433  52.575 -12.498  1.00  0.00     0.069 C 
BRANCH  15  16
HETATM   16  C10 UNL     1       0.932  51.886 -12.717  1.00  0.00     0.145 C 
BRANCH  16  17
HETATM   17  C9  UNL     1       1.276  51.824 -14.182  1.00  0.00     0.007 C 
HETATM   18  C7  UNL     1       0.658  51.121 -15.153  1.00  0.00    -0.085 C 
HETATM   19  C8  UNL     1      -0.500  50.188 -14.894  1.00  0.00     0.043 C 
BRANCH  18  20
HETATM   20  C6  UNL     1       1.064  51.164 -16.623  1.00  0.00     0.037 C 
BRANCH  20  21
HETATM   21  C5  UNL     1       0.028  51.576 -17.684  1.00  0.00     0.031 C 
BRANCH  21  22
HETATM   22  C4  UNL     1       0.512  52.697 -18.569  1.00  0.00    -0.024 C 
HETATM   23  C2  UNL     1       0.528  52.746 -19.916  1.00  0.00    -0.091 C 
HETATM   24  C1  UNL     1       0.023  51.671 -20.838  1.00  0.00     0.042 C 
HETATM   25  C3  UNL     1       1.067  53.961 -20.628  1.00  0.00     0.042 C 
ENDBRANCH  21  22
ENDBRANCH  20  21
ENDBRANCH  18  20
ENDBRANCH  16  17
BRANCH  16  26
HETATM   26  O1  UNL     1       0.924  50.534 -12.255  1.00  0.00    -0.391 OA
HETATM   27  H17 UNL     1       0.005  50.288 -12.052  1.00  0.00     0.210 HD
ENDBRANCH  16  26
ENDBRANCH  15  16
ENDBRANCH  13  15
ENDBRANCH  11  12
ENDBRANCH  10  11
ENDBRANCH   1  10
BRANCH   1  28
HETATM   28  C18 UNL     1       3.435  56.019 -10.485  1.00  0.00     0.177 C 
BRANCH  28  29
HETATM   29  O2  UNL     1       4.015  55.304 -11.573  1.00  0.00    -0.400 OA
HETATM   30  H30 UNL     1       4.906  55.020 -11.273  1.00  0.00     0.209 HD
ENDBRANCH  28  29
ENDBRANCH   1  28
BRANCH   2  31
HETATM   31  C20 UNL     1       3.684  57.579  -8.056  1.00  0.00     0.012 C 
BRANCH  31  32
HETATM   32  C21 UNL     1       2.841  58.208  -6.944  1.00  0.00     0.027 C 
BRANCH  32  33
HETATM   33  C22 UNL     1       1.932  57.227  -6.217  1.00  0.00     0.164 C 
BRANCH  33  34
HETATM   34  O3  UNL     1       2.405  57.089  -4.885  1.00  0.00    -0.401 OA
HETATM   35  H38 UNL     1       1.820  56.457  -4.432  1.00  0.00     0.209 HD
ENDBRANCH  33  34
ENDBRANCH  32  33
ENDBRANCH  31  32
ENDBRANCH   2  31
BRANCH   8  36
HETATM   36  O5  UNL     1       3.937  53.193 -10.526  1.00  0.00    -0.389 OA
HETATM   37  H50 UNL     1       3.183  52.623 -10.285  1.00  0.00     0.210 HD
ENDBRANCH   8  36
BRANCH   4  38
HETATM   38  C26 UNL     1       5.366  55.685  -5.147  1.00  0.00     0.265 C 
HETATM   39  O4  UNL     1       4.602  54.788  -4.808  1.00  0.00    -0.302 OA
ENDBRANCH   4  38
TORSDOF 18
ENDMDL
MODEL 3
REMARK minimizedAffinity -7.92847824
REMARK CNNscore 0.455728859
REMARK CNNaffinity 6.53138924
REMARK  18 active torsions:
REMARK  status: ('A' for Active; 'I' for Inactive)
REMARK    1  A    between atoms: C4_4  and  C5_5 
REMARK    2  A    between atoms: C5_5  and  C6_6 
REMARK    3  A    between atoms: C6_6  and  C7_7 
REMARK    4  A    between atoms: C9_9  and  C10_10 
REMARK    5  A    between atoms: C10_10  and  O1_11 
REMARK    6  A    between atoms: C10_10  and  C11_12 
REMARK    7  A    between atoms: C11_12  and  C12_13 
REMARK    8  A    between atoms: C14_15  and  C15_16 
REMARK    9  A    between atoms: C15_16  and  C16_17 
REMARK   10  A    between atoms: C16_17  and  C17_18 
REMARK   11  A    between atoms: C17_18  and  C18_19 
REMARK   12  A    between atoms: C18_19  and  O2_20 
REMARK   13  A    between atoms: C19_21  and  C20_22 
REMARK   14  A    between atoms: C20_22  and  C21_23 
REMARK   15  A    between atoms: C21_23  and  C22_24 
REMARK   16  A    between atoms: C22_24  and  O3_25 
REMARK   17  A    between atoms: C24_27  and  C26_29 
REMARK   18  A    between atoms: C29_33  and  O5_35 
ROOT
HETATM    1  C17 UNL     1      -7.632  46.906 -30.144  1.00  0.00     0.019 C 
HETATM    2  C19 UNL     1      -8.655  46.605 -28.936  1.00  0.00     0.029 C 
HETATM    3  C23 UNL     1     -10.126  46.880 -29.304  1.00  0.00    -0.066 C 
HETATM    4  C24 UNL     1     -11.048  47.515 -28.529  1.00  0.00    -0.021 C 
HETATM    5  C25 UNL     1     -12.479  47.764 -28.941  1.00  0.00     0.052 C 
HETATM    6  C27 UNL     1     -10.431  46.503 -30.733  1.00  0.00     0.038 C 
HETATM    7  C28 UNL     1      -9.632  47.376 -31.707  1.00  0.00     0.042 C 
HETATM    8  C29 UNL     1      -8.295  47.939 -31.150  1.00  0.00     0.065 C 
HETATM    9  C30 UNL     1      -8.514  49.351 -30.578  1.00  0.00     0.047 C 
ENDROOT
BRANCH   1  10
HETATM   10  C16 UNL     1      -6.230  47.408 -29.607  1.00  0.00     0.019 C 
BRANCH  10  11
HETATM   11  C15 UNL     1      -6.075  47.740 -28.113  1.00  0.00     0.028 C 
BRANCH  11  12
HETATM   12  C14 UNL     1      -4.659  48.144 -27.796  1.00  0.00    -0.024 C 
HETATM   13  C12 UNL     1      -4.121  48.427 -26.592  1.00  0.00    -0.085 C 
HETATM   14  C13 UNL     1      -4.882  48.448 -25.294  1.00  0.00     0.043 C 
BRANCH  13  15
HETATM   15  C11 UNL     1      -2.640  48.772 -26.480  1.00  0.00     0.069 C 
BRANCH  15  16
HETATM   16  C10 UNL     1      -2.301  50.230 -26.861  1.00  0.00     0.145 C 
BRANCH  16  17
HETATM   17  C9  UNL     1      -1.175  50.761 -26.012  1.00  0.00     0.007 C 
HETATM   18  C7  UNL     1      -0.037  51.359 -26.419  1.00  0.00    -0.085 C 
HETATM   19  C8  UNL     1       0.332  51.543 -27.871  1.00  0.00     0.043 C 
BRANCH  18  20
HETATM   20  C6  UNL     1       1.025  51.902 -25.467  1.00  0.00     0.037 C 
BRANCH  20  21
HETATM   21  C5  UNL     1       0.634  52.961 -24.420  1.00  0.00     0.031 C 
BRANCH  21  22
HETATM   22  C4  UNL     1       0.351  52.365 -23.064  1.00  0.00    -0.024 C 
HETATM   23  C2  UNL     1       0.707  52.841 -21.854  1.00  0.00    -0.091 C 
HETATM   24  C1  UNL     1       1.459  54.118 -21.603  1.00  0.00     0.042 C 
HETATM   25  C3  UNL     1       0.338  52.089 -20.600  1.00  0.00     0.042 C 
ENDBRANCH  21  22
ENDBRANCH  20  21
ENDBRANCH  18  20
ENDBRANCH  16  17
BRANCH  16  26
HETATM   26  O1  UNL     1      -3.407  51.108 -26.641  1.00  0.00    -0.391 OA
HETATM   27  H17 UNL     1      -4.086  50.621 -26.142  1.00  0.00     0.210 HD
ENDBRANCH  16  26
ENDBRANCH  15  16
ENDBRANCH  13  15
ENDBRANCH  11  12
ENDBRANCH  10  11
ENDBRANCH   1  10
BRANCH   1  28
HETATM   28  C18 UNL     1      -7.284  45.593 -30.954  1.00  0.00     0.177 C 
BRANCH  28  29
HETATM   29  O2  UNL     1      -8.180  44.520 -30.676  1.00  0.00    -0.400 OA
HETATM   30  H30 UNL     1      -8.186  44.412 -29.701  1.00  0.00     0.209 HD
ENDBRANCH  28  29
ENDBRANCH   1  28
BRANCH   2  31
HETATM   31  C20 UNL     1      -8.435  45.192 -28.325  1.00  0.00     0.012 C 
BRANCH  31  32
HETATM   32  C21 UNL     1      -8.042  45.123 -26.847  1.00  0.00     0.027 C 
BRANCH  32  33
HETATM   33  C22 UNL     1      -8.693  46.189 -25.977  1.00  0.00     0.164 C 
BRANCH  33  34
HETATM   34  O3  UNL     1      -7.706  46.704 -25.094  1.00  0.00    -0.401 OA
HETATM   35  H38 UNL     1      -8.134  47.381 -24.541  1.00  0.00     0.209 HD
ENDBRANCH  33  34
ENDBRANCH  32  33
ENDBRANCH  31  32
ENDBRANCH   2  31
BRANCH   8  36
HETATM   36  O5  UNL     1      -7.454  48.117 -32.311  1.00  0.00    -0.389 OA
HETATM   37  H50 UNL     1      -6.758  48.765 -32.094  1.00  0.00     0.210 HD
ENDBRANCH   8  36
BRANCH   4  38
HETATM   38  C26 UNL     1     -10.733  48.066 -27.169  1.00  0.00     0.265 C 
HETATM   39  O4  UNL     1     -11.601  48.442 -26.388  1.00  0.00    -0.302 OA
ENDBRANCH   4  38
TORSDOF 18
ENDMDL
MODEL 4
REMARK minimizedAffinity -8.0575161
REMARK CNNscore 0.416744471
REMARK CNNaffinity 7.30247688
REMARK  18 active torsions:
REMARK  status: ('A' for Active; 'I' for Inactive)
REMARK    1  A    between atoms: C4_4  and  C5_5 
REMARK    2  A    between atoms: C5_5  and  C6_6 
REMARK    3  A    between atoms: C6_6  and  C7_7 
REMARK    4  A    between atoms: C9_9  and  C10_10 
REMARK    5  A    between atoms: C10_10  and  O1_11 
REMARK    6  A    between atoms: C10_10  and  C11_12 
REMARK    7  A    between atoms: C11_12  and  C12_13 
REMARK    8  A    between atoms: C14_15  and  C15_16 
REMARK    9  A    between atoms: C15_16  and  C16_17 
REMARK   10  A    between atoms: C16_17  and  C17_18 
REMARK   11  A    between atoms: C17_18  and  C18_19 
REMARK   12  A    between atoms: C18_19  and  O2_20 
REMARK   13  A    between atoms: C19_21  and  C20_22 
REMARK   14  A    between atoms: C20_22  and  C21_23 
REMARK   15  A    between atoms: C21_23  and  C22_24 
REMARK   16  A    between atoms: C22_24  and  O3_25 
REMARK   17  A    between atoms: C24_27  and  C26_29 
REMARK   18  A    between atoms: C29_33  and  O5_35 
ROOT
HETATM    1  C17 UNL     1      -2.124  51.336 -24.262  1.00  0.00     0.019 C 
HETATM    2  C19 UNL     1      -0.632  51.792 -24.661  1.00  0.00     0.029 C 
HETATM    3  C23 UNL     1      -0.460  52.057 -26.169  1.00  0.00    -0.066 C 
HETATM    4  C24 UNL     1       0.583  51.660 -26.947  1.00  0.00    -0.021 C 
HETATM    5  C25 UNL     1       0.699  51.942 -28.426  1.00  0.00     0.052 C 
HETATM    6  C27 UNL     1      -1.688  52.695 -26.774  1.00  0.00     0.038 C 
HETATM    7  C28 UNL     1      -2.888  51.745 -26.694  1.00  0.00     0.042 C 
HETATM    8  C29 UNL     1      -2.842  50.713 -25.533  1.00  0.00     0.065 C 
HETATM    9  C30 UNL     1      -2.241  49.386 -26.030  1.00  0.00     0.047 C 
ENDROOT
BRANCH   1  10
HETATM   10  C16 UNL     1      -2.118  50.343 -23.029  1.00  0.00     0.019 C 
BRANCH  10  11
HETATM   11  C15 UNL     1      -3.084  49.146 -23.027  1.00  0.00     0.028 C 
BRANCH  11  12
HETATM   12  C14 UNL     1      -3.427  48.735 -21.619  1.00  0.00    -0.024 C 
HETATM   13  C12 UNL     1      -2.636  48.129 -20.710  1.00  0.00    -0.085 C 
HETATM   14  C13 UNL     1      -1.221  47.682 -20.963  1.00  0.00     0.043 C 
BRANCH  13  15
HETATM   15  C11 UNL     1      -3.166  47.838 -19.310  1.00  0.00     0.069 C 
BRANCH  15  16
HETATM   16  C10 UNL     1      -3.233  49.077 -18.389  1.00  0.00     0.145 C 
BRANCH  16  17
HETATM   17  C9  UNL     1      -1.979  49.204 -17.564  1.00  0.00     0.007 C 
HETATM   18  C7  UNL     1      -0.898  49.974 -17.806  1.00  0.00    -0.085 C 
HETATM   19  C8  UNL     1      -0.745  50.826 -19.041  1.00  0.00     0.043 C 
BRANCH  18  20
HETATM   20  C6  UNL     1       0.308  50.061 -16.874  1.00  0.00     0.037 C 
BRANCH  20  21
HETATM   21  C5  UNL     1       0.568  51.360 -16.091  1.00  0.00     0.031 C 
BRANCH  21  22
HETATM   22  C4  UNL     1       1.900  51.985 -16.419  1.00  0.00    -0.024 C 
HETATM   23  C2  UNL     1       3.021  51.997 -15.671  1.00  0.00    -0.091 C 
HETATM   24  C1  UNL     1       3.184  51.344 -14.327  1.00  0.00     0.042 C 
HETATM   25  C3  UNL     1       4.263  52.691 -16.170  1.00  0.00     0.042 C 
ENDBRANCH  21  22
ENDBRANCH  20  21
ENDBRANCH  18  20
ENDBRANCH  16  17
BRANCH  16  26
HETATM   26  O1  UNL     1      -4.312  48.987 -17.457  1.00  0.00    -0.391 OA
HETATM   27  H17 UNL     1      -4.673  48.084 -17.496  1.00  0.00     0.210 HD
ENDBRANCH  16  26
ENDBRANCH  15  16
ENDBRANCH  13  15
ENDBRANCH  11  12
ENDBRANCH  10  11
ENDBRANCH   1  10
BRANCH   1  28
HETATM   28  C18 UNL     1      -2.994  52.560 -23.764  1.00  0.00     0.177 C 
BRANCH  28  29
HETATM   29  O2  UNL     1      -4.087  52.163 -22.942  1.00  0.00    -0.400 OA
HETATM   30  H30 UNL     1      -4.583  51.485 -23.451  1.00  0.00     0.209 HD
ENDBRANCH  28  29
ENDBRANCH   1  28
BRANCH   2  31
HETATM   31  C20 UNL     1      -0.125  52.967 -23.776  1.00  0.00     0.012 C 
BRANCH  31  32
HETATM   32  C21 UNL     1       0.669  52.602 -22.519  1.00  0.00     0.027 C 
BRANCH  32  33
HETATM   33  C22 UNL     1       1.274  53.796 -21.794  1.00  0.00     0.164 C 
BRANCH  33  34
HETATM   34  O3  UNL     1       1.608  54.780 -22.763  1.00  0.00    -0.401 OA
HETATM   35  H38 UNL     1       1.996  55.536 -22.289  1.00  0.00     0.209 HD
ENDBRANCH  33  34
ENDBRANCH  32  33
ENDBRANCH  31  32
ENDBRANCH   2  31
BRANCH   8  36
HETATM   36  O5  UNL     1      -4.225  50.424 -25.235  1.00  0.00    -0.389 OA
HETATM   37  H50 UNL     1      -4.272  49.564 -24.778  1.00  0.00     0.210 HD
ENDBRANCH   8  36
BRANCH   4  38
HETATM   38  C26 UNL     1       1.742  50.865 -26.418  1.00  0.00     0.265 C 
HETATM   39  O4  UNL     1       2.910  51.171 -26.631  1.00  0.00    -0.302 OA
ENDBRANCH   4  38
TORSDOF 18
ENDMDL
MODEL 5
REMARK minimizedAffinity -7.99868202
REMARK CNNscore 0.399303079
REMARK CNNaffinity 6.36851931
REMARK  18 active torsions:
REMARK  status: ('A' for Active; 'I' for Inactive)
REMARK    1  A    between atoms: C4_4  and  C5_5 
REMARK    2  A    between atoms: C5_5  and  C6_6 
REMARK    3  A    between atoms: C6_6  and  C7_7 
REMARK    4  A    between atoms: C9_9  and  C10_10 
REMARK    5  A    between atoms: C10_10  and  O1_11 
REMARK    6  A    between atoms: C10_10  and  C11_12 
REMARK    7  A    between atoms: C11_12  and  C12_13 
REMARK    8  A    between atoms: C14_15  and  C15_16 
REMARK    9  A    between atoms: C15_16  and  C16_17 
REMARK   10  A    between atoms: C16_17  and  C17_18 
REMARK   11  A    between atoms: C17_18  and  C18_19 
REMARK   12  A    between atoms: C18_19  and  O2_20 
REMARK   13  A    between atoms: C19_21  and  C20_22 
REMARK   14  A    between atoms: C20_22  and  C21_23 
REMARK   15  A    between atoms: C21_23  and  C22_24 
REMARK   16  A    between atoms: C22_24  and  O3_25 
REMARK   17  A    between atoms: C24_27  and  C26_29 
REMARK   18  A    between atoms: C29_33  and  O5_35 
ROOT
HETATM    1  C17 UNL     1      -7.622  48.178 -30.150  1.00  0.00     0.019 C 
HETATM    2  C19 UNL     1      -7.576  46.749 -30.892  1.00  0.00     0.029 C 
HETATM    3  C23 UNL     1      -8.864  45.925 -30.701  1.00  0.00    -0.066 C 
HETATM    4  C24 UNL     1      -8.940  44.596 -30.418  1.00  0.00    -0.021 C 
HETATM    5  C25 UNL     1     -10.232  43.837 -30.235  1.00  0.00     0.052 C 
HETATM    6  C27 UNL     1     -10.098  46.796 -30.701  1.00  0.00     0.038 C 
HETATM    7  C28 UNL     1     -10.085  47.754 -29.506  1.00  0.00     0.042 C 
HETATM    8  C29 UNL     1      -8.676  48.124 -28.965  1.00  0.00     0.065 C 
HETATM    9  C30 UNL     1      -8.294  47.190 -27.803  1.00  0.00     0.047 C 
ENDROOT
BRANCH   1  10
HETATM   10  C16 UNL     1      -6.185  48.622 -29.655  1.00  0.00     0.019 C 
BRANCH  10  11
HETATM   11  C15 UNL     1      -5.438  47.743 -28.638  1.00  0.00     0.028 C 
BRANCH  11  12
HETATM   12  C14 UNL     1      -4.428  48.553 -27.867  1.00  0.00    -0.024 C 
HETATM   13  C12 UNL     1      -4.345  48.732 -26.534  1.00  0.00    -0.085 C 
HETATM   14  C13 UNL     1      -5.318  48.178 -25.528  1.00  0.00     0.043 C 
BRANCH  13  15
HETATM   15  C11 UNL     1      -3.207  49.559 -25.944  1.00  0.00     0.069 C 
BRANCH  15  16
HETATM   16  C10 UNL     1      -3.559  51.045 -25.716  1.00  0.00     0.145 C 
BRANCH  16  17
HETATM   17  C9  UNL     1      -2.420  51.773 -25.051  1.00  0.00     0.007 C 
HETATM   18  C7  UNL     1      -1.672  51.369 -24.004  1.00  0.00    -0.085 C 
HETATM   19  C8  UNL     1      -1.917  50.081 -23.257  1.00  0.00     0.043 C 
BRANCH  18  20
HETATM   20  C6  UNL     1      -0.506  52.170 -23.433  1.00  0.00     0.037 C 
BRANCH  20  21
HETATM   21  C5  UNL     1       0.725  52.449 -24.314  1.00  0.00     0.031 C 
BRANCH  21  22
HETATM   22  C4  UNL     1       0.427  52.338 -25.788  1.00  0.00    -0.024 C 
HETATM   23  C2  UNL     1       1.235  51.889 -26.769  1.00  0.00    -0.091 C 
HETATM   24  C1  UNL     1       2.631  51.364 -26.582  1.00  0.00     0.042 C 
HETATM   25  C3  UNL     1       0.757  51.866 -28.199  1.00  0.00     0.042 C 
ENDBRANCH  21  22
ENDBRANCH  20  21
ENDBRANCH  18  20
ENDBRANCH  16  17
BRANCH  16  26
HETATM   26  O1  UNL     1      -4.684  51.197 -24.848  1.00  0.00    -0.391 OA
HETATM   27  H17 UNL     1      -4.884  50.330 -24.456  1.00  0.00     0.210 HD
ENDBRANCH  16  26
ENDBRANCH  15  16
ENDBRANCH  13  15
ENDBRANCH  11  12
ENDBRANCH  10  11
ENDBRANCH   1  10
BRANCH   1  28
HETATM   28  C18 UNL     1      -8.060  49.334 -31.139  1.00  0.00     0.177 C 
BRANCH  28  29
HETATM   29  O2  UNL     1      -8.736  50.399 -30.477  1.00  0.00    -0.400 OA
HETATM   30  H30 UNL     1      -9.471  49.988 -29.972  1.00  0.00     0.209 HD
ENDBRANCH  28  29
ENDBRANCH   1  28
BRANCH   2  31
HETATM   31  C20 UNL     1      -7.153  46.879 -32.383  1.00  0.00     0.012 C 
BRANCH  31  32
HETATM   32  C21 UNL     1      -5.653  46.947 -32.680  1.00  0.00     0.027 C 
BRANCH  32  33
HETATM   33  C22 UNL     1      -5.295  47.784 -33.900  1.00  0.00     0.164 C 
BRANCH  33  34
HETATM   34  O3  UNL     1      -6.446  47.877 -34.727  1.00  0.00    -0.401 OA
HETATM   35  H38 UNL     1      -6.204  48.411 -35.504  1.00  0.00     0.209 HD
ENDBRANCH  33  34
ENDBRANCH  32  33
ENDBRANCH  31  32
ENDBRANCH   2  31
BRANCH   8  36
HETATM   36  O5  UNL     1      -8.834  49.433 -28.376  1.00  0.00    -0.389 OA
HETATM   37  H50 UNL     1      -8.111  49.575 -27.736  1.00  0.00     0.210 HD
ENDBRANCH   8  36
BRANCH   4  38
HETATM   38  C26 UNL     1      -7.728  43.729 -30.232  1.00  0.00     0.265 C 
HETATM   39  O4  UNL     1      -6.961  43.856 -29.283  1.00  0.00    -0.302 OA
ENDBRANCH   4  38
TORSDOF 18
ENDMDL
MODEL 6
REMARK minimizedAffinity -8.20227146
REMARK CNNscore 0.343009174
REMARK CNNaffinity 6.38711214
REMARK  18 active torsions:
REMARK  status: ('A' for Active; 'I' for Inactive)
REMARK    1  A    between atoms: C4_4  and  C5_5 
REMARK    2  A    between atoms: C5_5  and  C6_6 
REMARK    3  A    between atoms: C6_6  and  C7_7 
REMARK    4  A    between atoms: C9_9  and  C10_10 
REMARK    5  A    between atoms: C10_10  and  O1_11 
REMARK    6  A    between atoms: C10_10  and  C11_12 
REMARK    7  A    between atoms: C11_12  and  C12_13 
REMARK    8  A    between atoms: C14_15  and  C15_16 
REMARK    9  A    between atoms: C15_16  and  C16_17 
REMARK   10  A    between atoms: C16_17  and  C17_18 
REMARK   11  A    between atoms: C17_18  and  C18_19 
REMARK   12  A    between atoms: C18_19  and  O2_20 
REMARK   13  A    between atoms: C19_21  and  C20_22 
REMARK   14  A    between atoms: C20_22  and  C21_23 
REMARK   15  A    between atoms: C21_23  and  C22_24 
REMARK   16  A    between atoms: C22_24  and  O3_25 
REMARK   17  A    between atoms: C24_27  and  C26_29 
REMARK   18  A    between atoms: C29_33  and  O5_35 
ROOT
HETATM    1  C17 UNL     1      -1.402  51.494 -26.411  1.00  0.00     0.019 C 
HETATM    2  C19 UNL     1      -1.499  51.883 -24.851  1.00  0.00     0.029 C 
HETATM    3  C23 UNL     1      -0.515  52.996 -24.441  1.00  0.00    -0.066 C 
HETATM    4  C24 UNL     1       0.255  53.022 -23.319  1.00  0.00    -0.021 C 
HETATM    5  C25 UNL     1       1.209  54.138 -22.967  1.00  0.00     0.052 C 
HETATM    6  C27 UNL     1      -0.354  54.035 -25.524  1.00  0.00     0.038 C 
HETATM    7  C28 UNL     1       0.277  53.420 -26.777  1.00  0.00     0.042 C 
HETATM    8  C29 UNL     1       0.028  51.898 -26.967  1.00  0.00     0.065 C 
HETATM    9  C30 UNL     1       1.202  51.094 -26.380  1.00  0.00     0.047 C 
ENDROOT
BRANCH   1  10
HETATM   10  C16 UNL     1      -1.728  49.963 -26.650  1.00  0.00     0.019 C 
BRANCH  10  11
HETATM   11  C15 UNL     1      -2.998  49.361 -26.025  1.00  0.00     0.028 C 
BRANCH  11  12
HETATM   12  C14 UNL     1      -3.791  48.596 -27.052  1.00  0.00    -0.024 C 
HETATM   13  C12 UNL     1      -5.049  48.123 -26.951  1.00  0.00    -0.085 C 
HETATM   14  C13 UNL     1      -5.911  48.226 -25.721  1.00  0.00     0.043 C 
BRANCH  13  15
HETATM   15  C11 UNL     1      -5.694  47.408 -28.134  1.00  0.00     0.069 C 
BRANCH  15  16
HETATM   16  C10 UNL     1      -6.160  48.353 -29.264  1.00  0.00     0.145 C 
BRANCH  16  17
HETATM   17  C9  UNL     1      -6.914  47.593 -30.324  1.00  0.00     0.007 C 
HETATM   18  C7  UNL     1      -7.888  48.047 -31.139  1.00  0.00    -0.085 C 
HETATM   19  C8  UNL     1      -8.447  49.447 -31.066  1.00  0.00     0.043 C 
BRANCH  18  20
HETATM   20  C6  UNL     1      -8.559  47.199 -32.216  1.00  0.00     0.037 C 
BRANCH  20  21
HETATM   21  C5  UNL     1      -7.710  46.618 -33.361  1.00  0.00     0.031 C 
BRANCH  21  22
HETATM   22  C4  UNL     1      -6.639  47.567 -33.835  1.00  0.00    -0.024 C 
HETATM   23  C2  UNL     1      -5.309  47.493 -33.627  1.00  0.00    -0.091 C 
HETATM   24  C1  UNL     1      -4.600  46.399 -32.880  1.00  0.00     0.042 C 
HETATM   25  C3  UNL     1      -4.391  48.557 -34.176  1.00  0.00     0.042 C 
ENDBRANCH  21  22
ENDBRANCH  20  21
ENDBRANCH  18  20
ENDBRANCH  16  17
BRANCH  16  26
HETATM   26  O1  UNL     1      -5.056  48.969 -29.930  1.00  0.00    -0.391 OA
HETATM   27  H17 UNL     1      -4.239  48.532 -29.633  1.00  0.00     0.210 HD
ENDBRANCH  16  26
ENDBRANCH  15  16
ENDBRANCH  13  15
ENDBRANCH  11  12
ENDBRANCH  10  11
ENDBRANCH   1  10
BRANCH   1  28
HETATM   28  C18 UNL     1      -2.491  52.256 -27.270  1.00  0.00     0.177 C 
BRANCH  28  29
HETATM   29  O2  UNL     1      -1.961  53.388 -27.954  1.00  0.00    -0.400 OA
HETATM   30  H30 UNL     1      -1.515  53.937 -27.273  1.00  0.00     0.209 HD
ENDBRANCH  28  29
ENDBRANCH   1  28
BRANCH   2  31
HETATM   31  C20 UNL     1      -2.962  52.173 -24.413  1.00  0.00     0.012 C 
BRANCH  31  32
HETATM   32  C21 UNL     1      -3.439  51.538 -23.104  1.00  0.00     0.027 C 
BRANCH  32  33
HETATM   33  C22 UNL     1      -4.906  51.133 -23.103  1.00  0.00     0.164 C 
BRANCH  33  34
HETATM   34  O3  UNL     1      -5.521  51.694 -24.255  1.00  0.00    -0.401 OA
HETATM   35  H38 UNL     1      -6.458  51.432 -24.242  1.00  0.00     0.209 HD
ENDBRANCH  33  34
ENDBRANCH  32  33
ENDBRANCH  31  32
ENDBRANCH   2  31
BRANCH   8  36
HETATM   36  O5  UNL     1       0.089  51.686 -28.395  1.00  0.00    -0.389 OA
HETATM   37  H50 UNL     1       0.282  50.744 -28.561  1.00  0.00     0.210 HD
ENDBRANCH   8  36
BRANCH   4  38
HETATM   38  C26 UNL     1       0.256  51.917 -22.302  1.00  0.00     0.265 C 
HETATM   39  O4  UNL     1       1.100  51.831 -21.416  1.00  0.00    -0.302 OA
ENDBRANCH   4  38
TORSDOF 18
ENDMDL
MODEL 7
REMARK minimizedAffinity -7.85816336
REMARK CNNscore 0.331453681
REMARK CNNaffinity 7.26067209
REMARK  18 active torsions:
REMARK  status: ('A' for Active; 'I' for Inactive)
REMARK    1  A    between atoms: C4_4  and  C5_5 
REMARK    2  A    between atoms: C5_5  and  C6_6 
REMARK    3  A    between atoms: C6_6  and  C7_7 
REMARK    4  A    between atoms: C9_9  and  C10_10 
REMARK    5  A    between atoms: C10_10  and  O1_11 
REMARK    6  A    between atoms: C10_10  and  C11_12 
REMARK    7  A    between atoms: C11_12  and  C12_13 
REMARK    8  A    between atoms: C14_15  and  C15_16 
REMARK    9  A    between atoms: C15_16  and  C16_17 
REMARK   10  A    between atoms: C16_17  and  C17_18 
REMARK   11  A    between atoms: C17_18  and  C18_19 
REMARK   12  A    between atoms: C18_19  and  O2_20 
REMARK   13  A    between atoms: C19_21  and  C20_22 
REMARK   14  A    between atoms: C20_22  and  C21_23 
REMARK   15  A    between atoms: C21_23  and  C22_24 
REMARK   16  A    between atoms: C22_24  and  O3_25 
REMARK   17  A    between atoms: C24_27  and  C26_29 
REMARK   18  A    between atoms: C29_33  and  O5_35 
ROOT
HETATM    1  C17 UNL     1      -2.795  50.817 -24.929  1.00  0.00     0.019 C 
HETATM    2  C19 UNL     1      -1.325  51.471 -25.019  1.00  0.00     0.029 C 
HETATM    3  C23 UNL     1      -0.878  51.762 -26.465  1.00  0.00    -0.066 C 
HETATM    4  C24 UNL     1       0.349  51.510 -26.999  1.00  0.00    -0.021 C 
HETATM    5  C25 UNL     1       0.733  51.811 -28.427  1.00  0.00     0.052 C 
HETATM    6  C27 UNL     1      -2.025  52.231 -27.327  1.00  0.00     0.038 C 
HETATM    7  C28 UNL     1      -3.079  51.129 -27.475  1.00  0.00     0.042 C 
HETATM    8  C29 UNL     1      -3.142  50.108 -26.305  1.00  0.00     0.065 C 
HETATM    9  C30 UNL     1      -2.280  48.875 -26.634  1.00  0.00     0.047 C 
ENDROOT
BRANCH   1  10
HETATM   10  C16 UNL     1      -2.916  49.829 -23.698  1.00  0.00     0.019 C 
BRANCH  10  11
HETATM   11  C15 UNL     1      -3.392  50.376 -22.342  1.00  0.00     0.028 C 
BRANCH  11  12
HETATM   12  C14 UNL     1      -2.256  51.026 -21.596  1.00  0.00    -0.024 C 
HETATM   13  C12 UNL     1      -1.244  50.431 -20.933  1.00  0.00    -0.085 C 
HETATM   14  C13 UNL     1      -1.085  48.944 -20.762  1.00  0.00     0.043 C 
BRANCH  13  15
HETATM   15  C11 UNL     1      -0.158  51.278 -20.278  1.00  0.00     0.069 C 
BRANCH  15  16
HETATM   16  C10 UNL     1      -0.678  52.232 -19.180  1.00  0.00     0.145 C 
BRANCH  16  17
HETATM   17  C9  UNL     1       0.436  52.647 -18.255  1.00  0.00     0.007 C 
HETATM   18  C7  UNL     1       1.021  51.922 -17.279  1.00  0.00    -0.085 C 
HETATM   19  C8  UNL     1       0.582  50.529 -16.902  1.00  0.00     0.043 C 
BRANCH  18  20
HETATM   20  C6  UNL     1       2.180  52.428 -16.424  1.00  0.00     0.037 C 
BRANCH  20  21
HETATM   21  C5  UNL     1       2.706  51.557 -15.269  1.00  0.00     0.031 C 
BRANCH  21  22
HETATM   22  C4  UNL     1       1.957  51.781 -13.979  1.00  0.00    -0.024 C 
HETATM   23  C2  UNL     1       2.281  51.352 -12.743  1.00  0.00    -0.091 C 
HETATM   24  C1  UNL     1       3.508  50.561 -12.385  1.00  0.00     0.042 C 
HETATM   25  C3  UNL     1       1.390  51.669 -11.569  1.00  0.00     0.042 C 
ENDBRANCH  21  22
ENDBRANCH  20  21
ENDBRANCH  18  20
ENDBRANCH  16  17
BRANCH  16  26
HETATM   26  O1  UNL     1      -1.663  51.605 -18.355  1.00  0.00    -0.391 OA
HETATM   27  H17 UNL     1      -1.673  50.655 -18.563  1.00  0.00     0.210 HD
ENDBRANCH  16  26
ENDBRANCH  15  16
ENDBRANCH  13  15
ENDBRANCH  11  12
ENDBRANCH  10  11
ENDBRANCH   1  10
BRANCH   1  28
HETATM   28  C18 UNL     1      -3.903  51.912 -24.653  1.00  0.00     0.177 C 
BRANCH  28  29
HETATM   29  O2  UNL     1      -5.217  51.365 -24.598  1.00  0.00    -0.400 OA
HETATM   30  H30 UNL     1      -5.339  50.857 -25.429  1.00  0.00     0.209 HD
ENDBRANCH  28  29
ENDBRANCH   1  28
BRANCH   2  31
HETATM   31  C20 UNL     1      -1.174  52.699 -24.077  1.00  0.00     0.012 C 
BRANCH  31  32
HETATM   32  C21 UNL     1       0.239  53.244 -23.861  1.00  0.00     0.027 C 
BRANCH  32  33
HETATM   33  C22 UNL     1       0.539  54.526 -24.625  1.00  0.00     0.164 C 
BRANCH  33  34
HETATM   34  O3  UNL     1       1.427  55.311 -23.843  1.00  0.00    -0.401 OA
HETATM   35  H38 UNL     1       1.608  56.129 -24.339  1.00  0.00     0.209 HD
ENDBRANCH  33  34
ENDBRANCH  32  33
ENDBRANCH  31  32
ENDBRANCH   2  31
BRANCH   8  36
HETATM   36  O5  UNL     1      -4.506  49.636 -26.295  1.00  0.00    -0.389 OA
HETATM   37  H50 UNL     1      -4.535  48.775 -25.837  1.00  0.00     0.210 HD
ENDBRANCH   8  36
BRANCH   4  38
HETATM   38  C26 UNL     1       1.465  50.876 -26.220  1.00  0.00     0.265 C 
HETATM   39  O4  UNL     1       2.642  50.970 -26.551  1.00  0.00    -0.302 OA
ENDBRANCH   4  38
TORSDOF 18
ENDMDL
MODEL 8
REMARK minimizedAffinity -6.87672997
REMARK CNNscore 0.30527544
REMARK CNNaffinity 5.80311203
REMARK  18 active torsions:
REMARK  status: ('A' for Active; 'I' for Inactive)
REMARK    1  A    between atoms: C4_4  and  C5_5 
REMARK    2  A    between atoms: C5_5  and  C6_6 
REMARK    3  A    between atoms: C6_6  and  C7_7 
REMARK    4  A    between atoms: C9_9  and  C10_10 
REMARK    5  A    between atoms: C10_10  and  O1_11 
REMARK    6  A    between atoms: C10_10  and  C11_12 
REMARK    7  A    between atoms: C11_12  and  C12_13 
REMARK    8  A    between atoms: C14_15  and  C15_16 
REMARK    9  A    between atoms: C15_16  and  C16_17 
REMARK   10  A    between atoms: C16_17  and  C17_18 
REMARK   11  A    between atoms: C17_18  and  C18_19 
REMARK   12  A    between atoms: C18_19  and  O2_20 
REMARK   13  A    between atoms: C19_21  and  C20_22 
REMARK   14  A    between atoms: C20_22  and  C21_23 
REMARK   15  A    between atoms: C21_23  and  C22_24 
REMARK   16  A    between atoms: C22_24  and  O3_25 
REMARK   17  A    between atoms: C24_27  and  C26_29 
REMARK   18  A    between atoms: C29_33  and  O5_35 
ROOT
HETATM    1  C17 UNL     1      -8.729  47.073 -29.827  1.00  0.00     0.019 C 
HETATM    2  C19 UNL     1      -8.484  46.288 -31.212  1.00  0.00     0.029 C 
HETATM    3  C23 UNL     1      -9.792  45.908 -31.933  1.00  0.00    -0.066 C 
HETATM    4  C24 UNL     1     -10.073  44.714 -32.523  1.00  0.00    -0.021 C 
HETATM    5  C25 UNL     1     -11.376  44.392 -33.214  1.00  0.00     0.052 C 
HETATM    6  C27 UNL     1     -10.849  46.975 -31.787  1.00  0.00     0.038 C 
HETATM    7  C28 UNL     1     -11.262  47.132 -30.320  1.00  0.00     0.042 C 
HETATM    8  C29 UNL     1     -10.179  46.735 -29.278  1.00  0.00     0.065 C 
HETATM    9  C30 UNL     1     -10.380  45.274 -28.838  1.00  0.00     0.047 C 
ENDROOT
BRANCH   1  10
HETATM   10  C16 UNL     1      -7.596  46.751 -28.768  1.00  0.00     0.019 C 
BRANCH  10  11
HETATM   11  C15 UNL     1      -7.912  46.885 -27.269  1.00  0.00     0.028 C 
BRANCH  11  12
HETATM   12  C14 UNL     1      -6.834  47.663 -26.560  1.00  0.00    -0.024 C 
HETATM   13  C12 UNL     1      -6.591  47.736 -25.236  1.00  0.00    -0.085 C 
HETATM   14  C13 UNL     1      -7.422  47.070 -24.171  1.00  0.00     0.043 C 
BRANCH  13  15
HETATM   15  C11 UNL     1      -5.409  48.549 -24.720  1.00  0.00     0.069 C 
BRANCH  15  16
HETATM   16  C10 UNL     1      -4.155  48.482 -25.619  1.00  0.00     0.145 C 
BRANCH  16  17
HETATM   17  C9  UNL     1      -2.950  49.033 -24.905  1.00  0.00     0.007 C 
HETATM   18  C7  UNL     1      -2.657  50.323 -24.639  1.00  0.00    -0.085 C 
HETATM   19  C8  UNL     1      -3.510  51.480 -25.098  1.00  0.00     0.043 C 
BRANCH  18  20
HETATM   20  C6  UNL     1      -1.420  50.772 -23.865  1.00  0.00     0.037 C 
BRANCH  20  21
HETATM   21  C5  UNL     1      -1.454  52.099 -23.087  1.00  0.00     0.031 C 
BRANCH  21  22
HETATM   22  C4  UNL     1      -1.148  51.927 -21.621  1.00  0.00    -0.024 C 
HETATM   23  C2  UNL     1      -0.065  52.350 -20.941  1.00  0.00    -0.091 C 
HETATM   24  C1  UNL     1       1.082  53.131 -21.519  1.00  0.00     0.042 C 
HETATM   25  C3  UNL     1       0.068  52.068 -19.465  1.00  0.00     0.042 C 
ENDBRANCH  21  22
ENDBRANCH  20  21
ENDBRANCH  18  20
ENDBRANCH  16  17
BRANCH  16  26
HETATM   26  O1  UNL     1      -4.307  49.270 -26.802  1.00  0.00    -0.391 OA
HETATM   27  H17 UNL     1      -5.109  49.812 -26.705  1.00  0.00     0.210 HD
ENDBRANCH  16  26
ENDBRANCH  15  16
ENDBRANCH  13  15
ENDBRANCH  11  12
ENDBRANCH  10  11
ENDBRANCH   1  10
BRANCH   1  28
HETATM   28  C18 UNL     1      -8.636  48.641 -30.022  1.00  0.00     0.177 C 
BRANCH  28  29
HETATM   29  O2  UNL     1      -8.582  49.349 -28.787  1.00  0.00    -0.400 OA
HETATM   30  H30 UNL     1      -9.353  49.044 -28.261  1.00  0.00     0.209 HD
ENDBRANCH  28  29
ENDBRANCH   1  28
BRANCH   2  31
HETATM   31  C20 UNL     1      -7.475  47.031 -32.133  1.00  0.00     0.012 C 
BRANCH  31  32
HETATM   32  C21 UNL     1      -7.762  47.019 -33.637  1.00  0.00     0.027 C 
BRANCH  32  33
HETATM   33  C22 UNL     1      -6.674  47.662 -34.485  1.00  0.00     0.164 C 
BRANCH  33  34
HETATM   34  O3  UNL     1      -7.145  47.740 -35.823  1.00  0.00    -0.401 OA
HETATM   35  H38 UNL     1      -6.441  48.149 -36.357  1.00  0.00     0.209 HD
ENDBRANCH  33  34
ENDBRANCH  32  33
ENDBRANCH  31  32
ENDBRANCH   2  31
BRANCH   8  36
HETATM   36  O5  UNL     1     -10.472  47.535 -28.112  1.00  0.00    -0.389 OA
HETATM   37  H50 UNL     1     -10.070  47.107 -27.333  1.00  0.00     0.210 HD
ENDBRANCH   8  36
BRANCH   4  38
HETATM   38  C26 UNL     1      -9.111  43.561 -32.534  1.00  0.00     0.265 C 
HETATM   39  O4  UNL     1      -8.959  42.814 -31.572  1.00  0.00    -0.302 OA
ENDBRANCH   4  38
TORSDOF 18
ENDMDL
MODEL 9
REMARK minimizedAffinity -6.92607164
REMARK CNNscore 0.295018196
REMARK CNNaffinity 5.99959183
REMARK  18 active torsions:
REMARK  status: ('A' for Active; 'I' for Inactive)
REMARK    1  A    between atoms: C4_4  and  C5_5 
REMARK    2  A    between atoms: C5_5  and  C6_6 
REMARK    3  A    between atoms: C6_6  and  C7_7 
REMARK    4  A    between atoms: C9_9  and  C10_10 
REMARK    5  A    between atoms: C10_10  and  O1_11 
REMARK    6  A    between atoms: C10_10  and  C11_12 
REMARK    7  A    between atoms: C11_12  and  C12_13 
REMARK    8  A    between atoms: C14_15  and  C15_16 
REMARK    9  A    between atoms: C15_16  and  C16_17 
REMARK   10  A    between atoms: C16_17  and  C17_18 
REMARK   11  A    between atoms: C17_18  and  C18_19 
REMARK   12  A    between atoms: C18_19  and  O2_20 
REMARK   13  A    between atoms: C19_21  and  C20_22 
REMARK   14  A    between atoms: C20_22  and  C21_23 
REMARK   15  A    between atoms: C21_23  and  C22_24 
REMARK   16  A    between atoms: C22_24  and  O3_25 
REMARK   17  A    between atoms: C24_27  and  C26_29 
REMARK   18  A    between atoms: C29_33  and  O5_35 
ROOT
HETATM    1  C17 UNL     1      -7.428  46.998 -30.627  1.00  0.00     0.019 C 
HETATM    2  C19 UNL     1      -8.161  45.585 -30.383  1.00  0.00     0.029 C 
HETATM    3  C23 UNL     1      -9.690  45.712 -30.231  1.00  0.00    -0.066 C 
HETATM    4  C24 UNL     1     -10.467  45.081 -29.309  1.00  0.00    -0.021 C 
HETATM    5  C25 UNL     1     -11.963  45.247 -29.201  1.00  0.00     0.052 C 
HETATM    6  C27 UNL     1     -10.262  46.771 -31.142  1.00  0.00     0.038 C 
HETATM    7  C28 UNL     1      -9.730  48.158 -30.763  1.00  0.00     0.042 C 
HETATM    8  C29 UNL     1      -8.341  48.169 -30.067  1.00  0.00     0.065 C 
HETATM    9  C30 UNL     1      -8.516  48.178 -28.538  1.00  0.00     0.047 C 
ENDROOT
BRANCH   1  10
HETATM   10  C16 UNL     1      -5.976  47.016 -29.997  1.00  0.00     0.019 C 
BRANCH  10  11
HETATM   11  C15 UNL     1      -5.420  48.333 -29.431  1.00  0.00     0.028 C 
BRANCH  11  12
HETATM   12  C14 UNL     1      -4.796  48.116 -28.078  1.00  0.00    -0.024 C 
HETATM   13  C12 UNL     1      -3.947  48.924 -27.411  1.00  0.00    -0.085 C 
HETATM   14  C13 UNL     1      -3.398  50.221 -27.942  1.00  0.00     0.043 C 
BRANCH  13  15
HETATM   15  C11 UNL     1      -3.462  48.539 -26.017  1.00  0.00     0.069 C 
BRANCH  15  16
HETATM   16  C10 UNL     1      -3.833  49.557 -24.916  1.00  0.00     0.145 C 
BRANCH  16  17
HETATM   17  C9  UNL     1      -3.082  49.270 -23.643  1.00  0.00     0.007 C 
HETATM   18  C7  UNL     1      -1.925  49.819 -23.217  1.00  0.00    -0.085 C 
HETATM   19  C8  UNL     1      -1.131  50.814 -24.027  1.00  0.00     0.043 C 
BRANCH  18  20
HETATM   20  C6  UNL     1      -1.268  49.486 -21.880  1.00  0.00     0.037 C 
BRANCH  20  21
HETATM   21  C5  UNL     1      -0.933  50.622 -20.898  1.00  0.00     0.031 C 
BRANCH  21  22
HETATM   22  C4  UNL     1      -0.120  51.723 -21.531  1.00  0.00    -0.024 C 
HETATM   23  C2  UNL     1       0.380  52.831 -20.948  1.00  0.00    -0.091 C 
HETATM   24  C1  UNL     1       0.247  53.190 -19.494  1.00  0.00     0.042 C 
HETATM   25  C3  UNL     1       1.164  53.831 -21.759  1.00  0.00     0.042 C 
ENDBRANCH  21  22
ENDBRANCH  20  21
ENDBRANCH  18  20
ENDBRANCH  16  17
BRANCH  16  26
HETATM   26  O1  UNL     1      -5.221  49.492 -24.579  1.00  0.00    -0.391 OA
HETATM   27  H17 UNL     1      -5.599  48.703 -25.003  1.00  0.00     0.210 HD
ENDBRANCH  16  26
ENDBRANCH  15  16
ENDBRANCH  13  15
ENDBRANCH  11  12
ENDBRANCH  10  11
ENDBRANCH   1  10
BRANCH   1  28
HETATM   28  C18 UNL     1      -7.182  47.268 -32.167  1.00  0.00     0.177 C 
BRANCH  28  29
HETATM   29  O2  UNL     1      -5.944  47.926 -32.421  1.00  0.00    -0.400 OA
HETATM   30  H30 UNL     1      -5.937  48.729 -31.856  1.00  0.00     0.209 HD
ENDBRANCH  28  29
ENDBRANCH   1  28
BRANCH   2  31
HETATM   31  C20 UNL     1      -7.741  44.520 -31.436  1.00  0.00     0.012 C 
BRANCH  31  32
HETATM   32  C21 UNL     1      -7.472  43.102 -30.927  1.00  0.00     0.027 C 
BRANCH  32  33
HETATM   33  C22 UNL     1      -8.556  42.094 -31.281  1.00  0.00     0.164 C 
BRANCH  33  34
HETATM   34  O3  UNL     1      -7.926  40.867 -31.621  1.00  0.00    -0.401 OA
HETATM   35  H38 UNL     1      -8.628  40.232 -31.849  1.00  0.00     0.209 HD
ENDBRANCH  33  34
ENDBRANCH  32  33
ENDBRANCH  31  32
ENDBRANCH   2  31
BRANCH   8  36
HETATM   36  O5  UNL     1      -7.768  49.453 -30.399  1.00  0.00    -0.389 OA
HETATM   37  H50 UNL     1      -7.079  49.665 -29.742  1.00  0.00     0.210 HD
ENDBRANCH   8  36
BRANCH   4  38
HETATM   38  C26 UNL     1      -9.910  44.155 -28.267  1.00  0.00     0.265 C 
HETATM   39  O4  UNL     1     -10.570  43.257 -27.756  1.00  0.00    -0.302 OA
ENDBRANCH   4  38
TORSDOF 18
ENDMDL
