MODEL 1
REMARK minimizedAffinity -8.07642651
REMARK  11 active torsions:
REMARK  status: ('A' for Active; 'I' for Inactive)
REMARK    1  A    between atoms: C2_2  and  O2_4 
REMARK    2  A    between atoms: O2_4  and  C3_5 
REMARK    3  A    between atoms: C3_5  and  C4_6 
REMARK    4  A    between atoms: C5_7  and  C6_8 
REMARK    5  A    between atoms: C5_7  and  C9_13 
REMARK    6  A    between atoms: C6_8  and  O3_9 
REMARK    7  A    between atoms: O3_9  and  C7_10 
REMARK    8  A    between atoms: C9_13  and  C10_14 
REMARK    9  A    between atoms: C9_13  and  O6_29 
REMARK   10  A    between atoms: C10_14  and  C11_15 
REMARK   11  A    between atoms: O6_29  and  C24_30 
ROOT
HETATM    1  C9  UNL     1      -1.777  51.258 -25.070  1.00  0.00     0.163 C 
ENDROOT
BRANCH   1   2
HETATM    2  C5  UNL     1      -0.579  52.065 -24.564  1.00  0.00    -0.028 C 
HETATM    3  C4  UNL     1      -0.186  52.089 -23.271  1.00  0.00     0.007 C 
BRANCH   3   4
HETATM    4  C3  UNL     1       0.952  52.838 -22.640  1.00  0.00     0.206 C 
BRANCH   4   5
HETATM    5  O2  UNL     1       1.070  52.421 -21.273  1.00  0.00    -0.318 OA
BRANCH   5   6
HETATM    6  C2  UNL     1       1.237  53.412 -20.359  1.00  0.00     0.255 C 
HETATM    7  C1  UNL     1       0.863  52.917 -18.996  1.00  0.00     0.126 C 
HETATM    8  O1  UNL     1       1.644  54.541 -20.595  1.00  0.00    -0.266 OA
ENDBRANCH   5   6
ENDBRANCH   4   5
ENDBRANCH   3   4
BRANCH   2   9
HETATM    9  C6  UNL     1       0.144  52.794 -25.678  1.00  0.00     0.215 C 
BRANCH   9  10
HETATM   10  O3  UNL     1       1.545  52.541 -25.531  1.00  0.00    -0.317 OA
BRANCH  10  11
HETATM   11  C7  UNL     1       2.045  51.674 -26.451  1.00  0.00     0.255 C 
HETATM   12  C8  UNL     1       1.386  51.899 -27.778  1.00  0.00     0.126 C 
HETATM   13  O4  UNL     1       2.912  50.838 -26.241  1.00  0.00    -0.266 OA
ENDBRANCH  10  11
ENDBRANCH   9  10
ENDBRANCH   2   9
ENDBRANCH   1   2
BRANCH   1  14
HETATM   14  C10 UNL     1      -1.994  49.808 -24.554  1.00  0.00     0.047 C 
BRANCH  14  15
HETATM   15  C11 UNL     1      -3.448  49.251 -24.293  1.00  0.00    -0.033 C 
HETATM   16  C12 UNL     1      -3.925  48.479 -25.560  1.00  0.00     0.016 C 
HETATM   17  C13 UNL     1      -4.432  50.473 -24.142  1.00  0.00    -0.010 C 
HETATM   18  C14 UNL     1      -3.906  51.596 -23.229  1.00  0.00     0.011 C 
HETATM   19  C15 UNL     1      -5.882  50.070 -23.789  1.00  0.00     0.006 C 
HETATM   20  C16 UNL     1      -6.051  48.766 -23.008  1.00  0.00     0.017 C 
HETATM   21  C17 UNL     1      -4.839  48.408 -22.140  1.00  0.00     0.021 C 
HETATM   22  C18 UNL     1      -4.743  49.408 -20.966  1.00  0.00     0.024 C 
HETATM   23  C19 UNL     1      -5.060  47.024 -21.491  1.00  0.00     0.135 C 
HETATM   24  C23 UNL     1      -3.574  48.250 -23.055  1.00  0.00     0.010 C 
HETATM   25  O5  UNL     1      -6.184  46.573 -21.267  1.00  0.00    -0.297 OA
HETATM   26  C20 UNL     1      -3.824  46.210 -21.141  1.00  0.00     0.079 C 
HETATM   27  C21 UNL     1      -2.594  47.093 -20.974  1.00  0.00     0.008 C 
HETATM   28  C22 UNL     1      -2.321  47.987 -22.195  1.00  0.00     0.007 C 
ENDBRANCH  14  15
ENDBRANCH   1  14
BRANCH   1  29
HETATM   29  O6  UNL     1      -1.546  51.173 -26.501  1.00  0.00    -0.312 OA
BRANCH  29  30
HETATM   30  C24 UNL     1      -2.454  51.760 -27.321  1.00  0.00     0.255 C 
HETATM   31  C25 UNL     1      -3.148  50.717 -28.142  1.00  0.00     0.126 C 
HETATM   32  O7  UNL     1      -2.681  52.958 -27.397  1.00  0.00    -0.266 OA
ENDBRANCH  29  30
ENDBRANCH   1  29
TORSDOF 11
ENDMDL
MODEL 2
REMARK minimizedAffinity -8.06404114
REMARK  11 active torsions:
REMARK  status: ('A' for Active; 'I' for Inactive)
REMARK    1  A    between atoms: C2_2  and  O2_4 
REMARK    2  A    between atoms: O2_4  and  C3_5 
REMARK    3  A    between atoms: C3_5  and  C4_6 
REMARK    4  A    between atoms: C5_7  and  C6_8 
REMARK    5  A    between atoms: C5_7  and  C9_13 
REMARK    6  A    between atoms: C6_8  and  O3_9 
REMARK    7  A    between atoms: O3_9  and  C7_10 
REMARK    8  A    between atoms: C9_13  and  C10_14 
REMARK    9  A    between atoms: C9_13  and  O6_29 
REMARK   10  A    between atoms: C10_14  and  C11_15 
REMARK   11  A    between atoms: O6_29  and  C24_30 
ROOT
HETATM    1  C9  UNL     1       0.217  51.786 -21.872  1.00  0.00     0.163 C 
ENDROOT
BRANCH   1   2
HETATM    2  C5  UNL     1      -0.310  52.533 -23.100  1.00  0.00    -0.028 C 
HETATM    3  C4  UNL     1       0.490  53.129 -24.012  1.00  0.00     0.007 C 
BRANCH   3   4
HETATM    4  C3  UNL     1       0.112  53.897 -25.245  1.00  0.00     0.206 C 
BRANCH   4   5
HETATM    5  O2  UNL     1       0.739  53.279 -26.378  1.00  0.00    -0.318 OA
BRANCH   5   6
HETATM    6  C2  UNL     1       0.001  53.234 -27.518  1.00  0.00     0.255 C 
HETATM    7  C1  UNL     1       0.345  52.003 -28.299  1.00  0.00     0.126 C 
HETATM    8  O1  UNL     1      -0.833  54.060 -27.863  1.00  0.00    -0.266 OA
ENDBRANCH   5   6
ENDBRANCH   4   5
ENDBRANCH   3   4
BRANCH   2   9
HETATM    9  C6  UNL     1      -1.821  52.489 -23.206  1.00  0.00     0.215 C 
BRANCH   9  10
HETATM   10  O3  UNL     1      -2.177  52.829 -24.549  1.00  0.00    -0.317 OA
BRANCH  10  11
HETATM   11  C7  UNL     1      -3.305  52.211 -24.991  1.00  0.00     0.255 C 
HETATM   12  C8  UNL     1      -3.114  51.746 -26.403  1.00  0.00     0.126 C 
HETATM   13  O4  UNL     1      -4.325  52.045 -24.338  1.00  0.00    -0.266 OA
ENDBRANCH  10  11
ENDBRANCH   9  10
ENDBRANCH   2   9
ENDBRANCH   1   2
BRANCH   1  14
HETATM   14  C10 UNL     1      -0.650  51.728 -20.584  1.00  0.00     0.047 C 
BRANCH  14  15
HETATM   15  C11 UNL     1      -1.084  50.344 -19.962  1.00  0.00    -0.033 C 
HETATM   16  C12 UNL     1      -0.453  49.194 -20.804  1.00  0.00     0.016 C 
HETATM   17  C13 UNL     1      -2.643  50.187 -20.127  1.00  0.00    -0.010 C 
HETATM   18  C14 UNL     1      -3.446  51.444 -19.742  1.00  0.00     0.011 C 
HETATM   19  C15 UNL     1      -3.218  48.910 -19.474  1.00  0.00     0.006 C 
HETATM   20  C16 UNL     1      -2.451  48.362 -18.269  1.00  0.00     0.017 C 
HETATM   21  C17 UNL     1      -1.680  49.434 -17.492  1.00  0.00     0.021 C 
HETATM   22  C18 UNL     1      -2.686  50.358 -16.768  1.00  0.00     0.024 C 
HETATM   23  C19 UNL     1      -0.849  48.765 -16.375  1.00  0.00     0.135 C 
HETATM   24  C23 UNL     1      -0.636  50.117 -18.445  1.00  0.00     0.010 C 
HETATM   25  O5  UNL     1      -1.174  47.692 -15.866  1.00  0.00    -0.297 OA
HETATM   26  C20 UNL     1       0.414  49.478 -15.920  1.00  0.00     0.079 C 
HETATM   27  C21 UNL     1       0.367  50.969 -16.232  1.00  0.00     0.008 C 
HETATM   28  C22 UNL     1       0.084  51.268 -17.714  1.00  0.00     0.007 C 
ENDBRANCH  14  15
ENDBRANCH   1  14
BRANCH   1  29
HETATM   29  O6  UNL     1       1.434  52.506 -21.537  1.00  0.00    -0.312 OA
BRANCH  29  30
HETATM   30  C24 UNL     1       1.311  53.798 -21.143  1.00  0.00     0.255 C 
HETATM   31  C25 UNL     1       0.508  53.871 -19.880  1.00  0.00     0.126 C 
HETATM   32  O7  UNL     1       1.773  54.771 -21.721  1.00  0.00    -0.266 OA
ENDBRANCH  29  30
ENDBRANCH   1  29
TORSDOF 11
ENDMDL
MODEL 3
REMARK minimizedAffinity -7.85567093
REMARK  11 active torsions:
REMARK  status: ('A' for Active; 'I' for Inactive)
REMARK    1  A    between atoms: C2_2  and  O2_4 
REMARK    2  A    between atoms: O2_4  and  C3_5 
REMARK    3  A    between atoms: C3_5  and  C4_6 
REMARK    4  A    between atoms: C5_7  and  C6_8 
REMARK    5  A    between atoms: C5_7  and  C9_13 
REMARK    6  A    between atoms: C6_8  and  O3_9 
REMARK    7  A    between atoms: O3_9  and  C7_10 
REMARK    8  A    between atoms: C9_13  and  C10_14 
REMARK    9  A    between atoms: C9_13  and  O6_29 
REMARK   10  A    between atoms: C10_14  and  C11_15 
REMARK   11  A    between atoms: O6_29  and  C24_30 
ROOT
HETATM    1  C9  UNL     1      -1.600  51.215 -22.914  1.00  0.00     0.163 C 
ENDROOT
BRANCH   1   2
HETATM    2  C5  UNL     1      -0.443  51.909 -23.636  1.00  0.00    -0.028 C 
HETATM    3  C4  UNL     1       0.055  51.493 -24.821  1.00  0.00     0.007 C 
BRANCH   3   4
HETATM    4  C3  UNL     1       1.184  52.067 -25.629  1.00  0.00     0.206 C 
BRANCH   4   5
HETATM    5  O2  UNL     1       0.725  53.267 -26.266  1.00  0.00    -0.318 OA
BRANCH   5   6
HETATM    6  C2  UNL     1      -0.118  53.099 -27.318  1.00  0.00     0.255 C 
HETATM    7  C1  UNL     1       0.486  52.152 -28.309  1.00  0.00     0.126 C 
HETATM    8  O1  UNL     1      -1.216  53.624 -27.447  1.00  0.00    -0.266 OA
ENDBRANCH   5   6
ENDBRANCH   4   5
ENDBRANCH   3   4
BRANCH   2   9
HETATM    9  C6  UNL     1       0.049  53.139 -22.900  1.00  0.00     0.215 C 
BRANCH   9  10
HETATM   10  O3  UNL     1       1.108  52.734 -22.028  1.00  0.00    -0.317 OA
BRANCH  10  11
HETATM   11  C7  UNL     1       1.489  53.696 -21.145  1.00  0.00     0.255 C 
HETATM   12  C8  UNL     1       1.197  53.249 -19.744  1.00  0.00     0.126 C 
HETATM   13  O4  UNL     1       2.003  54.765 -21.438  1.00  0.00    -0.266 OA
ENDBRANCH  10  11
ENDBRANCH   9  10
ENDBRANCH   2   9
ENDBRANCH   1   2
BRANCH   1  14
HETATM   14  C10 UNL     1      -2.924  51.992 -22.668  1.00  0.00     0.047 C 
BRANCH  14  15
HETATM   15  C11 UNL     1      -4.310  51.397 -23.132  1.00  0.00    -0.033 C 
HETATM   16  C12 UNL     1      -5.148  52.532 -23.795  1.00  0.00     0.016 C 
HETATM   17  C13 UNL     1      -5.120  50.960 -21.853  1.00  0.00    -0.010 C 
HETATM   18  C14 UNL     1      -4.293  50.167 -20.824  1.00  0.00     0.011 C 
HETATM   19  C15 UNL     1      -6.467  50.271 -22.169  1.00  0.00     0.006 C 
HETATM   20  C16 UNL     1      -6.548  49.521 -23.499  1.00  0.00     0.017 C 
HETATM   21  C17 UNL     1      -5.195  48.998 -23.993  1.00  0.00     0.021 C 
HETATM   22  C18 UNL     1      -4.728  47.849 -23.070  1.00  0.00     0.024 C 
HETATM   23  C19 UNL     1      -5.365  48.366 -25.392  1.00  0.00     0.135 C 
HETATM   24  C23 UNL     1      -4.211  50.205 -24.190  1.00  0.00     0.010 C 
HETATM   25  O5  UNL     1      -6.433  47.884 -25.771  1.00  0.00    -0.297 OA
HETATM   26  C20 UNL     1      -4.154  48.365 -26.311  1.00  0.00     0.079 C 
HETATM   27  C21 UNL     1      -2.851  48.478 -25.531  1.00  0.00     0.008 C 
HETATM   28  C22 UNL     1      -2.812  49.695 -24.591  1.00  0.00     0.007 C 
ENDBRANCH  14  15
ENDBRANCH   1  14
BRANCH   1  29
HETATM   29  O6  UNL     1      -1.042  50.896 -21.612  1.00  0.00    -0.312 OA
BRANCH  29  30
HETATM   30  C24 UNL     1      -1.069  49.598 -21.217  1.00  0.00     0.255 C 
HETATM   31  C25 UNL     1      -0.694  49.499 -19.770  1.00  0.00     0.126 C 
HETATM   32  O7  UNL     1      -1.349  48.640 -21.922  1.00  0.00    -0.266 OA
ENDBRANCH  29  30
ENDBRANCH   1  29
TORSDOF 11
ENDMDL
MODEL 4
REMARK minimizedAffinity -7.76758051
REMARK  11 active torsions:
REMARK  status: ('A' for Active; 'I' for Inactive)
REMARK    1  A    between atoms: C2_2  and  O2_4 
REMARK    2  A    between atoms: O2_4  and  C3_5 
REMARK    3  A    between atoms: C3_5  and  C4_6 
REMARK    4  A    between atoms: C5_7  and  C6_8 
REMARK    5  A    between atoms: C5_7  and  C9_13 
REMARK    6  A    between atoms: C6_8  and  O3_9 
REMARK    7  A    between atoms: O3_9  and  C7_10 
REMARK    8  A    between atoms: C9_13  and  C10_14 
REMARK    9  A    between atoms: C9_13  and  O6_29 
REMARK   10  A    between atoms: C10_14  and  C11_15 
REMARK   11  A    between atoms: O6_29  and  C24_30 
ROOT
HETATM    1  C9  UNL     1      -1.262  50.487 -23.198  1.00  0.00     0.163 C 
ENDROOT
BRANCH   1   2
HETATM    2  C5  UNL     1      -0.734  51.898 -23.470  1.00  0.00    -0.028 C 
HETATM    3  C4  UNL     1      -0.604  52.421 -24.709  1.00  0.00     0.007 C 
BRANCH   3   4
HETATM    4  C3  UNL     1      -0.095  53.772 -25.119  1.00  0.00     0.206 C 
BRANCH   4   5
HETATM    5  O2  UNL     1       0.662  53.627 -26.329  1.00  0.00    -0.318 OA
BRANCH   5   6
HETATM    6  C2  UNL     1      -0.061  53.496 -27.472  1.00  0.00     0.255 C 
HETATM    7  C1  UNL     1       0.406  52.293 -28.234  1.00  0.00     0.126 C 
HETATM    8  O1  UNL     1      -0.968  54.232 -27.834  1.00  0.00    -0.266 OA
ENDBRANCH   5   6
ENDBRANCH   4   5
ENDBRANCH   3   4
BRANCH   2   9
HETATM    9  C6  UNL     1      -0.417  52.657 -22.198  1.00  0.00     0.215 C 
BRANCH   9  10
HETATM   10  O3  UNL     1       1.006  52.689 -22.047  1.00  0.00    -0.317 OA
BRANCH  10  11
HETATM   11  C7  UNL     1       1.449  53.678 -21.227  1.00  0.00     0.255 C 
HETATM   12  C8  UNL     1       1.190  53.312 -19.797  1.00  0.00     0.126 C 
HETATM   13  O4  UNL     1       1.989  54.713 -21.590  1.00  0.00    -0.266 OA
ENDBRANCH  10  11
ENDBRANCH   9  10
ENDBRANCH   2   9
ENDBRANCH   1   2
BRANCH   1  14
HETATM   14  C10 UNL     1      -2.027  49.729 -24.318  1.00  0.00     0.047 C 
BRANCH  14  15
HETATM   15  C11 UNL     1      -3.519  49.262 -24.106  1.00  0.00    -0.033 C 
HETATM   16  C12 UNL     1      -4.020  48.570 -25.409  1.00  0.00     0.016 C 
HETATM   17  C13 UNL     1      -4.422  50.541 -23.927  1.00  0.00    -0.010 C 
HETATM   18  C14 UNL     1      -3.842  51.593 -22.963  1.00  0.00     0.011 C 
HETATM   19  C15 UNL     1      -5.903  50.225 -23.617  1.00  0.00     0.006 C 
HETATM   20  C16 UNL     1      -6.176  48.908 -22.888  1.00  0.00     0.017 C 
HETATM   21  C17 UNL     1      -5.009  48.438 -22.012  1.00  0.00     0.021 C 
HETATM   22  C18 UNL     1      -4.871  49.386 -20.800  1.00  0.00     0.024 C 
HETATM   23  C19 UNL     1      -5.336  47.049 -21.419  1.00  0.00     0.135 C 
HETATM   24  C23 UNL     1      -3.738  48.227 -22.908  1.00  0.00     0.010 C 
HETATM   25  O5  UNL     1      -6.492  46.668 -21.233  1.00  0.00    -0.297 OA
HETATM   26  C20 UNL     1      -4.165  46.142 -21.076  1.00  0.00     0.079 C 
HETATM   27  C21 UNL     1      -2.882  46.933 -20.853  1.00  0.00     0.008 C 
HETATM   28  C22 UNL     1      -2.524  47.850 -22.035  1.00  0.00     0.007 C 
ENDBRANCH  14  15
ENDBRANCH   1  14
BRANCH   1  29
HETATM   29  O6  UNL     1      -2.193  50.683 -22.100  1.00  0.00    -0.312 OA
BRANCH  29  30
HETATM   30  C24 UNL     1      -1.697  50.632 -20.838  1.00  0.00     0.255 C 
HETATM   31  C25 UNL     1      -0.488  49.748 -20.802  1.00  0.00     0.126 C 
HETATM   32  O7  UNL     1      -2.158  51.207 -19.863  1.00  0.00    -0.266 OA
ENDBRANCH  29  30
ENDBRANCH   1  29
TORSDOF 11
ENDMDL
MODEL 5
REMARK minimizedAffinity -7.73239946
REMARK  11 active torsions:
REMARK  status: ('A' for Active; 'I' for Inactive)
REMARK    1  A    between atoms: C2_2  and  O2_4 
REMARK    2  A    between atoms: O2_4  and  C3_5 
REMARK    3  A    between atoms: C3_5  and  C4_6 
REMARK    4  A    between atoms: C5_7  and  C6_8 
REMARK    5  A    between atoms: C5_7  and  C9_13 
REMARK    6  A    between atoms: C6_8  and  O3_9 
REMARK    7  A    between atoms: O3_9  and  C7_10 
REMARK    8  A    between atoms: C9_13  and  C10_14 
REMARK    9  A    between atoms: C9_13  and  O6_29 
REMARK   10  A    between atoms: C10_14  and  C11_15 
REMARK   11  A    between atoms: O6_29  and  C24_30 
ROOT
HETATM    1  C9  UNL     1      -2.171  50.621 -24.877  1.00  0.00     0.163 C 
ENDROOT
BRANCH   1   2
HETATM    2  C5  UNL     1      -0.963  51.531 -24.643  1.00  0.00    -0.028 C 
HETATM    3  C4  UNL     1      -0.470  51.818 -23.418  1.00  0.00     0.007 C 
BRANCH   3   4
HETATM    4  C3  UNL     1       0.690  52.694 -23.045  1.00  0.00     0.206 C 
BRANCH   4   5
HETATM    5  O2  UNL     1       0.975  52.506 -21.651  1.00  0.00    -0.318 OA
BRANCH   5   6
HETATM    6  C2  UNL     1       1.156  53.638 -20.921  1.00  0.00     0.255 C 
HETATM    7  C1  UNL     1       0.359  53.560 -19.655  1.00  0.00     0.126 C 
HETATM    8  O1  UNL     1       1.869  54.583 -21.231  1.00  0.00    -0.266 OA
ENDBRANCH   5   6
ENDBRANCH   4   5
ENDBRANCH   3   4
BRANCH   2   9
HETATM    9  C6  UNL     1      -0.353  52.035 -25.935  1.00  0.00     0.215 C 
BRANCH   9  10
HETATM   10  O3  UNL     1      -1.060  53.217 -26.323  1.00  0.00    -0.317 OA
BRANCH  10  11
HETATM   11  C7  UNL     1      -0.944  53.518 -27.644  1.00  0.00     0.255 C 
HETATM   12  C8  UNL     1       0.182  52.736 -28.249  1.00  0.00     0.126 C 
HETATM   13  O4  UNL     1      -1.654  54.300 -28.258  1.00  0.00    -0.266 OA
ENDBRANCH  10  11
ENDBRANCH   9  10
ENDBRANCH   2   9
ENDBRANCH   1   2
BRANCH   1  14
HETATM   14  C10 UNL     1      -2.478  49.483 -23.864  1.00  0.00     0.047 C 
BRANCH  14  15
HETATM   15  C11 UNL     1      -3.574  49.669 -22.745  1.00  0.00    -0.033 C 
HETATM   16  C12 UNL     1      -3.714  51.188 -22.425  1.00  0.00     0.016 C 
HETATM   17  C13 UNL     1      -3.052  49.000 -21.417  1.00  0.00    -0.010 C 
HETATM   18  C14 UNL     1      -2.442  47.599 -21.615  1.00  0.00     0.011 C 
HETATM   19  C15 UNL     1      -4.073  49.028 -20.257  1.00  0.00     0.006 C 
HETATM   20  C16 UNL     1      -5.550  49.041 -20.655  1.00  0.00     0.017 C 
HETATM   21  C17 UNL     1      -5.827  48.378 -22.009  1.00  0.00     0.021 C 
HETATM   22  C18 UNL     1      -5.601  46.855 -21.884  1.00  0.00     0.024 C 
HETATM   23  C19 UNL     1      -7.319  48.550 -22.372  1.00  0.00     0.135 C 
HETATM   24  C23 UNL     1      -5.029  49.133 -23.130  1.00  0.00     0.010 C 
HETATM   25  O5  UNL     1      -8.194  48.684 -21.516  1.00  0.00    -0.297 OA
HETATM   26  C20 UNL     1      -7.683  48.560 -23.848  1.00  0.00     0.079 C 
HETATM   27  C21 UNL     1      -6.628  47.861 -24.697  1.00  0.00     0.008 C 
HETATM   28  C22 UNL     1      -5.212  48.424 -24.488  1.00  0.00     0.007 C 
ENDBRANCH  14  15
ENDBRANCH   1  14
BRANCH   1  29
HETATM   29  O6  UNL     1      -1.876  49.991 -26.153  1.00  0.00    -0.312 OA
BRANCH  29  30
HETATM   30  C24 UNL     1      -2.856  49.986 -27.092  1.00  0.00     0.255 C 
HETATM   31  C25 UNL     1      -3.316  48.582 -27.339  1.00  0.00     0.126 C 
HETATM   32  O7  UNL     1      -3.303  50.967 -27.666  1.00  0.00    -0.266 OA
ENDBRANCH  29  30
ENDBRANCH   1  29
TORSDOF 11
ENDMDL
MODEL 6
REMARK minimizedAffinity -7.72436333
REMARK  11 active torsions:
REMARK  status: ('A' for Active; 'I' for Inactive)
REMARK    1  A    between atoms: C2_2  and  O2_4 
REMARK    2  A    between atoms: O2_4  and  C3_5 
REMARK    3  A    between atoms: C3_5  and  C4_6 
REMARK    4  A    between atoms: C5_7  and  C6_8 
REMARK    5  A    between atoms: C5_7  and  C9_13 
REMARK    6  A    between atoms: C6_8  and  O3_9 
REMARK    7  A    between atoms: O3_9  and  C7_10 
REMARK    8  A    between atoms: C9_13  and  C10_14 
REMARK    9  A    between atoms: C9_13  and  O6_29 
REMARK   10  A    between atoms: C10_14  and  C11_15 
REMARK   11  A    between atoms: O6_29  and  C24_30 
ROOT
HETATM    1  C9  UNL     1      -2.405  51.993 -24.440  1.00  0.00     0.163 C 
ENDROOT
BRANCH   1   2
HETATM    2  C5  UNL     1      -0.931  51.907 -24.036  1.00  0.00    -0.028 C 
HETATM    3  C4  UNL     1      -0.433  52.453 -22.904  1.00  0.00     0.007 C 
BRANCH   3   4
HETATM    4  C3  UNL     1       0.979  52.455 -22.395  1.00  0.00     0.206 C 
BRANCH   4   5
HETATM    5  O2  UNL     1       0.949  52.315 -20.967  1.00  0.00    -0.318 OA
BRANCH   5   6
HETATM    6  C2  UNL     1       0.857  53.469 -20.256  1.00  0.00     0.255 C 
HETATM    7  C1  UNL     1      -0.080  53.283 -19.102  1.00  0.00     0.126 C 
HETATM    8  O1  UNL     1       1.454  54.509 -20.500  1.00  0.00    -0.266 OA
ENDBRANCH   5   6
ENDBRANCH   4   5
ENDBRANCH   3   4
BRANCH   2   9
HETATM    9  C6  UNL     1      -0.104  51.103 -25.018  1.00  0.00     0.215 C 
BRANCH   9  10
HETATM   10  O3  UNL     1       1.004  51.913 -25.424  1.00  0.00    -0.317 OA
BRANCH  10  11
HETATM   11  C7  UNL     1       1.647  51.448 -26.529  1.00  0.00     0.255 C 
HETATM   12  C8  UNL     1       0.731  51.501 -27.714  1.00  0.00     0.126 C 
HETATM   13  O4  UNL     1       2.803  51.054 -26.564  1.00  0.00    -0.266 OA
ENDBRANCH  10  11
ENDBRANCH   9  10
ENDBRANCH   2   9
ENDBRANCH   1   2
BRANCH   1  14
HETATM   14  C10 UNL     1      -3.493  51.434 -23.482  1.00  0.00     0.047 C 
BRANCH  14  15
HETATM   15  C11 UNL     1      -3.172  50.241 -22.499  1.00  0.00    -0.033 C 
HETATM   16  C12 UNL     1      -2.043  50.686 -21.521  1.00  0.00     0.016 C 
HETATM   17  C13 UNL     1      -2.565  49.052 -23.337  1.00  0.00    -0.010 C 
HETATM   18  C14 UNL     1      -3.333  48.741 -24.636  1.00  0.00     0.011 C 
HETATM   19  C15 UNL     1      -2.289  47.777 -22.508  1.00  0.00     0.006 C 
HETATM   20  C16 UNL     1      -3.179  47.560 -21.283  1.00  0.00     0.017 C 
HETATM   21  C17 UNL     1      -4.564  48.203 -21.409  1.00  0.00     0.021 C 
HETATM   22  C18 UNL     1      -5.385  47.436 -22.470  1.00  0.00     0.024 C 
HETATM   23  C19 UNL     1      -5.336  48.031 -20.082  1.00  0.00     0.135 C 
HETATM   24  C23 UNL     1      -4.403  49.752 -21.607  1.00  0.00     0.010 C 
HETATM   25  O5  UNL     1      -5.111  47.102 -19.305  1.00  0.00    -0.297 OA
HETATM   26  C20 UNL     1      -6.394  49.070 -19.748  1.00  0.00     0.079 C 
HETATM   27  C21 UNL     1      -6.904  49.780 -20.995  1.00  0.00     0.008 C 
HETATM   28  C22 UNL     1      -5.780  50.409 -21.836  1.00  0.00     0.007 C 
ENDBRANCH  14  15
ENDBRANCH   1  14
BRANCH   1  29
HETATM   29  O6  UNL     1      -2.466  51.208 -25.661  1.00  0.00    -0.312 OA
BRANCH  29  30
HETATM   30  C24 UNL     1      -2.729  51.866 -26.818  1.00  0.00     0.255 C 
HETATM   31  C25 UNL     1      -3.078  50.884 -27.894  1.00  0.00     0.126 C 
HETATM   32  O7  UNL     1      -2.687  53.077 -26.980  1.00  0.00    -0.266 OA
ENDBRANCH  29  30
ENDBRANCH   1  29
TORSDOF 11
ENDMDL
MODEL 7
REMARK minimizedAffinity -7.66983747
REMARK  11 active torsions:
REMARK  status: ('A' for Active; 'I' for Inactive)
REMARK    1  A    between atoms: C2_2  and  O2_4 
REMARK    2  A    between atoms: O2_4  and  C3_5 
REMARK    3  A    between atoms: C3_5  and  C4_6 
REMARK    4  A    between atoms: C5_7  and  C6_8 
REMARK    5  A    between atoms: C5_7  and  C9_13 
REMARK    6  A    between atoms: C6_8  and  O3_9 
REMARK    7  A    between atoms: O3_9  and  C7_10 
REMARK    8  A    between atoms: C9_13  and  C10_14 
REMARK    9  A    between atoms: C9_13  and  O6_29 
REMARK   10  A    between atoms: C10_14  and  C11_15 
REMARK   11  A    between atoms: O6_29  and  C24_30 
ROOT
HETATM    1  C9  UNL     1      -2.956  51.632 -24.610  1.00  0.00     0.163 C 
ENDROOT
BRANCH   1   2
HETATM    2  C5  UNL     1      -1.527  52.007 -24.211  1.00  0.00    -0.028 C 
HETATM    3  C4  UNL     1      -0.461  51.862 -25.028  1.00  0.00     0.007 C 
BRANCH   3   4
HETATM    4  C3  UNL     1       0.984  52.176 -24.766  1.00  0.00     0.206 C 
BRANCH   4   5
HETATM    5  O2  UNL     1       1.570  52.674 -25.977  1.00  0.00    -0.318 OA
BRANCH   5   6
HETATM    6  C2  UNL     1       2.091  51.740 -26.815  1.00  0.00     0.255 C 
HETATM    7  C1  UNL     1       1.365  51.771 -28.126  1.00  0.00     0.126 C 
HETATM    8  O1  UNL     1       3.021  50.988 -26.560  1.00  0.00    -0.266 OA
ENDBRANCH   5   6
ENDBRANCH   4   5
ENDBRANCH   3   4
BRANCH   2   9
HETATM    9  C6  UNL     1      -1.448  52.602 -22.820  1.00  0.00     0.215 C 
BRANCH   9  10
HETATM   10  O3  UNL     1      -0.682  51.709 -22.004  1.00  0.00    -0.317 OA
BRANCH  10  11
HETATM   11  C7  UNL     1      -0.265  52.259 -20.832  1.00  0.00     0.255 C 
HETATM   12  C8  UNL     1       1.128  52.789 -20.983  1.00  0.00     0.126 C 
HETATM   13  O4  UNL     1      -0.925  52.326 -19.805  1.00  0.00    -0.266 OA
ENDBRANCH  10  11
ENDBRANCH   9  10
ENDBRANCH   2   9
ENDBRANCH   1   2
BRANCH   1  14
HETATM   14  C10 UNL     1      -3.241  50.219 -25.192  1.00  0.00     0.047 C 
BRANCH  14  15
HETATM   15  C11 UNL     1      -4.278  49.252 -24.498  1.00  0.00    -0.033 C 
HETATM   16  C12 UNL     1      -4.783  48.219 -25.549  1.00  0.00     0.016 C 
HETATM   17  C13 UNL     1      -5.544  50.092 -24.083  1.00  0.00    -0.010 C 
HETATM   18  C14 UNL     1      -5.215  51.427 -23.389  1.00  0.00     0.011 C 
HETATM   19  C15 UNL     1      -6.606  49.283 -23.305  1.00  0.00     0.006 C 
HETATM   20  C16 UNL     1      -6.089  48.099 -22.485  1.00  0.00     0.017 C 
HETATM   21  C17 UNL     1      -4.641  48.266 -22.013  1.00  0.00     0.021 C 
HETATM   22  C18 UNL     1      -4.582  49.377 -20.940  1.00  0.00     0.024 C 
HETATM   23  C19 UNL     1      -4.178  46.975 -21.302  1.00  0.00     0.135 C 
HETATM   24  C23 UNL     1      -3.702  48.422 -23.261  1.00  0.00     0.010 C 
HETATM   25  O5  UNL     1      -4.967  46.212 -20.743  1.00  0.00    -0.297 OA
HETATM   26  C20 UNL     1      -2.691  46.660 -21.321  1.00  0.00     0.079 C 
HETATM   27  C21 UNL     1      -1.850  47.910 -21.546  1.00  0.00     0.008 C 
HETATM   28  C22 UNL     1      -2.251  48.691 -22.810  1.00  0.00     0.007 C 
ENDBRANCH  14  15
ENDBRANCH   1  14
BRANCH   1  29
HETATM   29  O6  UNL     1      -3.280  52.595 -25.648  1.00  0.00    -0.312 OA
BRANCH  29  30
HETATM   30  C24 UNL     1      -2.666  52.455 -26.849  1.00  0.00     0.255 C 
HETATM   31  C25 UNL     1      -3.064  51.154 -27.476  1.00  0.00     0.126 C 
HETATM   32  O7  UNL     1      -1.895  53.256 -27.358  1.00  0.00    -0.266 OA
ENDBRANCH  29  30
ENDBRANCH   1  29
TORSDOF 11
ENDMDL
MODEL 8
REMARK minimizedAffinity -7.59950161
REMARK  11 active torsions:
REMARK  status: ('A' for Active; 'I' for Inactive)
REMARK    1  A    between atoms: C2_2  and  O2_4 
REMARK    2  A    between atoms: O2_4  and  C3_5 
REMARK    3  A    between atoms: C3_5  and  C4_6 
REMARK    4  A    between atoms: C5_7  and  C6_8 
REMARK    5  A    between atoms: C5_7  and  C9_13 
REMARK    6  A    between atoms: C6_8  and  O3_9 
REMARK    7  A    between atoms: O3_9  and  C7_10 
REMARK    8  A    between atoms: C9_13  and  C10_14 
REMARK    9  A    between atoms: C9_13  and  O6_29 
REMARK   10  A    between atoms: C10_14  and  C11_15 
REMARK   11  A    between atoms: O6_29  and  C24_30 
ROOT
HETATM    1  C9  UNL     1      -0.870  51.733 -22.134  1.00  0.00     0.163 C 
ENDROOT
BRANCH   1   2
HETATM    2  C5  UNL     1      -0.742  51.642 -23.656  1.00  0.00    -0.028 C 
HETATM    3  C4  UNL     1      -1.378  50.713 -24.405  1.00  0.00     0.007 C 
BRANCH   3   4
HETATM    4  C3  UNL     1      -1.335  50.503 -25.891  1.00  0.00     0.206 C 
BRANCH   4   5
HETATM    5  O2  UNL     1      -2.639  50.770 -26.427  1.00  0.00    -0.318 OA
BRANCH   5   6
HETATM    6  C2  UNL     1      -3.084  49.902 -27.373  1.00  0.00     0.255 C 
HETATM    7  C1  UNL     1      -3.160  48.520 -26.800  1.00  0.00     0.126 C 
HETATM    8  O1  UNL     1      -3.394  50.192 -28.521  1.00  0.00    -0.266 OA
ENDBRANCH   5   6
ENDBRANCH   4   5
ENDBRANCH   3   4
BRANCH   2   9
HETATM    9  C6  UNL     1       0.136  52.732 -24.234  1.00  0.00     0.215 C 
BRANCH   9  10
HETATM   10  O3  UNL     1      -0.701  53.622 -24.980  1.00  0.00    -0.317 OA
BRANCH  10  11
HETATM   11  C7  UNL     1      -0.043  54.310 -25.951  1.00  0.00     0.255 C 
HETATM   12  C8  UNL     1       0.159  53.435 -27.151  1.00  0.00     0.126 C 
HETATM   13  O4  UNL     1       0.324  55.472 -25.871  1.00  0.00    -0.266 OA
ENDBRANCH  10  11
ENDBRANCH   9  10
ENDBRANCH   2   9
ENDBRANCH   1   2
BRANCH   1  14
HETATM   14  C10 UNL     1      -2.274  51.620 -21.477  1.00  0.00     0.047 C 
BRANCH  14  15
HETATM   15  C11 UNL     1      -2.638  50.394 -20.552  1.00  0.00    -0.033 C 
HETATM   16  C12 UNL     1      -3.445  50.912 -19.324  1.00  0.00     0.016 C 
HETATM   17  C13 UNL     1      -1.304  49.797 -19.965  1.00  0.00    -0.010 C 
HETATM   18  C14 UNL     1      -0.182  49.618 -21.005  1.00  0.00     0.011 C 
HETATM   19  C15 UNL     1      -1.508  48.525 -19.110  1.00  0.00     0.006 C 
HETATM   20  C16 UNL     1      -2.721  47.661 -19.461  1.00  0.00     0.017 C 
HETATM   21  C17 UNL     1      -3.148  47.771 -20.929  1.00  0.00     0.021 C 
HETATM   22  C18 UNL     1      -2.079  47.100 -21.821  1.00  0.00     0.024 C 
HETATM   23  C19 UNL     1      -4.444  46.960 -21.151  1.00  0.00     0.135 C 
HETATM   24  C23 UNL     1      -3.521  49.261 -21.252  1.00  0.00     0.010 C 
HETATM   25  O5  UNL     1      -4.743  45.992 -20.451  1.00  0.00    -0.297 OA
HETATM   26  C20 UNL     1      -5.365  47.407 -22.275  1.00  0.00     0.079 C 
HETATM   27  C21 UNL     1      -4.620  48.213 -23.331  1.00  0.00     0.008 C 
HETATM   28  C22 UNL     1      -3.859  49.416 -22.749  1.00  0.00     0.007 C 
ENDBRANCH  14  15
ENDBRANCH   1  14
BRANCH   1  29
HETATM   29  O6  UNL     1      -0.362  53.060 -21.833  1.00  0.00    -0.312 OA
BRANCH  29  30
HETATM   30  C24 UNL     1       0.385  53.207 -20.709  1.00  0.00     0.255 C 
HETATM   31  C25 UNL     1       1.686  53.870 -21.046  1.00  0.00     0.126 C 
HETATM   32  O7  UNL     1       0.066  52.852 -19.585  1.00  0.00    -0.266 OA
ENDBRANCH  29  30
ENDBRANCH   1  29
TORSDOF 11
ENDMDL
MODEL 9
REMARK minimizedAffinity -7.5123148
REMARK  11 active torsions:
REMARK  status: ('A' for Active; 'I' for Inactive)
REMARK    1  A    between atoms: C2_2  and  O2_4 
REMARK    2  A    between atoms: O2_4  and  C3_5 
REMARK    3  A    between atoms: C3_5  and  C4_6 
REMARK    4  A    between atoms: C5_7  and  C6_8 
REMARK    5  A    between atoms: C5_7  and  C9_13 
REMARK    6  A    between atoms: C6_8  and  O3_9 
REMARK    7  A    between atoms: O3_9  and  C7_10 
REMARK    8  A    between atoms: C9_13  and  C10_14 
REMARK    9  A    between atoms: C9_13  and  O6_29 
REMARK   10  A    between atoms: C10_14  and  C11_15 
REMARK   11  A    between atoms: O6_29  and  C24_30 
ROOT
HETATM    1  C9  UNL     1      -2.119  50.791 -23.832  1.00  0.00     0.163 C 
ENDROOT
BRANCH   1   2
HETATM    2  C5  UNL     1      -0.716  51.379 -24.004  1.00  0.00    -0.028 C 
HETATM    3  C4  UNL     1      -0.119  51.547 -25.205  1.00  0.00     0.007 C 
BRANCH   3   4
HETATM    4  C3  UNL     1       1.243  52.096 -25.518  1.00  0.00     0.206 C 
BRANCH   4   5
HETATM    5  O2  UNL     1       1.159  52.864 -26.726  1.00  0.00    -0.318 OA
BRANCH   5   6
HETATM    6  C2  UNL     1       0.238  53.863 -26.735  1.00  0.00     0.255 C 
HETATM    7  C1  UNL     1      -0.668  53.708 -27.918  1.00  0.00     0.126 C 
HETATM    8  O1  UNL     1       0.141  54.754 -25.904  1.00  0.00    -0.266 OA
ENDBRANCH   5   6
ENDBRANCH   4   5
ENDBRANCH   3   4
BRANCH   2   9
HETATM    9  C6  UNL     1      -0.092  51.793 -22.688  1.00  0.00     0.215 C 
BRANCH   9  10
HETATM   10  O3  UNL     1       0.322  53.158 -22.808  1.00  0.00    -0.317 OA
BRANCH  10  11
HETATM   11  C7  UNL     1       0.944  53.642 -21.701  1.00  0.00     0.255 C 
HETATM   12  C8  UNL     1       0.507  52.873 -20.491  1.00  0.00     0.126 C 
HETATM   13  O4  UNL     1       1.750  54.561 -21.684  1.00  0.00    -0.266 OA
ENDBRANCH  10  11
ENDBRANCH   9  10
ENDBRANCH   2   9
ENDBRANCH   1   2
BRANCH   1  14
HETATM   14  C10 UNL     1      -2.289  49.416 -23.128  1.00  0.00     0.047 C 
BRANCH  14  15
HETATM   15  C11 UNL     1      -3.276  49.249 -21.907  1.00  0.00    -0.033 C 
HETATM   16  C12 UNL     1      -4.056  47.910 -22.069  1.00  0.00     0.016 C 
HETATM   17  C13 UNL     1      -4.362  50.388 -21.982  1.00  0.00    -0.010 C 
HETATM   18  C14 UNL     1      -3.788  51.788 -22.271  1.00  0.00     0.011 C 
HETATM   19  C15 UNL     1      -5.343  50.399 -20.788  1.00  0.00     0.006 C 
HETATM   20  C16 UNL     1      -4.805  49.851 -19.465  1.00  0.00     0.017 C 
HETATM   21  C17 UNL     1      -3.287  49.994 -19.313  1.00  0.00     0.021 C 
HETATM   22  C18 UNL     1      -2.932  51.489 -19.144  1.00  0.00     0.024 C 
HETATM   23  C19 UNL     1      -2.832  49.307 -18.007  1.00  0.00     0.135 C 
HETATM   24  C23 UNL     1      -2.573  49.214 -20.473  1.00  0.00     0.010 C 
HETATM   25  O5  UNL     1      -3.579  49.177 -17.036  1.00  0.00    -0.297 OA
HETATM   26  C20 UNL     1      -1.409  48.775 -17.955  1.00  0.00     0.079 C 
HETATM   27  C21 UNL     1      -0.505  49.476 -18.961  1.00  0.00     0.008 C 
HETATM   28  C22 UNL     1      -1.046  49.425 -20.400  1.00  0.00     0.007 C 
ENDBRANCH  14  15
ENDBRANCH   1  14
BRANCH   1  29
HETATM   29  O6  UNL     1      -2.588  50.633 -25.198  1.00  0.00    -0.312 OA
BRANCH  29  30
HETATM   30  C24 UNL     1      -3.496  49.655 -25.442  1.00  0.00     0.255 C 
HETATM   31  C25 UNL     1      -2.849  48.539 -26.203  1.00  0.00     0.126 C 
HETATM   32  O7  UNL     1      -4.671  49.667 -25.105  1.00  0.00    -0.266 OA
ENDBRANCH  29  30
ENDBRANCH   1  29
TORSDOF 11
ENDMDL
