MODEL 1
REMARK minimizedAffinity -6.95548248
REMARK CNNscore 0.419861197
REMARK CNNaffinity 6.1130662
REMARK  7 active torsions:
REMARK  status: ('A' for Active; 'I' for Inactive)
REMARK    1  A    between atoms: C2_2  and  C3_3 
REMARK    2  A    between atoms: C2_2  and  C4_5 
REMARK    3  A    between atoms: C3_3  and  O1_4 
REMARK    4  A    between atoms: C13_14  and  C14_15 
REMARK    5  A    between atoms: C14_15  and  C16_17 
REMARK    6  A    between atoms: C16_17  and  C17_18 
REMARK    7  A    between atoms: C17_18  and  C18_20 
ROOT
HETATM    1  C4  UNL     1      -8.171  44.886 -31.347  1.00  0.00     0.051 C 
HETATM    2  C5  UNL     1      -9.707  44.685 -31.436  1.00  0.00     0.012 C 
HETATM    3  C6  UNL     1     -10.649  45.760 -30.896  1.00  0.00     0.006 C 
HETATM    4  C7  UNL     1     -10.546  46.169 -29.405  1.00  0.00    -0.001 C 
HETATM    5  C8  UNL     1      -9.226  45.749 -28.694  1.00  0.00    -0.007 C 
HETATM    6  C9  UNL     1      -9.214  46.024 -27.162  1.00  0.00     0.006 C 
HETATM    7  C10 UNL     1     -10.512  45.715 -26.402  1.00  0.00     0.011 C 
HETATM    8  C11 UNL     1     -11.733  46.313 -27.115  1.00  0.00    -0.032 C 
HETATM    9  C12 UNL     1     -11.610  47.869 -27.086  1.00  0.00     0.016 C 
HETATM   10  C13 UNL     1     -13.139  45.910 -26.565  1.00  0.00    -0.002 C 
HETATM   11  C22 UNL     1     -14.057  46.143 -27.800  1.00  0.00     0.006 C 
HETATM   12  C23 UNL     1     -13.156  46.204 -29.049  1.00  0.00     0.011 C 
HETATM   13  C24 UNL     1     -11.783  45.697 -28.570  1.00  0.00    -0.032 C 
HETATM   14  C25 UNL     1     -11.854  44.133 -28.600  1.00  0.00     0.016 C 
HETATM   15  C26 UNL     1      -7.963  46.417 -29.285  1.00  0.00     0.044 C 
HETATM   16  C27 UNL     1      -7.684  46.268 -30.808  1.00  0.00     0.079 C 
HETATM   17  C28 UNL     1      -8.128  47.514 -31.573  1.00  0.00     0.049 C 
HETATM   18  C29 UNL     1      -6.940  48.447 -31.514  1.00  0.00     0.114 C 
HETATM   19  C30 UNL     1      -5.789  47.519 -31.314  1.00  0.00     0.259 C 
HETATM   20  O3  UNL     1      -4.613  47.811 -31.453  1.00  0.00    -0.265 OA
HETATM   21  O4  UNL     1      -6.234  46.294 -30.924  1.00  0.00    -0.309 OA
ENDROOT
BRANCH  10  22
HETATM   22  C14 UNL     1     -13.709  46.588 -25.287  1.00  0.00    -0.007 C 
HETATM   23  C15 UNL     1     -12.824  46.385 -24.053  1.00  0.00     0.011 C 
BRANCH  22  24
HETATM   24  C16 UNL     1     -15.161  46.147 -24.971  1.00  0.00     0.087 C 
BRANCH  24  25
HETATM   25  C17 UNL     1     -15.887  47.036 -23.973  1.00  0.00     0.149 C 
HETATM   26  O2  UNL     1     -15.682  48.246 -23.938  1.00  0.00    -0.293 OA
BRANCH  25  27
HETATM   27  C18 UNL     1     -16.885  46.370 -23.076  1.00  0.00     0.052 C 
HETATM   28  C19 UNL     1     -18.215  46.314 -23.281  1.00  0.00    -0.084 C 
HETATM   29  C20 UNL     1     -19.106  45.568 -22.323  1.00  0.00     0.043 C 
HETATM   30  C21 UNL     1     -18.917  46.951 -24.449  1.00  0.00     0.043 C 
ENDBRANCH  25  27
ENDBRANCH  24  25
ENDBRANCH  22  24
ENDBRANCH  10  22
BRANCH   1  31
HETATM   31  C2  UNL     1      -7.524  44.320 -32.634  1.00  0.00    -0.059 C 
HETATM   32  C1  UNL     1      -6.370  43.634 -32.715  1.00  0.00     0.017 C 
BRANCH  31  33
HETATM   33  C3  UNL     1      -8.311  44.570 -33.906  1.00  0.00     0.198 C 
BRANCH  33  34
HETATM   34  O1  UNL     1      -7.999  43.564 -34.858  1.00  0.00    -0.397 OA
HETATM   35  H5  UNL     1      -7.042  43.395 -34.782  1.00  0.00     0.209 HD
ENDBRANCH  33  34
ENDBRANCH  31  33
ENDBRANCH   1  31
TORSDOF 7
ENDMDL
MODEL 2
REMARK minimizedAffinity -8.62392807
REMARK CNNscore 0.414297432
REMARK CNNaffinity 6.75545692
REMARK  7 active torsions:
REMARK  status: ('A' for Active; 'I' for Inactive)
REMARK    1  A    between atoms: C2_2  and  C3_3 
REMARK    2  A    between atoms: C2_2  and  C4_5 
REMARK    3  A    between atoms: C3_3  and  O1_4 
REMARK    4  A    between atoms: C13_14  and  C14_15 
REMARK    5  A    between atoms: C14_15  and  C16_17 
REMARK    6  A    between atoms: C16_17  and  C17_18 
REMARK    7  A    between atoms: C17_18  and  C18_20 
ROOT
HETATM    1  C4  UNL     1      -3.212  49.009 -24.475  1.00  0.00     0.051 C 
HETATM    2  C5  UNL     1      -3.923  48.293 -23.297  1.00  0.00     0.012 C 
HETATM    3  C6  UNL     1      -4.224  49.059 -22.009  1.00  0.00     0.006 C 
HETATM    4  C7  UNL     1      -3.051  49.702 -21.227  1.00  0.00    -0.001 C 
HETATM    5  C8  UNL     1      -1.729  49.864 -22.033  1.00  0.00    -0.007 C 
HETATM    6  C9  UNL     1      -0.522  50.358 -21.183  1.00  0.00     0.006 C 
HETATM    7  C10 UNL     1      -0.381  49.752 -19.779  1.00  0.00     0.011 C 
HETATM    8  C11 UNL     1      -1.714  49.789 -19.018  1.00  0.00    -0.032 C 
HETATM    9  C12 UNL     1      -2.104  51.281 -18.775  1.00  0.00     0.016 C 
HETATM   10  C13 UNL     1      -1.770  49.027 -17.655  1.00  0.00    -0.002 C 
HETATM   11  C22 UNL     1      -3.292  48.747 -17.494  1.00  0.00     0.006 C 
HETATM   12  C23 UNL     1      -3.948  48.914 -18.879  1.00  0.00     0.011 C 
HETATM   13  C24 UNL     1      -2.770  48.977 -19.868  1.00  0.00    -0.032 C 
HETATM   14  C25 UNL     1      -2.354  47.494 -20.157  1.00  0.00     0.016 C 
HETATM   15  C26 UNL     1      -1.853  50.818 -23.243  1.00  0.00     0.044 C 
HETATM   16  C27 UNL     1      -2.957  50.539 -24.303  1.00  0.00     0.079 C 
HETATM   17  C28 UNL     1      -4.176  51.431 -24.073  1.00  0.00     0.049 C 
HETATM   18  C29 UNL     1      -3.870  52.706 -24.825  1.00  0.00     0.114 C 
HETATM   19  C30 UNL     1      -2.899  52.260 -25.867  1.00  0.00     0.259 C 
HETATM   20  O3  UNL     1      -2.570  52.905 -26.849  1.00  0.00    -0.265 OA
HETATM   21  O4  UNL     1      -2.404  51.032 -25.555  1.00  0.00    -0.309 OA
ENDROOT
BRANCH  10  22
HETATM   22  C14 UNL     1      -1.162  49.662 -16.372  1.00  0.00    -0.007 C 
HETATM   23  C15 UNL     1       0.162  49.016 -15.950  1.00  0.00     0.011 C 
BRANCH  22  24
HETATM   24  C16 UNL     1      -2.150  49.664 -15.178  1.00  0.00     0.087 C 
BRANCH  24  25
HETATM   25  C17 UNL     1      -2.526  51.049 -14.672  1.00  0.00     0.149 C 
HETATM   26  O2  UNL     1      -3.509  51.637 -15.112  1.00  0.00    -0.293 OA
BRANCH  25  27
HETATM   27  C18 UNL     1      -1.666  51.630 -13.592  1.00  0.00     0.052 C 
HETATM   28  C19 UNL     1      -2.102  52.334 -12.530  1.00  0.00    -0.084 C 
HETATM   29  C20 UNL     1      -1.133  52.823 -11.486  1.00  0.00     0.043 C 
HETATM   30  C21 UNL     1      -3.545  52.677 -12.279  1.00  0.00     0.043 C 
ENDBRANCH  25  27
ENDBRANCH  24  25
ENDBRANCH  22  24
ENDBRANCH  10  22
BRANCH   1  31
HETATM   31  C2  UNL     1      -3.826  48.502 -25.802  1.00  0.00    -0.059 C 
HETATM   32  C1  UNL     1      -3.175  48.307 -26.963  1.00  0.00     0.017 C 
BRANCH  31  33
HETATM   33  C3  UNL     1      -5.308  48.189 -25.741  1.00  0.00     0.198 C 
BRANCH  33  34
HETATM   34  O1  UNL     1      -5.848  48.205 -27.054  1.00  0.00    -0.397 OA
HETATM   35  H5  UNL     1      -5.423  48.947 -27.521  1.00  0.00     0.209 HD
ENDBRANCH  33  34
ENDBRANCH  31  33
ENDBRANCH   1  31
TORSDOF 7
ENDMDL
MODEL 3
REMARK minimizedAffinity -7.53740788
REMARK CNNscore 0.35064894
REMARK CNNaffinity 6.61907434
REMARK  7 active torsions:
REMARK  status: ('A' for Active; 'I' for Inactive)
REMARK    1  A    between atoms: C2_2  and  C3_3 
REMARK    2  A    between atoms: C2_2  and  C4_5 
REMARK    3  A    between atoms: C3_3  and  O1_4 
REMARK    4  A    between atoms: C13_14  and  C14_15 
REMARK    5  A    between atoms: C14_15  and  C16_17 
REMARK    6  A    between atoms: C16_17  and  C17_18 
REMARK    7  A    between atoms: C17_18  and  C18_20 
ROOT
HETATM    1  C4  UNL     1      -6.690  46.317 -18.869  1.00  0.00     0.051 C 
HETATM    2  C5  UNL     1      -5.167  46.577 -18.733  1.00  0.00     0.012 C 
HETATM    3  C6  UNL     1      -4.600  47.963 -19.039  1.00  0.00     0.006 C 
HETATM    4  C7  UNL     1      -4.824  48.571 -20.447  1.00  0.00    -0.001 C 
HETATM    5  C8  UNL     1      -5.951  47.901 -21.285  1.00  0.00    -0.007 C 
HETATM    6  C9  UNL     1      -6.047  48.418 -22.750  1.00  0.00     0.006 C 
HETATM    7  C10 UNL     1      -4.716  48.652 -23.482  1.00  0.00     0.011 C 
HETATM    8  C11 UNL     1      -3.738  49.458 -22.616  1.00  0.00    -0.032 C 
HETATM    9  C12 UNL     1      -4.332  50.885 -22.397  1.00  0.00     0.016 C 
HETATM   10  C13 UNL     1      -2.276  49.600 -23.150  1.00  0.00    -0.002 C 
HETATM   11  C22 UNL     1      -1.474  49.885 -21.847  1.00  0.00     0.006 C 
HETATM   12  C23 UNL     1      -2.351  49.454 -20.654  1.00  0.00     0.011 C 
HETATM   13  C24 UNL     1      -3.501  48.647 -21.281  1.00  0.00    -0.032 C 
HETATM   14  C25 UNL     1      -2.954  47.196 -21.504  1.00  0.00     0.016 C 
HETATM   15  C26 UNL     1      -7.358  48.044 -20.660  1.00  0.00     0.044 C 
HETATM   16  C27 UNL     1      -7.578  47.558 -19.200  1.00  0.00     0.079 C 
HETATM   17  C28 UNL     1      -7.537  48.729 -18.219  1.00  0.00     0.049 C 
HETATM   18  C29 UNL     1      -8.955  49.255 -18.187  1.00  0.00     0.114 C 
HETATM   19  C30 UNL     1      -9.765  48.071 -18.596  1.00  0.00     0.259 C 
HETATM   20  O3  UNL     1     -10.974  47.966 -18.473  1.00  0.00    -0.265 OA
HETATM   21  O4  UNL     1      -8.966  47.124 -19.157  1.00  0.00    -0.309 OA
ENDROOT
BRANCH  10  22
HETATM   22  C14 UNL     1      -1.942  50.628 -24.269  1.00  0.00    -0.007 C 
HETATM   23  C15 UNL     1      -1.821  49.989 -25.655  1.00  0.00     0.011 C 
BRANCH  22  24
HETATM   24  C16 UNL     1      -0.670  51.459 -23.959  1.00  0.00     0.087 C 
BRANCH  24  25
HETATM   25  C17 UNL     1      -0.248  52.405 -25.073  1.00  0.00     0.149 C 
HETATM   26  O2  UNL     1      -0.963  53.344 -25.410  1.00  0.00    -0.293 OA
BRANCH  25  27
HETATM   27  C18 UNL     1       1.089  52.156 -25.700  1.00  0.00     0.052 C 
HETATM   28  C19 UNL     1       1.315  51.902 -27.003  1.00  0.00    -0.084 C 
HETATM   29  C20 UNL     1       2.719  51.717 -27.515  1.00  0.00     0.043 C 
HETATM   30  C21 UNL     1       0.232  51.796 -28.042  1.00  0.00     0.043 C 
ENDBRANCH  25  27
ENDBRANCH  24  25
ENDBRANCH  22  24
ENDBRANCH  10  22
BRANCH   1  31
HETATM   31  C2  UNL     1      -7.132  45.369 -17.728  1.00  0.00    -0.059 C 
HETATM   32  C1  UNL     1      -7.373  44.050 -17.830  1.00  0.00     0.017 C 
BRANCH  31  33
HETATM   33  C3  UNL     1      -7.279  46.030 -16.371  1.00  0.00     0.198 C 
BRANCH  33  34
HETATM   34  O1  UNL     1      -8.658  46.162 -16.058  1.00  0.00    -0.397 OA
HETATM   35  H5  UNL     1      -9.109  46.410 -16.885  1.00  0.00     0.209 HD
ENDBRANCH  33  34
ENDBRANCH  31  33
ENDBRANCH   1  31
TORSDOF 7
ENDMDL
MODEL 4
REMARK minimizedAffinity -8.94293118
REMARK CNNscore 0.309598237
REMARK CNNaffinity 6.72119379
REMARK  7 active torsions:
REMARK  status: ('A' for Active; 'I' for Inactive)
REMARK    1  A    between atoms: C2_2  and  C3_3 
REMARK    2  A    between atoms: C2_2  and  C4_5 
REMARK    3  A    between atoms: C3_3  and  O1_4 
REMARK    4  A    between atoms: C13_14  and  C14_15 
REMARK    5  A    between atoms: C14_15  and  C16_17 
REMARK    6  A    between atoms: C16_17  and  C17_18 
REMARK    7  A    between atoms: C17_18  and  C18_20 
ROOT
HETATM    1  C4  UNL     1      -3.248  48.964 -24.414  1.00  0.00     0.051 C 
HETATM    2  C5  UNL     1      -3.947  48.233 -23.237  1.00  0.00     0.012 C 
HETATM    3  C6  UNL     1      -4.244  48.987 -21.942  1.00  0.00     0.006 C 
HETATM    4  C7  UNL     1      -3.071  49.632 -21.162  1.00  0.00    -0.001 C 
HETATM    5  C8  UNL     1      -1.755  49.809 -21.974  1.00  0.00    -0.007 C 
HETATM    6  C9  UNL     1      -0.547  50.305 -21.128  1.00  0.00     0.006 C 
HETATM    7  C10 UNL     1      -0.392  49.688 -19.729  1.00  0.00     0.011 C 
HETATM    8  C11 UNL     1      -1.721  49.709 -18.960  1.00  0.00    -0.032 C 
HETATM    9  C12 UNL     1      -2.120  51.196 -18.703  1.00  0.00     0.016 C 
HETATM   10  C13 UNL     1      -1.763  48.936 -17.603  1.00  0.00    -0.002 C 
HETATM   11  C22 UNL     1      -3.282  48.644 -17.435  1.00  0.00     0.006 C 
HETATM   12  C23 UNL     1      -3.948  48.818 -18.815  1.00  0.00     0.011 C 
HETATM   13  C24 UNL     1      -2.777  48.897 -19.811  1.00  0.00    -0.032 C 
HETATM   14  C25 UNL     1      -2.353  47.420 -20.114  1.00  0.00     0.016 C 
HETATM   15  C26 UNL     1      -1.893  50.772 -23.176  1.00  0.00     0.044 C 
HETATM   16  C27 UNL     1      -3.002  50.494 -24.231  1.00  0.00     0.079 C 
HETATM   17  C28 UNL     1      -4.226  51.376 -23.986  1.00  0.00     0.049 C 
HETATM   18  C29 UNL     1      -3.933  52.659 -24.729  1.00  0.00     0.114 C 
HETATM   19  C30 UNL     1      -2.966  52.229 -25.781  1.00  0.00     0.259 C 
HETATM   20  O3  UNL     1      -2.647  52.884 -26.759  1.00  0.00    -0.265 OA
HETATM   21  O4  UNL     1      -2.460  51.001 -25.482  1.00  0.00    -0.309 OA
ENDROOT
BRANCH  10  22
HETATM   22  C14 UNL     1      -1.151  49.565 -16.319  1.00  0.00    -0.007 C 
HETATM   23  C15 UNL     1      -1.968  50.742 -15.778  1.00  0.00     0.011 C 
BRANCH  22  24
HETATM   24  C16 UNL     1       0.327  49.992 -16.506  1.00  0.00     0.087 C 
BRANCH  24  25
HETATM   25  C17 UNL     1       0.868  50.890 -15.404  1.00  0.00     0.149 C 
HETATM   26  O2  UNL     1       0.531  50.730 -14.235  1.00  0.00    -0.293 OA
BRANCH  25  27
HETATM   27  C18 UNL     1       1.856  51.940 -15.813  1.00  0.00     0.052 C 
HETATM   28  C19 UNL     1       3.166  51.955 -15.501  1.00  0.00    -0.084 C 
HETATM   29  C20 UNL     1       4.064  53.048 -16.018  1.00  0.00     0.043 C 
HETATM   30  C21 UNL     1       3.843  50.914 -14.651  1.00  0.00     0.043 C 
ENDBRANCH  25  27
ENDBRANCH  24  25
ENDBRANCH  22  24
ENDBRANCH  10  22
BRANCH   1  31
HETATM   31  C2  UNL     1      -3.866  48.464 -25.742  1.00  0.00    -0.059 C 
HETATM   32  C1  UNL     1      -5.161  48.172 -25.962  1.00  0.00     0.017 C 
BRANCH  31  33
HETATM   33  C3  UNL     1      -2.885  48.319 -26.888  1.00  0.00     0.198 C 
BRANCH  33  34
HETATM   34  O1  UNL     1      -3.587  48.377 -28.120  1.00  0.00    -0.397 OA
HETATM   35  H5  UNL     1      -4.418  47.883 -27.991  1.00  0.00     0.209 HD
ENDBRANCH  33  34
ENDBRANCH  31  33
ENDBRANCH   1  31
TORSDOF 7
ENDMDL
MODEL 5
REMARK minimizedAffinity -7.32876587
REMARK CNNscore 0.308714479
REMARK CNNaffinity 5.90086746
REMARK  7 active torsions:
REMARK  status: ('A' for Active; 'I' for Inactive)
REMARK    1  A    between atoms: C2_2  and  C3_3 
REMARK    2  A    between atoms: C2_2  and  C4_5 
REMARK    3  A    between atoms: C3_3  and  O1_4 
REMARK    4  A    between atoms: C13_14  and  C14_15 
REMARK    5  A    between atoms: C14_15  and  C16_17 
REMARK    6  A    between atoms: C16_17  and  C17_18 
REMARK    7  A    between atoms: C17_18  and  C18_20 
ROOT
HETATM    1  C4  UNL     1      -9.190  46.880 -35.292  1.00  0.00     0.051 C 
HETATM    2  C5  UNL     1      -7.910  47.245 -34.495  1.00  0.00     0.012 C 
HETATM    3  C6  UNL     1      -7.546  46.461 -33.236  1.00  0.00     0.006 C 
HETATM    4  C7  UNL     1      -8.556  46.415 -32.062  1.00  0.00    -0.001 C 
HETATM    5  C8  UNL     1     -10.013  46.824 -32.426  1.00  0.00    -0.007 C 
HETATM    6  C9  UNL     1     -10.969  46.929 -31.203  1.00  0.00     0.006 C 
HETATM    7  C10 UNL     1     -10.390  47.574 -29.935  1.00  0.00     0.011 C 
HETATM    8  C11 UNL     1      -9.018  46.981 -29.583  1.00  0.00    -0.032 C 
HETATM    9  C12 UNL     1      -9.209  45.475 -29.217  1.00  0.00     0.016 C 
HETATM   10  C13 UNL     1      -8.220  47.679 -28.436  1.00  0.00    -0.002 C 
HETATM   11  C22 UNL     1      -6.753  47.272 -28.756  1.00  0.00     0.006 C 
HETATM   12  C23 UNL     1      -6.709  46.797 -30.223  1.00  0.00     0.011 C 
HETATM   13  C24 UNL     1      -8.062  47.227 -30.818  1.00  0.00    -0.032 C 
HETATM   14  C25 UNL     1      -7.911  48.734 -31.218  1.00  0.00     0.016 C 
HETATM   15  C26 UNL     1     -10.685  45.879 -33.448  1.00  0.00     0.044 C 
HETATM   16  C27 UNL     1      -9.972  45.619 -34.805  1.00  0.00     0.079 C 
HETATM   17  C28 UNL     1      -9.215  44.291 -34.783  1.00  0.00     0.049 C 
HETATM   18  C29 UNL     1     -10.238  43.257 -35.198  1.00  0.00     0.114 C 
HETATM   19  C30 UNL     1     -11.225  44.053 -35.985  1.00  0.00     0.259 C 
HETATM   20  O3  UNL     1     -12.085  43.590 -36.715  1.00  0.00    -0.265 OA
HETATM   21  O4  UNL     1     -11.050  45.382 -35.753  1.00  0.00    -0.309 OA
ENDROOT
BRANCH  10  22
HETATM   22  C14 UNL     1      -8.582  47.408 -26.947  1.00  0.00    -0.007 C 
HETATM   23  C15 UNL     1      -9.227  48.613 -26.256  1.00  0.00     0.011 C 
BRANCH  22  24
HETATM   24  C16 UNL     1      -7.370  46.913 -26.117  1.00  0.00     0.087 C 
BRANCH  24  25
HETATM   25  C17 UNL     1      -6.566  48.020 -25.451  1.00  0.00     0.149 C 
HETATM   26  O2  UNL     1      -6.982  48.584 -24.444  1.00  0.00    -0.293 OA
BRANCH  25  27
HETATM   27  C18 UNL     1      -5.238  48.349 -26.060  1.00  0.00     0.052 C 
HETATM   28  C19 UNL     1      -4.075  48.479 -25.393  1.00  0.00    -0.084 C 
HETATM   29  C20 UNL     1      -2.795  48.766 -26.134  1.00  0.00     0.043 C 
HETATM   30  C21 UNL     1      -3.937  48.342 -23.902  1.00  0.00     0.043 C 
ENDBRANCH  25  27
ENDBRANCH  24  25
ENDBRANCH  22  24
ENDBRANCH  10  22
BRANCH   1  31
HETATM   31  C2  UNL     1      -8.891  47.031 -36.803  1.00  0.00    -0.059 C 
HETATM   32  C1  UNL     1      -7.998  47.868 -37.363  1.00  0.00     0.017 C 
BRANCH  31  33
HETATM   33  C3  UNL     1      -9.691  46.114 -37.707  1.00  0.00     0.198 C 
BRANCH  33  34
HETATM   34  O1  UNL     1      -9.471  46.478 -39.062  1.00  0.00    -0.397 OA
HETATM   35  H5  UNL     1      -9.443  47.452 -39.088  1.00  0.00     0.209 HD
ENDBRANCH  33  34
ENDBRANCH  31  33
ENDBRANCH   1  31
TORSDOF 7
ENDMDL
MODEL 6
REMARK minimizedAffinity -8.33203411
REMARK CNNscore 0.301364541
REMARK CNNaffinity 6.53479338
REMARK  7 active torsions:
REMARK  status: ('A' for Active; 'I' for Inactive)
REMARK    1  A    between atoms: C2_2  and  C3_3 
REMARK    2  A    between atoms: C2_2  and  C4_5 
REMARK    3  A    between atoms: C3_3  and  O1_4 
REMARK    4  A    between atoms: C13_14  and  C14_15 
REMARK    5  A    between atoms: C14_15  and  C16_17 
REMARK    6  A    between atoms: C16_17  and  C17_18 
REMARK    7  A    between atoms: C17_18  and  C18_20 
ROOT
HETATM    1  C4  UNL     1      -5.267  46.068 -20.644  1.00  0.00     0.051 C 
HETATM    2  C5  UNL     1      -4.212  46.579 -19.627  1.00  0.00     0.012 C 
HETATM    3  C6  UNL     1      -3.941  48.076 -19.497  1.00  0.00     0.006 C 
HETATM    4  C7  UNL     1      -3.472  48.865 -20.745  1.00  0.00    -0.001 C 
HETATM    5  C8  UNL     1      -3.715  48.152 -22.108  1.00  0.00    -0.007 C 
HETATM    6  C9  UNL     1      -3.091  48.887 -23.330  1.00  0.00     0.006 C 
HETATM    7  C10 UNL     1      -1.690  49.485 -23.127  1.00  0.00     0.011 C 
HETATM    8  C11 UNL     1      -1.614  50.298 -21.827  1.00  0.00    -0.032 C 
HETATM    9  C12 UNL     1      -2.562  51.530 -21.957  1.00  0.00     0.016 C 
HETATM   10  C13 UNL     1      -0.199  50.797 -21.389  1.00  0.00    -0.002 C 
HETATM   11  C22 UNL     1      -0.377  50.997 -19.856  1.00  0.00     0.006 C 
HETATM   12  C23 UNL     1      -1.634  50.213 -19.425  1.00  0.00     0.011 C 
HETATM   13  C24 UNL     1      -1.980  49.327 -20.635  1.00  0.00    -0.032 C 
HETATM   14  C25 UNL     1      -1.060  48.062 -20.535  1.00  0.00     0.016 C 
HETATM   15  C26 UNL     1      -5.210  47.924 -22.430  1.00  0.00     0.044 C 
HETATM   16  C27 UNL     1      -6.087  47.162 -21.397  1.00  0.00     0.079 C 
HETATM   17  C28 UNL     1      -6.904  48.134 -20.547  1.00  0.00     0.049 C 
HETATM   18  C29 UNL     1      -8.167  48.375 -21.342  1.00  0.00     0.114 C 
HETATM   19  C30 UNL     1      -8.276  47.151 -22.187  1.00  0.00     0.259 C 
HETATM   20  O3  UNL     1      -9.269  46.804 -22.805  1.00  0.00    -0.265 OA
HETATM   21  O4  UNL     1      -7.093  46.478 -22.196  1.00  0.00    -0.309 OA
ENDROOT
BRANCH  10  22
HETATM   22  C14 UNL     1       0.439  52.045 -22.063  1.00  0.00    -0.007 C 
HETATM   23  C15 UNL     1       0.484  53.268 -21.142  1.00  0.00     0.011 C 
BRANCH  22  24
HETATM   24  C16 UNL     1      -0.246  52.420 -23.402  1.00  0.00     0.087 C 
BRANCH  24  25
HETATM   25  C17 UNL     1       0.665  53.112 -24.405  1.00  0.00     0.149 C 
HETATM   26  O2  UNL     1       1.035  54.269 -24.229  1.00  0.00    -0.293 OA
BRANCH  25  27
HETATM   27  C18 UNL     1       1.115  52.300 -25.580  1.00  0.00     0.052 C 
HETATM   28  C19 UNL     1       0.644  52.406 -26.838  1.00  0.00    -0.084 C 
HETATM   29  C20 UNL     1       1.218  51.560 -27.944  1.00  0.00     0.043 C 
HETATM   30  C21 UNL     1      -0.447  53.353 -27.254  1.00  0.00     0.043 C 
ENDBRANCH  25  27
ENDBRANCH  24  25
ENDBRANCH  22  24
ENDBRANCH  10  22
BRANCH   1  31
HETATM   31  C2  UNL     1      -6.022  44.874 -20.014  1.00  0.00    -0.059 C 
HETATM   32  C1  UNL     1      -6.876  44.924 -18.976  1.00  0.00     0.017 C 
BRANCH  31  33
HETATM   33  C3  UNL     1      -5.759  43.534 -20.672  1.00  0.00     0.198 C 
BRANCH  33  34
HETATM   34  O1  UNL     1      -6.296  43.541 -21.987  1.00  0.00    -0.397 OA
HETATM   35  H5  UNL     1      -7.146  44.015 -21.938  1.00  0.00     0.209 HD
ENDBRANCH  33  34
ENDBRANCH  31  33
ENDBRANCH   1  31
TORSDOF 7
ENDMDL
MODEL 7
REMARK minimizedAffinity -7.06647635
REMARK CNNscore 0.296896726
REMARK CNNaffinity 6.04341555
REMARK  7 active torsions:
REMARK  status: ('A' for Active; 'I' for Inactive)
REMARK    1  A    between atoms: C2_2  and  C3_3 
REMARK    2  A    between atoms: C2_2  and  C4_5 
REMARK    3  A    between atoms: C3_3  and  O1_4 
REMARK    4  A    between atoms: C13_14  and  C14_15 
REMARK    5  A    between atoms: C14_15  and  C16_17 
REMARK    6  A    between atoms: C16_17  and  C17_18 
REMARK    7  A    between atoms: C17_18  and  C18_20 
ROOT
HETATM    1  C4  UNL     1     -10.440  45.289 -37.940  1.00  0.00     0.051 C 
HETATM    2  C5  UNL     1     -10.762  44.257 -36.827  1.00  0.00     0.012 C 
HETATM    3  C6  UNL     1     -11.204  44.738 -35.446  1.00  0.00     0.006 C 
HETATM    4  C7  UNL     1     -10.268  45.674 -34.642  1.00  0.00    -0.001 C 
HETATM    5  C8  UNL     1      -9.153  46.370 -35.476  1.00  0.00    -0.007 C 
HETATM    6  C9  UNL     1      -8.128  47.173 -34.623  1.00  0.00     0.006 C 
HETATM    7  C10 UNL     1      -7.673  46.522 -33.309  1.00  0.00     0.011 C 
HETATM    8  C11 UNL     1      -8.871  46.011 -32.495  1.00  0.00    -0.032 C 
HETATM    9  C12 UNL     1      -9.732  47.238 -32.060  1.00  0.00     0.016 C 
HETATM   10  C13 UNL     1      -8.549  45.150 -31.232  1.00  0.00    -0.002 C 
HETATM   11  C22 UNL     1      -9.862  44.335 -31.043  1.00  0.00     0.006 C 
HETATM   12  C23 UNL     1     -10.644  44.395 -32.370  1.00  0.00     0.011 C 
HETATM   13  C24 UNL     1      -9.645  44.966 -33.392  1.00  0.00    -0.032 C 
HETATM   14  C25 UNL     1      -8.766  43.761 -33.873  1.00  0.00     0.016 C 
HETATM   15  C26 UNL     1      -9.697  47.333 -36.557  1.00  0.00     0.044 C 
HETATM   16  C27 UNL     1     -10.717  46.787 -37.596  1.00  0.00     0.079 C 
HETATM   17  C28 UNL     1     -12.148  47.163 -37.211  1.00  0.00     0.049 C 
HETATM   18  C29 UNL     1     -12.363  48.532 -37.818  1.00  0.00     0.114 C 
HETATM   19  C30 UNL     1     -11.386  48.561 -38.944  1.00  0.00     0.259 C 
HETATM   20  O3  UNL     1     -11.380  49.373 -39.855  1.00  0.00    -0.265 OA
HETATM   21  O4  UNL     1     -10.472  47.563 -38.802  1.00  0.00    -0.309 OA
ENDROOT
BRANCH  10  22
HETATM   22  C14 UNL     1      -8.097  45.830 -29.908  1.00  0.00    -0.007 C 
HETATM   23  C15 UNL     1      -8.888  47.102 -29.585  1.00  0.00     0.011 C 
BRANCH  22  24
HETATM   24  C16 UNL     1      -6.578  46.135 -29.879  1.00  0.00     0.087 C 
BRANCH  24  25
HETATM   25  C17 UNL     1      -6.222  47.523 -29.369  1.00  0.00     0.149 C 
HETATM   26  O2  UNL     1      -6.026  48.451 -30.148  1.00  0.00    -0.293 OA
BRANCH  25  27
HETATM   27  C18 UNL     1      -6.168  47.704 -27.883  1.00  0.00     0.052 C 
HETATM   28  C19 UNL     1      -5.090  48.092 -27.175  1.00  0.00    -0.084 C 
HETATM   29  C20 UNL     1      -5.182  48.283 -25.683  1.00  0.00     0.043 C 
HETATM   30  C21 UNL     1      -3.742  48.379 -27.778  1.00  0.00     0.043 C 
ENDBRANCH  25  27
ENDBRANCH  24  25
ENDBRANCH  22  24
ENDBRANCH  10  22
BRANCH   1  31
HETATM   31  C2  UNL     1     -10.945  44.731 -39.292  1.00  0.00    -0.059 C 
HETATM   32  C1  UNL     1     -12.210  44.386 -39.594  1.00  0.00     0.017 C 
BRANCH  31  33
HETATM   33  C3  UNL     1      -9.880  44.590 -40.362  1.00  0.00     0.198 C 
BRANCH  33  34
HETATM   34  O1  UNL     1      -8.598  44.765 -39.776  1.00  0.00    -0.397 OA
HETATM   35  H5  UNL     1      -8.685  45.484 -39.124  1.00  0.00     0.209 HD
ENDBRANCH  33  34
ENDBRANCH  31  33
ENDBRANCH   1  31
TORSDOF 7
ENDMDL
MODEL 8
REMARK minimizedAffinity -8.92853737
REMARK CNNscore 0.265034169
REMARK CNNaffinity 6.50422096
REMARK  7 active torsions:
REMARK  status: ('A' for Active; 'I' for Inactive)
REMARK    1  A    between atoms: C2_2  and  C3_3 
REMARK    2  A    between atoms: C2_2  and  C4_5 
REMARK    3  A    between atoms: C3_3  and  O1_4 
REMARK    4  A    between atoms: C13_14  and  C14_15 
REMARK    5  A    between atoms: C14_15  and  C16_17 
REMARK    6  A    between atoms: C16_17  and  C17_18 
REMARK    7  A    between atoms: C17_18  and  C18_20 
ROOT
HETATM    1  C4  UNL     1      -7.587  46.500 -24.139  1.00  0.00     0.051 C 
HETATM    2  C5  UNL     1      -6.983  47.068 -22.827  1.00  0.00     0.012 C 
HETATM    3  C6  UNL     1      -6.520  48.523 -22.768  1.00  0.00     0.006 C 
HETATM    4  C7  UNL     1      -5.434  49.006 -23.762  1.00  0.00    -0.001 C 
HETATM    5  C8  UNL     1      -5.209  48.083 -24.995  1.00  0.00    -0.007 C 
HETATM    6  C9  UNL     1      -4.005  48.500 -25.890  1.00  0.00     0.006 C 
HETATM    7  C10 UNL     1      -2.736  48.961 -25.158  1.00  0.00     0.011 C 
HETATM    8  C11 UNL     1      -3.064  49.989 -24.065  1.00  0.00    -0.032 C 
HETATM    9  C12 UNL     1      -3.624  51.276 -24.749  1.00  0.00     0.016 C 
HETATM   10  C13 UNL     1      -1.899  50.396 -23.107  1.00  0.00    -0.002 C 
HETATM   11  C22 UNL     1      -2.664  50.898 -21.849  1.00  0.00     0.006 C 
HETATM   12  C23 UNL     1      -4.106  50.358 -21.931  1.00  0.00     0.011 C 
HETATM   13  C24 UNL     1      -4.069  49.306 -23.055  1.00  0.00    -0.032 C 
HETATM   14  C25 UNL     1      -3.527  47.986 -22.408  1.00  0.00     0.016 C 
HETATM   15  C26 UNL     1      -6.443  47.971 -25.919  1.00  0.00     0.044 C 
HETATM   16  C27 UNL     1      -7.798  47.520 -25.302  1.00  0.00     0.079 C 
HETATM   17  C28 UNL     1      -8.701  48.721 -25.024  1.00  0.00     0.049 C 
HETATM   18  C29 UNL     1      -9.445  48.953 -26.320  1.00  0.00     0.114 C 
HETATM   19  C30 UNL     1      -9.413  47.612 -26.974  1.00  0.00     0.259 C 
HETATM   20  O3  UNL     1     -10.099  47.271 -27.923  1.00  0.00    -0.265 OA
HETATM   21  O4  UNL     1      -8.482  46.819 -26.377  1.00  0.00    -0.309 OA
ENDROOT
BRANCH  10  22
HETATM   22  C14 UNL     1      -0.818  51.415 -23.569  1.00  0.00    -0.007 C 
HETATM   23  C15 UNL     1      -0.243  52.245 -22.417  1.00  0.00     0.011 C 
BRANCH  22  24
HETATM   24  C16 UNL     1      -1.322  52.355 -24.694  1.00  0.00     0.087 C 
BRANCH  24  25
HETATM   25  C17 UNL     1      -0.250  53.251 -25.295  1.00  0.00     0.149 C 
HETATM   26  O2  UNL     1      -0.439  54.456 -25.435  1.00  0.00    -0.293 OA
BRANCH  25  27
HETATM   27  C18 UNL     1       1.046  52.599 -25.664  1.00  0.00     0.052 C 
HETATM   28  C19 UNL     1       1.337  52.040 -26.855  1.00  0.00    -0.084 C 
HETATM   29  C20 UNL     1       2.702  51.458 -27.114  1.00  0.00     0.043 C 
HETATM   30  C21 UNL     1       0.374  51.958 -28.007  1.00  0.00     0.043 C 
ENDBRANCH  25  27
ENDBRANCH  24  25
ENDBRANCH  22  24
ENDBRANCH  10  22
BRANCH   1  31
HETATM   31  C2  UNL     1      -8.743  45.539 -23.773  1.00  0.00    -0.059 C 
HETATM   32  C1  UNL     1      -8.864  44.826 -22.639  1.00  0.00     0.017 C 
BRANCH  31  33
HETATM   33  C3  UNL     1      -9.838  45.434 -24.817  1.00  0.00     0.198 C 
BRANCH  33  34
HETATM   34  O1  UNL     1      -9.662  44.240 -25.566  1.00  0.00    -0.397 OA
HETATM   35  H5  UNL     1      -8.703  44.139 -25.707  1.00  0.00     0.209 HD
ENDBRANCH  33  34
ENDBRANCH  31  33
ENDBRANCH   1  31
TORSDOF 7
ENDMDL
MODEL 9
REMARK minimizedAffinity -9.50405788
REMARK CNNscore 0.243536025
REMARK CNNaffinity 6.89262772
REMARK  7 active torsions:
REMARK  status: ('A' for Active; 'I' for Inactive)
REMARK    1  A    between atoms: C2_2  and  C3_3 
REMARK    2  A    between atoms: C2_2  and  C4_5 
REMARK    3  A    between atoms: C3_3  and  O1_4 
REMARK    4  A    between atoms: C13_14  and  C14_15 
REMARK    5  A    between atoms: C14_15  and  C16_17 
REMARK    6  A    between atoms: C16_17  and  C17_18 
REMARK    7  A    between atoms: C17_18  and  C18_20 
ROOT
HETATM    1  C4  UNL     1       0.442  50.447 -16.912  1.00  0.00     0.051 C 
HETATM    2  C5  UNL     1       0.448  51.542 -18.012  1.00  0.00     0.012 C 
HETATM    3  C6  UNL     1      -0.812  51.801 -18.836  1.00  0.00     0.006 C 
HETATM    4  C7  UNL     1      -1.426  50.639 -19.656  1.00  0.00    -0.001 C 
HETATM    5  C8  UNL     1      -0.947  49.215 -19.246  1.00  0.00    -0.007 C 
HETATM    6  C9  UNL     1      -1.448  48.081 -20.187  1.00  0.00     0.006 C 
HETATM    7  C10 UNL     1      -1.434  48.384 -21.693  1.00  0.00     0.011 C 
HETATM    8  C11 UNL     1      -2.073  49.747 -21.993  1.00  0.00    -0.032 C 
HETATM    9  C12 UNL     1      -3.585  49.680 -21.610  1.00  0.00     0.016 C 
HETATM   10  C13 UNL     1      -1.949  50.277 -23.458  1.00  0.00    -0.002 C 
HETATM   11  C22 UNL     1      -2.113  51.813 -23.270  1.00  0.00     0.006 C 
HETATM   12  C23 UNL     1      -1.862  52.132 -21.782  1.00  0.00     0.011 C 
HETATM   13  C24 UNL     1      -1.256  50.843 -21.199  1.00  0.00    -0.032 C 
HETATM   14  C25 UNL     1       0.272  50.876 -21.546  1.00  0.00     0.016 C 
HETATM   15  C26 UNL     1      -1.344  48.819 -17.805  1.00  0.00     0.044 C 
HETATM   16  C27 UNL     1      -0.928  49.753 -16.634  1.00  0.00     0.079 C 
HETATM   17  C28 UNL     1      -2.092  50.647 -16.206  1.00  0.00     0.049 C 
HETATM   18  C29 UNL     1      -2.857  49.826 -15.192  1.00  0.00     0.114 C 
HETATM   19  C30 UNL     1      -1.825  48.883 -14.671  1.00  0.00     0.259 C 
HETATM   20  O3  UNL     1      -1.933  48.201 -13.665  1.00  0.00    -0.265 OA
HETATM   21  O4  UNL     1      -0.743  48.865 -15.497  1.00  0.00    -0.309 OA
ENDROOT
BRANCH  10  22
HETATM   22  C14 UNL     1      -2.884  49.730 -24.575  1.00  0.00    -0.007 C 
HETATM   23  C15 UNL     1      -3.577  48.420 -24.191  1.00  0.00     0.011 C 
BRANCH  22  24
HETATM   24  C16 UNL     1      -2.159  49.563 -25.934  1.00  0.00     0.087 C 
BRANCH  24  25
HETATM   25  C17 UNL     1      -1.411  50.801 -26.408  1.00  0.00     0.149 C 
HETATM   26  O2  UNL     1      -2.003  51.722 -26.963  1.00  0.00    -0.293 OA
BRANCH  25  27
HETATM   27  C18 UNL     1       0.058  50.851 -26.126  1.00  0.00     0.052 C 
HETATM   28  C19 UNL     1       1.001  51.363 -26.941  1.00  0.00    -0.084 C 
HETATM   29  C20 UNL     1       2.445  51.397 -26.515  1.00  0.00     0.043 C 
HETATM   30  C21 UNL     1       0.717  51.946 -28.298  1.00  0.00     0.043 C 
ENDBRANCH  25  27
ENDBRANCH  24  25
ENDBRANCH  22  24
ENDBRANCH  10  22
BRANCH   1  31
HETATM   31  C2  UNL     1       1.278  50.951 -15.711  1.00  0.00    -0.059 C 
HETATM   32  C1  UNL     1       1.289  50.434 -14.470  1.00  0.00     0.017 C 
BRANCH  31  33
HETATM   33  C3  UNL     1       2.175  52.136 -16.011  1.00  0.00     0.198 C 
BRANCH  33  34
HETATM   34  O1  UNL     1       1.456  53.340 -15.785  1.00  0.00    -0.397 OA
HETATM   35  H5  UNL     1       0.551  53.190 -16.112  1.00  0.00     0.209 HD
ENDBRANCH  33  34
ENDBRANCH  31  33
ENDBRANCH   1  31
TORSDOF 7
ENDMDL
