MODEL 1
REMARK minimizedAffinity -3.90629506
REMARK  0 active torsions:
REMARK  status: ('A' for Active; 'I' for Inactive)
ROOT
HETATM    1 CL1  UNL     1      -1.110  50.867 -24.940  1.00  0.00     0.000 Cl
HETATM    2 RU1  UNL     1       0.422  52.645 -26.037  1.00  0.00     0.000 Ru
HETATM    3 CL2  UNL     1      -0.612  51.514 -27.794  1.00  0.00     0.000 Cl
HETATM    4 CL3  UNL     1      -0.044  52.333 -27.996  1.00  0.00     0.000 Cl
HETATM    5 CL4  UNL     1       2.211  51.578 -26.312  1.00  0.00     0.000 Cl
HETATM    6 CL5  UNL     1       2.859  51.589 -27.171  1.00  0.00     0.000 Cl
HETATM    7 CL6  UNL     1       0.705  53.494 -24.035  1.00  0.00     0.000 Cl
ENDROOT
TORSDOF 0
ENDMDL
MODEL 2
REMARK minimizedAffinity -3.66743207
REMARK  0 active torsions:
REMARK  status: ('A' for Active; 'I' for Inactive)
ROOT
HETATM    1 CL1  UNL     1      -3.004  48.451 -25.943  1.00  0.00     0.000 Cl
HETATM    2 RU1  UNL     1      -2.037  50.851 -25.807  1.00  0.00     0.000 Ru
HETATM    3 CL2  UNL     1      -3.051  50.683 -27.900  1.00  0.00     0.000 Cl
HETATM    4 CL3  UNL     1      -2.697  51.585 -27.590  1.00  0.00     0.000 Cl
HETATM    5 CL4  UNL     1      -0.123  50.604 -26.638  1.00  0.00     0.000 Cl
HETATM    6 CL5  UNL     1       0.383  51.254 -27.330  1.00  0.00     0.000 Cl
HETATM    7 CL6  UNL     1      -1.660  50.472 -23.680  1.00  0.00     0.000 Cl
ENDROOT
TORSDOF 0
ENDMDL
MODEL 3
REMARK minimizedAffinity -3.65399933
REMARK  0 active torsions:
REMARK  status: ('A' for Active; 'I' for Inactive)
ROOT
HETATM    1 CL1  UNL     1      -3.727  51.682 -25.517  1.00  0.00     0.000 Cl
HETATM    2 RU1  UNL     1      -1.736  50.104 -25.012  1.00  0.00     0.000 Ru
HETATM    3 CL2  UNL     1      -1.341  52.050 -23.790  1.00  0.00     0.000 Cl
HETATM    4 CL3  UNL     1      -0.733  51.246 -23.654  1.00  0.00     0.000 Cl
HETATM    5 CL4  UNL     1      -0.344  50.664 -26.484  1.00  0.00     0.000 Cl
HETATM    6 CL5  UNL     1       0.717  50.801 -26.368  1.00  0.00     0.000 Cl
HETATM    7 CL6  UNL     1      -2.860  48.520 -26.031  1.00  0.00     0.000 Cl
ENDROOT
TORSDOF 0
ENDMDL
MODEL 4
REMARK minimizedAffinity -3.65311599
REMARK  0 active torsions:
REMARK  status: ('A' for Active; 'I' for Inactive)
ROOT
HETATM    1 CL1  UNL     1       0.192  52.827 -28.345  1.00  0.00     0.000 Cl
HETATM    2 RU1  UNL     1       0.579  51.028 -26.521  1.00  0.00     0.000 Ru
HETATM    3 CL2  UNL     1      -1.677  50.888 -27.096  1.00  0.00     0.000 Cl
HETATM    4 CL3  UNL     1      -1.279  50.193 -26.468  1.00  0.00     0.000 Cl
HETATM    5 CL4  UNL     1       0.136  52.083 -24.759  1.00  0.00     0.000 Cl
HETATM    6 CL5  UNL     1      -0.426  51.737 -23.908  1.00  0.00     0.000 Cl
HETATM    7 CL6  UNL     1       2.728  51.403 -26.746  1.00  0.00     0.000 Cl
ENDROOT
TORSDOF 0
ENDMDL
MODEL 5
REMARK minimizedAffinity -3.612813
REMARK  0 active torsions:
REMARK  status: ('A' for Active; 'I' for Inactive)
ROOT
HETATM    1 CL1  UNL     1       7.598  63.783 -35.823  1.00  0.00     0.000 Cl
HETATM    2 RU1  UNL     1       7.280  62.084 -33.893  1.00  0.00     0.000 Ru
HETATM    3 CL2  UNL     1       9.523  61.940 -34.516  1.00  0.00     0.000 Cl
HETATM    4 CL3  UNL     1       9.201  61.431 -33.695  1.00  0.00     0.000 Cl
HETATM    5 CL4  UNL     1       6.807  60.320 -34.931  1.00  0.00     0.000 Cl
HETATM    6 CL5  UNL     1       7.166  59.324 -34.735  1.00  0.00     0.000 Cl
HETATM    7 CL6  UNL     1       5.298  62.967 -33.573  1.00  0.00     0.000 Cl
ENDROOT
TORSDOF 0
ENDMDL
MODEL 6
REMARK minimizedAffinity -3.60767937
REMARK  0 active torsions:
REMARK  status: ('A' for Active; 'I' for Inactive)
ROOT
HETATM    1 CL1  UNL     1      -0.609  50.376 -26.262  1.00  0.00     0.000 Cl
HETATM    2 RU1  UNL     1       1.071  51.920 -25.035  1.00  0.00     0.000 Ru
HETATM    3 CL2  UNL     1      -0.719  51.623 -23.571  1.00  0.00     0.000 Cl
HETATM    4 CL3  UNL     1       0.112  52.113 -23.247  1.00  0.00     0.000 Cl
HETATM    5 CL4  UNL     1       0.395  53.832 -25.583  1.00  0.00     0.000 Cl
HETATM    6 CL5  UNL     1       0.301  54.702 -24.957  1.00  0.00     0.000 Cl
HETATM    7 CL6  UNL     1       2.502  51.470 -26.635  1.00  0.00     0.000 Cl
ENDROOT
TORSDOF 0
ENDMDL
MODEL 7
REMARK minimizedAffinity -3.59847236
REMARK  0 active torsions:
REMARK  status: ('A' for Active; 'I' for Inactive)
ROOT
HETATM    1 CL1  UNL     1       7.480  59.674 -34.794  1.00  0.00     0.000 Cl
HETATM    2 RU1  UNL     1       7.639  62.129 -33.982  1.00  0.00     0.000 Ru
HETATM    3 CL2  UNL     1       5.559  61.926 -35.017  1.00  0.00     0.000 Cl
HETATM    4 CL3  UNL     1       5.788  62.787 -34.525  1.00  0.00     0.000 Cl
HETATM    5 CL4  UNL     1       8.456  63.097 -35.658  1.00  0.00     0.000 Cl
HETATM    6 CL5  UNL     1       8.172  64.049 -36.072  1.00  0.00     0.000 Cl
HETATM    7 CL6  UNL     1       9.439  61.543 -32.875  1.00  0.00     0.000 Cl
ENDROOT
TORSDOF 0
ENDMDL
MODEL 8
REMARK minimizedAffinity -3.54507303
REMARK  0 active torsions:
REMARK  status: ('A' for Active; 'I' for Inactive)
ROOT
HETATM    1 CL1  UNL     1      -2.685  48.994 -23.359  1.00  0.00     0.000 Cl
HETATM    2 RU1  UNL     1      -2.640  50.614 -25.380  1.00  0.00     0.000 Ru
HETATM    3 CL2  UNL     1      -2.733  48.465 -26.280  1.00  0.00     0.000 Cl
HETATM    4 CL3  UNL     1      -2.816  49.267 -26.900  1.00  0.00     0.000 Cl
HETATM    5 CL4  UNL     1      -0.583  50.767 -25.779  1.00  0.00     0.000 Cl
HETATM    6 CL5  UNL     1      -0.096  50.763 -26.738  1.00  0.00     0.000 Cl
HETATM    7 CL6  UNL     1      -2.948  52.250 -23.951  1.00  0.00     0.000 Cl
ENDROOT
TORSDOF 0
ENDMDL
MODEL 9
REMARK minimizedAffinity -3.537992
REMARK  0 active torsions:
REMARK  status: ('A' for Active; 'I' for Inactive)
ROOT
HETATM    1 CL1  UNL     1       3.930  54.194  -7.549  1.00  0.00     0.000 Cl
HETATM    2 RU1  UNL     1       4.974  56.078  -8.989  1.00  0.00     0.000 Ru
HETATM    3 CL2  UNL     1       3.207  57.060  -7.827  1.00  0.00     0.000 Cl
HETATM    4 CL3  UNL     1       3.829  57.648  -8.376  1.00  0.00     0.000 Cl
HETATM    5 CL4  UNL     1       3.841  55.964 -10.754  1.00  0.00     0.000 Cl
HETATM    6 CL5  UNL     1       3.444  56.778 -11.335  1.00  0.00     0.000 Cl
HETATM    7 CL6  UNL     1       6.625  54.699  -9.420  1.00  0.00     0.000 Cl
ENDROOT
TORSDOF 0
ENDMDL
