MODEL 1
REMARK minimizedAffinity -6.13797617
REMARK CNNscore 0.312203079
REMARK CNNaffinity 5.93863487
REMARK  9 active torsions:
REMARK  status: ('A' for Active; 'I' for Inactive)
REMARK    1  A    between atoms: C12_14  and  C13_15 
REMARK    2  A    between atoms: C13_15  and  C15_17 
REMARK    3  A    between atoms: C15_17  and  C16_18 
REMARK    4  A    between atoms: C16_18  and  C17_19 
REMARK    5  A    between atoms: C18_20  and  C20_22 
REMARK    6  A    between atoms: C26_29  and  C27_30 
REMARK    7  A    between atoms: C27_30  and  C28_31 
REMARK    8  A    between atoms: C28_31  and  C29_32 
REMARK    9  A    between atoms: C29_32  and  O5_34 
ROOT
HETATM    1  C1  UNL     1       3.418   9.998  23.776  1.00  0.00     0.025 C 
HETATM    2  C2  UNL     1       3.222  10.830  22.745  1.00  0.00     0.015 C 
HETATM    3  C3  UNL     1       2.262  10.478  21.677  1.00  0.00     0.289 C 
HETATM    4  O1  UNL     1       1.796   9.375  21.452  1.00  0.00    -0.260 OA
HETATM    5  O2  UNL     1       1.987  11.609  20.981  1.00  0.00    -0.311 OA
HETATM    6  C4  UNL     1       2.618  12.737  21.604  1.00  0.00     0.142 C 
HETATM    7  C5  UNL     1       3.056  13.719  20.530  1.00  0.00     0.039 C 
HETATM    8  C6  UNL     1       4.089  13.078  19.590  1.00  0.00     0.006 C 
HETATM    9  C7  UNL     1       5.367  12.726  20.380  1.00  0.00    -0.027 A 
HETATM   10  C8  UNL     1       6.647  13.439  19.930  1.00  0.00     0.011 C 
HETATM   11  C9  UNL     1       6.866  13.572  18.409  1.00  0.00     0.011 C 
HETATM   12  C10 UNL     1       5.613  13.339  17.553  1.00  0.00    -0.032 C 
HETATM   13  C11 UNL     1       5.495  11.811  17.267  1.00  0.00     0.016 C 
HETATM   14  C12 UNL     1       5.542  14.110  16.193  1.00  0.00    -0.002 C 
HETATM   15  C21 UNL     1       4.010  14.174  15.923  1.00  0.00     0.006 C 
HETATM   16  C22 UNL     1       3.287  13.863  17.245  1.00  0.00     0.011 C 
HETATM   17  C23 UNL     1       4.383  13.938  18.325  1.00  0.00    -0.032 C 
HETATM   18  C24 UNL     1       4.522  15.452  18.693  1.00  0.00     0.016 C 
HETATM   19  C25 UNL     1       5.573  11.296  20.840  1.00  0.00     0.022 A 
HETATM   20  C26 UNL     1       5.173  12.315  21.883  1.00  0.00    -0.021 A 
HETATM   21  C30 UNL     1       3.748  12.207  22.487  1.00  0.00     0.063 C 
ENDROOT
BRANCH  14  22
HETATM   22  C13 UNL     1       6.340  13.594  14.955  1.00  0.00    -0.014 C 
HETATM   23  C14 UNL     1       5.672  14.002  13.636  1.00  0.00     0.010 C 
BRANCH  22  24
HETATM   24  C15 UNL     1       6.491  12.049  15.021  1.00  0.00     0.008 C 
BRANCH  24  25
HETATM   25  C16 UNL     1       7.693  11.499  14.243  1.00  0.00     0.028 C 
BRANCH  25  26
HETATM   26  C17 UNL     1       7.975  10.073  14.639  1.00  0.00    -0.017 C 
HETATM   27  C18 UNL     1       8.648   9.648  15.724  1.00  0.00    -0.028 C 
HETATM   28  C19 UNL     1       9.291  10.482  16.788  1.00  0.00     0.051 C 
BRANCH  27  29
HETATM   29  C20 UNL     1       8.775   8.171  15.902  1.00  0.00     0.265 C 
HETATM   30  O3  UNL     1       9.299   7.663  16.886  1.00  0.00    -0.302 OA
ENDBRANCH  27  29
ENDBRANCH  25  26
ENDBRANCH  24  25
ENDBRANCH  22  24
ENDBRANCH  14  22
BRANCH  20  31
HETATM   31  C27 UNL     1       6.223  12.856  22.867  1.00  0.00     0.021 C 
BRANCH  31  32
HETATM   32  C28 UNL     1       7.300  11.874  23.311  1.00  0.00     0.111 C 
BRANCH  32  33
HETATM   33  C29 UNL     1       8.691  12.361  23.010  1.00  0.00     0.139 C 
HETATM   34  O4  UNL     1       9.476  11.891  22.204  1.00  0.00    -0.650 OA
BRANCH  33  35
HETATM   35  O5  UNL     1       9.000  13.476  23.702  1.00  0.00    -0.776 OA
HETATM   36  H41 UNL     1       9.911  13.696  23.409  1.00  0.00     0.167 HD
ENDBRANCH  33  35
ENDBRANCH  32  33
ENDBRANCH  31  32
ENDBRANCH  20  31
TORSDOF 9
ENDMDL
MODEL 2
REMARK minimizedAffinity -8.76248741
REMARK CNNscore 0.299325436
REMARK CNNaffinity 6.95280027
REMARK  9 active torsions:
REMARK  status: ('A' for Active; 'I' for Inactive)
REMARK    1  A    between atoms: C12_14  and  C13_15 
REMARK    2  A    between atoms: C13_15  and  C15_17 
REMARK    3  A    between atoms: C15_17  and  C16_18 
REMARK    4  A    between atoms: C16_18  and  C17_19 
REMARK    5  A    between atoms: C18_20  and  C20_22 
REMARK    6  A    between atoms: C26_29  and  C27_30 
REMARK    7  A    between atoms: C27_30  and  C28_31 
REMARK    8  A    between atoms: C28_31  and  C29_32 
REMARK    9  A    between atoms: C29_32  and  O5_34 
ROOT
HETATM    1  C1  UNL     1     -10.544   6.704  14.149  1.00  0.00     0.025 C 
HETATM    2  C2  UNL     1      -9.334   6.900  14.687  1.00  0.00     0.015 C 
HETATM    3  C3  UNL     1      -8.922   8.252  15.121  1.00  0.00     0.289 C 
HETATM    4  O1  UNL     1      -9.443   9.307  14.808  1.00  0.00    -0.260 OA
HETATM    5  O2  UNL     1      -7.848   8.113  15.939  1.00  0.00    -0.311 OA
HETATM    6  C4  UNL     1      -7.588   6.722  16.179  1.00  0.00     0.142 C 
HETATM    7  C5  UNL     1      -6.089   6.509  16.298  1.00  0.00     0.039 C 
HETATM    8  C6  UNL     1      -5.375   6.888  14.992  1.00  0.00     0.006 C 
HETATM    9  C7  UNL     1      -5.841   5.956  13.853  1.00  0.00    -0.027 A 
HETATM   10  C8  UNL     1      -4.749   5.090  13.212  1.00  0.00     0.011 C 
HETATM   11  C9  UNL     1      -3.392   5.773  12.949  1.00  0.00     0.011 C 
HETATM   12  C10 UNL     1      -3.171   7.088  13.711  1.00  0.00    -0.032 C 
HETATM   13  C11 UNL     1      -3.768   8.250  12.861  1.00  0.00     0.016 C 
HETATM   14  C12 UNL     1      -1.691   7.443  14.077  1.00  0.00    -0.002 C 
HETATM   15  C21 UNL     1      -1.867   8.387  15.303  1.00  0.00     0.006 C 
HETATM   16  C22 UNL     1      -3.297   8.201  15.839  1.00  0.00     0.011 C 
HETATM   17  C23 UNL     1      -3.825   6.938  15.132  1.00  0.00    -0.032 C 
HETATM   18  C24 UNL     1      -3.296   5.725  15.965  1.00  0.00     0.016 C 
HETATM   19  C25 UNL     1      -6.898   6.451  12.886  1.00  0.00     0.022 A 
HETATM   20  C26 UNL     1      -7.321   5.440  13.928  1.00  0.00    -0.021 A 
HETATM   21  C30 UNL     1      -8.262   5.925  15.063  1.00  0.00     0.063 C 
ENDROOT
BRANCH  14  22
HETATM   22  C13 UNL     1      -0.738   8.046  12.999  1.00  0.00    -0.014 C 
HETATM   23  C14 UNL     1      -1.392   9.210  12.245  1.00  0.00     0.010 C 
BRANCH  22  24
HETATM   24  C15 UNL     1      -0.296   6.942  11.998  1.00  0.00     0.008 C 
BRANCH  24  25
HETATM   25  C16 UNL     1       1.207   6.932  11.694  1.00  0.00     0.028 C 
BRANCH  25  26
HETATM   26  C17 UNL     1       1.453   6.616  10.241  1.00  0.00    -0.017 C 
HETATM   27  C18 UNL     1       2.600   6.182   9.686  1.00  0.00    -0.028 C 
HETATM   28  C19 UNL     1       3.907   5.925  10.368  1.00  0.00     0.051 C 
BRANCH  27  29
HETATM   29  C20 UNL     1       2.580   5.922   8.216  1.00  0.00     0.265 C 
HETATM   30  O3  UNL     1       3.289   5.079   7.681  1.00  0.00    -0.302 OA
ENDBRANCH  27  29
ENDBRANCH  25  26
ENDBRANCH  24  25
ENDBRANCH  22  24
ENDBRANCH  14  22
BRANCH  20  31
HETATM   31  C27 UNL     1      -7.542   3.973  13.525  1.00  0.00     0.021 C 
BRANCH  31  32
HETATM   32  C28 UNL     1      -7.107   3.587  12.117  1.00  0.00     0.111 C 
BRANCH  32  33
HETATM   33  C29 UNL     1      -6.825   2.117  11.977  1.00  0.00     0.139 C 
HETATM   34  O4  UNL     1      -5.951   1.595  11.307  1.00  0.00    -0.650 OA
BRANCH  33  35
HETATM   35  O5  UNL     1      -7.631   1.369  12.758  1.00  0.00    -0.776 OA
HETATM   36  H41 UNL     1      -7.340   0.446  12.590  1.00  0.00     0.167 HD
ENDBRANCH  33  35
ENDBRANCH  32  33
ENDBRANCH  31  32
ENDBRANCH  20  31
TORSDOF 9
ENDMDL
MODEL 3
REMARK minimizedAffinity -5.93036461
REMARK CNNscore 0.25381881
REMARK CNNaffinity 5.54862165
REMARK  9 active torsions:
REMARK  status: ('A' for Active; 'I' for Inactive)
REMARK    1  A    between atoms: C12_14  and  C13_15 
REMARK    2  A    between atoms: C13_15  and  C15_17 
REMARK    3  A    between atoms: C15_17  and  C16_18 
REMARK    4  A    between atoms: C16_18  and  C17_19 
REMARK    5  A    between atoms: C18_20  and  C20_22 
REMARK    6  A    between atoms: C26_29  and  C27_30 
REMARK    7  A    between atoms: C27_30  and  C28_31 
REMARK    8  A    between atoms: C28_31  and  C29_32 
REMARK    9  A    between atoms: C29_32  and  O5_34 
ROOT
HETATM    1  C1  UNL     1       9.351  15.521  22.122  1.00  0.00     0.025 C 
HETATM    2  C2  UNL     1       8.547  14.455  22.223  1.00  0.00     0.015 C 
HETATM    3  C3  UNL     1       8.851  13.219  21.470  1.00  0.00     0.289 C 
HETATM    4  O1  UNL     1       9.615  13.110  20.527  1.00  0.00    -0.260 OA
HETATM    5  O2  UNL     1       8.124  12.214  22.018  1.00  0.00    -0.311 OA
HETATM    6  C4  UNL     1       7.434  12.684  23.186  1.00  0.00     0.142 C 
HETATM    7  C5  UNL     1       6.089  11.983  23.285  1.00  0.00     0.039 C 
HETATM    8  C6  UNL     1       5.208  12.312  22.070  1.00  0.00     0.006 C 
HETATM    9  C7  UNL     1       4.892  13.823  22.048  1.00  0.00    -0.027 A 
HETATM   10  C8  UNL     1       3.409  14.196  22.164  1.00  0.00     0.011 C 
HETATM   11  C9  UNL     1       2.416  13.336  21.358  1.00  0.00     0.011 C 
HETATM   12  C10 UNL     1       2.974  11.991  20.869  1.00  0.00    -0.032 C 
HETATM   13  C11 UNL     1       3.675  12.225  19.497  1.00  0.00     0.016 C 
HETATM   14  C12 UNL     1       1.945  10.822  20.712  1.00  0.00    -0.002 C 
HETATM   15  C21 UNL     1       2.848   9.560  20.842  1.00  0.00     0.006 C 
HETATM   16  C22 UNL     1       4.183  10.001  21.468  1.00  0.00     0.011 C 
HETATM   17  C23 UNL     1       3.928  11.430  21.984  1.00  0.00    -0.032 C 
HETATM   18  C24 UNL     1       3.260  11.268  23.389  1.00  0.00     0.016 C 
HETATM   19  C25 UNL     1       5.698  14.727  21.136  1.00  0.00     0.022 A 
HETATM   20  C26 UNL     1       5.999  14.781  22.616  1.00  0.00    -0.021 A 
HETATM   21  C30 UNL     1       7.358  14.207  23.097  1.00  0.00     0.063 C 
ENDROOT
BRANCH  14  22
HETATM   22  C13 UNL     1       1.014  10.757  19.461  1.00  0.00    -0.014 C 
HETATM   23  C14 UNL     1       1.719  11.265  18.198  1.00  0.00     0.010 C 
BRANCH  22  24
HETATM   24  C15 UNL     1      -0.282  11.576  19.715  1.00  0.00     0.008 C 
BRANCH  24  25
HETATM   25  C16 UNL     1      -1.392  11.336  18.684  1.00  0.00     0.028 C 
BRANCH  25  26
HETATM   26  C17 UNL     1      -1.926  12.644  18.163  1.00  0.00    -0.017 C 
HETATM   27  C18 UNL     1      -3.130  13.190  18.415  1.00  0.00    -0.028 C 
HETATM   28  C19 UNL     1      -4.232  12.626  19.257  1.00  0.00     0.051 C 
BRANCH  27  29
HETATM   29  C20 UNL     1      -3.413  14.515  17.789  1.00  0.00     0.265 C 
HETATM   30  O3  UNL     1      -2.660  15.475  17.896  1.00  0.00    -0.302 OA
ENDBRANCH  27  29
ENDBRANCH  25  26
ENDBRANCH  24  25
ENDBRANCH  22  24
ENDBRANCH  14  22
BRANCH  20  31
HETATM   31  C27 UNL     1       5.494  15.964  23.458  1.00  0.00     0.021 C 
BRANCH  31  32
HETATM   32  C28 UNL     1       6.545  16.974  23.901  1.00  0.00     0.111 C 
BRANCH  32  33
HETATM   33  C29 UNL     1       6.262  17.551  25.260  1.00  0.00     0.139 C 
HETATM   34  O4  UNL     1       5.530  17.088  26.118  1.00  0.00    -0.650 OA
BRANCH  33  35
HETATM   35  O5  UNL     1       6.981  18.666  25.499  1.00  0.00    -0.776 OA
HETATM   36  H41 UNL     1       6.721  18.930  26.408  1.00  0.00     0.167 HD
ENDBRANCH  33  35
ENDBRANCH  32  33
ENDBRANCH  31  32
ENDBRANCH  20  31
TORSDOF 9
ENDMDL
MODEL 4
REMARK minimizedAffinity -8.98496342
REMARK CNNscore 0.250499874
REMARK CNNaffinity 6.65047455
REMARK  9 active torsions:
REMARK  status: ('A' for Active; 'I' for Inactive)
REMARK    1  A    between atoms: C12_14  and  C13_15 
REMARK    2  A    between atoms: C13_15  and  C15_17 
REMARK    3  A    between atoms: C15_17  and  C16_18 
REMARK    4  A    between atoms: C16_18  and  C17_19 
REMARK    5  A    between atoms: C18_20  and  C20_22 
REMARK    6  A    between atoms: C26_29  and  C27_30 
REMARK    7  A    between atoms: C27_30  and  C28_31 
REMARK    8  A    between atoms: C28_31  and  C29_32 
REMARK    9  A    between atoms: C29_32  and  O5_34 
ROOT
HETATM    1  C1  UNL     1       4.313   7.727   9.871  1.00  0.00     0.025 C 
HETATM    2  C2  UNL     1       3.215   7.116  10.331  1.00  0.00     0.015 C 
HETATM    3  C3  UNL     1       2.157   6.679   9.395  1.00  0.00     0.289 C 
HETATM    4  O1  UNL     1       2.012   7.043   8.241  1.00  0.00    -0.260 OA
HETATM    5  O2  UNL     1       1.366   5.793  10.050  1.00  0.00    -0.311 OA
HETATM    6  C4  UNL     1       1.910   5.513  11.348  1.00  0.00     0.142 C 
HETATM    7  C5  UNL     1       0.770   5.296  12.329  1.00  0.00     0.039 C 
HETATM    8  C6  UNL     1      -0.093   6.560  12.457  1.00  0.00     0.006 C 
HETATM    9  C7  UNL     1       0.752   7.710  13.046  1.00  0.00    -0.027 A 
HETATM   10  C8  UNL     1       0.273   8.267  14.393  1.00  0.00     0.011 C 
HETATM   11  C9  UNL     1      -1.248   8.455  14.562  1.00  0.00     0.011 C 
HETATM   12  C10 UNL     1      -2.110   7.702  13.538  1.00  0.00    -0.032 C 
HETATM   13  C11 UNL     1      -2.274   8.608  12.280  1.00  0.00     0.016 C 
HETATM   14  C12 UNL     1      -3.529   7.248  14.017  1.00  0.00    -0.002 C 
HETATM   15  C21 UNL     1      -3.837   6.052  13.069  1.00  0.00     0.006 C 
HETATM   16  C22 UNL     1      -2.511   5.606  12.430  1.00  0.00     0.011 C 
HETATM   17  C23 UNL     1      -1.416   6.323  13.243  1.00  0.00    -0.032 C 
HETATM   18  C24 UNL     1      -1.168   5.437  14.508  1.00  0.00     0.016 C 
HETATM   19  C25 UNL     1       1.330   8.751  12.107  1.00  0.00     0.022 A 
HETATM   20  C26 UNL     1       2.278   7.721  12.679  1.00  0.00    -0.021 A 
HETATM   21  C30 UNL     1       2.857   6.657  11.711  1.00  0.00     0.063 C 
ENDROOT
BRANCH  14  22
HETATM   22  C13 UNL     1      -4.704   8.274  14.076  1.00  0.00    -0.014 C 
HETATM   23  C14 UNL     1      -4.988   8.735  15.510  1.00  0.00     0.010 C 
BRANCH  22  24
HETATM   24  C15 UNL     1      -5.985   7.656  13.449  1.00  0.00     0.008 C 
BRANCH  24  25
HETATM   25  C16 UNL     1      -7.000   7.136  14.475  1.00  0.00     0.028 C 
BRANCH  25  26
HETATM   26  C17 UNL     1      -7.102   5.635  14.407  1.00  0.00    -0.017 C 
HETATM   27  C18 UNL     1      -7.720   4.903  13.462  1.00  0.00    -0.028 C 
HETATM   28  C19 UNL     1      -8.466   5.400  12.263  1.00  0.00     0.051 C 
BRANCH  27  29
HETATM   29  C20 UNL     1      -7.661   3.419  13.613  1.00  0.00     0.265 C 
HETATM   30  O3  UNL     1      -8.266   2.652  12.874  1.00  0.00    -0.302 OA
ENDBRANCH  27  29
ENDBRANCH  25  26
ENDBRANCH  24  25
ENDBRANCH  22  24
ENDBRANCH  14  22
BRANCH  20  31
HETATM   31  C27 UNL     1       3.238   8.112  13.815  1.00  0.00     0.021 C 
BRANCH  31  32
HETATM   32  C28 UNL     1       4.724   8.074  13.484  1.00  0.00     0.111 C 
BRANCH  32  33
HETATM   33  C29 UNL     1       5.576   7.725  14.673  1.00  0.00     0.139 C 
HETATM   34  O4  UNL     1       5.671   8.345  15.718  1.00  0.00    -0.650 OA
BRANCH  33  35
HETATM   35  O5  UNL     1       6.224   6.554  14.507  1.00  0.00    -0.776 OA
HETATM   36  H41 UNL     1       6.723   6.435  15.344  1.00  0.00     0.167 HD
ENDBRANCH  33  35
ENDBRANCH  32  33
ENDBRANCH  31  32
ENDBRANCH  20  31
TORSDOF 9
ENDMDL
MODEL 5
REMARK minimizedAffinity -7.04320717
REMARK CNNscore 0.245852083
REMARK CNNaffinity 5.34938478
REMARK  9 active torsions:
REMARK  status: ('A' for Active; 'I' for Inactive)
REMARK    1  A    between atoms: C12_14  and  C13_15 
REMARK    2  A    between atoms: C13_15  and  C15_17 
REMARK    3  A    between atoms: C15_17  and  C16_18 
REMARK    4  A    between atoms: C16_18  and  C17_19 
REMARK    5  A    between atoms: C18_20  and  C20_22 
REMARK    6  A    between atoms: C26_29  and  C27_30 
REMARK    7  A    between atoms: C27_30  and  C28_31 
REMARK    8  A    between atoms: C28_31  and  C29_32 
REMARK    9  A    between atoms: C29_32  and  O5_34 
ROOT
HETATM    1  C1  UNL     1      13.964  15.465  15.697  1.00  0.00     0.025 C 
HETATM    2  C2  UNL     1      12.801  14.861  15.976  1.00  0.00     0.015 C 
HETATM    3  C3  UNL     1      11.522  15.562  15.732  1.00  0.00     0.289 C 
HETATM    4  O1  UNL     1      11.369  16.757  15.553  1.00  0.00    -0.260 OA
HETATM    5  O2  UNL     1      10.534  14.632  15.743  1.00  0.00    -0.311 OA
HETATM    6  C4  UNL     1      11.097  13.316  15.859  1.00  0.00     0.142 C 
HETATM    7  C5  UNL     1      10.165  12.448  16.687  1.00  0.00     0.039 C 
HETATM    8  C6  UNL     1      10.013  13.007  18.110  1.00  0.00     0.006 C 
HETATM    9  C7  UNL     1      11.376  12.968  18.834  1.00  0.00    -0.027 A 
HETATM   10  C8  UNL     1      11.437  12.092  20.091  1.00  0.00     0.011 C 
HETATM   11  C9  UNL     1      10.224  12.158  21.040  1.00  0.00     0.011 C 
HETATM   12  C10 UNL     1       8.956  12.769  20.426  1.00  0.00    -0.032 C 
HETATM   13  C11 UNL     1       9.018  14.315  20.616  1.00  0.00     0.016 C 
HETATM   14  C12 UNL     1       7.589  12.250  20.985  1.00  0.00    -0.002 C 
HETATM   15  C21 UNL     1       6.614  12.538  19.805  1.00  0.00     0.006 C 
HETATM   16  C22 UNL     1       7.461  12.776  18.543  1.00  0.00     0.011 C 
HETATM   17  C23 UNL     1       8.880  12.315  18.924  1.00  0.00    -0.032 C 
HETATM   18  C24 UNL     1       8.901  10.765  18.711  1.00  0.00     0.016 C 
HETATM   19  C25 UNL     1      12.201  14.237  18.913  1.00  0.00     0.022 A 
HETATM   20  C26 UNL     1      12.652  13.169  17.943  1.00  0.00    -0.021 A 
HETATM   21  C30 UNL     1      12.508  13.464  16.426  1.00  0.00     0.063 C 
ENDROOT
BRANCH  14  22
HETATM   22  C13 UNL     1       7.043  12.783  22.346  1.00  0.00    -0.014 C 
HETATM   23  C14 UNL     1       8.177  13.180  23.299  1.00  0.00     0.010 C 
BRANCH  22  24
HETATM   24  C15 UNL     1       6.135  11.713  23.014  1.00  0.00     0.008 C 
BRANCH  24  25
HETATM   25  C16 UNL     1       4.673  11.751  22.552  1.00  0.00     0.028 C 
BRANCH  25  26
HETATM   26  C17 UNL     1       3.954  10.492  22.961  1.00  0.00    -0.017 C 
HETATM   27  C18 UNL     1       2.866   9.951  22.380  1.00  0.00    -0.028 C 
HETATM   28  C19 UNL     1       2.101  10.474  21.205  1.00  0.00     0.051 C 
BRANCH  27  29
HETATM   29  C20 UNL     1       2.352   8.679  22.967  1.00  0.00     0.265 C 
HETATM   30  O3  UNL     1       1.928   7.756  22.283  1.00  0.00    -0.302 OA
ENDBRANCH  27  29
ENDBRANCH  25  26
ENDBRANCH  24  25
ENDBRANCH  22  24
ENDBRANCH  14  22
BRANCH  20  31
HETATM   31  C27 UNL     1      13.859  12.281  18.289  1.00  0.00     0.021 C 
BRANCH  31  32
HETATM   32  C28 UNL     1      15.096  12.999  18.813  1.00  0.00     0.111 C 
BRANCH  32  33
HETATM   33  C29 UNL     1      15.440  12.609  20.224  1.00  0.00     0.139 C 
HETATM   34  O4  UNL     1      14.664  12.401  21.140  1.00  0.00    -0.650 OA
BRANCH  33  35
HETATM   35  O5  UNL     1      16.766  12.431  20.393  1.00  0.00    -0.776 OA
HETATM   36  H41 UNL     1      16.856  12.168  21.335  1.00  0.00     0.167 HD
ENDBRANCH  33  35
ENDBRANCH  32  33
ENDBRANCH  31  32
ENDBRANCH  20  31
TORSDOF 9
ENDMDL
MODEL 6
REMARK minimizedAffinity -6.80738544
REMARK CNNscore 0.239312038
REMARK CNNaffinity 5.84065485
REMARK  9 active torsions:
REMARK  status: ('A' for Active; 'I' for Inactive)
REMARK    1  A    between atoms: C12_14  and  C13_15 
REMARK    2  A    between atoms: C13_15  and  C15_17 
REMARK    3  A    between atoms: C15_17  and  C16_18 
REMARK    4  A    between atoms: C16_18  and  C17_19 
REMARK    5  A    between atoms: C18_20  and  C20_22 
REMARK    6  A    between atoms: C26_29  and  C27_30 
REMARK    7  A    between atoms: C27_30  and  C28_31 
REMARK    8  A    between atoms: C28_31  and  C29_32 
REMARK    9  A    between atoms: C29_32  and  O5_34 
ROOT
HETATM    1  C1  UNL     1       6.674   6.527  10.929  1.00  0.00     0.025 C 
HETATM    2  C2  UNL     1       6.387   7.661  11.581  1.00  0.00     0.015 C 
HETATM    3  C3  UNL     1       7.227   8.099  12.717  1.00  0.00     0.289 C 
HETATM    4  O1  UNL     1       8.020   7.417  13.341  1.00  0.00    -0.260 OA
HETATM    5  O2  UNL     1       6.957   9.408  12.948  1.00  0.00    -0.311 OA
HETATM    6  C4  UNL     1       6.065   9.913  11.943  1.00  0.00     0.142 C 
HETATM    7  C5  UNL     1       5.135  10.937  12.571  1.00  0.00     0.039 C 
HETATM    8  C6  UNL     1       4.272  10.295  13.668  1.00  0.00     0.006 C 
HETATM    9  C7  UNL     1       3.353   9.221  13.047  1.00  0.00    -0.027 A 
HETATM   10  C8  UNL     1       1.847   9.473  13.184  1.00  0.00     0.011 C 
HETATM   11  C9  UNL     1       1.356  10.008  14.544  1.00  0.00     0.011 C 
HETATM   12  C10 UNL     1       2.455  10.594  15.443  1.00  0.00    -0.032 C 
HETATM   13  C11 UNL     1       3.075   9.431  16.275  1.00  0.00     0.016 C 
HETATM   14  C12 UNL     1       2.024  11.736  16.421  1.00  0.00    -0.002 C 
HETATM   15  C21 UNL     1       3.364  12.490  16.669  1.00  0.00     0.006 C 
HETATM   16  C22 UNL     1       4.350  12.069  15.566  1.00  0.00     0.011 C 
HETATM   17  C23 UNL     1       3.489  11.336  14.521  1.00  0.00    -0.032 C 
HETATM   18  C24 UNL     1       2.868  12.451  13.616  1.00  0.00     0.016 C 
HETATM   19  C25 UNL     1       3.757   7.764  13.147  1.00  0.00     0.022 A 
HETATM   20  C26 UNL     1       3.919   8.444  11.806  1.00  0.00    -0.021 A 
HETATM   21  C30 UNL     1       5.362   8.716  11.304  1.00  0.00     0.063 C 
ENDROOT
BRANCH  14  22
HETATM   22  C13 UNL     1       1.283  11.393  17.752  1.00  0.00    -0.014 C 
HETATM   23  C14 UNL     1      -0.110  12.031  17.810  1.00  0.00     0.010 C 
BRANCH  22  24
HETATM   24  C15 UNL     1       2.132  11.853  18.970  1.00  0.00     0.008 C 
BRANCH  24  25
HETATM   25  C16 UNL     1       1.429  11.694  20.324  1.00  0.00     0.028 C 
BRANCH  25  26
HETATM   26  C17 UNL     1       1.679  10.322  20.895  1.00  0.00    -0.017 C 
HETATM   27  C18 UNL     1       2.445  10.010  21.957  1.00  0.00    -0.028 C 
HETATM   28  C19 UNL     1       3.242  10.942  22.815  1.00  0.00     0.051 C 
BRANCH  27  29
HETATM   29  C20 UNL     1       2.515   8.568  22.336  1.00  0.00     0.265 C 
HETATM   30  O3  UNL     1       1.522   7.861  22.447  1.00  0.00    -0.302 OA
ENDBRANCH  27  29
ENDBRANCH  25  26
ENDBRANCH  24  25
ENDBRANCH  22  24
ENDBRANCH  14  22
BRANCH  20  31
HETATM   31  C27 UNL     1       2.914   8.160  10.677  1.00  0.00     0.021 C 
BRANCH  31  32
HETATM   32  C28 UNL     1       3.494   7.604   9.383  1.00  0.00     0.111 C 
BRANCH  32  33
HETATM   33  C29 UNL     1       2.904   8.247   8.158  1.00  0.00     0.139 C 
HETATM   34  O4  UNL     1       3.299   9.250   7.591  1.00  0.00    -0.650 OA
BRANCH  33  35
HETATM   35  O5  UNL     1       1.870   7.539   7.661  1.00  0.00    -0.776 OA
HETATM   36  H41 UNL     1       1.589   8.047   6.869  1.00  0.00     0.167 HD
ENDBRANCH  33  35
ENDBRANCH  32  33
ENDBRANCH  31  32
ENDBRANCH  20  31
TORSDOF 9
ENDMDL
MODEL 7
REMARK minimizedAffinity -7.65520191
REMARK CNNscore 0.233844608
REMARK CNNaffinity 6.46237707
REMARK  9 active torsions:
REMARK  status: ('A' for Active; 'I' for Inactive)
REMARK    1  A    between atoms: C12_14  and  C13_15 
REMARK    2  A    between atoms: C13_15  and  C15_17 
REMARK    3  A    between atoms: C15_17  and  C16_18 
REMARK    4  A    between atoms: C16_18  and  C17_19 
REMARK    5  A    between atoms: C18_20  and  C20_22 
REMARK    6  A    between atoms: C26_29  and  C27_30 
REMARK    7  A    between atoms: C27_30  and  C28_31 
REMARK    8  A    between atoms: C28_31  and  C29_32 
REMARK    9  A    between atoms: C29_32  and  O5_34 
ROOT
HETATM    1  C1  UNL     1       2.590   8.214  11.178  1.00  0.00     0.025 C 
HETATM    2  C2  UNL     1       1.509   7.464  11.422  1.00  0.00     0.015 C 
HETATM    3  C3  UNL     1       0.566   7.138  10.330  1.00  0.00     0.289 C 
HETATM    4  O1  UNL     1       0.486   7.692   9.249  1.00  0.00    -0.260 OA
HETATM    5  O2  UNL     1      -0.203   6.101  10.746  1.00  0.00    -0.311 OA
HETATM    6  C4  UNL     1       0.255   5.627  12.021  1.00  0.00     0.142 C 
HETATM    7  C5  UNL     1      -0.940   5.167  12.840  1.00  0.00     0.039 C 
HETATM    8  C6  UNL     1      -1.905   6.333  13.105  1.00  0.00     0.006 C 
HETATM    9  C7  UNL     1      -1.202   7.408  13.960  1.00  0.00    -0.027 A 
HETATM   10  C8  UNL     1      -1.828   7.683  15.333  1.00  0.00     0.011 C 
HETATM   11  C9  UNL     1      -3.367   7.744  15.391  1.00  0.00     0.011 C 
HETATM   12  C10 UNL     1      -4.084   7.135  14.176  1.00  0.00    -0.032 C 
HETATM   13  C11 UNL     1      -4.216   8.240  13.085  1.00  0.00     0.016 C 
HETATM   14  C12 UNL     1      -5.498   6.516  14.437  1.00  0.00    -0.002 C 
HETATM   15  C21 UNL     1      -5.636   5.493  13.271  1.00  0.00     0.006 C 
HETATM   16  C22 UNL     1      -4.232   5.251  12.690  1.00  0.00     0.011 C 
HETATM   17  C23 UNL     1      -3.265   5.877  13.712  1.00  0.00    -0.032 C 
HETATM   18  C24 UNL     1      -3.051   4.796  14.822  1.00  0.00     0.016 C 
HETATM   19  C25 UNL     1      -0.632   8.634  13.273  1.00  0.00     0.022 A 
HETATM   20  C26 UNL     1       0.343   7.579  13.743  1.00  0.00    -0.021 A 
HETATM   21  C30 UNL     1       1.078   6.743  12.662  1.00  0.00     0.063 C 
ENDROOT
BRANCH  14  22
HETATM   22  C13 UNL     1      -6.749   7.440  14.564  1.00  0.00    -0.014 C 
HETATM   23  C14 UNL     1      -6.958   7.923  16.004  1.00  0.00     0.010 C 
BRANCH  22  24
HETATM   24  C15 UNL     1      -8.017   6.696  14.061  1.00  0.00     0.008 C 
BRANCH  24  25
HETATM   25  C16 UNL     1      -9.216   6.778  15.014  1.00  0.00     0.028 C 
BRANCH  25  26
HETATM   26  C17 UNL     1      -9.983   8.055  14.794  1.00  0.00    -0.017 C 
HETATM   27  C18 UNL     1     -10.880   8.309  13.823  1.00  0.00    -0.028 C 
HETATM   28  C19 UNL     1     -11.319   7.395  12.722  1.00  0.00     0.051 C 
BRANCH  27  29
HETATM   29  C20 UNL     1     -11.521   9.657  13.834  1.00  0.00     0.265 C 
HETATM   30  O3  UNL     1     -10.919  10.676  14.150  1.00  0.00    -0.302 OA
ENDBRANCH  27  29
ENDBRANCH  25  26
ENDBRANCH  24  25
ENDBRANCH  22  24
ENDBRANCH  14  22
BRANCH  20  31
HETATM   31  C27 UNL     1       1.177   7.819  15.013  1.00  0.00     0.021 C 
BRANCH  31  32
HETATM   32  C28 UNL     1       2.024   9.085  15.034  1.00  0.00     0.111 C 
BRANCH  32  33
HETATM   33  C29 UNL     1       2.641   9.349  16.380  1.00  0.00     0.139 C 
HETATM   34  O4  UNL     1       2.183   9.054  17.470  1.00  0.00    -0.650 OA
BRANCH  33  35
HETATM   35  O5  UNL     1       3.859   9.919  16.277  1.00  0.00    -0.776 OA
HETATM   36  H41 UNL     1       4.155  10.022  17.207  1.00  0.00     0.167 HD
ENDBRANCH  33  35
ENDBRANCH  32  33
ENDBRANCH  31  32
ENDBRANCH  20  31
TORSDOF 9
ENDMDL
MODEL 8
REMARK minimizedAffinity -6.15050936
REMARK CNNscore 0.22358942
REMARK CNNaffinity 5.2992301
REMARK  9 active torsions:
REMARK  status: ('A' for Active; 'I' for Inactive)
REMARK    1  A    between atoms: C12_14  and  C13_15 
REMARK    2  A    between atoms: C13_15  and  C15_17 
REMARK    3  A    between atoms: C15_17  and  C16_18 
REMARK    4  A    between atoms: C16_18  and  C17_19 
REMARK    5  A    between atoms: C18_20  and  C20_22 
REMARK    6  A    between atoms: C26_29  and  C27_30 
REMARK    7  A    between atoms: C27_30  and  C28_31 
REMARK    8  A    between atoms: C28_31  and  C29_32 
REMARK    9  A    between atoms: C29_32  and  O5_34 
ROOT
HETATM    1  C1  UNL     1     -18.683  -3.988  18.193  1.00  0.00     0.025 C 
HETATM    2  C2  UNL     1     -17.874  -3.167  17.513  1.00  0.00     0.015 C 
HETATM    3  C3  UNL     1     -16.681  -2.585  18.167  1.00  0.00     0.289 C 
HETATM    4  O1  UNL     1     -16.461  -2.534  19.363  1.00  0.00    -0.260 OA
HETATM    5  O2  UNL     1     -15.866  -2.113  17.191  1.00  0.00    -0.311 OA
HETATM    6  C4  UNL     1     -16.390  -2.457  15.900  1.00  0.00     0.142 C 
HETATM    7  C5  UNL     1     -16.079  -1.337  14.922  1.00  0.00     0.039 C 
HETATM    8  C6  UNL     1     -16.754  -0.027  15.356  1.00  0.00     0.006 C 
HETATM    9  C7  UNL     1     -18.289  -0.195  15.325  1.00  0.00    -0.027 A 
HETATM   10  C8  UNL     1     -19.040   0.723  14.353  1.00  0.00     0.011 C 
HETATM   11  C9  UNL     1     -18.569   2.189  14.282  1.00  0.00     0.011 C 
HETATM   12  C10 UNL     1     -17.178   2.450  14.878  1.00  0.00    -0.032 C 
HETATM   13  C11 UNL     1     -17.343   2.718  16.404  1.00  0.00     0.016 C 
HETATM   14  C12 UNL     1     -16.357   3.625  14.249  1.00  0.00    -0.002 C 
HETATM   15  C21 UNL     1     -14.889   3.225  14.583  1.00  0.00     0.006 C 
HETATM   16  C22 UNL     1     -14.883   1.735  14.965  1.00  0.00     0.011 C 
HETATM   17  C23 UNL     1     -16.269   1.211  14.545  1.00  0.00    -0.032 C 
HETATM   18  C24 UNL     1     -16.160   0.878  13.020  1.00  0.00     0.016 C 
HETATM   19  C25 UNL     1     -19.022  -0.471  16.623  1.00  0.00     0.022 A 
HETATM   20  C26 UNL     1     -18.846  -1.624  15.660  1.00  0.00    -0.021 A 
HETATM   21  C30 UNL     1     -17.877  -2.764  16.071  1.00  0.00     0.063 C 
ENDROOT
BRANCH  14  22
HETATM   22  C13 UNL     1     -16.672   5.102  14.641  1.00  0.00    -0.014 C 
HETATM   23  C14 UNL     1     -17.257   5.892  13.464  1.00  0.00     0.010 C 
BRANCH  22  24
HETATM   24  C15 UNL     1     -15.388   5.801  15.168  1.00  0.00     0.008 C 
BRANCH  24  25
HETATM   25  C16 UNL     1     -14.596   6.558  14.094  1.00  0.00     0.028 C 
BRANCH  25  26
HETATM   26  C17 UNL     1     -13.116   6.462  14.359  1.00  0.00    -0.017 C 
HETATM   27  C18 UNL     1     -12.144   7.227  13.828  1.00  0.00    -0.028 C 
HETATM   28  C19 UNL     1     -12.293   8.341  12.840  1.00  0.00     0.051 C 
BRANCH  27  29
HETATM   29  C20 UNL     1     -10.747   6.942  14.270  1.00  0.00     0.265 C 
HETATM   30  O3  UNL     1      -9.842   7.763  14.182  1.00  0.00    -0.302 OA
ENDBRANCH  27  29
ENDBRANCH  25  26
ENDBRANCH  24  25
ENDBRANCH  22  24
ENDBRANCH  14  22
BRANCH  20  31
HETATM   31  C27 UNL     1     -20.034  -2.098  14.808  1.00  0.00     0.021 C 
BRANCH  31  32
HETATM   32  C28 UNL     1     -19.725  -3.141  13.742  1.00  0.00     0.111 C 
BRANCH  32  33
HETATM   33  C29 UNL     1     -19.132  -2.543  12.496  1.00  0.00     0.139 C 
HETATM   34  O4  UNL     1     -17.949  -2.399  12.240  1.00  0.00    -0.650 OA
BRANCH  33  35
HETATM   35  O5  UNL     1     -20.076  -2.215  11.591  1.00  0.00    -0.776 OA
HETATM   36  H41 UNL     1     -19.567  -1.856  10.832  1.00  0.00     0.167 HD
ENDBRANCH  33  35
ENDBRANCH  32  33
ENDBRANCH  31  32
ENDBRANCH  20  31
TORSDOF 9
ENDMDL
MODEL 9
REMARK minimizedAffinity -6.42066813
REMARK CNNscore 0.214907199
REMARK CNNaffinity 6.26274061
REMARK  9 active torsions:
REMARK  status: ('A' for Active; 'I' for Inactive)
REMARK    1  A    between atoms: C12_14  and  C13_15 
REMARK    2  A    between atoms: C13_15  and  C15_17 
REMARK    3  A    between atoms: C15_17  and  C16_18 
REMARK    4  A    between atoms: C16_18  and  C17_19 
REMARK    5  A    between atoms: C18_20  and  C20_22 
REMARK    6  A    between atoms: C26_29  and  C27_30 
REMARK    7  A    between atoms: C27_30  and  C28_31 
REMARK    8  A    between atoms: C28_31  and  C29_32 
REMARK    9  A    between atoms: C29_32  and  O5_34 
ROOT
HETATM    1  C1  UNL     1       4.034  10.843  20.362  1.00  0.00     0.025 C 
HETATM    2  C2  UNL     1       2.753  10.951  19.989  1.00  0.00     0.015 C 
HETATM    3  C3  UNL     1       1.696  10.237  20.738  1.00  0.00     0.289 C 
HETATM    4  O1  UNL     1       1.854   9.316  21.520  1.00  0.00    -0.260 OA
HETATM    5  O2  UNL     1       0.505  10.791  20.400  1.00  0.00    -0.311 OA
HETATM    6  C4  UNL     1       0.714  11.929  19.551  1.00  0.00     0.142 C 
HETATM    7  C5  UNL     1      -0.419  12.013  18.542  1.00  0.00     0.039 C 
HETATM    8  C6  UNL     1      -0.444  10.769  17.641  1.00  0.00     0.006 C 
HETATM    9  C7  UNL     1       0.853  10.702  16.808  1.00  0.00    -0.027 A 
HETATM   10  C8  UNL     1       0.673  10.771  15.286  1.00  0.00     0.011 C 
HETATM   11  C9  UNL     1      -0.497   9.963  14.692  1.00  0.00     0.011 C 
HETATM   12  C10 UNL     1      -1.560   9.521  15.708  1.00  0.00    -0.032 C 
HETATM   13  C11 UNL     1      -1.111   8.161  16.324  1.00  0.00     0.016 C 
HETATM   14  C12 UNL     1      -3.022   9.368  15.170  1.00  0.00    -0.002 C 
HETATM   15  C21 UNL     1      -3.875   9.552  16.459  1.00  0.00     0.006 C 
HETATM   16  C22 UNL     1      -2.978  10.199  17.528  1.00  0.00     0.011 C 
HETATM   17  C23 UNL     1      -1.728  10.673  16.764  1.00  0.00    -0.032 C 
HETATM   18  C24 UNL     1      -2.097  12.064  16.153  1.00  0.00     0.016 C 
HETATM   19  C25 UNL     1       1.972   9.787  17.266  1.00  0.00     0.022 A 
HETATM   20  C26 UNL     1       2.151  11.273  17.481  1.00  0.00    -0.021 A 
HETATM   21  C30 UNL     1       2.108  11.801  18.939  1.00  0.00     0.063 C 
ENDROOT
BRANCH  14  22
HETATM   22  C13 UNL     1      -3.434   8.096  14.364  1.00  0.00    -0.014 C 
HETATM   23  C14 UNL     1      -3.576   8.391  12.866  1.00  0.00     0.010 C 
BRANCH  22  24
HETATM   24  C15 UNL     1      -4.763   7.517  14.923  1.00  0.00     0.008 C 
BRANCH  24  25
HETATM   25  C16 UNL     1      -5.888   7.408  13.885  1.00  0.00     0.028 C 
BRANCH  25  26
HETATM   26  C17 UNL     1      -6.709   6.167  14.120  1.00  0.00    -0.017 C 
HETATM   27  C18 UNL     1      -6.425   4.915  13.714  1.00  0.00    -0.028 C 
HETATM   28  C19 UNL     1      -5.241   4.457  12.921  1.00  0.00     0.051 C 
BRANCH  27  29
HETATM   29  C20 UNL     1      -7.397   3.847  14.092  1.00  0.00     0.265 C 
HETATM   30  O3  UNL     1      -8.083   3.253  13.270  1.00  0.00    -0.302 OA
ENDBRANCH  27  29
ENDBRANCH  25  26
ENDBRANCH  24  25
ENDBRANCH  22  24
ENDBRANCH  14  22
BRANCH  20  31
HETATM   31  C27 UNL     1       3.088  12.072  16.560  1.00  0.00     0.021 C 
BRANCH  31  32
HETATM   32  C28 UNL     1       4.495  11.516  16.384  1.00  0.00     0.111 C 
BRANCH  32  33
HETATM   33  C29 UNL     1       4.733  10.960  15.007  1.00  0.00     0.139 C 
HETATM   34  O4  UNL     1       4.098  10.083  14.448  1.00  0.00    -0.650 OA
BRANCH  33  35
HETATM   35  O5  UNL     1       5.734  11.598  14.368  1.00  0.00    -0.776 OA
HETATM   36  H41 UNL     1       5.777  11.159  13.490  1.00  0.00     0.167 HD
ENDBRANCH  33  35
ENDBRANCH  32  33
ENDBRANCH  31  32
ENDBRANCH  20  31
TORSDOF 9
ENDMDL
