MODEL 1
REMARK minimizedAffinity -8.07121277
REMARK CNNscore 0.778642058
REMARK CNNaffinity 7.7897191
REMARK  12 active torsions:
REMARK  status: ('A' for Active; 'I' for Inactive)
REMARK    1  A    between atoms: O1_2  and  C2_3 
REMARK    2  A    between atoms: C2_3  and  C3_4 
REMARK    3  A    between atoms: C3_4  and  C4_5 
REMARK    4  A    between atoms: C4_5  and  O2_6 
REMARK    5  A    between atoms: O2_6  and  C5_7 
REMARK    6  A    between atoms: C20_23  and  C21_24 
REMARK    7  A    between atoms: C21_24  and  O4_26 
REMARK    8  A    between atoms: C21_24  and  C23_27 
REMARK    9  A    between atoms: C23_27  and  O5_28 
REMARK   10  A    between atoms: C23_27  and  C24_29 
REMARK   11  A    between atoms: C33_40  and  O7_41 
REMARK   12  A    between atoms: C38_46  and  O8_47 
ROOT
HETATM    1  C5  UNL     1       1.364  53.175  -9.007  1.00  0.00     0.122 C 
HETATM    2  C6  UNL     1       1.092  51.682  -9.169  1.00  0.00     0.033 C 
HETATM    3  C7  UNL     1      -0.181  51.345  -9.954  1.00  0.00     0.013 C 
HETATM    4  C8  UNL     1      -0.512  52.293 -11.158  1.00  0.00    -0.026 C 
HETATM    5  C9  UNL     1      -1.685  53.205 -10.718  1.00  0.00     0.016 C 
HETATM    6  C10 UNL     1       0.724  53.154 -11.508  1.00  0.00     0.071 C 
HETATM    7  C11 UNL     1       1.214  53.983 -10.308  1.00  0.00     0.045 C 
HETATM    8  C12 UNL     1       1.856  52.296 -12.067  1.00  0.00     0.154 C 
HETATM    9  O3  UNL     1       3.047  52.553 -11.898  1.00  0.00    -0.293 OA
HETATM   10  C13 UNL     1       1.509  51.149 -12.931  1.00  0.00     0.057 C 
HETATM   11  C14 UNL     1       0.231  50.797 -13.138  1.00  0.00    -0.037 C 
HETATM   12  C15 UNL     1      -0.955  51.434 -12.405  1.00  0.00     0.026 C 
HETATM   13  C16 UNL     1      -1.857  52.150 -13.448  1.00  0.00     0.011 C 
HETATM   14  C17 UNL     1      -2.226  51.261 -14.663  1.00  0.00     0.014 C 
HETATM   15  C18 UNL     1      -0.985  50.611 -15.319  1.00  0.00    -0.002 C 
HETATM   16  C19 UNL     1      -0.130  51.737 -15.960  1.00  0.00     0.019 C 
HETATM   17  C20 UNL     1      -1.276  49.450 -16.332  1.00  0.00     0.034 C 
HETATM   18  C36 UNL     1       0.030  48.603 -16.291  1.00  0.00     0.012 C 
HETATM   19  C37 UNL     1       0.817  49.026 -15.031  1.00  0.00     0.044 C 
HETATM   20  C38 UNL     1      -0.199  49.825 -14.211  1.00  0.00     0.089 C 
ENDROOT
BRANCH  17  21
HETATM   21  C21 UNL     1      -1.859  49.710 -17.768  1.00  0.00     0.087 C 
HETATM   22  C22 UNL     1      -0.790  49.968 -18.852  1.00  0.00     0.049 C 
BRANCH  21  23
HETATM   23  O4  UNL     1      -2.700  50.867 -17.718  1.00  0.00    -0.387 OA
HETATM   24  H34 UNL     1      -2.139  51.661 -17.682  1.00  0.00     0.210 HD
ENDBRANCH  21  23
BRANCH  21  25
HETATM   25  C23 UNL     1      -2.759  48.486 -18.194  1.00  0.00     0.181 C 
BRANCH  25  26
HETATM   26  O5  UNL     1      -2.010  47.263 -18.043  1.00  0.00    -0.390 OA
HETATM   27  H36 UNL     1      -2.458  46.623 -18.639  1.00  0.00     0.210 HD
ENDBRANCH  25  26
BRANCH  25  28
HETATM   28  C24 UNL     1      -3.292  48.525 -19.641  1.00  0.00     0.158 C 
HETATM   29  O6  UNL     1      -3.547  49.923 -20.015  1.00  0.00    -0.373 OA
HETATM   30  C25 UNL     1      -3.801  49.846 -21.427  1.00  0.00     0.185 C 
HETATM   31  C26 UNL     1      -2.617  49.036 -21.891  1.00  0.00     0.028 C 
HETATM   32  C33 UNL     1      -3.825  51.182 -22.188  1.00  0.00     0.384 C 
HETATM   33  C27 UNL     1      -2.798  48.631 -23.351  1.00  0.00     0.049 C 
HETATM   34  C34 UNL     1      -2.479  47.939 -20.826  1.00  0.00     0.020 C 
HETATM   35  C28 UNL     1      -3.493  49.763 -24.185  1.00  0.00     0.161 C 
HETATM   36  C29 UNL     1      -2.920  49.803 -25.616  1.00  0.00     0.041 C 
HETATM   37  C32 UNL     1      -4.964  49.428 -24.503  1.00  0.00     0.041 C 
HETATM   38  N1  UNL     1      -3.344  51.098 -23.571  1.00  0.00     0.124 N 
HETATM   39  C30 UNL     1      -3.554  48.604 -26.315  1.00  0.00     0.003 C 
HETATM   40  C31 UNL     1      -4.915  48.420 -25.651  1.00  0.00     0.003 C 
HETATM   41  H50 UNL     1      -2.349  51.331 -23.566  1.00  0.00     0.320 HD
HETATM   42  C35 UNL     1      -0.998  47.650 -20.596  1.00  0.00     0.013 C 
BRANCH  32  43
HETATM   43  O7  UNL     1      -5.143  51.686 -22.244  1.00  0.00    -0.366 OA
HETATM   44  H52 UNL     1      -5.167  52.120 -23.114  1.00  0.00     0.212 HD
ENDBRANCH  32  43
ENDBRANCH  25  28
ENDBRANCH  21  25
ENDBRANCH  17  21
BRANCH  20  45
HETATM   45  O8  UNL     1      -1.044  48.876 -13.538  1.00  0.00    -0.384 OA
HETATM   46  H61 UNL     1      -1.054  48.037 -14.027  1.00  0.00     0.211 HD
ENDBRANCH  20  45
BRANCH   1  47
HETATM   47  O2  UNL     1       0.453  53.658  -8.009  1.00  0.00    -0.386 OA
BRANCH  47  48
HETATM   48  C4  UNL     1       0.944  54.776  -7.269  1.00  0.00     0.170 C 
BRANCH  48  49
HETATM   49  C3  UNL     1       0.489  56.081  -7.915  1.00  0.00     0.052 C 
BRANCH  49  50
HETATM   50  C2  UNL     1      -0.064  57.089  -6.909  1.00  0.00     0.169 C 
BRANCH  50  51
HETATM   51  O1  UNL     1      -0.469  56.469  -5.690  1.00  0.00    -0.396 OA
HETATM   52  C1  UNL     1       0.144  57.038  -4.539  1.00  0.00     0.201 C 
ENDBRANCH  50  51
ENDBRANCH  49  50
ENDBRANCH  48  49
ENDBRANCH  47  48
ENDBRANCH   1  47
TORSDOF 12
ENDMDL
MODEL 2
REMARK minimizedAffinity -8.74333954
REMARK CNNscore 0.729124069
REMARK CNNaffinity 7.12272835
REMARK  12 active torsions:
REMARK  status: ('A' for Active; 'I' for Inactive)
REMARK    1  A    between atoms: O1_2  and  C2_3 
REMARK    2  A    between atoms: C2_3  and  C3_4 
REMARK    3  A    between atoms: C3_4  and  C4_5 
REMARK    4  A    between atoms: C4_5  and  O2_6 
REMARK    5  A    between atoms: O2_6  and  C5_7 
REMARK    6  A    between atoms: C20_23  and  C21_24 
REMARK    7  A    between atoms: C21_24  and  O4_26 
REMARK    8  A    between atoms: C21_24  and  C23_27 
REMARK    9  A    between atoms: C23_27  and  O5_28 
REMARK   10  A    between atoms: C23_27  and  C24_29 
REMARK   11  A    between atoms: C33_40  and  O7_41 
REMARK   12  A    between atoms: C38_46  and  O8_47 
ROOT
HETATM    1  C5  UNL     1      -1.619  52.143 -24.129  1.00  0.00     0.122 C 
HETATM    2  C6  UNL     1      -2.807  52.353 -23.193  1.00  0.00     0.033 C 
HETATM    3  C7  UNL     1      -3.255  51.098 -22.435  1.00  0.00     0.013 C 
HETATM    4  C8  UNL     1      -2.107  50.135 -21.972  1.00  0.00    -0.026 C 
HETATM    5  C9  UNL     1      -2.130  48.905 -22.914  1.00  0.00     0.016 C 
HETATM    6  C10 UNL     1      -0.741  50.853 -22.072  1.00  0.00     0.071 C 
HETATM    7  C11 UNL     1      -0.455  51.361 -23.496  1.00  0.00     0.045 C 
HETATM    8  C12 UNL     1      -0.640  51.994 -21.063  1.00  0.00     0.154 C 
HETATM    9  O3  UNL     1      -0.001  53.024 -21.269  1.00  0.00    -0.293 OA
HETATM   10  C13 UNL     1      -1.266  51.817 -19.736  1.00  0.00     0.057 C 
HETATM   11  C14 UNL     1      -1.999  50.730 -19.453  1.00  0.00    -0.037 C 
HETATM   12  C15 UNL     1      -2.374  49.665 -20.489  1.00  0.00     0.026 C 
HETATM   13  C16 UNL     1      -1.731  48.315 -20.070  1.00  0.00     0.011 C 
HETATM   14  C17 UNL     1      -2.004  47.930 -18.593  1.00  0.00     0.014 C 
HETATM   15  C18 UNL     1      -1.650  49.071 -17.610  1.00  0.00    -0.002 C 
HETATM   16  C19 UNL     1      -0.111  49.274 -17.637  1.00  0.00     0.019 C 
HETATM   17  C20 UNL     1      -2.191  48.907 -16.147  1.00  0.00     0.034 C 
HETATM   18  C36 UNL     1      -2.287  50.374 -15.634  1.00  0.00     0.012 C 
HETATM   19  C37 UNL     1      -2.210  51.301 -16.866  1.00  0.00     0.044 C 
HETATM   20  C38 UNL     1      -2.428  50.360 -18.053  1.00  0.00     0.089 C 
ENDROOT
BRANCH  17  21
HETATM   21  C21 UNL     1      -1.572  47.882 -15.129  1.00  0.00     0.087 C 
HETATM   22  C22 UNL     1      -0.037  47.962 -14.999  1.00  0.00     0.049 C 
BRANCH  21  23
HETATM   23  O4  UNL     1      -1.893  46.556 -15.563  1.00  0.00    -0.387 OA
HETATM   24  H34 UNL     1      -1.319  46.324 -16.313  1.00  0.00     0.210 HD
ENDBRANCH  21  23
BRANCH  21  25
HETATM   25  C23 UNL     1      -2.235  48.092 -13.712  1.00  0.00     0.181 C 
BRANCH  25  26
HETATM   26  O5  UNL     1      -3.658  47.882 -13.811  1.00  0.00    -0.390 OA
HETATM   27  H36 UNL     1      -4.034  48.365 -13.042  1.00  0.00     0.210 HD
ENDBRANCH  25  26
BRANCH  25  28
HETATM   28  C24 UNL     1      -2.015  49.480 -13.076  1.00  0.00     0.158 C 
HETATM   29  O6  UNL     1      -3.238  49.875 -12.363  1.00  0.00    -0.373 OA
HETATM   30  C25 UNL     1      -2.831  51.042 -11.631  1.00  0.00     0.185 C 
HETATM   31  C26 UNL     1      -1.573  50.543 -10.966  1.00  0.00     0.028 C 
HETATM   32  C33 UNL     1      -3.806  51.542 -10.552  1.00  0.00     0.384 C 
HETATM   33  C27 UNL     1      -0.834  51.703 -10.304  1.00  0.00     0.049 C 
HETATM   34  C34 UNL     1      -0.866  49.742 -12.067  1.00  0.00     0.020 C 
HETATM   35  C28 UNL     1      -1.829  52.742  -9.679  1.00  0.00     0.161 C 
HETATM   36  C29 UNL     1      -1.246  53.326  -8.376  1.00  0.00     0.041 C 
HETATM   37  C32 UNL     1      -1.924  54.031 -10.521  1.00  0.00     0.041 C 
HETATM   38  N1  UNL     1      -3.156  52.162  -9.393  1.00  0.00     0.124 N 
HETATM   39  C30 UNL     1      -0.176  54.309  -8.843  1.00  0.00     0.003 C 
HETATM   40  C31 UNL     1      -0.663  54.830 -10.191  1.00  0.00     0.003 C 
HETATM   41  H50 UNL     1      -3.035  51.437  -8.683  1.00  0.00     0.320 HD
HETATM   42  C35 UNL     1      -0.182  48.529 -11.440  1.00  0.00     0.013 C 
BRANCH  32  43
HETATM   43  O7  UNL     1      -4.679  52.510 -11.097  1.00  0.00    -0.366 OA
HETATM   44  H52 UNL     1      -4.815  53.117 -10.350  1.00  0.00     0.212 HD
ENDBRANCH  32  43
ENDBRANCH  25  28
ENDBRANCH  21  25
ENDBRANCH  17  21
BRANCH  20  45
HETATM   45  O8  UNL     1      -3.841  50.116 -18.149  1.00  0.00    -0.384 OA
HETATM   46  H61 UNL     1      -4.259  50.247 -17.282  1.00  0.00     0.211 HD
ENDBRANCH  20  45
BRANCH   1  47
HETATM   47  O2  UNL     1      -2.118  51.453 -25.284  1.00  0.00    -0.386 OA
BRANCH  47  48
HETATM   48  C4  UNL     1      -1.174  51.356 -26.352  1.00  0.00     0.170 C 
BRANCH  48  49
HETATM   49  C3  UNL     1      -0.501  52.704 -26.587  1.00  0.00     0.052 C 
BRANCH  49  50
HETATM   50  C2  UNL     1       0.045  52.863 -28.006  1.00  0.00     0.169 C 
BRANCH  50  51
HETATM   51  O1  UNL     1       0.899  51.784 -28.381  1.00  0.00    -0.396 OA
HETATM   52  C1  UNL     1       2.113  51.743 -27.640  1.00  0.00     0.201 C 
ENDBRANCH  50  51
ENDBRANCH  49  50
ENDBRANCH  48  49
ENDBRANCH  47  48
ENDBRANCH   1  47
TORSDOF 12
ENDMDL
MODEL 3
REMARK minimizedAffinity -10.1743793
REMARK CNNscore 0.566418469
REMARK CNNaffinity 7.09252501
REMARK  12 active torsions:
REMARK  status: ('A' for Active; 'I' for Inactive)
REMARK    1  A    between atoms: O1_2  and  C2_3 
REMARK    2  A    between atoms: C2_3  and  C3_4 
REMARK    3  A    between atoms: C3_4  and  C4_5 
REMARK    4  A    between atoms: C4_5  and  O2_6 
REMARK    5  A    between atoms: O2_6  and  C5_7 
REMARK    6  A    between atoms: C20_23  and  C21_24 
REMARK    7  A    between atoms: C21_24  and  O4_26 
REMARK    8  A    between atoms: C21_24  and  C23_27 
REMARK    9  A    between atoms: C23_27  and  O5_28 
REMARK   10  A    between atoms: C23_27  and  C24_29 
REMARK   11  A    between atoms: C33_40  and  O7_41 
REMARK   12  A    between atoms: C38_46  and  O8_47 
ROOT
HETATM    1  C5  UNL     1      -2.687  50.973 -26.855  1.00  0.00     0.122 C 
HETATM    2  C6  UNL     1      -3.323  51.933 -25.851  1.00  0.00     0.033 C 
HETATM    3  C7  UNL     1      -3.918  51.258 -24.609  1.00  0.00     0.013 C 
HETATM    4  C8  UNL     1      -3.122  50.026 -24.055  1.00  0.00    -0.026 C 
HETATM    5  C9  UNL     1      -3.913  48.753 -24.448  1.00  0.00     0.016 C 
HETATM    6  C10 UNL     1      -1.708  49.985 -24.679  1.00  0.00     0.071 C 
HETATM    7  C11 UNL     1      -1.754  49.930 -26.216  1.00  0.00     0.045 C 
HETATM    8  C12 UNL     1      -0.859  51.163 -24.208  1.00  0.00     0.154 C 
HETATM    9  O3  UNL     1       0.005  51.695 -24.903  1.00  0.00    -0.293 OA
HETATM   10  C13 UNL     1      -1.019  51.631 -22.816  1.00  0.00     0.057 C 
HETATM   11  C14 UNL     1      -1.959  51.113 -22.011  1.00  0.00    -0.037 C 
HETATM   12  C15 UNL     1      -3.026  50.119 -22.483  1.00  0.00     0.026 C 
HETATM   13  C16 UNL     1      -2.825  48.778 -21.726  1.00  0.00     0.011 C 
HETATM   14  C17 UNL     1      -2.705  48.945 -20.189  1.00  0.00     0.014 C 
HETATM   15  C18 UNL     1      -1.646  49.999 -19.790  1.00  0.00    -0.002 C 
HETATM   16  C19 UNL     1      -0.248  49.459 -20.191  1.00  0.00     0.019 C 
HETATM   17  C20 UNL     1      -1.682  50.475 -18.296  1.00  0.00     0.034 C 
HETATM   18  C36 UNL     1      -1.051  51.897 -18.357  1.00  0.00     0.012 C 
HETATM   19  C37 UNL     1      -1.058  52.344 -19.834  1.00  0.00     0.044 C 
HETATM   20  C38 UNL     1      -1.994  51.345 -20.519  1.00  0.00     0.089 C 
ENDROOT
BRANCH  17  21
HETATM   21  C21 UNL     1      -1.180  49.571 -17.112  1.00  0.00     0.087 C 
HETATM   22  C22 UNL     1       0.206  49.961 -16.556  1.00  0.00     0.049 C 
BRANCH  21  23
HETATM   23  O4  UNL     1      -1.087  48.220 -17.575  1.00  0.00    -0.387 OA
HETATM   24  H34 UNL     1      -0.289  48.132 -18.125  1.00  0.00     0.210 HD
ENDBRANCH  21  23
BRANCH  21  25
HETATM   25  C23 UNL     1      -2.245  49.602 -15.947  1.00  0.00     0.181 C 
BRANCH  25  26
HETATM   26  O5  UNL     1      -3.540  49.931 -16.488  1.00  0.00    -0.390 OA
HETATM   27  H36 UNL     1      -4.046  50.283 -15.723  1.00  0.00     0.210 HD
ENDBRANCH  25  26
BRANCH  25  28
HETATM   28  C24 UNL     1      -1.953  50.600 -14.807  1.00  0.00     0.158 C 
HETATM   29  O6  UNL     1      -3.184  51.338 -14.496  1.00  0.00    -0.373 OA
HETATM   30  C25 UNL     1      -2.851  52.042 -13.288  1.00  0.00     0.185 C 
HETATM   31  C26 UNL     1      -2.285  50.924 -12.449  1.00  0.00     0.028 C 
HETATM   32  C33 UNL     1      -4.023  52.692 -12.535  1.00  0.00     0.384 C 
HETATM   33  C27 UNL     1      -1.647  51.490 -11.183  1.00  0.00     0.049 C 
HETATM   34  C34 UNL     1      -1.414  50.129 -13.430  1.00  0.00     0.020 C 
HETATM   35  C28 UNL     1      -2.454  52.713 -10.624  1.00  0.00     0.161 C 
HETATM   36  C29 UNL     1      -2.425  52.714  -9.082  1.00  0.00     0.041 C 
HETATM   37  C32 UNL     1      -1.741  54.052 -10.898  1.00  0.00     0.041 C 
HETATM   38  N1  UNL     1      -3.859  52.725 -11.078  1.00  0.00     0.124 N 
HETATM   39  C30 UNL     1      -1.025  53.204  -8.726  1.00  0.00     0.003 C 
HETATM   40  C31 UNL     1      -0.621  54.140  -9.861  1.00  0.00     0.003 C 
HETATM   41  H50 UNL     1      -4.319  51.895 -10.697  1.00  0.00     0.320 HD
HETATM   42  C35 UNL     1      -1.516  48.643 -13.098  1.00  0.00     0.013 C 
BRANCH  32  43
HETATM   43  O7  UNL     1      -4.189  54.030 -12.957  1.00  0.00    -0.366 OA
HETATM   44  H52 UNL     1      -4.479  54.475 -12.142  1.00  0.00     0.212 HD
ENDBRANCH  32  43
ENDBRANCH  25  28
ENDBRANCH  21  25
ENDBRANCH  17  21
BRANCH  20  45
HETATM   45  O8  UNL     1      -3.341  51.763 -20.239  1.00  0.00    -0.384 OA
HETATM   46  H61 UNL     1      -3.362  52.284 -19.420  1.00  0.00     0.211 HD
ENDBRANCH  20  45
BRANCH   1  47
HETATM   47  O2  UNL     1      -3.763  50.325 -27.549  1.00  0.00    -0.386 OA
BRANCH  47  48
HETATM   48  C4  UNL     1      -3.550  48.932 -27.773  1.00  0.00     0.170 C 
BRANCH  48  49
HETATM   49  C3  UNL     1      -4.879  48.183 -27.763  1.00  0.00     0.052 C 
BRANCH  49  50
HETATM   50  C2  UNL     1      -5.459  47.970 -29.161  1.00  0.00     0.169 C 
BRANCH  50  51
HETATM   51  O1  UNL     1      -4.810  48.774 -30.144  1.00  0.00    -0.396 OA
HETATM   52  C1  UNL     1      -5.336  48.595 -31.454  1.00  0.00     0.201 C 
ENDBRANCH  50  51
ENDBRANCH  49  50
ENDBRANCH  48  49
ENDBRANCH  47  48
ENDBRANCH   1  47
TORSDOF 12
ENDMDL
MODEL 4
REMARK minimizedAffinity -8.89027786
REMARK CNNscore 0.503670216
REMARK CNNaffinity 7.27827406
REMARK  12 active torsions:
REMARK  status: ('A' for Active; 'I' for Inactive)
REMARK    1  A    between atoms: O1_2  and  C2_3 
REMARK    2  A    between atoms: C2_3  and  C3_4 
REMARK    3  A    between atoms: C3_4  and  C4_5 
REMARK    4  A    between atoms: C4_5  and  O2_6 
REMARK    5  A    between atoms: O2_6  and  C5_7 
REMARK    6  A    between atoms: C20_23  and  C21_24 
REMARK    7  A    between atoms: C21_24  and  O4_26 
REMARK    8  A    between atoms: C21_24  and  C23_27 
REMARK    9  A    between atoms: C23_27  and  O5_28 
REMARK   10  A    between atoms: C23_27  and  C24_29 
REMARK   11  A    between atoms: C33_40  and  O7_41 
REMARK   12  A    between atoms: C38_46  and  O8_47 
ROOT
HETATM    1  C5  UNL     1      -8.293  45.627 -21.238  1.00  0.00     0.122 C 
HETATM    2  C6  UNL     1      -6.990  45.582 -22.033  1.00  0.00     0.033 C 
HETATM    3  C7  UNL     1      -6.371  46.955 -22.324  1.00  0.00     0.013 C 
HETATM    4  C8  UNL     1      -6.505  48.020 -21.181  1.00  0.00    -0.026 C 
HETATM    5  C9  UNL     1      -7.593  49.031 -21.620  1.00  0.00     0.016 C 
HETATM    6  C10 UNL     1      -6.925  47.331 -19.862  1.00  0.00     0.071 C 
HETATM    7  C11 UNL     1      -8.243  46.551 -20.008  1.00  0.00     0.045 C 
HETATM    8  C12 UNL     1      -5.817  46.422 -19.335  1.00  0.00     0.154 C 
HETATM    9  O3  UNL     1      -6.034  45.387 -18.705  1.00  0.00    -0.293 OA
HETATM   10  C13 UNL     1      -4.414  46.849 -19.510  1.00  0.00     0.057 C 
HETATM   11  C14 UNL     1      -4.106  47.953 -20.207  1.00  0.00    -0.037 C 
HETATM   12  C15 UNL     1      -5.132  48.775 -20.994  1.00  0.00     0.026 C 
HETATM   13  C16 UNL     1      -5.209  50.198 -20.376  1.00  0.00     0.011 C 
HETATM   14  C17 UNL     1      -3.823  50.868 -20.189  1.00  0.00     0.014 C 
HETATM   15  C18 UNL     1      -2.825  49.960 -19.432  1.00  0.00    -0.002 C 
HETATM   16  C19 UNL     1      -3.330  49.794 -17.974  1.00  0.00     0.019 C 
HETATM   17  C20 UNL     1      -1.322  50.405 -19.483  1.00  0.00     0.034 C 
HETATM   18  C36 UNL     1      -0.546  49.071 -19.272  1.00  0.00     0.012 C 
HETATM   19  C37 UNL     1      -1.540  47.915 -19.514  1.00  0.00     0.044 C 
HETATM   20  C38 UNL     1      -2.736  48.589 -20.191  1.00  0.00     0.089 C 
ENDROOT
BRANCH  17  21
HETATM   21  C21 UNL     1      -0.778  51.631 -18.664  1.00  0.00     0.087 C 
HETATM   22  C22 UNL     1      -0.083  51.254 -17.338  1.00  0.00     0.049 C 
BRANCH  21  23
HETATM   23  O4  UNL     1      -1.877  52.488 -18.339  1.00  0.00    -0.387 OA
HETATM   24  H34 UNL     1      -2.383  52.086 -17.610  1.00  0.00     0.210 HD
ENDBRANCH  21  23
BRANCH  21  25
HETATM   25  C23 UNL     1       0.219  52.458 -19.566  1.00  0.00     0.181 C 
BRANCH  25  26
HETATM   26  O5  UNL     1      -0.094  53.861 -19.467  1.00  0.00    -0.390 OA
HETATM   27  H36 UNL     1       0.283  54.258 -20.283  1.00  0.00     0.210 HD
ENDBRANCH  25  26
BRANCH  25  28
HETATM   28  C24 UNL     1       0.220  52.089 -21.064  1.00  0.00     0.158 C 
HETATM   29  O6  UNL     1      -1.135  52.276 -21.600  1.00  0.00    -0.373 OA
HETATM   30  C25 UNL     1      -0.952  52.138 -23.018  1.00  0.00     0.185 C 
HETATM   31  C26 UNL     1       0.202  53.080 -23.254  1.00  0.00     0.028 C 
HETATM   32  C33 UNL     1      -2.136  52.563 -23.902  1.00  0.00     0.384 C 
HETATM   33  C27 UNL     1       0.725  52.922 -24.680  1.00  0.00     0.049 C 
HETATM   34  C34 UNL     1       1.150  52.804 -22.080  1.00  0.00     0.020 C 
HETATM   35  C28 UNL     1      -0.439  52.655 -25.697  1.00  0.00     0.161 C 
HETATM   36  C29 UNL     1      -0.139  53.340 -27.045  1.00  0.00     0.041 C 
HETATM   37  C32 UNL     1      -0.479  51.183 -26.157  1.00  0.00     0.041 C 
HETATM   38  N1  UNL     1      -1.749  53.121 -25.202  1.00  0.00     0.124 N 
HETATM   39  C30 UNL     1       0.920  52.457 -27.697  1.00  0.00     0.003 C 
HETATM   40  C31 UNL     1       0.642  51.046 -27.188  1.00  0.00     0.003 C 
HETATM   41  H50 UNL     1      -1.702  54.137 -25.099  1.00  0.00     0.320 HD
HETATM   42  C35 UNL     1       1.800  54.115 -21.645  1.00  0.00     0.013 C 
BRANCH  32  43
HETATM   43  O7  UNL     1      -2.969  51.452 -24.166  1.00  0.00    -0.366 OA
HETATM   44  H52 UNL     1      -3.279  51.631 -25.070  1.00  0.00     0.212 HD
ENDBRANCH  32  43
ENDBRANCH  25  28
ENDBRANCH  21  25
ENDBRANCH  17  21
BRANCH  20  45
HETATM   45  O8  UNL     1      -2.394  48.774 -21.575  1.00  0.00    -0.384 OA
HETATM   46  H61 UNL     1      -1.429  48.811 -21.675  1.00  0.00     0.211 HD
ENDBRANCH  20  45
BRANCH   1  47
HETATM   47  O2  UNL     1      -9.320  46.056 -22.145  1.00  0.00    -0.386 OA
BRANCH  47  48
HETATM   48  C4  UNL     1     -10.399  45.130 -22.276  1.00  0.00     0.170 C 
BRANCH  48  49
HETATM   49  C3  UNL     1      -9.944  43.727 -21.889  1.00  0.00     0.052 C 
BRANCH  49  50
HETATM   50  C2  UNL     1      -9.866  42.770 -23.078  1.00  0.00     0.169 C 
BRANCH  50  51
HETATM   51  O1  UNL     1     -11.134  42.199 -23.396  1.00  0.00    -0.396 OA
HETATM   52  C1  UNL     1     -11.585  42.525 -24.705  1.00  0.00     0.201 C 
ENDBRANCH  50  51
ENDBRANCH  49  50
ENDBRANCH  48  49
ENDBRANCH  47  48
ENDBRANCH   1  47
TORSDOF 12
ENDMDL
MODEL 5
REMARK minimizedAffinity -8.62343025
REMARK CNNscore 0.491556168
REMARK CNNaffinity 6.9964385
REMARK  12 active torsions:
REMARK  status: ('A' for Active; 'I' for Inactive)
REMARK    1  A    between atoms: O1_2  and  C2_3 
REMARK    2  A    between atoms: C2_3  and  C3_4 
REMARK    3  A    between atoms: C3_4  and  C4_5 
REMARK    4  A    between atoms: C4_5  and  O2_6 
REMARK    5  A    between atoms: O2_6  and  C5_7 
REMARK    6  A    between atoms: C20_23  and  C21_24 
REMARK    7  A    between atoms: C21_24  and  O4_26 
REMARK    8  A    between atoms: C21_24  and  C23_27 
REMARK    9  A    between atoms: C23_27  and  O5_28 
REMARK   10  A    between atoms: C23_27  and  C24_29 
REMARK   11  A    between atoms: C33_40  and  O7_41 
REMARK   12  A    between atoms: C38_46  and  O8_47 
ROOT
HETATM    1  C5  UNL     1      -5.118  49.538 -24.300  1.00  0.00     0.122 C 
HETATM    2  C6  UNL     1      -5.178  50.842 -23.509  1.00  0.00     0.033 C 
HETATM    3  C7  UNL     1      -5.198  50.667 -21.985  1.00  0.00     0.013 C 
HETATM    4  C8  UNL     1      -4.318  49.499 -21.421  1.00  0.00    -0.026 C 
HETATM    5  C9  UNL     1      -5.279  48.354 -21.014  1.00  0.00     0.016 C 
HETATM    6  C10 UNL     1      -3.336  49.004 -22.508  1.00  0.00     0.071 C 
HETATM    7  C11 UNL     1      -4.065  48.541 -23.782  1.00  0.00     0.045 C 
HETATM    8  C12 UNL     1      -2.294  50.069 -22.841  1.00  0.00     0.154 C 
HETATM    9  O3  UNL     1      -1.799  50.205 -23.958  1.00  0.00    -0.293 OA
HETATM   10  C13 UNL     1      -1.787  50.922 -21.746  1.00  0.00     0.057 C 
HETATM   11  C14 UNL     1      -2.301  50.844 -20.509  1.00  0.00    -0.037 C 
HETATM   12  C15 UNL     1      -3.526  49.996 -20.150  1.00  0.00     0.026 C 
HETATM   13  C16 UNL     1      -3.093  48.900 -19.138  1.00  0.00     0.011 C 
HETATM   14  C17 UNL     1      -2.291  49.453 -17.932  1.00  0.00     0.014 C 
HETATM   15  C18 UNL     1      -1.102  50.339 -18.369  1.00  0.00    -0.002 C 
HETATM   16  C19 UNL     1      -0.065  49.439 -19.093  1.00  0.00     0.019 C 
HETATM   17  C20 UNL     1      -0.438  51.202 -17.239  1.00  0.00     0.034 C 
HETATM   18  C36 UNL     1       0.188  52.395 -18.020  1.00  0.00     0.012 C 
HETATM   19  C37 UNL     1      -0.449  52.414 -19.426  1.00  0.00     0.044 C 
HETATM   20  C38 UNL     1      -1.653  51.477 -19.300  1.00  0.00     0.089 C 
ENDROOT
BRANCH  17  21
HETATM   21  C21 UNL     1       0.481  50.574 -16.130  1.00  0.00     0.087 C 
HETATM   22  C22 UNL     1       1.933  51.096 -16.134  1.00  0.00     0.049 C 
BRANCH  21  23
HETATM   23  O4  UNL     1       0.538  49.158 -16.331  1.00  0.00    -0.387 OA
HETATM   24  H34 UNL     1       1.130  48.972 -17.081  1.00  0.00     0.210 HD
ENDBRANCH  21  23
BRANCH  21  25
HETATM   25  C23 UNL     1      -0.168  50.827 -14.713  1.00  0.00     0.181 C 
BRANCH  25  26
HETATM   26  O5  UNL     1      -1.554  51.184 -14.877  1.00  0.00    -0.390 OA
HETATM   27  H36 UNL     1      -1.786  51.664 -14.051  1.00  0.00     0.210 HD
ENDBRANCH  25  26
BRANCH  25  28
HETATM   28  C24 UNL     1       0.498  51.931 -13.866  1.00  0.00     0.158 C 
HETATM   29  O6  UNL     1      -0.477  52.431 -12.887  1.00  0.00    -0.373 OA
HETATM   30  C25 UNL     1       0.318  53.259 -12.023  1.00  0.00     0.185 C 
HETATM   31  C26 UNL     1       1.460  52.329 -11.700  1.00  0.00     0.028 C 
HETATM   32  C33 UNL     1      -0.348  53.712 -10.713  1.00  0.00     0.384 C 
HETATM   33  C27 UNL     1       2.561  53.087 -10.963  1.00  0.00     0.049 C 
HETATM   34  C34 UNL     1       1.786  51.662 -13.043  1.00  0.00     0.020 C 
HETATM   35  C28 UNL     1       1.971  54.159  -9.982  1.00  0.00     0.161 C 
HETATM   36  C29 UNL     1       2.841  54.262  -8.714  1.00  0.00     0.041 C 
HETATM   37  C32 UNL     1       2.133  55.593 -10.526  1.00  0.00     0.041 C 
HETATM   38  N1  UNL     1       0.579  53.866  -9.587  1.00  0.00     0.124 N 
HETATM   39  C30 UNL     1       4.077  55.038  -9.159  1.00  0.00     0.003 C 
HETATM   40  C31 UNL     1       3.595  55.964 -10.273  1.00  0.00     0.003 C 
HETATM   41  H50 UNL     1       0.579  52.988  -9.066  1.00  0.00     0.320 HD
HETATM   42  C35 UNL     1       2.180  50.209 -12.796  1.00  0.00     0.013 C 
BRANCH  32  43
HETATM   43  O7  UNL     1      -0.981  54.962 -10.896  1.00  0.00    -0.366 OA
HETATM   44  H52 UNL     1      -0.856  55.391 -10.032  1.00  0.00     0.212 HD
ENDBRANCH  32  43
ENDBRANCH  25  28
ENDBRANCH  21  25
ENDBRANCH  17  21
BRANCH  20  45
HETATM   45  O8  UNL     1      -2.705  52.218 -18.660  1.00  0.00    -0.384 OA
HETATM   46  H61 UNL     1      -2.326  52.936 -18.126  1.00  0.00     0.211 HD
ENDBRANCH  20  45
BRANCH   1  47
HETATM   47  O2  UNL     1      -6.428  48.956 -24.243  1.00  0.00    -0.386 OA
BRANCH  47  48
HETATM   48  C4  UNL     1      -6.435  47.534 -24.365  1.00  0.00     0.170 C 
BRANCH  48  49
HETATM   49  C3  UNL     1      -7.836  47.038 -24.707  1.00  0.00     0.052 C 
BRANCH  49  50
HETATM   50  C2  UNL     1      -7.945  46.469 -26.121  1.00  0.00     0.169 C 
BRANCH  50  51
HETATM   51  O1  UNL     1      -7.296  47.294 -27.087  1.00  0.00    -0.396 OA
HETATM   52  C1  UNL     1      -7.353  46.767 -28.407  1.00  0.00     0.201 C 
ENDBRANCH  50  51
ENDBRANCH  49  50
ENDBRANCH  48  49
ENDBRANCH  47  48
ENDBRANCH   1  47
TORSDOF 12
ENDMDL
MODEL 6
REMARK minimizedAffinity -8.88861752
REMARK CNNscore 0.458414137
REMARK CNNaffinity 6.77340126
REMARK  12 active torsions:
REMARK  status: ('A' for Active; 'I' for Inactive)
REMARK    1  A    between atoms: O1_2  and  C2_3 
REMARK    2  A    between atoms: C2_3  and  C3_4 
REMARK    3  A    between atoms: C3_4  and  C4_5 
REMARK    4  A    between atoms: C4_5  and  O2_6 
REMARK    5  A    between atoms: O2_6  and  C5_7 
REMARK    6  A    between atoms: C20_23  and  C21_24 
REMARK    7  A    between atoms: C21_24  and  O4_26 
REMARK    8  A    between atoms: C21_24  and  C23_27 
REMARK    9  A    between atoms: C23_27  and  O5_28 
REMARK   10  A    between atoms: C23_27  and  C24_29 
REMARK   11  A    between atoms: C33_40  and  O7_41 
REMARK   12  A    between atoms: C38_46  and  O8_47 
ROOT
HETATM    1  C5  UNL     1      -0.985  49.766 -19.332  1.00  0.00     0.122 C 
HETATM    2  C6  UNL     1      -2.089  48.955 -18.658  1.00  0.00     0.033 C 
HETATM    3  C7  UNL     1      -3.513  49.434 -18.961  1.00  0.00     0.013 C 
HETATM    4  C8  UNL     1      -3.762  49.952 -20.420  1.00  0.00    -0.026 C 
HETATM    5  C9  UNL     1      -3.847  51.498 -20.351  1.00  0.00     0.016 C 
HETATM    6  C10 UNL     1      -2.593  49.527 -21.339  1.00  0.00     0.071 C 
HETATM    7  C11 UNL     1      -1.236  50.039 -20.826  1.00  0.00     0.045 C 
HETATM    8  C12 UNL     1      -2.561  48.013 -21.530  1.00  0.00     0.154 C 
HETATM    9  O3  UNL     1      -1.522  47.374 -21.692  1.00  0.00    -0.293 OA
HETATM   10  C13 UNL     1      -3.845  47.288 -21.615  1.00  0.00     0.057 C 
HETATM   11  C14 UNL     1      -5.013  47.918 -21.423  1.00  0.00    -0.037 C 
HETATM   12  C15 UNL     1      -5.126  49.376 -20.964  1.00  0.00     0.026 C 
HETATM   13  C16 UNL     1      -5.822  50.197 -22.084  1.00  0.00     0.011 C 
HETATM   14  C17 UNL     1      -7.139  49.557 -22.595  1.00  0.00     0.014 C 
HETATM   15  C18 UNL     1      -6.959  48.073 -22.991  1.00  0.00    -0.002 C 
HETATM   16  C19 UNL     1      -6.036  48.011 -24.238  1.00  0.00     0.019 C 
HETATM   17  C20 UNL     1      -8.282  47.256 -23.203  1.00  0.00     0.034 C 
HETATM   18  C36 UNL     1      -7.846  45.788 -22.918  1.00  0.00     0.012 C 
HETATM   19  C37 UNL     1      -6.487  45.842 -22.188  1.00  0.00     0.044 C 
HETATM   20  C38 UNL     1      -6.352  47.306 -21.763  1.00  0.00     0.089 C 
ENDROOT
BRANCH  17  21
HETATM   21  C21 UNL     1      -9.198  47.448 -24.465  1.00  0.00     0.087 C 
HETATM   22  C22 UNL     1      -9.030  48.809 -25.173  1.00  0.00     0.049 C 
BRANCH  21  23
HETATM   23  O4  UNL     1     -10.566  47.347 -24.058  1.00  0.00    -0.387 OA
HETATM   24  H34 UNL     1     -10.821  48.174 -23.611  1.00  0.00     0.210 HD
ENDBRANCH  21  23
BRANCH  21  25
HETATM   25  C23 UNL     1      -8.920  46.281 -25.491  1.00  0.00     0.181 C 
BRANCH  25  26
HETATM   26  O5  UNL     1      -7.713  45.590 -25.117  1.00  0.00    -0.390 OA
HETATM   27  H36 UNL     1      -7.410  45.154 -25.944  1.00  0.00     0.210 HD
ENDBRANCH  25  26
BRANCH  25  28
HETATM   28  C24 UNL     1      -8.768  46.714 -26.964  1.00  0.00     0.158 C 
HETATM   29  O6  UNL     1      -7.367  47.080 -27.209  1.00  0.00    -0.373 OA
HETATM   30  C25 UNL     1      -7.308  47.227 -28.637  1.00  0.00     0.185 C 
HETATM   31  C26 UNL     1      -7.950  45.938 -29.087  1.00  0.00     0.028 C 
HETATM   32  C33 UNL     1      -5.903  47.330 -29.253  1.00  0.00     0.384 C 
HETATM   33  C27 UNL     1      -8.204  45.976 -30.592  1.00  0.00     0.049 C 
HETATM   34  C34 UNL     1      -9.142  45.767 -28.135  1.00  0.00     0.020 C 
HETATM   35  C28 UNL     1      -7.054  46.721 -31.355  1.00  0.00     0.161 C 
HETATM   36  C29 UNL     1      -6.802  46.057 -32.724  1.00  0.00     0.041 C 
HETATM   37  C32 UNL     1      -7.484  48.126 -31.822  1.00  0.00     0.041 C 
HETATM   38  N1  UNL     1      -5.788  46.748 -30.595  1.00  0.00     0.124 N 
HETATM   39  C30 UNL     1      -7.968  46.519 -33.593  1.00  0.00     0.003 C 
HETATM   40  C31 UNL     1      -8.349  47.898 -33.063  1.00  0.00     0.003 C 
HETATM   41  H50 UNL     1      -5.467  45.784 -30.487  1.00  0.00     0.320 HD
HETATM   42  C35 UNL     1      -9.319  44.284 -27.819  1.00  0.00     0.013 C 
BRANCH  32  43
HETATM   43  O7  UNL     1      -5.519  48.685 -29.361  1.00  0.00    -0.366 OA
HETATM   44  H52 UNL     1      -4.994  48.691 -30.180  1.00  0.00     0.212 HD
ENDBRANCH  32  43
ENDBRANCH  25  28
ENDBRANCH  21  25
ENDBRANCH  17  21
BRANCH  20  45
HETATM   45  O8  UNL     1      -7.153  47.483 -20.583  1.00  0.00    -0.384 OA
HETATM   46  H61 UNL     1      -7.859  46.817 -20.559  1.00  0.00     0.211 HD
ENDBRANCH  20  45
BRANCH   1  47
HETATM   47  O2  UNL     1      -0.876  51.001 -18.609  1.00  0.00    -0.386 OA
BRANCH  47  48
HETATM   48  C4  UNL     1      -0.615  52.134 -19.437  1.00  0.00     0.170 C 
BRANCH  48  49
HETATM   49  C3  UNL     1       0.684  52.813 -19.014  1.00  0.00     0.052 C 
BRANCH  49  50
HETATM   50  C2  UNL     1       1.606  53.132 -20.190  1.00  0.00     0.169 C 
BRANCH  50  51
HETATM   51  O1  UNL     1       1.378  54.438 -20.717  1.00  0.00    -0.396 OA
HETATM   52  C1  UNL     1       1.486  54.499 -22.134  1.00  0.00     0.201 C 
ENDBRANCH  50  51
ENDBRANCH  49  50
ENDBRANCH  48  49
ENDBRANCH  47  48
ENDBRANCH   1  47
TORSDOF 12
ENDMDL
MODEL 7
REMARK minimizedAffinity -8.54315376
REMARK CNNscore 0.409592003
REMARK CNNaffinity 6.72654963
REMARK  12 active torsions:
REMARK  status: ('A' for Active; 'I' for Inactive)
REMARK    1  A    between atoms: O1_2  and  C2_3 
REMARK    2  A    between atoms: C2_3  and  C3_4 
REMARK    3  A    between atoms: C3_4  and  C4_5 
REMARK    4  A    between atoms: C4_5  and  O2_6 
REMARK    5  A    between atoms: O2_6  and  C5_7 
REMARK    6  A    between atoms: C20_23  and  C21_24 
REMARK    7  A    between atoms: C21_24  and  O4_26 
REMARK    8  A    between atoms: C21_24  and  C23_27 
REMARK    9  A    between atoms: C23_27  and  O5_28 
REMARK   10  A    between atoms: C23_27  and  C24_29 
REMARK   11  A    between atoms: C33_40  and  O7_41 
REMARK   12  A    between atoms: C38_46  and  O8_47 
ROOT
HETATM    1  C5  UNL     1      -3.431  50.374 -20.209  1.00  0.00     0.122 C 
HETATM    2  C6  UNL     1      -4.677  51.097 -20.714  1.00  0.00     0.033 C 
HETATM    3  C7  UNL     1      -4.929  50.961 -22.221  1.00  0.00     0.013 C 
HETATM    4  C8  UNL     1      -4.575  49.568 -22.848  1.00  0.00    -0.026 C 
HETATM    5  C9  UNL     1      -3.257  49.743 -23.643  1.00  0.00     0.016 C 
HETATM    6  C10 UNL     1      -4.383  48.517 -21.730  1.00  0.00     0.071 C 
HETATM    7  C11 UNL     1      -3.294  48.930 -20.725  1.00  0.00     0.045 C 
HETATM    8  C12 UNL     1      -5.698  48.228 -21.010  1.00  0.00     0.154 C 
HETATM    9  O3  UNL     1      -5.765  47.928 -19.819  1.00  0.00    -0.293 OA
HETATM   10  C13 UNL     1      -6.945  48.219 -21.801  1.00  0.00     0.057 C 
HETATM   11  C14 UNL     1      -6.948  48.561 -23.098  1.00  0.00    -0.037 C 
HETATM   12  C15 UNL     1      -5.725  49.121 -23.832  1.00  0.00     0.026 C 
HETATM   13  C16 UNL     1      -5.321  48.126 -24.955  1.00  0.00     0.011 C 
HETATM   14  C17 UNL     1      -6.504  47.702 -25.863  1.00  0.00     0.014 C 
HETATM   15  C18 UNL     1      -7.720  47.197 -25.052  1.00  0.00    -0.002 C 
HETATM   16  C19 UNL     1      -7.322  45.868 -24.357  1.00  0.00     0.019 C 
HETATM   17  C20 UNL     1      -9.065  47.060 -25.848  1.00  0.00     0.034 C 
HETATM   18  C36 UNL     1     -10.152  47.208 -24.742  1.00  0.00     0.012 C 
HETATM   19  C37 UNL     1      -9.467  47.808 -23.496  1.00  0.00     0.044 C 
HETATM   20  C38 UNL     1      -8.119  48.311 -24.019  1.00  0.00     0.089 C 
ENDROOT
BRANCH  17  21
HETATM   21  C21 UNL     1      -9.317  45.905 -26.883  1.00  0.00     0.087 C 
HETATM   22  C22 UNL     1     -10.467  44.949 -26.503  1.00  0.00     0.049 C 
BRANCH  21  23
HETATM   23  O4  UNL     1      -8.127  45.118 -26.989  1.00  0.00    -0.387 OA
HETATM   24  H34 UNL     1      -8.059  44.547 -26.203  1.00  0.00     0.210 HD
ENDBRANCH  21  23
BRANCH  21  25
HETATM   25  C23 UNL     1      -9.599  46.533 -28.303  1.00  0.00     0.181 C 
BRANCH  25  26
HETATM   26  O5  UNL     1     -10.641  45.786 -28.961  1.00  0.00    -0.390 OA
HETATM   27  H36 UNL     1     -10.515  45.974 -29.918  1.00  0.00     0.210 HD
ENDBRANCH  25  26
BRANCH  25  28
HETATM   28  C24 UNL     1      -8.389  46.580 -29.260  1.00  0.00     0.158 C 
HETATM   29  O6  UNL     1      -8.628  45.653 -30.375  1.00  0.00    -0.373 OA
HETATM   30  C25 UNL     1      -7.570  45.963 -31.295  1.00  0.00     0.185 C 
HETATM   31  C26 UNL     1      -7.694  47.463 -31.385  1.00  0.00     0.028 C 
HETATM   32  C33 UNL     1      -7.698  45.363 -32.705  1.00  0.00     0.384 C 
HETATM   33  C27 UNL     1      -6.505  48.043 -32.146  1.00  0.00     0.049 C 
HETATM   34  C34 UNL     1      -7.934  47.902 -29.934  1.00  0.00     0.020 C 
HETATM   35  C28 UNL     1      -6.058  47.107 -33.323  1.00  0.00     0.161 C 
HETATM   36  C29 UNL     1      -5.579  47.947 -34.524  1.00  0.00     0.041 C 
HETATM   37  C32 UNL     1      -4.753  46.352 -32.998  1.00  0.00     0.041 C 
HETATM   38  N1  UNL     1      -7.132  46.198 -33.770  1.00  0.00     0.124 N 
HETATM   39  C30 UNL     1      -4.198  48.449 -34.114  1.00  0.00     0.003 C 
HETATM   40  C31 UNL     1      -3.630  47.371 -33.196  1.00  0.00     0.003 C 
HETATM   41  H50 UNL     1      -7.890  46.771 -34.147  1.00  0.00     0.320 HD
HETATM   42  C35 UNL     1      -8.908  49.077 -29.923  1.00  0.00     0.013 C 
BRANCH  32  43
HETATM   43  O7  UNL     1      -7.032  44.118 -32.765  1.00  0.00    -0.366 OA
HETATM   44  H52 UNL     1      -6.684  44.108 -33.674  1.00  0.00     0.212 HD
ENDBRANCH  32  43
ENDBRANCH  25  28
ENDBRANCH  21  25
ENDBRANCH  17  21
BRANCH  20  45
HETATM   45  O8  UNL     1      -8.357  49.571 -24.670  1.00  0.00    -0.384 OA
HETATM   46  H61 UNL     1      -9.280  49.619 -24.970  1.00  0.00     0.211 HD
ENDBRANCH  20  45
BRANCH   1  47
HETATM   47  O2  UNL     1      -2.301  51.160 -20.612  1.00  0.00    -0.386 OA
BRANCH  47  48
HETATM   48  C4  UNL     1      -1.062  50.720 -20.056  1.00  0.00     0.170 C 
BRANCH  48  49
HETATM   49  C3  UNL     1       0.054  50.832 -21.090  1.00  0.00     0.052 C 
BRANCH  49  50
HETATM   50  C2  UNL     1       0.545  52.265 -21.292  1.00  0.00     0.169 C 
BRANCH  50  51
HETATM   51  O1  UNL     1       0.744  52.579 -22.670  1.00  0.00    -0.396 OA
HETATM   52  C1  UNL     1      -0.326  52.152 -23.504  1.00  0.00     0.201 C 
ENDBRANCH  50  51
ENDBRANCH  49  50
ENDBRANCH  48  49
ENDBRANCH  47  48
ENDBRANCH   1  47
TORSDOF 12
ENDMDL
MODEL 8
REMARK minimizedAffinity -8.2868166
REMARK CNNscore 0.404173017
REMARK CNNaffinity 6.9092555
REMARK  12 active torsions:
REMARK  status: ('A' for Active; 'I' for Inactive)
REMARK    1  A    between atoms: O1_2  and  C2_3 
REMARK    2  A    between atoms: C2_3  and  C3_4 
REMARK    3  A    between atoms: C3_4  and  C4_5 
REMARK    4  A    between atoms: C4_5  and  O2_6 
REMARK    5  A    between atoms: O2_6  and  C5_7 
REMARK    6  A    between atoms: C20_23  and  C21_24 
REMARK    7  A    between atoms: C21_24  and  O4_26 
REMARK    8  A    between atoms: C21_24  and  C23_27 
REMARK    9  A    between atoms: C23_27  and  O5_28 
REMARK   10  A    between atoms: C23_27  and  C24_29 
REMARK   11  A    between atoms: C33_40  and  O7_41 
REMARK   12  A    between atoms: C38_46  and  O8_47 
ROOT
HETATM    1  C5  UNL     1      -2.242  50.719 -21.640  1.00  0.00     0.122 C 
HETATM    2  C6  UNL     1      -1.528  49.459 -21.158  1.00  0.00     0.033 C 
HETATM    3  C7  UNL     1      -0.340  49.714 -20.222  1.00  0.00     0.013 C 
HETATM    4  C8  UNL     1      -0.510  50.901 -19.212  1.00  0.00    -0.026 C 
HETATM    5  C9  UNL     1       0.354  52.077 -19.733  1.00  0.00     0.016 C 
HETATM    6  C10 UNL     1      -1.995  51.328 -19.142  1.00  0.00     0.071 C 
HETATM    7  C11 UNL     1      -2.550  51.729 -20.520  1.00  0.00     0.045 C 
HETATM    8  C12 UNL     1      -2.856  50.235 -18.513  1.00  0.00     0.154 C 
HETATM    9  O3  UNL     1      -4.029  50.034 -18.826  1.00  0.00    -0.293 OA
HETATM   10  C13 UNL     1      -2.283  49.436 -17.411  1.00  0.00     0.057 C 
HETATM   11  C14 UNL     1      -1.003  49.585 -17.037  1.00  0.00    -0.037 C 
HETATM   12  C15 UNL     1       0.004  50.464 -17.786  1.00  0.00     0.026 C 
HETATM   13  C16 UNL     1       0.466  51.607 -16.841  1.00  0.00     0.011 C 
HETATM   14  C17 UNL     1       0.926  51.110 -15.446  1.00  0.00     0.014 C 
HETATM   15  C18 UNL     1      -0.118  50.189 -14.773  1.00  0.00    -0.002 C 
HETATM   16  C19 UNL     1      -1.374  51.038 -14.443  1.00  0.00     0.019 C 
HETATM   17  C20 UNL     1       0.385  49.380 -13.527  1.00  0.00     0.034 C 
HETATM   18  C36 UNL     1      -0.557  48.140 -13.500  1.00  0.00     0.012 C 
HETATM   19  C37 UNL     1      -1.249  48.054 -14.877  1.00  0.00     0.044 C 
HETATM   20  C38 UNL     1      -0.441  49.010 -15.758  1.00  0.00     0.089 C 
ENDROOT
BRANCH  17  21
HETATM   21  C21 UNL     1       0.639  50.056 -12.131  1.00  0.00     0.087 C 
HETATM   22  C22 UNL     1       1.180  49.099 -11.048  1.00  0.00     0.049 C 
BRANCH  21  23
HETATM   23  O4  UNL     1      -0.598  50.588 -11.648  1.00  0.00    -0.387 OA
HETATM   24  H34 UNL     1      -1.146  49.855 -11.315  1.00  0.00     0.210 HD
ENDBRANCH  21  23
BRANCH  21  25
HETATM   25  C23 UNL     1       1.637  51.266 -12.313  1.00  0.00     0.181 C 
BRANCH  25  26
HETATM   26  O5  UNL     1       2.876  50.786 -12.871  1.00  0.00    -0.390 OA
HETATM   27  H36 UNL     1       3.540  51.468 -12.623  1.00  0.00     0.210 HD
ENDBRANCH  25  26
BRANCH  25  28
HETATM   28  C24 UNL     1       1.979  52.044 -11.026  1.00  0.00     0.158 C 
HETATM   29  O6  UNL     1       3.346  52.572 -11.140  1.00  0.00    -0.373 OA
HETATM   30  C25 UNL     1       3.452  53.458 -10.013  1.00  0.00     0.185 C 
HETATM   31  C26 UNL     1       2.198  54.280 -10.172  1.00  0.00     0.028 C 
HETATM   32  C33 UNL     1       4.670  54.396  -9.999  1.00  0.00     0.384 C 
HETATM   33  C27 UNL     1       1.983  55.152  -8.938  1.00  0.00     0.049 C 
HETATM   34  C34 UNL     1       1.126  53.250 -10.552  1.00  0.00     0.020 C 
HETATM   35  C28 UNL     1       3.340  55.687  -8.362  1.00  0.00     0.161 C 
HETATM   36  C29 UNL     1       3.161  57.113  -7.804  1.00  0.00     0.041 C 
HETATM   37  C32 UNL     1       3.750  54.952  -7.070  1.00  0.00     0.041 C 
HETATM   38  N1  UNL     1       4.423  55.696  -9.367  1.00  0.00     0.124 N 
HETATM   39  C30 UNL     1       2.431  56.917  -6.479  1.00  0.00     0.003 C 
HETATM   40  C31 UNL     1       2.883  55.554  -5.963  1.00  0.00     0.003 C 
HETATM   41  H50 UNL     1       4.159  56.353 -10.104  1.00  0.00     0.320 HD
HETATM   42  C35 UNL     1       0.164  53.878 -11.557  1.00  0.00     0.013 C 
BRANCH  32  43
HETATM   43  O7  UNL     1       5.737  53.796  -9.295  1.00  0.00    -0.366 OA
HETATM   44  H52 UNL     1       6.165  54.559  -8.868  1.00  0.00     0.212 HD
ENDBRANCH  32  43
ENDBRANCH  25  28
ENDBRANCH  21  25
ENDBRANCH  17  21
BRANCH  20  45
HETATM   45  O8  UNL     1       0.753  48.315 -16.157  1.00  0.00    -0.384 OA
HETATM   46  H61 UNL     1       0.964  47.622 -15.510  1.00  0.00     0.211 HD
ENDBRANCH  20  45
BRANCH   1  47
HETATM   47  O2  UNL     1      -1.403  51.317 -22.638  1.00  0.00    -0.386 OA
BRANCH  47  48
HETATM   48  C4  UNL     1      -1.644  50.834 -23.960  1.00  0.00     0.170 C 
BRANCH  48  49
HETATM   49  C3  UNL     1      -1.710  51.996 -24.946  1.00  0.00     0.052 C 
BRANCH  49  50
HETATM   50  C2  UNL     1      -0.333  52.475 -25.404  1.00  0.00     0.169 C 
BRANCH  50  51
HETATM   51  O1  UNL     1      -0.404  53.693 -26.143  1.00  0.00    -0.396 OA
HETATM   52  C1  UNL     1      -0.630  53.495 -27.533  1.00  0.00     0.201 C 
ENDBRANCH  50  51
ENDBRANCH  49  50
ENDBRANCH  48  49
ENDBRANCH  47  48
ENDBRANCH   1  47
TORSDOF 12
ENDMDL
MODEL 9
REMARK minimizedAffinity -8.85979176
REMARK CNNscore 0.403831154
REMARK CNNaffinity 6.6402421
REMARK  12 active torsions:
REMARK  status: ('A' for Active; 'I' for Inactive)
REMARK    1  A    between atoms: O1_2  and  C2_3 
REMARK    2  A    between atoms: C2_3  and  C3_4 
REMARK    3  A    between atoms: C3_4  and  C4_5 
REMARK    4  A    between atoms: C4_5  and  O2_6 
REMARK    5  A    between atoms: O2_6  and  C5_7 
REMARK    6  A    between atoms: C20_23  and  C21_24 
REMARK    7  A    between atoms: C21_24  and  O4_26 
REMARK    8  A    between atoms: C21_24  and  C23_27 
REMARK    9  A    between atoms: C23_27  and  O5_28 
REMARK   10  A    between atoms: C23_27  and  C24_29 
REMARK   11  A    between atoms: C33_40  and  O7_41 
REMARK   12  A    between atoms: C38_46  and  O8_47 
ROOT
HETATM    1  C5  UNL     1      -5.273  49.522 -24.620  1.00  0.00     0.122 C 
HETATM    2  C6  UNL     1      -5.357  50.772 -23.748  1.00  0.00     0.033 C 
HETATM    3  C7  UNL     1      -5.469  50.497 -22.243  1.00  0.00     0.013 C 
HETATM    4  C8  UNL     1      -4.642  49.276 -21.710  1.00  0.00    -0.026 C 
HETATM    5  C9  UNL     1      -5.644  48.126 -21.436  1.00  0.00     0.016 C 
HETATM    6  C10 UNL     1      -3.607  48.834 -22.771  1.00  0.00     0.071 C 
HETATM    7  C11 UNL     1      -4.268  48.472 -24.112  1.00  0.00     0.045 C 
HETATM    8  C12 UNL     1      -2.530  49.897 -22.970  1.00  0.00     0.154 C 
HETATM    9  O3  UNL     1      -1.969  50.097 -24.046  1.00  0.00    -0.293 OA
HETATM   10  C13 UNL     1      -2.074  50.665 -21.794  1.00  0.00     0.057 C 
HETATM   11  C14 UNL     1      -2.659  50.516 -20.596  1.00  0.00    -0.037 C 
HETATM   12  C15 UNL     1      -3.917  49.671 -20.366  1.00  0.00     0.026 C 
HETATM   13  C16 UNL     1      -3.562  48.502 -19.406  1.00  0.00     0.011 C 
HETATM   14  C17 UNL     1      -2.822  48.957 -18.122  1.00  0.00     0.014 C 
HETATM   15  C18 UNL     1      -1.595  49.846 -18.431  1.00  0.00    -0.002 C 
HETATM   16  C19 UNL     1      -0.533  48.974 -19.153  1.00  0.00     0.019 C 
HETATM   17  C20 UNL     1      -0.984  50.618 -17.209  1.00  0.00     0.034 C 
HETATM   18  C36 UNL     1      -0.294  51.847 -17.871  1.00  0.00     0.012 C 
HETATM   19  C37 UNL     1      -0.848  51.972 -19.306  1.00  0.00     0.044 C 
HETATM   20  C38 UNL     1      -2.072  51.054 -19.313  1.00  0.00     0.089 C 
ENDROOT
BRANCH  17  21
HETATM   21  C21 UNL     1      -0.141  49.899 -16.094  1.00  0.00     0.087 C 
HETATM   22  C22 UNL     1       1.175  50.616 -15.728  1.00  0.00     0.049 C 
BRANCH  21  23
HETATM   23  O4  UNL     1       0.202  48.588 -16.554  1.00  0.00    -0.387 OA
HETATM   24  H34 UNL     1       0.923  48.663 -17.204  1.00  0.00     0.210 HD
ENDBRANCH  21  23
BRANCH  21  25
HETATM   25  C23 UNL     1      -1.029  49.730 -14.800  1.00  0.00     0.181 C 
BRANCH  25  26
HETATM   26  O5  UNL     1      -2.405  49.540 -15.182  1.00  0.00    -0.390 OA
HETATM   27  H36 UNL     1      -2.922  49.804 -14.389  1.00  0.00     0.210 HD
ENDBRANCH  25  26
BRANCH  25  28
HETATM   28  C24 UNL     1      -0.984  50.909 -13.806  1.00  0.00     0.158 C 
HETATM   29  O6  UNL     1      -2.360  51.296 -13.465  1.00  0.00    -0.373 OA
HETATM   30  C25 UNL     1      -2.184  52.217 -12.376  1.00  0.00     0.185 C 
HETATM   31  C26 UNL     1      -1.266  51.429 -11.476  1.00  0.00     0.028 C 
HETATM   32  C33 UNL     1      -3.453  52.594 -11.594  1.00  0.00     0.384 C 
HETATM   33  C27 UNL     1      -0.755  52.314 -10.343  1.00  0.00     0.049 C 
HETATM   34  C34 UNL     1      -0.254  50.798 -12.441  1.00  0.00     0.020 C 
HETATM   35  C28 UNL     1      -1.858  53.315  -9.848  1.00  0.00     0.161 C 
HETATM   36  C29 UNL     1      -1.745  53.525  -8.324  1.00  0.00     0.041 C 
HETATM   37  C32 UNL     1      -1.591  54.755 -10.330  1.00  0.00     0.041 C 
HETATM   38  N1  UNL     1      -3.226  52.863 -10.170  1.00  0.00     0.124 N 
HETATM   39  C30 UNL     1      -0.535  54.439  -8.153  1.00  0.00     0.003 C 
HETATM   40  C31 UNL     1      -0.491  55.296  -9.414  1.00  0.00     0.003 C 
HETATM   41  H50 UNL     1      -3.396  51.993  -9.661  1.00  0.00     0.320 HD
HETATM   42  C35 UNL     1       0.109  49.402 -11.942  1.00  0.00     0.013 C 
BRANCH  32  43
HETATM   43  O7  UNL     1      -4.032  53.761 -12.142  1.00  0.00    -0.366 OA
HETATM   44  H52 UNL     1      -4.395  54.206 -11.356  1.00  0.00     0.212 HD
ENDBRANCH  32  43
ENDBRANCH  25  28
ENDBRANCH  21  25
ENDBRANCH  17  21
BRANCH  20  45
HETATM   45  O8  UNL     1      -3.147  51.773 -18.684  1.00  0.00    -0.384 OA
HETATM   46  H61 UNL     1      -2.788  52.446 -18.083  1.00  0.00     0.211 HD
ENDBRANCH  20  45
BRANCH   1  47
HETATM   47  O2  UNL     1      -6.594  48.965 -24.677  1.00  0.00    -0.386 OA
BRANCH  47  48
HETATM   48  C4  UNL     1      -6.619  47.538 -24.710  1.00  0.00     0.170 C 
BRANCH  48  49
HETATM   49  C3  UNL     1      -7.738  47.047 -25.622  1.00  0.00     0.052 C 
BRANCH  49  50
HETATM   50  C2  UNL     1      -7.678  47.649 -27.025  1.00  0.00     0.169 C 
BRANCH  50  51
HETATM   51  O1  UNL     1      -6.724  46.988 -27.855  1.00  0.00    -0.396 OA
HETATM   52  C1  UNL     1      -5.783  47.876 -28.448  1.00  0.00     0.201 C 
ENDBRANCH  50  51
ENDBRANCH  49  50
ENDBRANCH  48  49
ENDBRANCH  47  48
ENDBRANCH   1  47
TORSDOF 12
ENDMDL
