MODEL 1
REMARK minimizedAffinity -8.68873405
REMARK CNNscore 0.598044634
REMARK CNNaffinity 7.5044117
REMARK  5 active torsions:
REMARK  status: ('A' for Active; 'I' for Inactive)
REMARK    1  A    between atoms: C2_2  and  C4_4 
REMARK    2  A    between atoms: C10_11  and  O2_12 
REMARK    3  A    between atoms: C13_15  and  O3_16 
REMARK    4  A    between atoms: C32_39  and  O6_40 
REMARK    5  A    between atoms: C37_46  and  O8_47 
ROOT
HETATM    1  C4  UNL     1       0.321  42.452 -11.619  1.00  0.00     0.181 C 
HETATM    2  O1  UNL     1       0.237  43.811 -11.155  1.00  0.00    -0.370 OA
HETATM    3  C5  UNL     1      -0.831  44.603 -11.731  1.00  0.00     0.163 C 
HETATM    4  C6  UNL     1      -0.437  46.033 -11.411  1.00  0.00     0.036 C 
HETATM    5  C7  UNL     1      -1.251  47.093 -12.150  1.00  0.00     0.016 C 
HETATM    6  C8  UNL     1      -1.282  46.910 -13.688  1.00  0.00     0.008 C 
HETATM    7  C9  UNL     1       0.187  46.917 -14.215  1.00  0.00     0.020 C 
HETATM    8  C10 UNL     1      -1.849  45.464 -13.965  1.00  0.00     0.103 C 
HETATM    9  C11 UNL     1      -1.941  45.220 -15.484  1.00  0.00     0.047 C 
HETATM   10  C12 UNL     1      -2.691  46.281 -16.288  1.00  0.00     0.073 C 
HETATM   11  C13 UNL     1      -3.215  47.486 -15.489  1.00  0.00     0.179 C 
HETATM   12  O4  UNL     1      -3.749  48.464 -16.397  1.00  0.00    -0.320 OA
HETATM   13  C14 UNL     1      -2.817  49.209 -17.194  1.00  0.00     0.302 C 
HETATM   14  O5  UNL     1      -2.414  48.448 -18.324  1.00  0.00    -0.346 OA
HETATM   15  C15 UNL     1      -2.573  49.031 -19.630  1.00  0.00     0.064 C 
HETATM   16  C16 UNL     1      -2.248  47.866 -20.583  1.00  0.00     0.046 C 
HETATM   17  C17 UNL     1      -4.014  49.446 -19.922  1.00  0.00     0.046 C 
HETATM   18  C18 UNL     1      -1.523  50.125 -19.854  1.00  0.00     0.060 C 
HETATM   19  C19 UNL     1      -1.588  50.979 -21.137  1.00  0.00     0.023 C 
HETATM   20  C20 UNL     1      -0.977  52.166 -20.366  1.00  0.00     0.054 C 
HETATM   21  C21 UNL     1       0.493  52.428 -20.417  1.00  0.00    -0.077 C 
HETATM   22  C22 UNL     1       1.196  52.233 -21.547  1.00  0.00     0.015 C 
HETATM   23  C23 UNL     1       1.112  53.001 -19.158  1.00  0.00     0.074 C 
HETATM   24  C24 UNL     1       0.815  52.197 -17.902  1.00  0.00    -0.022 A 
HETATM   25  C25 UNL     1       1.679  52.198 -16.802  1.00  0.00     0.043 A 
HETATM   26 CL1  UNL     1       3.128  53.141 -16.810  1.00  0.00    -0.084 Cl
HETATM   27  C26 UNL     1       1.400  51.455 -15.649  1.00  0.00     0.054 A 
HETATM   28  C27 UNL     1       0.238  50.670 -15.651  1.00  0.00     0.045 A 
HETATM   29  N1  UNL     1      -0.272  49.849 -14.666  1.00  0.00    -0.357 N 
HETATM   30  C28 UNL     1      -1.338  49.144 -15.144  1.00  0.00     0.036 C 
HETATM   31  C29 UNL     1      -1.635  49.652 -16.399  1.00  0.00     0.033 C 
HETATM   32  C30 UNL     1      -0.642  50.620 -16.735  1.00  0.00     0.014 A 
HETATM   33  C31 UNL     1      -0.394  51.455 -17.852  1.00  0.00    -0.001 A 
HETATM   34  C32 UNL     1      -1.457  51.468 -19.024  1.00  0.00     0.100 C 
HETATM   35  C33 UNL     1      -2.180  48.093 -14.403  1.00  0.00     0.066 C 
HETATM   36  C34 UNL     1      -3.035  48.938 -13.382  1.00  0.00     0.028 C 
HETATM   37  C35 UNL     1      -1.031  44.388 -13.227  1.00  0.00     0.147 A 
HETATM   38  O7  UNL     1      -1.585  43.074 -13.528  1.00  0.00    -0.360 OA
HETATM   39  C36 UNL     1      -0.242  43.291 -13.913  1.00  0.00     0.194 A 
HETATM   40  C37 UNL     1       0.785  42.545 -13.100  1.00  0.00     0.183 C 
HETATM   41  H37 UNL     1       0.139  49.750 -13.751  1.00  0.00     0.166 HD
ENDROOT
BRANCH   1  42
HETATM   42  C2  UNL     1       1.222  41.716 -10.636  1.00  0.00    -0.062 C 
HETATM   43  C1  UNL     1       2.522  41.416 -10.846  1.00  0.00     0.016 C 
HETATM   44  C3  UNL     1       0.570  41.287  -9.349  1.00  0.00     0.045 C 
ENDBRANCH   1  42
BRANCH  40  45
HETATM   45  O8  UNL     1       2.012  43.302 -13.191  1.00  0.00    -0.390 OA
HETATM   46  H44 UNL     1       2.012  43.865 -12.392  1.00  0.00     0.210 HD
ENDBRANCH  40  45
BRANCH   8  47
HETATM   47  O2  UNL     1      -3.160  45.328 -13.437  1.00  0.00    -0.386 OA
HETATM   48  H15 UNL     1      -3.411  44.387 -13.525  1.00  0.00     0.210 HD
ENDBRANCH   8  47
BRANCH  11  49
HETATM   49  O3  UNL     1      -4.398  47.082 -14.770  1.00  0.00    -0.364 OA
HETATM   50  H20 UNL     1      -4.593  46.161 -14.974  1.00  0.00     0.213 HD
ENDBRANCH  11  49
BRANCH  34  51
HETATM   51  O6  UNL     1      -2.728  52.003 -18.571  1.00  0.00    -0.384 OA
HETATM   52  H38 UNL     1      -2.481  52.856 -18.177  1.00  0.00     0.211 HD
ENDBRANCH  34  51
TORSDOF 5
ENDMDL
MODEL 2
REMARK minimizedAffinity -10.0411854
REMARK CNNscore 0.495901763
REMARK CNNaffinity 7.37355042
REMARK  5 active torsions:
REMARK  status: ('A' for Active; 'I' for Inactive)
REMARK    1  A    between atoms: C2_2  and  C4_4 
REMARK    2  A    between atoms: C10_11  and  O2_12 
REMARK    3  A    between atoms: C13_15  and  O3_16 
REMARK    4  A    between atoms: C32_39  and  O6_40 
REMARK    5  A    between atoms: C37_46  and  O8_47 
ROOT
HETATM    1  C4  UNL     1      -3.778  42.389 -16.478  1.00  0.00     0.181 C 
HETATM    2  O1  UNL     1      -3.900  43.726 -15.959  1.00  0.00    -0.370 OA
HETATM    3  C5  UNL     1      -4.651  44.650 -16.784  1.00  0.00     0.163 C 
HETATM    4  C6  UNL     1      -4.269  46.015 -16.241  1.00  0.00     0.036 C 
HETATM    5  C7  UNL     1      -4.706  47.187 -17.117  1.00  0.00     0.016 C 
HETATM    6  C8  UNL     1      -4.245  47.084 -18.592  1.00  0.00     0.008 C 
HETATM    7  C9  UNL     1      -2.689  46.966 -18.615  1.00  0.00     0.020 C 
HETATM    8  C10 UNL     1      -4.805  45.719 -19.150  1.00  0.00     0.103 C 
HETATM    9  C11 UNL     1      -4.413  45.560 -20.633  1.00  0.00     0.047 C 
HETATM   10  C12 UNL     1      -4.769  46.730 -21.548  1.00  0.00     0.073 C 
HETATM   11  C13 UNL     1      -5.427  47.943 -20.868  1.00  0.00     0.179 C 
HETATM   12  O4  UNL     1      -5.551  49.013 -21.818  1.00  0.00    -0.320 OA
HETATM   13  C14 UNL     1      -4.352  49.696 -22.211  1.00  0.00     0.302 C 
HETATM   14  O5  UNL     1      -3.664  48.954 -23.207  1.00  0.00    -0.346 OA
HETATM   15  C15 UNL     1      -3.337  49.613 -24.445  1.00  0.00     0.064 C 
HETATM   16  C16 UNL     1      -2.813  48.468 -25.331  1.00  0.00     0.046 C 
HETATM   17  C17 UNL     1      -4.564  50.188 -25.151  1.00  0.00     0.046 C 
HETATM   18  C18 UNL     1      -2.187  50.603 -24.230  1.00  0.00     0.060 C 
HETATM   19  C19 UNL     1      -1.757  51.521 -25.394  1.00  0.00     0.023 C 
HETATM   20  C20 UNL     1      -1.339  52.600 -24.375  1.00  0.00     0.054 C 
HETATM   21  C21 UNL     1       0.083  52.712 -23.928  1.00  0.00    -0.077 C 
HETATM   22  C22 UNL     1       1.099  52.501 -24.783  1.00  0.00     0.015 C 
HETATM   23  C23 UNL     1       0.298  53.156 -22.496  1.00  0.00     0.074 C 
HETATM   24  C24 UNL     1      -0.459  52.327 -21.471  1.00  0.00    -0.022 A 
HETATM   25  C25 UNL     1      -0.007  52.185 -20.154  1.00  0.00     0.043 A 
HETATM   26 CL1  UNL     1       1.436  52.973 -19.620  1.00  0.00    -0.084 Cl
HETATM   27  C26 UNL     1      -0.709  51.420 -19.216  1.00  0.00     0.054 A 
HETATM   28  C27 UNL     1      -1.865  50.759 -19.655  1.00  0.00     0.045 A 
HETATM   29  N1  UNL     1      -2.735  49.948 -18.955  1.00  0.00    -0.357 N 
HETATM   30  C28 UNL     1      -3.638  49.380 -19.806  1.00  0.00     0.036 C 
HETATM   31  C29 UNL     1      -3.465  49.976 -21.045  1.00  0.00     0.033 C 
HETATM   32  C30 UNL     1      -2.341  50.852 -20.964  1.00  0.00     0.014 A 
HETATM   33  C31 UNL     1      -1.673  51.711 -21.872  1.00  0.00    -0.001 A 
HETATM   34  C32 UNL     1      -2.288  51.890 -23.319  1.00  0.00     0.100 C 
HETATM   35  C33 UNL     1      -4.760  48.386 -19.461  1.00  0.00     0.066 C 
HETATM   36  C34 UNL     1      -5.830  49.263 -18.707  1.00  0.00     0.028 C 
HETATM   37  C35 UNL     1      -4.365  44.530 -18.277  1.00  0.00     0.147 A 
HETATM   38  O7  UNL     1      -4.895  43.296 -18.844  1.00  0.00    -0.360 OA
HETATM   39  C36 UNL     1      -3.486  43.393 -18.757  1.00  0.00     0.194 A 
HETATM   40  C37 UNL     1      -2.847  42.506 -17.718  1.00  0.00     0.183 C 
HETATM   41  H37 UNL     1      -2.657  49.763 -17.968  1.00  0.00     0.166 HD
ENDROOT
BRANCH   1  42
HETATM   42  C2  UNL     1      -3.313  41.517 -15.319  1.00  0.00    -0.062 C 
HETATM   43  C1  UNL     1      -3.267  40.168 -15.330  1.00  0.00     0.016 C 
HETATM   44  C3  UNL     1      -2.897  42.255 -14.074  1.00  0.00     0.045 C 
ENDBRANCH   1  42
BRANCH  40  45
HETATM   45  O8  UNL     1      -1.602  43.137 -17.349  1.00  0.00    -0.390 OA
HETATM   46  H44 UNL     1      -1.818  43.657 -16.549  1.00  0.00     0.210 HD
ENDBRANCH  40  45
BRANCH   8  47
HETATM   47  O2  UNL     1      -6.224  45.692 -19.086  1.00  0.00    -0.386 OA
HETATM   48  H15 UNL     1      -6.508  44.788 -19.325  1.00  0.00     0.210 HD
ENDBRANCH   8  47
BRANCH  11  49
HETATM   49  O3  UNL     1      -6.808  47.627 -20.603  1.00  0.00    -0.364 OA
HETATM   50  H20 UNL     1      -7.000  46.743 -20.931  1.00  0.00     0.213 HD
ENDBRANCH  11  49
BRANCH  34  51
HETATM   51  O6  UNL     1      -3.589  52.530 -23.259  1.00  0.00    -0.384 OA
HETATM   52  H38 UNL     1      -3.417  53.333 -22.740  1.00  0.00     0.211 HD
ENDBRANCH  34  51
TORSDOF 5
ENDMDL
MODEL 3
REMARK minimizedAffinity -11.221879
REMARK CNNscore 0.487613857
REMARK CNNaffinity 7.62403488
REMARK  5 active torsions:
REMARK  status: ('A' for Active; 'I' for Inactive)
REMARK    1  A    between atoms: C2_2  and  C4_4 
REMARK    2  A    between atoms: C10_11  and  O2_12 
REMARK    3  A    between atoms: C13_15  and  O3_16 
REMARK    4  A    between atoms: C32_39  and  O6_40 
REMARK    5  A    between atoms: C37_46  and  O8_47 
ROOT
HETATM    1  C4  UNL     1      -5.322  44.111 -17.144  1.00  0.00     0.181 C 
HETATM    2  O1  UNL     1      -5.299  45.520 -16.853  1.00  0.00    -0.370 OA
HETATM    3  C5  UNL     1      -5.791  46.384 -17.907  1.00  0.00     0.163 C 
HETATM    4  C6  UNL     1      -5.274  47.758 -17.523  1.00  0.00     0.036 C 
HETATM    5  C7  UNL     1      -5.412  48.813 -18.617  1.00  0.00     0.016 C 
HETATM    6  C8  UNL     1      -4.793  48.403 -19.977  1.00  0.00     0.008 C 
HETATM    7  C9  UNL     1      -3.283  48.078 -19.753  1.00  0.00     0.020 C 
HETATM    8  C10 UNL     1      -5.484  47.050 -20.403  1.00  0.00     0.103 C 
HETATM    9  C11 UNL     1      -4.940  46.593 -21.771  1.00  0.00     0.047 C 
HETATM   10  C12 UNL     1      -4.995  47.629 -22.893  1.00  0.00     0.073 C 
HETATM   11  C13 UNL     1      -5.537  49.016 -22.504  1.00  0.00     0.179 C 
HETATM   12  O4  UNL     1      -5.376  49.917 -23.610  1.00  0.00    -0.320 OA
HETATM   13  C14 UNL     1      -4.047  50.360 -23.919  1.00  0.00     0.302 C 
HETATM   14  O5  UNL     1      -3.363  49.376 -24.683  1.00  0.00    -0.346 OA
HETATM   15  C15 UNL     1      -2.788  49.769 -25.942  1.00  0.00     0.064 C 
HETATM   16  C16 UNL     1      -2.340  48.432 -26.562  1.00  0.00     0.046 C 
HETATM   17  C17 UNL     1      -3.814  50.374 -26.899  1.00  0.00     0.046 C 
HETATM   18  C18 UNL     1      -1.534  50.619 -25.711  1.00  0.00     0.060 C 
HETATM   19  C19 UNL     1      -0.827  51.263 -26.922  1.00  0.00     0.023 C 
HETATM   20  C20 UNL     1      -0.377  52.433 -26.024  1.00  0.00     0.054 C 
HETATM   21  C21 UNL     1       0.978  52.429 -25.395  1.00  0.00    -0.077 C 
HETATM   22  C22 UNL     1       2.048  51.945 -26.050  1.00  0.00     0.015 C 
HETATM   23  C23 UNL     1       1.080  53.075 -24.028  1.00  0.00     0.074 C 
HETATM   24  C24 UNL     1       0.084  52.539 -23.014  1.00  0.00    -0.022 A 
HETATM   25  C25 UNL     1       0.341  52.562 -21.639  1.00  0.00     0.043 A 
HETATM   26 CL1  UNL     1       1.811  53.230 -21.021  1.00  0.00    -0.084 Cl
HETATM   27  C26 UNL     1      -0.581  52.065 -20.711  1.00  0.00     0.054 A 
HETATM   28  C27 UNL     1      -1.761  51.499 -21.212  1.00  0.00     0.045 A 
HETATM   29  N1  UNL     1      -2.826  50.939 -20.536  1.00  0.00    -0.357 N 
HETATM   30  C28 UNL     1      -3.694  50.361 -21.416  1.00  0.00     0.036 C 
HETATM   31  C29 UNL     1      -3.278  50.712 -22.691  1.00  0.00     0.033 C 
HETATM   32  C30 UNL     1      -2.052  51.433 -22.577  1.00  0.00     0.014 A 
HETATM   33  C31 UNL     1      -1.152  52.030 -23.494  1.00  0.00    -0.001 A 
HETATM   34  C32 UNL     1      -1.548  52.043 -25.026  1.00  0.00     0.100 C 
HETATM   35  C33 UNL     1      -4.989  49.597 -21.096  1.00  0.00     0.066 C 
HETATM   36  C34 UNL     1      -5.997  50.723 -20.646  1.00  0.00     0.028 C 
HETATM   37  C35 UNL     1      -5.344  45.978 -19.307  1.00  0.00     0.147 A 
HETATM   38  O7  UNL     1      -5.983  44.747 -19.756  1.00  0.00    -0.360 OA
HETATM   39  C36 UNL     1      -4.599  44.669 -19.479  1.00  0.00     0.194 A 
HETATM   40  C37 UNL     1      -4.238  43.894 -18.237  1.00  0.00     0.183 C 
HETATM   41  H37 UNL     1      -2.901  50.914 -19.531  1.00  0.00     0.166 HD
ENDROOT
BRANCH   1  42
HETATM   42  C2  UNL     1      -5.144  43.393 -15.812  1.00  0.00    -0.062 C 
HETATM   43  C1  UNL     1      -5.120  43.992 -14.602  1.00  0.00     0.016 C 
HETATM   44  C3  UNL     1      -4.963  41.901 -15.896  1.00  0.00     0.045 C 
ENDBRANCH   1  42
BRANCH  40  45
HETATM   45  O8  UNL     1      -2.966  44.406 -17.786  1.00  0.00    -0.390 OA
HETATM   46  H44 UNL     1      -3.196  45.078 -17.114  1.00  0.00     0.210 HD
ENDBRANCH  40  45
BRANCH   8  47
HETATM   47  O2  UNL     1      -6.886  47.223 -20.544  1.00  0.00    -0.386 OA
HETATM   48  H15 UNL     1      -7.274  46.336 -20.686  1.00  0.00     0.210 HD
ENDBRANCH   8  47
BRANCH  11  49
HETATM   49  O3  UNL     1      -6.973  48.935 -22.401  1.00  0.00    -0.364 OA
HETATM   50  H20 UNL     1      -7.256  48.041 -22.619  1.00  0.00     0.213 HD
ENDBRANCH  11  49
BRANCH  34  51
HETATM   51  O6  UNL     1      -2.732  52.851 -25.253  1.00  0.00    -0.384 OA
HETATM   52  H38 UNL     1      -2.503  53.700 -24.840  1.00  0.00     0.211 HD
ENDBRANCH  34  51
TORSDOF 5
ENDMDL
MODEL 4
REMARK minimizedAffinity -10.1190691
REMARK CNNscore 0.484685153
REMARK CNNaffinity 7.57988691
REMARK  5 active torsions:
REMARK  status: ('A' for Active; 'I' for Inactive)
REMARK    1  A    between atoms: C2_2  and  C4_4 
REMARK    2  A    between atoms: C10_11  and  O2_12 
REMARK    3  A    between atoms: C13_15  and  O3_16 
REMARK    4  A    between atoms: C32_39  and  O6_40 
REMARK    5  A    between atoms: C37_46  and  O8_47 
ROOT
HETATM    1  C4  UNL     1       1.972  47.350 -11.855  1.00  0.00     0.181 C 
HETATM    2  O1  UNL     1       1.606  48.725 -12.066  1.00  0.00    -0.370 OA
HETATM    3  C5  UNL     1       0.356  48.938 -12.768  1.00  0.00     0.163 C 
HETATM    4  C6  UNL     1       0.432  50.388 -13.212  1.00  0.00     0.036 C 
HETATM    5  C7  UNL     1      -0.640  50.795 -14.220  1.00  0.00     0.016 C 
HETATM    6  C8  UNL     1      -0.712  49.887 -15.473  1.00  0.00     0.008 C 
HETATM    7  C9  UNL     1       0.686  49.891 -16.166  1.00  0.00     0.020 C 
HETATM    8  C10 UNL     1      -0.949  48.415 -14.955  1.00  0.00     0.103 C 
HETATM    9  C11 UNL     1      -1.066  47.452 -16.154  1.00  0.00     0.047 C 
HETATM   10  C12 UNL     1      -2.080  47.840 -17.228  1.00  0.00     0.073 C 
HETATM   11  C13 UNL     1      -2.820  49.170 -17.008  1.00  0.00     0.179 C 
HETATM   12  O4  UNL     1      -3.610  49.474 -18.168  1.00  0.00    -0.320 OA
HETATM   13  C14 UNL     1      -2.916  49.887 -19.354  1.00  0.00     0.302 C 
HETATM   14  O5  UNL     1      -2.413  48.756 -20.051  1.00  0.00    -0.346 OA
HETATM   15  C15 UNL     1      -2.771  48.594 -21.436  1.00  0.00     0.064 C 
HETATM   16  C16 UNL     1      -2.241  47.189 -21.779  1.00  0.00     0.046 C 
HETATM   17  C17 UNL     1      -4.282  48.558 -21.657  1.00  0.00     0.046 C 
HETATM   18  C18 UNL     1      -2.011  49.604 -22.302  1.00  0.00     0.060 C 
HETATM   19  C19 UNL     1      -2.337  49.702 -23.807  1.00  0.00     0.023 C 
HETATM   20  C20 UNL     1      -1.971  51.199 -23.780  1.00  0.00     0.054 C 
HETATM   21  C21 UNL     1      -0.604  51.654 -24.175  1.00  0.00    -0.077 C 
HETATM   22  C22 UNL     1       0.062  51.059 -25.181  1.00  0.00     0.015 C 
HETATM   23  C23 UNL     1      -0.065  52.863 -23.439  1.00  0.00     0.074 C 
HETATM   24  C24 UNL     1      -0.103  52.733 -21.925  1.00  0.00    -0.022 A 
HETATM   25  C25 UNL     1       0.796  53.418 -21.101  1.00  0.00     0.043 A 
HETATM   26 CL1  UNL     1       1.991  54.473 -21.771  1.00  0.00    -0.084 Cl
HETATM   27  C26 UNL     1       0.756  53.293 -19.707  1.00  0.00     0.054 A 
HETATM   28  C27 UNL     1      -0.195  52.418 -19.164  1.00  0.00     0.045 A 
HETATM   29  N1  UNL     1      -0.451  52.104 -17.845  1.00  0.00    -0.357 N 
HETATM   30  C28 UNL     1      -1.353  51.083 -17.768  1.00  0.00     0.036 C 
HETATM   31  C29 UNL     1      -1.825  50.857 -19.052  1.00  0.00     0.033 C 
HETATM   32  C30 UNL     1      -1.097  51.696 -19.948  1.00  0.00     0.014 A 
HETATM   33  C31 UNL     1      -1.107  51.912 -21.348  1.00  0.00    -0.001 A 
HETATM   34  C32 UNL     1      -2.207  51.169 -22.210  1.00  0.00     0.100 C 
HETATM   35  C33 UNL     1      -1.893  50.397 -16.503  1.00  0.00     0.066 C 
HETATM   36  C34 UNL     1      -2.860  51.468 -15.869  1.00  0.00     0.028 C 
HETATM   37  C35 UNL     1       0.130  47.993 -13.943  1.00  0.00     0.147 A 
HETATM   38  O7  UNL     1      -0.126  46.625 -13.509  1.00  0.00    -0.360 OA
HETATM   39  C36 UNL     1       1.110  46.857 -14.157  1.00  0.00     0.194 A 
HETATM   40  C37 UNL     1       2.322  46.791 -13.263  1.00  0.00     0.183 C 
HETATM   41  H37 UNL     1       0.020  52.535 -17.065  1.00  0.00     0.166 HD
ENDROOT
BRANCH   1  42
HETATM   42  C2  UNL     1       3.069  47.352 -10.797  1.00  0.00    -0.062 C 
HETATM   43  C1  UNL     1       3.518  46.262 -10.139  1.00  0.00     0.016 C 
HETATM   44  C3  UNL     1       3.660  48.699 -10.476  1.00  0.00     0.045 C 
ENDBRANCH   1  42
BRANCH  40  45
HETATM   45  O8  UNL     1       3.338  47.607 -13.885  1.00  0.00    -0.390 OA
HETATM   46  H44 UNL     1       3.253  48.478 -13.448  1.00  0.00     0.210 HD
ENDBRANCH  40  45
BRANCH   8  47
HETATM   47  O2  UNL     1      -2.165  48.327 -14.226  1.00  0.00    -0.386 OA
HETATM   48  H15 UNL     1      -2.200  47.435 -13.829  1.00  0.00     0.210 HD
ENDBRANCH   8  47
BRANCH  11  49
HETATM   49  O3  UNL     1      -3.839  48.968 -16.007  1.00  0.00    -0.364 OA
HETATM   50  H20 UNL     1      -3.831  48.047 -15.729  1.00  0.00     0.213 HD
ENDBRANCH  11  49
BRANCH  34  51
HETATM   51  O6  UNL     1      -3.540  51.627 -21.863  1.00  0.00    -0.384 OA
HETATM   52  H38 UNL     1      -3.472  52.592 -21.953  1.00  0.00     0.211 HD
ENDBRANCH  34  51
TORSDOF 5
ENDMDL
MODEL 5
REMARK minimizedAffinity -8.47138023
REMARK CNNscore 0.454151213
REMARK CNNaffinity 6.00739098
REMARK  5 active torsions:
REMARK  status: ('A' for Active; 'I' for Inactive)
REMARK    1  A    between atoms: C2_2  and  C4_4 
REMARK    2  A    between atoms: C10_11  and  O2_12 
REMARK    3  A    between atoms: C13_15  and  O3_16 
REMARK    4  A    between atoms: C32_39  and  O6_40 
REMARK    5  A    between atoms: C37_46  and  O8_47 
ROOT
HETATM    1  C4  UNL     1      -7.751  42.542 -33.896  1.00  0.00     0.181 C 
HETATM    2  O1  UNL     1      -8.824  43.493 -34.013  1.00  0.00    -0.370 OA
HETATM    3  C5  UNL     1      -8.858  44.525 -32.996  1.00  0.00     0.163 C 
HETATM    4  C6  UNL     1     -10.261  45.094 -33.102  1.00  0.00     0.036 C 
HETATM    5  C7  UNL     1     -10.657  46.013 -31.949  1.00  0.00     0.016 C 
HETATM    6  C8  UNL     1     -10.471  45.387 -30.544  1.00  0.00     0.008 C 
HETATM    7  C9  UNL     1     -11.308  44.072 -30.476  1.00  0.00     0.020 C 
HETATM    8  C10 UNL     1      -8.956  44.958 -30.434  1.00  0.00     0.103 C 
HETATM    9  C11 UNL     1      -8.685  44.353 -29.042  1.00  0.00     0.047 C 
HETATM   10  C12 UNL     1      -9.117  45.202 -27.847  1.00  0.00     0.073 C 
HETATM   11  C13 UNL     1      -9.818  46.530 -28.182  1.00  0.00     0.179 C 
HETATM   12  O4  UNL     1     -10.305  47.130 -26.971  1.00  0.00    -0.320 OA
HETATM   13  C14 UNL     1     -11.438  46.520 -26.336  1.00  0.00     0.302 C 
HETATM   14  O5  UNL     1     -11.030  45.402 -25.562  1.00  0.00    -0.346 OA
HETATM   15  C15 UNL     1     -11.402  45.362 -24.172  1.00  0.00     0.064 C 
HETATM   16  C16 UNL     1     -10.618  44.153 -23.627  1.00  0.00     0.046 C 
HETATM   17  C17 UNL     1     -10.916  46.585 -23.394  1.00  0.00     0.046 C 
HETATM   18  C18 UNL     1     -12.896  45.053 -24.031  1.00  0.00     0.060 C 
HETATM   19  C19 UNL     1     -13.545  45.093 -22.632  1.00  0.00     0.023 C 
HETATM   20  C20 UNL     1     -14.877  45.529 -23.273  1.00  0.00     0.054 C 
HETATM   21  C21 UNL     1     -15.931  44.519 -23.594  1.00  0.00    -0.077 C 
HETATM   22  C22 UNL     1     -16.158  43.469 -22.785  1.00  0.00     0.015 C 
HETATM   23  C23 UNL     1     -16.770  44.799 -24.824  1.00  0.00     0.074 C 
HETATM   24  C24 UNL     1     -15.956  45.054 -26.083  1.00  0.00    -0.022 A 
HETATM   25  C25 UNL     1     -16.463  44.787 -27.359  1.00  0.00     0.043 A 
HETATM   26 CL1  UNL     1     -18.064  44.168 -27.568  1.00  0.00    -0.084 Cl
HETATM   27  C26 UNL     1     -15.709  45.024 -28.513  1.00  0.00     0.054 A 
HETATM   28  C27 UNL     1     -14.401  45.501 -28.344  1.00  0.00     0.045 A 
HETATM   29  N1  UNL     1     -13.448  45.813 -29.292  1.00  0.00    -0.357 N 
HETATM   30  C28 UNL     1     -12.255  46.087 -28.690  1.00  0.00     0.036 C 
HETATM   31  C29 UNL     1     -12.486  46.132 -27.324  1.00  0.00     0.033 C 
HETATM   32  C30 UNL     1     -13.844  45.760 -27.090  1.00  0.00     0.014 A 
HETATM   33  C31 UNL     1     -14.657  45.609 -25.939  1.00  0.00    -0.001 A 
HETATM   34  C32 UNL     1     -14.046  46.011 -24.536  1.00  0.00     0.100 C 
HETATM   35  C33 UNL     1     -10.920  46.445 -29.364  1.00  0.00     0.066 C 
HETATM   36  C34 UNL     1     -11.139  47.916 -29.887  1.00  0.00     0.028 C 
HETATM   37  C35 UNL     1      -8.549  44.026 -31.589  1.00  0.00     0.147 A 
HETATM   38  O7  UNL     1      -7.150  43.649 -31.431  1.00  0.00    -0.360 OA
HETATM   39  C36 UNL     1      -8.090  42.593 -31.413  1.00  0.00     0.194 A 
HETATM   40  C37 UNL     1      -8.074  41.701 -32.629  1.00  0.00     0.183 C 
HETATM   41  H37 UNL     1     -13.612  45.774 -30.285  1.00  0.00     0.166 HD
ENDROOT
BRANCH   1  42
HETATM   42  C2  UNL     1      -7.673  41.814 -35.232  1.00  0.00    -0.062 C 
HETATM   43  C1  UNL     1      -8.718  41.586 -36.057  1.00  0.00     0.016 C 
HETATM   44  C3  UNL     1      -6.309  41.305 -35.619  1.00  0.00     0.045 C 
ENDBRANCH   1  42
BRANCH  40  45
HETATM   45  O8  UNL     1      -9.394  41.126 -32.736  1.00  0.00    -0.390 OA
HETATM   46  H44 UNL     1      -9.867  41.711 -33.360  1.00  0.00     0.210 HD
ENDBRANCH  40  45
BRANCH   8  47
HETATM   47  O2  UNL     1      -8.103  46.084 -30.577  1.00  0.00    -0.386 OA
HETATM   48  H15 UNL     1      -7.186  45.748 -30.624  1.00  0.00     0.210 HD
ENDBRANCH   8  47
BRANCH  11  49
HETATM   49  O3  UNL     1      -8.820  47.483 -28.598  1.00  0.00    -0.364 OA
HETATM   50  H20 UNL     1      -7.950  47.073 -28.549  1.00  0.00     0.213 HD
ENDBRANCH  11  49
BRANCH  34  51
HETATM   51  O6  UNL     1     -13.766  47.434 -24.477  1.00  0.00    -0.384 OA
HETATM   52  H38 UNL     1     -14.612  47.837 -24.732  1.00  0.00     0.211 HD
ENDBRANCH  34  51
TORSDOF 5
ENDMDL
MODEL 6
REMARK minimizedAffinity -9.13401318
REMARK CNNscore 0.453403473
REMARK CNNaffinity 6.26219893
REMARK  5 active torsions:
REMARK  status: ('A' for Active; 'I' for Inactive)
REMARK    1  A    between atoms: C2_2  and  C4_4 
REMARK    2  A    between atoms: C10_11  and  O2_12 
REMARK    3  A    between atoms: C13_15  and  O3_16 
REMARK    4  A    between atoms: C32_39  and  O6_40 
REMARK    5  A    between atoms: C37_46  and  O8_47 
ROOT
HETATM    1  C4  UNL     1      -7.592  41.711 -35.275  1.00  0.00     0.181 C 
HETATM    2  O1  UNL     1      -8.574  42.762 -35.318  1.00  0.00    -0.370 OA
HETATM    3  C5  UNL     1      -8.323  43.888 -34.442  1.00  0.00     0.163 C 
HETATM    4  C6  UNL     1      -9.662  44.600 -34.372  1.00  0.00     0.036 C 
HETATM    5  C7  UNL     1      -9.751  45.670 -33.286  1.00  0.00     0.016 C 
HETATM    6  C8  UNL     1      -9.371  45.171 -31.870  1.00  0.00     0.008 C 
HETATM    7  C9  UNL     1     -10.302  43.973 -31.502  1.00  0.00     0.020 C 
HETATM    8  C10 UNL     1      -7.909  44.585 -31.971  1.00  0.00     0.103 C 
HETATM    9  C11 UNL     1      -7.445  44.097 -30.584  1.00  0.00     0.047 C 
HETATM   10  C12 UNL     1      -7.569  45.104 -29.443  1.00  0.00     0.073 C 
HETATM   11  C13 UNL     1      -8.191  46.463 -29.808  1.00  0.00     0.179 C 
HETATM   12  O4  UNL     1      -8.389  47.234 -28.612  1.00  0.00    -0.320 OA
HETATM   13  C14 UNL     1      -9.439  46.825 -27.724  1.00  0.00     0.302 C 
HETATM   14  O5  UNL     1      -9.003  45.751 -26.904  1.00  0.00    -0.346 OA
HETATM   15  C15 UNL     1      -9.116  45.894 -25.476  1.00  0.00     0.064 C 
HETATM   16  C16 UNL     1      -8.364  44.664 -24.933  1.00  0.00     0.046 C 
HETATM   17  C17 UNL     1      -8.383  47.125 -24.944  1.00  0.00     0.046 C 
HETATM   18  C18 UNL     1     -10.582  45.773 -25.045  1.00  0.00     0.060 C 
HETATM   19  C19 UNL     1     -10.956  46.027 -23.570  1.00  0.00     0.023 C 
HETATM   20  C20 UNL     1     -12.336  46.546 -24.020  1.00  0.00     0.054 C 
HETATM   21  C21 UNL     1     -13.521  45.636 -24.033  1.00  0.00    -0.077 C 
HETATM   22  C22 UNL     1     -13.694  44.705 -23.077  1.00  0.00     0.015 C 
HETATM   23  C23 UNL     1     -14.541  45.885 -25.125  1.00  0.00     0.074 C 
HETATM   24  C24 UNL     1     -13.952  45.917 -26.526  1.00  0.00    -0.022 A 
HETATM   25  C25 UNL     1     -14.707  45.583 -27.654  1.00  0.00     0.043 A 
HETATM   26 CL1  UNL     1     -16.371  45.133 -27.510  1.00  0.00    -0.084 Cl
HETATM   27  C26 UNL     1     -14.158  45.614 -28.942  1.00  0.00     0.054 A 
HETATM   28  C27 UNL     1     -12.803  45.953 -29.057  1.00  0.00     0.045 A 
HETATM   29  N1  UNL     1     -12.014  46.058 -30.185  1.00  0.00    -0.357 N 
HETATM   30  C28 UNL     1     -10.710  46.253 -29.834  1.00  0.00     0.036 C 
HETATM   31  C29 UNL     1     -10.682  46.462 -28.463  1.00  0.00     0.033 C 
HETATM   32  C30 UNL     1     -12.003  46.272 -27.957  1.00  0.00     0.014 A 
HETATM   33  C31 UNL     1     -12.602  46.332 -26.675  1.00  0.00    -0.001 A 
HETATM   34  C32 UNL     1     -11.709  46.801 -25.455  1.00  0.00     0.100 C 
HETATM   35  C33 UNL     1      -9.494  46.387 -30.765  1.00  0.00     0.066 C 
HETATM   36  C34 UNL     1      -9.665  47.813 -31.415  1.00  0.00     0.028 C 
HETATM   37  C35 UNL     1      -7.810  43.501 -33.059  1.00  0.00     0.147 A 
HETATM   38  O7  UNL     1      -6.447  42.985 -33.100  1.00  0.00    -0.360 OA
HETATM   39  C36 UNL     1      -7.464  42.050 -32.794  1.00  0.00     0.194 A 
HETATM   40  C37 UNL     1      -7.755  41.045 -33.880  1.00  0.00     0.183 C 
HETATM   41  H37 UNL     1     -12.361  45.938 -31.124  1.00  0.00     0.166 HD
ENDROOT
BRANCH   1  42
HETATM   42  C2  UNL     1      -7.829  40.848 -36.508  1.00  0.00    -0.062 C 
HETATM   43  C1  UNL     1      -6.978  39.911 -36.977  1.00  0.00     0.016 C 
HETATM   44  C3  UNL     1      -9.116  41.105 -37.245  1.00  0.00     0.045 C 
ENDBRANCH   1  42
BRANCH  40  45
HETATM   45  O8  UNL     1      -9.121  40.616 -33.689  1.00  0.00    -0.390 OA
HETATM   46  H44 UNL     1      -9.643  41.186 -34.289  1.00  0.00     0.210 HD
ENDBRANCH  40  45
BRANCH   8  47
HETATM   47  O2  UNL     1      -6.993  45.586 -32.391  1.00  0.00    -0.386 OA
HETATM   48  H15 UNL     1      -6.136  45.144 -32.555  1.00  0.00     0.210 HD
ENDBRANCH   8  47
BRANCH  11  49
HETATM   49  O3  UNL     1      -7.201  47.250 -30.500  1.00  0.00    -0.364 OA
HETATM   50  H20 UNL     1      -6.379  46.750 -30.553  1.00  0.00     0.213 HD
ENDBRANCH  11  49
BRANCH  34  51
HETATM   51  O6  UNL     1     -11.290  48.181 -25.615  1.00  0.00    -0.384 OA
HETATM   52  H38 UNL     1     -12.127  48.650 -25.768  1.00  0.00     0.211 HD
ENDBRANCH  34  51
TORSDOF 5
ENDMDL
MODEL 7
REMARK minimizedAffinity -9.99379635
REMARK CNNscore 0.432100445
REMARK CNNaffinity 6.25306177
REMARK  5 active torsions:
REMARK  status: ('A' for Active; 'I' for Inactive)
REMARK    1  A    between atoms: C2_2  and  C4_4 
REMARK    2  A    between atoms: C10_11  and  O2_12 
REMARK    3  A    between atoms: C13_15  and  O3_16 
REMARK    4  A    between atoms: C32_39  and  O6_40 
REMARK    5  A    between atoms: C37_46  and  O8_47 
ROOT
HETATM    1  C4  UNL     1      -6.726  44.475 -31.292  1.00  0.00     0.181 C 
HETATM    2  O1  UNL     1      -7.942  45.044 -31.811  1.00  0.00    -0.370 OA
HETATM    3  C5  UNL     1      -8.610  45.990 -30.940  1.00  0.00     0.163 C 
HETATM    4  C6  UNL     1     -10.009  46.092 -31.520  1.00  0.00     0.036 C 
HETATM    5  C7  UNL     1     -11.012  46.814 -30.623  1.00  0.00     0.016 C 
HETATM    6  C8  UNL     1     -11.102  46.246 -29.185  1.00  0.00     0.008 C 
HETATM    7  C9  UNL     1     -11.476  44.734 -29.275  1.00  0.00     0.020 C 
HETATM    8  C10 UNL     1      -9.648  46.312 -28.577  1.00  0.00     0.103 C 
HETATM    9  C11 UNL     1      -9.664  45.791 -27.126  1.00  0.00     0.047 C 
HETATM   10  C12 UNL     1     -10.691  46.433 -26.196  1.00  0.00     0.073 C 
HETATM   11  C13 UNL     1     -11.617  47.482 -26.835  1.00  0.00     0.179 C 
HETATM   12  O4  UNL     1     -12.623  47.871 -25.886  1.00  0.00    -0.320 OA
HETATM   13  C14 UNL     1     -13.658  46.923 -25.588  1.00  0.00     0.302 C 
HETATM   14  O5  UNL     1     -13.198  45.972 -24.639  1.00  0.00    -0.346 OA
HETATM   15  C15 UNL     1     -13.963  45.785 -23.434  1.00  0.00     0.064 C 
HETATM   16  C16 UNL     1     -13.066  44.870 -22.579  1.00  0.00     0.046 C 
HETATM   17  C17 UNL     1     -14.147  47.080 -22.643  1.00  0.00     0.046 C 
HETATM   18  C18 UNL     1     -15.255  45.020 -23.739  1.00  0.00     0.060 C 
HETATM   19  C19 UNL     1     -16.296  44.823 -22.617  1.00  0.00     0.023 C 
HETATM   20  C20 UNL     1     -17.420  44.833 -23.671  1.00  0.00     0.054 C 
HETATM   21  C21 UNL     1     -17.956  43.552 -24.222  1.00  0.00    -0.077 C 
HETATM   22  C22 UNL     1     -18.099  42.465 -23.442  1.00  0.00     0.015 C 
HETATM   23  C23 UNL     1     -18.402  43.583 -25.670  1.00  0.00     0.074 C 
HETATM   24  C24 UNL     1     -17.348  44.109 -26.630  1.00  0.00    -0.022 A 
HETATM   25  C25 UNL     1     -17.315  43.726 -27.975  1.00  0.00     0.043 A 
HETATM   26 CL1  UNL     1     -18.498  42.641 -28.620  1.00  0.00    -0.084 Cl
HETATM   27  C26 UNL     1     -16.341  44.213 -28.854  1.00  0.00     0.054 A 
HETATM   28  C27 UNL     1     -15.367  45.072 -28.327  1.00  0.00     0.045 A 
HETATM   29  N1  UNL     1     -14.304  45.689 -28.954  1.00  0.00    -0.357 N 
HETATM   30  C28 UNL     1     -13.508  46.309 -28.036  1.00  0.00     0.036 C 
HETATM   31  C29 UNL     1     -14.166  46.249 -26.817  1.00  0.00     0.033 C 
HETATM   32  C30 UNL     1     -15.346  45.464 -26.986  1.00  0.00     0.014 A 
HETATM   33  C31 UNL     1     -16.397  45.040 -26.136  1.00  0.00    -0.001 A 
HETATM   34  C32 UNL     1     -16.418  45.581 -24.649  1.00  0.00     0.100 C 
HETATM   35  C33 UNL     1     -12.204  47.083 -28.290  1.00  0.00     0.066 C 
HETATM   36  C34 UNL     1     -12.681  48.423 -28.971  1.00  0.00     0.028 C 
HETATM   37  C35 UNL     1      -8.631  45.581 -29.472  1.00  0.00     0.147 A 
HETATM   38  O7  UNL     1      -7.310  45.658 -28.858  1.00  0.00    -0.360 OA
HETATM   39  C36 UNL     1      -7.839  44.360 -29.049  1.00  0.00     0.194 A 
HETATM   40  C37 UNL     1      -7.165  43.547 -30.125  1.00  0.00     0.183 C 
HETATM   41  H37 UNL     1     -14.123  45.623 -29.944  1.00  0.00     0.166 HD
ENDROOT
BRANCH   1  42
HETATM   42  C2  UNL     1      -6.009  43.839 -32.476  1.00  0.00    -0.062 C 
HETATM   43  C1  UNL     1      -6.584  43.026 -33.390  1.00  0.00     0.016 C 
HETATM   44  C3  UNL     1      -4.540  44.147 -32.591  1.00  0.00     0.045 C 
ENDBRANCH   1  42
BRANCH  40  45
HETATM   45  O8  UNL     1      -8.141  42.589 -30.589  1.00  0.00    -0.390 OA
HETATM   46  H44 UNL     1      -8.544  43.011 -31.374  1.00  0.00     0.210 HD
ENDBRANCH  40  45
BRANCH   8  47
HETATM   47  O2  UNL     1      -9.178  47.651 -28.538  1.00  0.00    -0.386 OA
HETATM   48  H15 UNL     1      -8.238  47.621 -28.271  1.00  0.00     0.210 HD
ENDBRANCH   8  47
BRANCH  11  49
HETATM   49  O3  UNL     1     -10.879  48.709 -26.996  1.00  0.00    -0.364 OA
HETATM   50  H20 UNL     1      -9.989  48.591 -26.648  1.00  0.00     0.213 HD
ENDBRANCH  11  49
BRANCH  34  51
HETATM   51  O6  UNL     1     -16.618  47.018 -24.619  1.00  0.00    -0.384 OA
HETATM   52  H38 UNL     1     -17.419  47.141 -25.155  1.00  0.00     0.211 HD
ENDBRANCH  34  51
TORSDOF 5
ENDMDL
MODEL 8
REMARK minimizedAffinity -9.44540501
REMARK CNNscore 0.431474805
REMARK CNNaffinity 7.21089029
REMARK  5 active torsions:
REMARK  status: ('A' for Active; 'I' for Inactive)
REMARK    1  A    between atoms: C2_2  and  C4_4 
REMARK    2  A    between atoms: C10_11  and  O2_12 
REMARK    3  A    between atoms: C13_15  and  O3_16 
REMARK    4  A    between atoms: C32_39  and  O6_40 
REMARK    5  A    between atoms: C37_46  and  O8_47 
ROOT
HETATM    1  C4  UNL     1      -4.639  41.108 -16.963  1.00  0.00     0.181 C 
HETATM    2  O1  UNL     1      -4.794  42.347 -16.248  1.00  0.00    -0.370 OA
HETATM    3  C5  UNL     1      -5.501  43.394 -16.959  1.00  0.00     0.163 C 
HETATM    4  C6  UNL     1      -5.155  44.654 -16.188  1.00  0.00     0.036 C 
HETATM    5  C7  UNL     1      -5.545  45.952 -16.892  1.00  0.00     0.016 C 
HETATM    6  C8  UNL     1      -5.002  46.078 -18.337  1.00  0.00     0.008 C 
HETATM    7  C9  UNL     1      -3.447  45.957 -18.291  1.00  0.00     0.020 C 
HETATM    8  C10 UNL     1      -5.525  44.821 -19.133  1.00  0.00     0.103 C 
HETATM    9  C11 UNL     1      -5.050  44.894 -20.597  1.00  0.00     0.047 C 
HETATM   10  C12 UNL     1      -5.357  46.195 -21.337  1.00  0.00     0.073 C 
HETATM   11  C13 UNL     1      -6.056  47.290 -20.513  1.00  0.00     0.179 C 
HETATM   12  O4  UNL     1      -6.131  48.496 -21.289  1.00  0.00    -0.320 OA
HETATM   13  C14 UNL     1      -4.914  49.226 -21.501  1.00  0.00     0.302 C 
HETATM   14  O5  UNL     1      -4.168  48.646 -22.562  1.00  0.00    -0.346 OA
HETATM   15  C15 UNL     1      -3.775  49.489 -23.660  1.00  0.00     0.064 C 
HETATM   16  C16 UNL     1      -3.198  48.494 -24.685  1.00  0.00     0.046 C 
HETATM   17  C17 UNL     1      -4.962  50.174 -24.336  1.00  0.00     0.046 C 
HETATM   18  C18 UNL     1      -2.641  50.426 -23.229  1.00  0.00     0.060 C 
HETATM   19  C19 UNL     1      -2.150  51.513 -24.208  1.00  0.00     0.023 C 
HETATM   20  C20 UNL     1      -1.794  52.417 -23.011  1.00  0.00     0.054 C 
HETATM   21  C21 UNL     1      -0.400  52.449 -22.473  1.00  0.00    -0.077 C 
HETATM   22  C22 UNL     1       0.664  52.369 -23.293  1.00  0.00     0.015 C 
HETATM   23  C23 UNL     1      -0.267  52.662 -20.979  1.00  0.00     0.074 C 
HETATM   24  C24 UNL     1      -1.077  51.687 -20.141  1.00  0.00    -0.022 A 
HETATM   25  C25 UNL     1      -0.700  51.338 -18.840  1.00  0.00     0.043 A 
HETATM   26 CL1  UNL     1       0.708  52.024 -18.108  1.00  0.00    -0.084 Cl
HETATM   27  C26 UNL     1      -1.451  50.439 -18.074  1.00  0.00     0.054 A 
HETATM   28  C27 UNL     1      -2.578  49.862 -18.675  1.00  0.00     0.045 A 
HETATM   29  N1  UNL     1      -3.483  48.955 -18.162  1.00  0.00    -0.357 N 
HETATM   30  C28 UNL     1      -4.335  48.533 -19.140  1.00  0.00     0.036 C 
HETATM   31  C29 UNL     1      -4.095  49.315 -20.259  1.00  0.00     0.033 C 
HETATM   32  C30 UNL     1      -2.980  50.161 -19.979  1.00  0.00     0.014 A 
HETATM   33  C31 UNL     1      -2.265  51.148 -20.702  1.00  0.00    -0.001 A 
HETATM   34  C32 UNL     1      -2.798  51.555 -22.135  1.00  0.00     0.100 C 
HETATM   35  C33 UNL     1      -5.471  47.503 -19.019  1.00  0.00     0.066 C 
HETATM   36  C34 UNL     1      -6.585  48.258 -18.197  1.00  0.00     0.028 C 
HETATM   37  C35 UNL     1      -5.130  43.508 -18.433  1.00  0.00     0.147 A 
HETATM   38  O7  UNL     1      -5.624  42.380 -19.215  1.00  0.00    -0.360 OA
HETATM   39  C36 UNL     1      -4.223  42.455 -19.036  1.00  0.00     0.194 A 
HETATM   40  C37 UNL     1      -3.640  41.413 -18.114  1.00  0.00     0.183 C 
HETATM   41  H37 UNL     1      -3.460  48.617 -17.213  1.00  0.00     0.166 HD
ENDROOT
BRANCH   1  42
HETATM   42  C2  UNL     1      -4.236  40.062 -15.930  1.00  0.00    -0.062 C 
HETATM   43  C1  UNL     1      -5.011  39.035 -15.520  1.00  0.00     0.016 C 
HETATM   44  C3  UNL     1      -2.867  40.234 -15.329  1.00  0.00     0.045 C 
ENDBRANCH   1  42
BRANCH  40  45
HETATM   45  O8  UNL     1      -2.420  41.970 -17.582  1.00  0.00    -0.390 OA
HETATM   46  H44 UNL     1      -2.682  42.360 -16.724  1.00  0.00     0.210 HD
ENDBRANCH  40  45
BRANCH   8  47
HETATM   47  O2  UNL     1      -6.945  44.792 -19.153  1.00  0.00    -0.386 OA
HETATM   48  H15 UNL     1      -7.212  43.938 -19.547  1.00  0.00     0.210 HD
ENDBRANCH   8  47
BRANCH  11  49
HETATM   49  O3  UNL     1      -7.450  46.944 -20.378  1.00  0.00    -0.364 OA
HETATM   50  H20 UNL     1      -7.619  46.123 -20.852  1.00  0.00     0.213 HD
ENDBRANCH  11  49
BRANCH  34  51
HETATM   51  O6  UNL     1      -4.103  52.185 -22.048  1.00  0.00    -0.384 OA
HETATM   52  H38 UNL     1      -3.963  52.896 -21.401  1.00  0.00     0.211 HD
ENDBRANCH  34  51
TORSDOF 5
ENDMDL
MODEL 9
REMARK minimizedAffinity -9.03550339
REMARK CNNscore 0.426079005
REMARK CNNaffinity 6.52679253
REMARK  5 active torsions:
REMARK  status: ('A' for Active; 'I' for Inactive)
REMARK    1  A    between atoms: C2_2  and  C4_4 
REMARK    2  A    between atoms: C10_11  and  O2_12 
REMARK    3  A    between atoms: C13_15  and  O3_16 
REMARK    4  A    between atoms: C32_39  and  O6_40 
REMARK    5  A    between atoms: C37_46  and  O8_47 
ROOT
HETATM    1  C4  UNL     1      -7.941  46.199 -31.732  1.00  0.00     0.181 C 
HETATM    2  O1  UNL     1      -8.971  45.798 -30.811  1.00  0.00    -0.370 OA
HETATM    3  C5  UNL     1      -9.069  46.590 -29.601  1.00  0.00     0.163 C 
HETATM    4  C6  UNL     1      -9.898  45.726 -28.668  1.00  0.00     0.036 C 
HETATM    5  C7  UNL     1      -9.918  46.203 -27.218  1.00  0.00     0.016 C 
HETATM    6  C8  UNL     1      -8.513  46.409 -26.598  1.00  0.00     0.008 C 
HETATM    7  C9  UNL     1      -7.729  45.063 -26.696  1.00  0.00     0.020 C 
HETATM    8  C10 UNL     1      -7.754  47.437 -27.523  1.00  0.00     0.103 C 
HETATM    9  C11 UNL     1      -6.351  47.720 -26.949  1.00  0.00     0.047 C 
HETATM   10  C12 UNL     1      -6.301  48.141 -25.481  1.00  0.00     0.073 C 
HETATM   11  C13 UNL     1      -7.651  48.180 -24.745  1.00  0.00     0.179 C 
HETATM   12  O4  UNL     1      -7.425  48.432 -23.349  1.00  0.00    -0.320 OA
HETATM   13  C14 UNL     1      -6.860  47.372 -22.565  1.00  0.00     0.302 C 
HETATM   14  O5  UNL     1      -5.451  47.328 -22.737  1.00  0.00    -0.346 OA
HETATM   15  C15 UNL     1      -4.618  47.386 -21.563  1.00  0.00     0.064 C 
HETATM   16  C16 UNL     1      -3.198  47.534 -22.141  1.00  0.00     0.046 C 
HETATM   17  C17 UNL     1      -4.878  48.631 -20.715  1.00  0.00     0.046 C 
HETATM   18  C18 UNL     1      -4.678  46.057 -20.803  1.00  0.00     0.060 C 
HETATM   19  C19 UNL     1      -3.966  45.937 -19.440  1.00  0.00     0.023 C 
HETATM   20  C20 UNL     1      -5.028  44.914 -18.987  1.00  0.00     0.054 C 
HETATM   21  C21 UNL     1      -4.769  43.448 -19.109  1.00  0.00    -0.077 C 
HETATM   22  C22 UNL     1      -3.545  42.936 -18.885  1.00  0.00     0.015 C 
HETATM   23  C23 UNL     1      -5.975  42.581 -19.412  1.00  0.00     0.074 C 
HETATM   24  C24 UNL     1      -6.767  43.028 -20.630  1.00  0.00    -0.022 A 
HETATM   25  C25 UNL     1      -7.524  42.130 -21.390  1.00  0.00     0.043 A 
HETATM   26 CL1  UNL     1      -7.612  40.457 -20.962  1.00  0.00    -0.084 Cl
HETATM   27  C26 UNL     1      -8.251  42.547 -22.511  1.00  0.00     0.054 A 
HETATM   28  C27 UNL     1      -8.159  43.898 -22.874  1.00  0.00     0.045 A 
HETATM   29  N1  UNL     1      -8.757  44.572 -23.919  1.00  0.00    -0.357 N 
HETATM   30  C28 UNL     1      -8.269  45.843 -24.004  1.00  0.00     0.036 C 
HETATM   31  C29 UNL     1      -7.478  46.053 -22.884  1.00  0.00     0.033 C 
HETATM   32  C30 UNL     1      -7.398  44.826 -22.159  1.00  0.00     0.014 A 
HETATM   33  C31 UNL     1      -6.751  44.405 -20.972  1.00  0.00    -0.001 A 
HETATM   34  C32 UNL     1      -5.983  45.492 -20.115  1.00  0.00     0.100 C 
HETATM   35  C33 UNL     1      -8.629  46.923 -25.037  1.00  0.00     0.066 C 
HETATM   36  C34 UNL     1     -10.083  47.374 -24.628  1.00  0.00     0.028 C 
HETATM   37  C35 UNL     1      -7.724  46.962 -28.987  1.00  0.00     0.147 A 
HETATM   38  O7  UNL     1      -7.000  47.937 -29.794  1.00  0.00    -0.360 OA
HETATM   39  C36 UNL     1      -6.460  46.630 -29.755  1.00  0.00     0.194 A 
HETATM   40  C37 UNL     1      -6.597  45.844 -31.035  1.00  0.00     0.183 C 
HETATM   41  H37 UNL     1      -9.411  44.147 -24.558  1.00  0.00     0.166 HD
ENDROOT
BRANCH   1  42
HETATM   42  C2  UNL     1      -8.257  45.515 -33.056  1.00  0.00    -0.062 C 
HETATM   43  C1  UNL     1      -8.462  44.190 -33.219  1.00  0.00     0.016 C 
HETATM   44  C3  UNL     1      -8.317  46.420 -34.258  1.00  0.00     0.045 C 
ENDBRANCH   1  42
BRANCH  40  45
HETATM   45  O8  UNL     1      -6.580  44.449 -30.665  1.00  0.00    -0.390 OA
HETATM   46  H44 UNL     1      -7.524  44.203 -30.593  1.00  0.00     0.210 HD
ENDBRANCH  40  45
BRANCH   8  47
HETATM   47  O2  UNL     1      -8.445  48.676 -27.573  1.00  0.00    -0.386 OA
HETATM   48  H15 UNL     1      -8.003  49.228 -28.249  1.00  0.00     0.210 HD
ENDBRANCH   8  47
BRANCH  11  49
HETATM   49  O3  UNL     1      -8.359  49.371 -25.145  1.00  0.00    -0.364 OA
HETATM   50  H20 UNL     1      -7.814  49.871 -25.760  1.00  0.00     0.213 HD
ENDBRANCH  11  49
BRANCH  34  51
HETATM   51  O6  UNL     1      -6.902  46.480 -19.579  1.00  0.00    -0.384 OA
HETATM   52  H38 UNL     1      -7.569  45.938 -19.126  1.00  0.00     0.211 HD
ENDBRANCH  34  51
TORSDOF 5
ENDMDL
