MODEL 1
REMARK minimizedAffinity -8.51269817
REMARK  9 active torsions:
REMARK  status: ('A' for Active; 'I' for Inactive)
REMARK    1  A    between atoms: C2_2  and  C3_3 
REMARK    2  A    between atoms: C3_3  and  N1_4 
REMARK    3  A    between atoms: N1_4  and  C4_5 
REMARK    4  A    between atoms: C4_5  and  C5_6 
REMARK    5  A    between atoms: C7_8  and  O1_9 
REMARK    6  A    between atoms: C25_28  and  N2_29 
REMARK    7  A    between atoms: C25_28  and  C26_30 
REMARK    8  A    between atoms: C26_30  and  C27_31 
REMARK    9  A    between atoms: C27_31  and  O3_32 
ROOT
HETATM    1  C5  UNL     1       0.099   8.386  13.327  1.00  0.00    -0.021 A 
HETATM    2  C6  UNL     1       0.601   8.750  12.062  1.00  0.00     0.045 A 
HETATM    3  C7  UNL     1       0.309   8.009  10.929  1.00  0.00     0.066 A 
HETATM    4  C8  UNL     1      -0.442   6.850  11.016  1.00  0.00     0.045 A 
HETATM    5  C9  UNL     1      -0.925   6.403  12.261  1.00  0.00    -0.037 A 
HETATM    6  C10 UNL     1      -0.689   7.197  13.435  1.00  0.00    -0.042 A 
HETATM    7  C11 UNL     1      -1.360   6.845  14.775  1.00  0.00     0.044 C 
HETATM    8  C12 UNL     1      -2.814   7.361  14.778  1.00  0.00    -0.010 C 
HETATM    9  C13 UNL     1      -3.171   8.511  15.732  1.00  0.00     0.005 C 
HETATM   10  C14 UNL     1      -4.625   8.987  15.495  1.00  0.00     0.001 C 
HETATM   11  C15 UNL     1      -5.674   7.864  15.323  1.00  0.00     0.007 C 
HETATM   12  C16 UNL     1      -5.142   6.741  14.408  1.00  0.00     0.022 C 
HETATM   13  C17 UNL     1      -3.837   6.247  15.053  1.00  0.00     0.012 C 
HETATM   14  C18 UNL     1      -6.147   5.656  13.948  1.00  0.00     0.082 C 
HETATM   15  C19 UNL     1      -6.949   5.016  15.101  1.00  0.00     0.040 C 
HETATM   16  C20 UNL     1      -7.907   3.961  14.515  1.00  0.00     0.013 C 
HETATM   17  C21 UNL     1      -7.936   4.083  12.958  1.00  0.00     0.059 C 
HETATM   18  C22 UNL     1      -8.215   5.593  12.645  1.00  0.00     0.061 C 
HETATM   19  C23 UNL     1      -8.436   5.928  11.158  1.00  0.00     0.046 C 
HETATM   20  C24 UNL     1      -9.475   6.127  13.367  1.00  0.00     0.046 C 
HETATM   21  O2  UNL     1      -7.085   6.365  13.092  1.00  0.00    -0.368 OA
HETATM   22  C25 UNL     1      -6.533   3.619  12.387  1.00  0.00     0.180 C 
HETATM   23  C28 UNL     1      -5.469   4.461  13.162  1.00  0.00     0.139 C 
HETATM   24  C29 UNL     1      -4.228   4.809  12.413  1.00  0.00    -0.096 C 
HETATM   25  C30 UNL     1      -3.062   4.996  12.180  1.00  0.00    -0.101 C 
HETATM   26  C31 UNL     1      -1.588   5.034  12.252  1.00  0.00     0.133 C 
ENDROOT
BRANCH  22  27
HETATM   27  N2  UNL     1      -6.513   3.789  10.921  1.00  0.00     0.090 N 
HETATM   28  H37 UNL     1      -6.045   4.665  10.681  1.00  0.00     0.313 HD
HETATM   29  H38 UNL     1      -5.930   3.062  10.491  1.00  0.00     0.313 HD
ENDBRANCH  22  27
BRANCH  22  30
HETATM   30  C26 UNL     1      -6.318   2.079  12.620  1.00  0.00     0.069 C 
BRANCH  30  31
HETATM   31  C27 UNL     1      -5.874   1.246  11.410  1.00  0.00     0.166 C 
BRANCH  31  32
HETATM   32  O3  UNL     1      -4.468   1.289  11.214  1.00  0.00    -0.401 OA
HETATM   33  H43 UNL     1      -4.112   0.427  11.499  1.00  0.00     0.209 HD
ENDBRANCH  31  32
ENDBRANCH  30  31
ENDBRANCH  22  30
BRANCH   3  34
HETATM   34  O1  UNL     1       0.807   8.446   9.737  1.00  0.00    -0.361 OA
HETATM   35  H12 UNL     1       0.474   7.870   9.031  1.00  0.00     0.217 HD
ENDBRANCH   3  34
BRANCH   1  36
HETATM   36  C4  UNL     1       0.483   9.198  14.560  1.00  0.00     0.308 C 
BRANCH  36  37
HETATM   37  N1  UNL     1       0.474  10.660  14.450  1.00  0.00     0.087 N 
HETATM   38  H8  UNL     1       0.717  10.951  13.507  1.00  0.00     0.316 HD
BRANCH  37  39
HETATM   39  C3  UNL     1      -0.783  11.261  14.892  1.00  0.00     0.269 C 
BRANCH  39  40
HETATM   40  C2  UNL     1      -0.607  11.976  16.236  1.00  0.00     0.025 C 
HETATM   41  C1  UNL     1      -1.334  11.293  17.386  1.00  0.00     0.007 C 
ENDBRANCH  39  40
ENDBRANCH  37  39
ENDBRANCH  36  37
ENDBRANCH   1  36
TORSDOF 9
ENDMDL
MODEL 2
REMARK minimizedAffinity -8.33507729
REMARK  9 active torsions:
REMARK  status: ('A' for Active; 'I' for Inactive)
REMARK    1  A    between atoms: C2_2  and  C3_3 
REMARK    2  A    between atoms: C3_3  and  N1_4 
REMARK    3  A    between atoms: N1_4  and  C4_5 
REMARK    4  A    between atoms: C4_5  and  C5_6 
REMARK    5  A    between atoms: C7_8  and  O1_9 
REMARK    6  A    between atoms: C25_28  and  N2_29 
REMARK    7  A    between atoms: C25_28  and  C26_30 
REMARK    8  A    between atoms: C26_30  and  C27_31 
REMARK    9  A    between atoms: C27_31  and  O3_32 
ROOT
HETATM    1  C5  UNL     1      -3.080   7.444  15.584  1.00  0.00    -0.021 A 
HETATM    2  C6  UNL     1      -3.511   8.772  15.774  1.00  0.00     0.045 A 
HETATM    3  C7  UNL     1      -2.639   9.840  15.643  1.00  0.00     0.066 A 
HETATM    4  C8  UNL     1      -1.298   9.629  15.375  1.00  0.00     0.045 A 
HETATM    5  C9  UNL     1      -0.795   8.322  15.230  1.00  0.00    -0.037 A 
HETATM    6  C10 UNL     1      -1.699   7.207  15.295  1.00  0.00    -0.042 A 
HETATM    7  C11 UNL     1      -1.224   5.783  14.951  1.00  0.00     0.044 C 
HETATM    8  C12 UNL     1      -1.189   5.604  13.420  1.00  0.00    -0.010 C 
HETATM    9  C13 UNL     1      -2.200   4.638  12.782  1.00  0.00     0.005 C 
HETATM   10  C14 UNL     1      -2.112   4.695  11.238  1.00  0.00     0.001 C 
HETATM   11  C15 UNL     1      -0.680   4.703  10.652  1.00  0.00     0.007 C 
HETATM   12  C16 UNL     1       0.240   5.653  11.446  1.00  0.00     0.022 C 
HETATM   13  C17 UNL     1       0.193   5.172  12.906  1.00  0.00     0.012 C 
HETATM   14  C18 UNL     1       1.639   5.954  10.855  1.00  0.00     0.082 C 
HETATM   15  C19 UNL     1       2.442   4.692  10.474  1.00  0.00     0.040 C 
HETATM   16  C20 UNL     1       3.806   5.124   9.901  1.00  0.00     0.013 C 
HETATM   17  C21 UNL     1       3.808   6.667   9.654  1.00  0.00     0.059 C 
HETATM   18  C22 UNL     1       2.521   6.976   8.816  1.00  0.00     0.061 C 
HETATM   19  C23 UNL     1       2.388   8.428   8.323  1.00  0.00     0.046 C 
HETATM   20  C24 UNL     1       2.421   6.108   7.539  1.00  0.00     0.046 C 
HETATM   21  O2  UNL     1       1.370   6.697   9.634  1.00  0.00    -0.368 OA
HETATM   22  C25 UNL     1       3.783   7.404  11.056  1.00  0.00     0.180 C 
HETATM   23  C28 UNL     1       2.567   6.794  11.824  1.00  0.00     0.139 C 
HETATM   24  C29 UNL     1       1.853   7.705  12.763  1.00  0.00    -0.096 C 
HETATM   25  C30 UNL     1       1.281   8.092  13.750  1.00  0.00    -0.101 C 
HETATM   26  C31 UNL     1       0.717   8.213  15.109  1.00  0.00     0.133 C 
ENDROOT
BRANCH  22  27
HETATM   27  N2  UNL     1       3.717   8.864  10.847  1.00  0.00     0.090 N 
HETATM   28  H37 UNL     1       2.750   9.182  10.938  1.00  0.00     0.313 HD
HETATM   29  H38 UNL     1       4.217   9.349  11.601  1.00  0.00     0.313 HD
ENDBRANCH  22  27
BRANCH  22  30
HETATM   30  C26 UNL     1       5.126   7.165  11.837  1.00  0.00     0.069 C 
BRANCH  30  31
HETATM   31  C27 UNL     1       6.392   7.816  11.263  1.00  0.00     0.166 C 
BRANCH  31  32
HETATM   32  O3  UNL     1       7.181   6.896  10.522  1.00  0.00    -0.401 OA
HETATM   33  H43 UNL     1       7.061   7.110   9.578  1.00  0.00     0.209 HD
ENDBRANCH  31  32
ENDBRANCH  30  31
ENDBRANCH  22  30
BRANCH   3  34
HETATM   34  O1  UNL     1      -3.143  11.096  15.812  1.00  0.00    -0.361 OA
HETATM   35  H12 UNL     1      -2.439  11.739  15.631  1.00  0.00     0.217 HD
ENDBRANCH   3  34
BRANCH   1  36
HETATM   36  C4  UNL     1      -4.057   6.290  15.786  1.00  0.00     0.308 C 
BRANCH  36  37
HETATM   37  N1  UNL     1      -5.485   6.608  15.886  1.00  0.00     0.087 N 
HETATM   38  H8  UNL     1      -5.622   7.498  16.358  1.00  0.00     0.316 HD
BRANCH  37  39
HETATM   39  C3  UNL     1      -6.174   6.571  14.597  1.00  0.00     0.269 C 
BRANCH  39  40
HETATM   40  C2  UNL     1      -5.538   5.533  13.666  1.00  0.00     0.025 C 
HETATM   41  C1  UNL     1      -6.460   4.367  13.339  1.00  0.00     0.007 C 
ENDBRANCH  39  40
ENDBRANCH  37  39
ENDBRANCH  36  37
ENDBRANCH   1  36
TORSDOF 9
ENDMDL
MODEL 3
REMARK minimizedAffinity -8.22898293
REMARK  9 active torsions:
REMARK  status: ('A' for Active; 'I' for Inactive)
REMARK    1  A    between atoms: C2_2  and  C3_3 
REMARK    2  A    between atoms: C3_3  and  N1_4 
REMARK    3  A    between atoms: N1_4  and  C4_5 
REMARK    4  A    between atoms: C4_5  and  C5_6 
REMARK    5  A    between atoms: C7_8  and  O1_9 
REMARK    6  A    between atoms: C25_28  and  N2_29 
REMARK    7  A    between atoms: C25_28  and  C26_30 
REMARK    8  A    between atoms: C26_30  and  C27_31 
REMARK    9  A    between atoms: C27_31  and  O3_32 
ROOT
HETATM    1  C5  UNL     1      -2.653   6.940  13.873  1.00  0.00    -0.021 A 
HETATM    2  C6  UNL     1      -3.385   7.967  14.500  1.00  0.00     0.045 A 
HETATM    3  C7  UNL     1      -2.792   8.821  15.415  1.00  0.00     0.066 A 
HETATM    4  C8  UNL     1      -1.469   8.654  15.784  1.00  0.00     0.045 A 
HETATM    5  C9  UNL     1      -0.700   7.610  15.235  1.00  0.00    -0.037 A 
HETATM    6  C10 UNL     1      -1.281   6.759  14.234  1.00  0.00    -0.042 A 
HETATM    7  C11 UNL     1      -0.420   5.733  13.472  1.00  0.00     0.044 C 
HETATM    8  C12 UNL     1       0.359   6.445  12.347  1.00  0.00    -0.010 C 
HETATM    9  C13 UNL     1      -0.017   6.123  10.893  1.00  0.00     0.005 C 
HETATM   10  C14 UNL     1       0.764   7.029   9.912  1.00  0.00     0.001 C 
HETATM   11  C15 UNL     1       2.268   7.210  10.225  1.00  0.00     0.007 C 
HETATM   12  C16 UNL     1       2.497   7.441  11.734  1.00  0.00     0.022 C 
HETATM   13  C17 UNL     1       1.877   6.230  12.450  1.00  0.00     0.012 C 
HETATM   14  C18 UNL     1       3.916   7.869  12.185  1.00  0.00     0.082 C 
HETATM   15  C19 UNL     1       5.043   6.961  11.647  1.00  0.00     0.040 C 
HETATM   16  C20 UNL     1       6.396   7.490  12.164  1.00  0.00     0.013 C 
HETATM   17  C21 UNL     1       6.195   8.892  12.822  1.00  0.00     0.059 C 
HETATM   18  C22 UNL     1       5.413   9.758  11.776  1.00  0.00     0.061 C 
HETATM   19  C23 UNL     1       5.230  11.239  12.151  1.00  0.00     0.046 C 
HETATM   20  C24 UNL     1       6.099   9.777  10.390  1.00  0.00     0.046 C 
HETATM   21  O2  UNL     1       4.098   9.193  11.615  1.00  0.00    -0.368 OA
HETATM   22  C25 UNL     1       5.371   8.710  14.163  1.00  0.00     0.180 C 
HETATM   23  C28 UNL     1       4.092   7.910  13.758  1.00  0.00     0.139 C 
HETATM   24  C29 UNL     1       2.854   8.205  14.533  1.00  0.00    -0.096 C 
HETATM   25  C30 UNL     1       1.823   8.029  15.130  1.00  0.00    -0.101 C 
HETATM   26  C31 UNL     1       0.681   7.425  15.844  1.00  0.00     0.133 C 
ENDROOT
BRANCH  22  27
HETATM   27  N2  UNL     1       5.112  10.031  14.769  1.00  0.00     0.090 N 
HETATM   28  H37 UNL     1       4.172  10.346  14.521  1.00  0.00     0.313 HD
HETATM   29  H38 UNL     1       5.093   9.949  15.792  1.00  0.00     0.313 HD
ENDBRANCH  22  27
BRANCH  22  30
HETATM   30  C26 UNL     1       6.214   7.929  15.235  1.00  0.00     0.069 C 
BRANCH  30  31
HETATM   31  C27 UNL     1       7.386   8.679  15.882  1.00  0.00     0.166 C 
BRANCH  31  32
HETATM   32  O3  UNL     1       8.131   7.852  16.766  1.00  0.00    -0.401 OA
HETATM   33  H43 UNL     1       8.970   7.636  16.317  1.00  0.00     0.209 HD
ENDBRANCH  31  32
ENDBRANCH  30  31
ENDBRANCH  22  30
BRANCH   3  34
HETATM   34  O1  UNL     1      -3.562   9.811  15.953  1.00  0.00    -0.361 OA
HETATM   35  H12 UNL     1      -3.004  10.363  16.523  1.00  0.00     0.217 HD
ENDBRANCH   3  34
BRANCH   1  36
HETATM   36  C4  UNL     1      -3.352   5.987  12.908  1.00  0.00     0.308 C 
BRANCH  36  37
HETATM   37  N1  UNL     1      -4.056   4.831  13.473  1.00  0.00     0.087 N 
HETATM   38  H8  UNL     1      -3.749   4.655  14.426  1.00  0.00     0.316 HD
BRANCH  37  39
HETATM   39  C3  UNL     1      -5.511   4.947  13.387  1.00  0.00     0.269 C 
BRANCH  39  40
HETATM   40  C2  UNL     1      -6.127   3.685  12.776  1.00  0.00     0.025 C 
HETATM   41  C1  UNL     1      -7.422   3.255  13.450  1.00  0.00     0.007 C 
ENDBRANCH  39  40
ENDBRANCH  37  39
ENDBRANCH  36  37
ENDBRANCH   1  36
TORSDOF 9
ENDMDL
MODEL 4
REMARK minimizedAffinity -7.94566965
REMARK  9 active torsions:
REMARK  status: ('A' for Active; 'I' for Inactive)
REMARK    1  A    between atoms: C2_2  and  C3_3 
REMARK    2  A    between atoms: C3_3  and  N1_4 
REMARK    3  A    between atoms: N1_4  and  C4_5 
REMARK    4  A    between atoms: C4_5  and  C5_6 
REMARK    5  A    between atoms: C7_8  and  O1_9 
REMARK    6  A    between atoms: C25_28  and  N2_29 
REMARK    7  A    between atoms: C25_28  and  C26_30 
REMARK    8  A    between atoms: C26_30  and  C27_31 
REMARK    9  A    between atoms: C27_31  and  O3_32 
ROOT
HETATM    1  C5  UNL     1      -2.613   6.303  14.500  1.00  0.00    -0.021 A 
HETATM    2  C6  UNL     1      -3.076   5.005  14.211  1.00  0.00     0.045 A 
HETATM    3  C7  UNL     1      -2.750   4.369  13.025  1.00  0.00     0.066 A 
HETATM    4  C8  UNL     1      -2.002   5.017  12.059  1.00  0.00     0.045 A 
HETATM    5  C9  UNL     1      -1.557   6.336  12.264  1.00  0.00    -0.037 A 
HETATM    6  C10 UNL     1      -1.828   6.984  13.517  1.00  0.00    -0.042 A 
HETATM    7  C11 UNL     1      -1.197   8.348  13.855  1.00  0.00     0.044 C 
HETATM    8  C12 UNL     1       0.255   8.144  14.330  1.00  0.00    -0.010 C 
HETATM    9  C13 UNL     1       0.584   8.445  15.800  1.00  0.00     0.005 C 
HETATM   10  C14 UNL     1       2.044   8.049  16.128  1.00  0.00     0.001 C 
HETATM   11  C15 UNL     1       3.098   8.460  15.073  1.00  0.00     0.007 C 
HETATM   12  C16 UNL     1       2.594   8.175  13.643  1.00  0.00     0.022 C 
HETATM   13  C17 UNL     1       1.270   8.943  13.496  1.00  0.00     0.012 C 
HETATM   14  C18 UNL     1       3.613   8.313  12.484  1.00  0.00     0.082 C 
HETATM   15  C19 UNL     1       4.379   9.653  12.481  1.00  0.00     0.040 C 
HETATM   16  C20 UNL     1       5.355   9.665  11.288  1.00  0.00     0.013 C 
HETATM   17  C21 UNL     1       5.430   8.238  10.656  1.00  0.00     0.059 C 
HETATM   18  C22 UNL     1       5.719   7.252  11.840  1.00  0.00     0.061 C 
HETATM   19  C23 UNL     1       5.984   5.792  11.431  1.00  0.00     0.046 C 
HETATM   20  C24 UNL     1       6.956   7.667  12.670  1.00  0.00     0.046 C 
HETATM   21  O2  UNL     1       4.575   7.248  12.714  1.00  0.00    -0.368 OA
HETATM   22  C25 UNL     1       4.046   7.920   9.956  1.00  0.00     0.180 C 
HETATM   23  C28 UNL     1       2.959   8.172  11.050  1.00  0.00     0.139 C 
HETATM   24  C29 UNL     1       1.741   7.316  10.982  1.00  0.00    -0.096 C 
HETATM   25  C30 UNL     1       0.582   6.991  11.019  1.00  0.00    -0.101 C 
HETATM   26  C31 UNL     1      -0.893   6.997  11.065  1.00  0.00     0.133 C 
ENDROOT
BRANCH  22  27
HETATM   27  N2  UNL     1       4.070   6.549   9.408  1.00  0.00     0.090 N 
HETATM   28  H37 UNL     1       3.609   5.910  10.059  1.00  0.00     0.313 HD
HETATM   29  H38 UNL     1       3.500   6.502   8.556  1.00  0.00     0.313 HD
ENDBRANCH  22  27
BRANCH  22  30
HETATM   30  C26 UNL     1       3.823   8.852   8.709  1.00  0.00     0.069 C 
BRANCH  30  31
HETATM   31  C27 UNL     1       2.725   8.441   7.719  1.00  0.00     0.166 C 
BRANCH  31  32
HETATM   32  O3  UNL     1       1.489   9.087   7.990  1.00  0.00    -0.401 OA
HETATM   33  H43 UNL     1       1.367   9.771   7.306  1.00  0.00     0.209 HD
ENDBRANCH  31  32
ENDBRANCH  30  31
ENDBRANCH  22  30
BRANCH   3  34
HETATM   34  O1  UNL     1      -3.212   3.099  12.836  1.00  0.00    -0.361 OA
HETATM   35  H12 UNL     1      -2.858   2.761  11.999  1.00  0.00     0.217 HD
ENDBRANCH   3  34
BRANCH   1  36
HETATM   36  C4  UNL     1      -3.034   6.991  15.795  1.00  0.00     0.308 C 
BRANCH  36  37
HETATM   37  N1  UNL     1      -4.299   7.732  15.800  1.00  0.00     0.087 N 
HETATM   38  H8  UNL     1      -4.188   8.634  15.345  1.00  0.00     0.316 HD
BRANCH  37  39
HETATM   39  C3  UNL     1      -5.411   6.974  15.228  1.00  0.00     0.269 C 
BRANCH  39  40
HETATM   40  C2  UNL     1      -6.749   7.665  15.509  1.00  0.00     0.025 C 
HETATM   41  C1  UNL     1      -7.569   6.979  16.592  1.00  0.00     0.007 C 
ENDBRANCH  39  40
ENDBRANCH  37  39
ENDBRANCH  36  37
ENDBRANCH   1  36
TORSDOF 9
ENDMDL
MODEL 5
REMARK minimizedAffinity -7.67198086
REMARK  9 active torsions:
REMARK  status: ('A' for Active; 'I' for Inactive)
REMARK    1  A    between atoms: C2_2  and  C3_3 
REMARK    2  A    between atoms: C3_3  and  N1_4 
REMARK    3  A    between atoms: N1_4  and  C4_5 
REMARK    4  A    between atoms: C4_5  and  C5_6 
REMARK    5  A    between atoms: C7_8  and  O1_9 
REMARK    6  A    between atoms: C25_28  and  N2_29 
REMARK    7  A    between atoms: C25_28  and  C26_30 
REMARK    8  A    between atoms: C26_30  and  C27_31 
REMARK    9  A    between atoms: C27_31  and  O3_32 
ROOT
HETATM    1  C5  UNL     1      -5.097   4.789  12.922  1.00  0.00    -0.021 A 
HETATM    2  C6  UNL     1      -6.419   4.821  12.437  1.00  0.00     0.045 A 
HETATM    3  C7  UNL     1      -7.363   5.681  12.972  1.00  0.00     0.066 A 
HETATM    4  C8  UNL     1      -7.049   6.498  14.043  1.00  0.00     0.045 A 
HETATM    5  C9  UNL     1      -5.760   6.471  14.609  1.00  0.00    -0.037 A 
HETATM    6  C10 UNL     1      -4.750   5.635  14.022  1.00  0.00    -0.042 A 
HETATM    7  C11 UNL     1      -3.285   5.719  14.488  1.00  0.00     0.044 C 
HETATM    8  C12 UNL     1      -2.600   6.931  13.825  1.00  0.00    -0.010 C 
HETATM    9  C13 UNL     1      -1.495   6.661  12.792  1.00  0.00     0.005 C 
HETATM   10  C14 UNL     1      -1.027   7.981  12.133  1.00  0.00     0.001 C 
HETATM   11  C15 UNL     1      -0.809   9.168  13.100  1.00  0.00     0.007 C 
HETATM   12  C16 UNL     1      -1.953   9.262  14.131  1.00  0.00     0.022 C 
HETATM   13  C17 UNL     1      -1.993   7.903  14.850  1.00  0.00     0.012 C 
HETATM   14  C18 UNL     1      -2.011  10.526  15.024  1.00  0.00     0.082 C 
HETATM   15  C19 UNL     1      -0.679  10.852  15.733  1.00  0.00     0.040 C 
HETATM   16  C20 UNL     1      -0.866  12.123  16.584  1.00  0.00     0.013 C 
HETATM   17  C21 UNL     1      -2.235  12.791  16.237  1.00  0.00     0.059 C 
HETATM   18  C22 UNL     1      -2.268  12.933  14.677  1.00  0.00     0.061 C 
HETATM   19  C23 UNL     1      -3.472  13.708  14.110  1.00  0.00     0.046 C 
HETATM   20  C24 UNL     1      -1.024  13.663  14.120  1.00  0.00     0.046 C 
HETATM   21  O2  UNL     1      -2.304  11.612  14.103  1.00  0.00    -0.368 OA
HETATM   22  C25 UNL     1      -3.402  11.858  16.763  1.00  0.00     0.180 C 
HETATM   23  C28 UNL     1      -3.110  10.447  16.160  1.00  0.00     0.139 C 
HETATM   24  C29 UNL     1      -4.298   9.604  15.844  1.00  0.00    -0.096 C 
HETATM   25  C30 UNL     1      -5.005   8.633  15.753  1.00  0.00    -0.101 C 
HETATM   26  C31 UNL     1      -5.588   7.283  15.883  1.00  0.00     0.133 C 
ENDROOT
BRANCH  22  27
HETATM   27  N2  UNL     1      -4.707  12.436  16.388  1.00  0.00     0.090 N 
HETATM   28  H37 UNL     1      -5.056  11.981  15.542  1.00  0.00     0.313 HD
HETATM   29  H38 UNL     1      -5.408  12.215  17.104  1.00  0.00     0.313 HD
ENDBRANCH  22  27
BRANCH  22  30
HETATM   30  C26 UNL     1      -3.415  11.812  18.335  1.00  0.00     0.069 C 
BRANCH  30  31
HETATM   31  C27 UNL     1      -2.613  10.689  19.006  1.00  0.00     0.166 C 
BRANCH  31  32
HETATM   32  O3  UNL     1      -3.434   9.591  19.379  1.00  0.00    -0.401 OA
HETATM   33  H43 UNL     1      -3.254   8.870  18.747  1.00  0.00     0.209 HD
ENDBRANCH  31  32
ENDBRANCH  30  31
ENDBRANCH  22  30
BRANCH   3  34
HETATM   34  O1  UNL     1      -8.613   5.675  12.424  1.00  0.00    -0.361 OA
HETATM   35  H12 UNL     1      -9.144   6.363  12.854  1.00  0.00     0.217 HD
ENDBRANCH   3  34
BRANCH   1  36
HETATM   36  C4  UNL     1      -4.097   3.793  12.341  1.00  0.00     0.308 C 
BRANCH  36  37
HETATM   37  N1  UNL     1      -3.857   3.825  10.895  1.00  0.00     0.087 N 
HETATM   38  H8  UNL     1      -4.188   4.700  10.495  1.00  0.00     0.316 HD
BRANCH  37  39
HETATM   39  C3  UNL     1      -2.463   3.564  10.539  1.00  0.00     0.269 C 
BRANCH  39  40
HETATM   40  C2  UNL     1      -1.677   3.043  11.747  1.00  0.00     0.025 C 
HETATM   41  C1  UNL     1      -0.189   3.355  11.683  1.00  0.00     0.007 C 
ENDBRANCH  39  40
ENDBRANCH  37  39
ENDBRANCH  36  37
ENDBRANCH   1  36
TORSDOF 9
ENDMDL
MODEL 6
REMARK minimizedAffinity -7.51878357
REMARK  9 active torsions:
REMARK  status: ('A' for Active; 'I' for Inactive)
REMARK    1  A    between atoms: C2_2  and  C3_3 
REMARK    2  A    between atoms: C3_3  and  N1_4 
REMARK    3  A    between atoms: N1_4  and  C4_5 
REMARK    4  A    between atoms: C4_5  and  C5_6 
REMARK    5  A    between atoms: C7_8  and  O1_9 
REMARK    6  A    between atoms: C25_28  and  N2_29 
REMARK    7  A    between atoms: C25_28  and  C26_30 
REMARK    8  A    between atoms: C26_30  and  C27_31 
REMARK    9  A    between atoms: C27_31  and  O3_32 
ROOT
HETATM    1  C5  UNL     1      -2.937   6.228  13.546  1.00  0.00    -0.021 A 
HETATM    2  C6  UNL     1      -4.082   7.016  13.318  1.00  0.00     0.045 A 
HETATM    3  C7  UNL     1      -4.218   8.273  13.883  1.00  0.00     0.066 A 
HETATM    4  C8  UNL     1      -3.253   8.771  14.740  1.00  0.00     0.045 A 
HETATM    5  C9  UNL     1      -2.112   8.007  15.052  1.00  0.00    -0.037 A 
HETATM    6  C10 UNL     1      -1.923   6.732  14.420  1.00  0.00    -0.042 A 
HETATM    7  C11 UNL     1      -0.603   5.955  14.585  1.00  0.00     0.044 C 
HETATM    8  C12 UNL     1       0.460   6.532  13.629  1.00  0.00    -0.010 C 
HETATM    9  C13 UNL     1       0.935   5.655  12.461  1.00  0.00     0.005 C 
HETATM   10  C14 UNL     1       1.888   6.446  11.533  1.00  0.00     0.001 C 
HETATM   11  C15 UNL     1       2.960   7.300  12.251  1.00  0.00     0.007 C 
HETATM   12  C16 UNL     1       2.354   8.057  13.451  1.00  0.00     0.022 C 
HETATM   13  C17 UNL     1       1.733   6.986  14.363  1.00  0.00     0.012 C 
HETATM   14  C18 UNL     1       3.233   9.132  14.137  1.00  0.00     0.082 C 
HETATM   15  C19 UNL     1       4.642   8.633  14.526  1.00  0.00     0.040 C 
HETATM   16  C20 UNL     1       5.412   9.789  15.194  1.00  0.00     0.013 C 
HETATM   17  C21 UNL     1       4.619  11.123  15.013  1.00  0.00     0.059 C 
HETATM   18  C22 UNL     1       4.297  11.234  13.483  1.00  0.00     0.061 C 
HETATM   19  C23 UNL     1       3.643  12.556  13.041  1.00  0.00     0.046 C 
HETATM   20  C24 UNL     1       5.559  11.096  12.599  1.00  0.00     0.046 C 
HETATM   21  O2  UNL     1       3.390  10.172  13.134  1.00  0.00    -0.368 OA
HETATM   22  C25 UNL     1       3.298  11.051  15.884  1.00  0.00     0.180 C 
HETATM   23  C28 UNL     1       2.592   9.724  15.457  1.00  0.00     0.139 C 
HETATM   24  C29 UNL     1       1.102   9.724  15.501  1.00  0.00    -0.096 C 
HETATM   25  C30 UNL     1      -0.025   9.344  15.692  1.00  0.00    -0.101 C 
HETATM   26  C31 UNL     1      -1.212   8.587  16.133  1.00  0.00     0.133 C 
ENDROOT
BRANCH  22  27
HETATM   27  N2  UNL     1       2.499  12.275  15.676  1.00  0.00     0.090 N 
HETATM   28  H37 UNL     1       1.764  12.094  14.989  1.00  0.00     0.313 HD
HETATM   29  H38 UNL     1       1.993  12.513  16.536  1.00  0.00     0.313 HD
ENDBRANCH  22  27
BRANCH  22  30
HETATM   30  C26 UNL     1       3.641  11.045  17.418  1.00  0.00     0.069 C 
BRANCH  30  31
HETATM   31  C27 UNL     1       2.463  10.922  18.395  1.00  0.00     0.166 C 
BRANCH  31  32
HETATM   32  O3  UNL     1       2.542   9.745  19.187  1.00  0.00    -0.401 OA
HETATM   33  H43 UNL     1       2.807  10.021  20.084  1.00  0.00     0.209 HD
ENDBRANCH  31  32
ENDBRANCH  30  31
ENDBRANCH  22  30
BRANCH   3  34
HETATM   34  O1  UNL     1      -5.343   8.986  13.587  1.00  0.00    -0.361 OA
HETATM   35  H12 UNL     1      -5.273   9.861  13.998  1.00  0.00     0.217 HD
ENDBRANCH   3  34
BRANCH   1  36
HETATM   36  C4  UNL     1      -2.844   4.829  12.946  1.00  0.00     0.308 C 
BRANCH  36  37
HETATM   37  N1  UNL     1      -3.843   4.443  11.943  1.00  0.00     0.087 N 
HETATM   38  H8  UNL     1      -3.446   4.481  11.009  1.00  0.00     0.316 HD
BRANCH  37  39
HETATM   39  C3  UNL     1      -4.457   3.144  12.215  1.00  0.00     0.269 C 
BRANCH  39  40
HETATM   40  C2  UNL     1      -5.373   2.719  11.064  1.00  0.00     0.025 C 
HETATM   41  C1  UNL     1      -5.926   1.309  11.217  1.00  0.00     0.007 C 
ENDBRANCH  39  40
ENDBRANCH  37  39
ENDBRANCH  36  37
ENDBRANCH   1  36
TORSDOF 9
ENDMDL
MODEL 7
REMARK minimizedAffinity -7.46608877
REMARK  9 active torsions:
REMARK  status: ('A' for Active; 'I' for Inactive)
REMARK    1  A    between atoms: C2_2  and  C3_3 
REMARK    2  A    between atoms: C3_3  and  N1_4 
REMARK    3  A    between atoms: N1_4  and  C4_5 
REMARK    4  A    between atoms: C4_5  and  C5_6 
REMARK    5  A    between atoms: C7_8  and  O1_9 
REMARK    6  A    between atoms: C25_28  and  N2_29 
REMARK    7  A    between atoms: C25_28  and  C26_30 
REMARK    8  A    between atoms: C26_30  and  C27_31 
REMARK    9  A    between atoms: C27_31  and  O3_32 
ROOT
HETATM    1  C5  UNL     1      -2.681   5.150  12.846  1.00  0.00    -0.021 A 
HETATM    2  C6  UNL     1      -2.628   3.781  12.517  1.00  0.00     0.045 A 
HETATM    3  C7  UNL     1      -1.633   3.272  11.700  1.00  0.00     0.066 A 
HETATM    4  C8  UNL     1      -0.688   4.109  11.132  1.00  0.00     0.045 A 
HETATM    5  C9  UNL     1      -0.721   5.495  11.377  1.00  0.00    -0.037 A 
HETATM    6  C10 UNL     1      -1.705   6.028  12.277  1.00  0.00    -0.042 A 
HETATM    7  C11 UNL     1      -1.655   7.503  12.720  1.00  0.00     0.044 C 
HETATM    8  C12 UNL     1      -0.608   7.672  13.839  1.00  0.00    -0.010 C 
HETATM    9  C13 UNL     1      -1.109   8.022  15.249  1.00  0.00     0.005 C 
HETATM   10  C14 UNL     1       0.060   8.011  16.263  1.00  0.00     0.001 C 
HETATM   11  C15 UNL     1       1.361   8.699  15.788  1.00  0.00     0.007 C 
HETATM   12  C16 UNL     1       1.690   8.319  14.330  1.00  0.00     0.022 C 
HETATM   13  C17 UNL     1       0.462   8.721  13.497  1.00  0.00     0.012 C 
HETATM   14  C18 UNL     1       3.075   8.736  13.776  1.00  0.00     0.082 C 
HETATM   15  C19 UNL     1       3.409  10.228  13.986  1.00  0.00     0.040 C 
HETATM   16  C20 UNL     1       4.805  10.513  13.396  1.00  0.00     0.013 C 
HETATM   17  C21 UNL     1       5.507   9.166  13.033  1.00  0.00     0.059 C 
HETATM   18  C22 UNL     1       5.414   8.267  14.314  1.00  0.00     0.061 C 
HETATM   19  C23 UNL     1       6.178   6.932  14.239  1.00  0.00     0.046 C 
HETATM   20  C24 UNL     1       5.962   8.973  15.576  1.00  0.00     0.046 C 
HETATM   21  O2  UNL     1       4.028   7.953  14.545  1.00  0.00    -0.368 OA
HETATM   22  C25 UNL     1       4.749   8.513  11.805  1.00  0.00     0.180 C 
HETATM   23  C28 UNL     1       3.246   8.457  12.227  1.00  0.00     0.139 C 
HETATM   24  C29 UNL     1       2.451   7.316  11.691  1.00  0.00    -0.096 C 
HETATM   25  C30 UNL     1       1.530   6.702  11.215  1.00  0.00    -0.101 C 
HETATM   26  C31 UNL     1       0.260   6.326  10.564  1.00  0.00     0.133 C 
ENDROOT
BRANCH  22  27
HETATM   27  N2  UNL     1       5.355   7.205  11.486  1.00  0.00     0.090 N 
HETATM   28  H37 UNL     1       4.803   6.457  11.910  1.00  0.00     0.313 HD
HETATM   29  H38 UNL     1       5.295   7.028  10.477  1.00  0.00     0.313 HD
ENDBRANCH  22  27
BRANCH  22  30
HETATM   30  C26 UNL     1       4.942   9.378  10.506  1.00  0.00     0.069 C 
BRANCH  30  31
HETATM   31  C27 UNL     1       6.340   9.963  10.260  1.00  0.00     0.166 C 
BRANCH  31  32
HETATM   32  O3  UNL     1       7.349   8.963  10.264  1.00  0.00    -0.401 OA
HETATM   33  H43 UNL     1       7.622   8.828   9.337  1.00  0.00     0.209 HD
ENDBRANCH  31  32
ENDBRANCH  30  31
ENDBRANCH  22  30
BRANCH   3  34
HETATM   34  O1  UNL     1      -1.634   1.930  11.456  1.00  0.00    -0.361 OA
HETATM   35  H12 UNL     1      -0.853   1.710  10.925  1.00  0.00     0.217 HD
ENDBRANCH   3  34
BRANCH   1  36
HETATM   36  C4  UNL     1      -3.821   5.683  13.708  1.00  0.00     0.308 C 
BRANCH  36  37
HETATM   37  N1  UNL     1      -5.186   5.256  13.384  1.00  0.00     0.087 N 
HETATM   38  H8  UNL     1      -5.733   6.039  13.037  1.00  0.00     0.316 HD
BRANCH  37  39
HETATM   39  C3  UNL     1      -5.228   4.120  12.465  1.00  0.00     0.269 C 
BRANCH  39  40
HETATM   40  C2  UNL     1      -6.655   3.578  12.329  1.00  0.00     0.025 C 
HETATM   41  C1  UNL     1      -7.435   3.588  13.636  1.00  0.00     0.007 C 
ENDBRANCH  39  40
ENDBRANCH  37  39
ENDBRANCH  36  37
ENDBRANCH   1  36
TORSDOF 9
ENDMDL
MODEL 8
REMARK minimizedAffinity -7.4430809
REMARK  9 active torsions:
REMARK  status: ('A' for Active; 'I' for Inactive)
REMARK    1  A    between atoms: C2_2  and  C3_3 
REMARK    2  A    between atoms: C3_3  and  N1_4 
REMARK    3  A    between atoms: N1_4  and  C4_5 
REMARK    4  A    between atoms: C4_5  and  C5_6 
REMARK    5  A    between atoms: C7_8  and  O1_9 
REMARK    6  A    between atoms: C25_28  and  N2_29 
REMARK    7  A    between atoms: C25_28  and  C26_30 
REMARK    8  A    between atoms: C26_30  and  C27_31 
REMARK    9  A    between atoms: C27_31  and  O3_32 
ROOT
HETATM    1  C5  UNL     1       3.442   7.627  10.101  1.00  0.00    -0.021 A 
HETATM    2  C6  UNL     1       2.908   7.737   8.802  1.00  0.00     0.045 A 
HETATM    3  C7  UNL     1       1.542   7.711   8.578  1.00  0.00     0.066 A 
HETATM    4  C8  UNL     1       0.658   7.516   9.625  1.00  0.00     0.045 A 
HETATM    5  C9  UNL     1       1.133   7.342  10.939  1.00  0.00    -0.037 A 
HETATM    6  C10 UNL     1       2.542   7.436  11.197  1.00  0.00    -0.042 A 
HETATM    7  C11 UNL     1       3.083   7.445  12.639  1.00  0.00     0.044 C 
HETATM    8  C12 UNL     1       2.927   8.855  13.243  1.00  0.00    -0.010 C 
HETATM    9  C13 UNL     1       4.201   9.662  13.533  1.00  0.00     0.005 C 
HETATM   10  C14 UNL     1       3.848  11.095  13.998  1.00  0.00     0.001 C 
HETATM   11  C15 UNL     1       2.701  11.197  15.031  1.00  0.00     0.007 C 
HETATM   12  C16 UNL     1       1.528  10.269  14.652  1.00  0.00     0.022 C 
HETATM   13  C17 UNL     1       2.119   8.853  14.550  1.00  0.00     0.012 C 
HETATM   14  C18 UNL     1       0.209  10.420  15.449  1.00  0.00     0.082 C 
HETATM   15  C19 UNL     1       0.397  10.379  16.981  1.00  0.00     0.040 C 
HETATM   16  C20 UNL     1      -0.980  10.539  17.656  1.00  0.00     0.013 C 
HETATM   17  C21 UNL     1      -2.044  10.950  16.588  1.00  0.00     0.059 C 
HETATM   18  C22 UNL     1      -1.444  12.182  15.827  1.00  0.00     0.061 C 
HETATM   19  C23 UNL     1      -2.390  12.857  14.817  1.00  0.00     0.046 C 
HETATM   20  C24 UNL     1      -1.005  13.315  16.783  1.00  0.00     0.046 C 
HETATM   21  O2  UNL     1      -0.285  11.741  15.096  1.00  0.00    -0.368 OA
HETATM   22  C25 UNL     1      -2.286   9.724  15.615  1.00  0.00     0.180 C 
HETATM   23  C28 UNL     1      -0.867   9.312  15.105  1.00  0.00     0.139 C 
HETATM   24  C29 UNL     1      -0.797   8.759  13.723  1.00  0.00    -0.096 C 
HETATM   25  C30 UNL     1      -0.474   8.055  12.800  1.00  0.00    -0.101 C 
HETATM   26  C31 UNL     1       0.079   6.967  11.970  1.00  0.00     0.133 C 
ENDROOT
BRANCH  22  27
HETATM   27  N2  UNL     1      -3.239  10.111  14.556  1.00  0.00     0.090 N 
HETATM   28  H37 UNL     1      -2.728  10.367  13.709  1.00  0.00     0.313 HD
HETATM   29  H38 UNL     1      -3.803   9.300  14.279  1.00  0.00     0.313 HD
ENDBRANCH  22  27
BRANCH  22  30
HETATM   30  C26 UNL     1      -2.982   8.537  16.375  1.00  0.00     0.069 C 
BRANCH  30  31
HETATM   31  C27 UNL     1      -3.083   7.197  15.633  1.00  0.00     0.166 C 
BRANCH  31  32
HETATM   32  O3  UNL     1      -3.537   6.148  16.477  1.00  0.00    -0.401 OA
HETATM   33  H43 UNL     1      -4.461   5.959  16.228  1.00  0.00     0.209 HD
ENDBRANCH  31  32
ENDBRANCH  30  31
ENDBRANCH  22  30
BRANCH   3  34
HETATM   34  O1  UNL     1       1.105   7.857   7.295  1.00  0.00    -0.361 OA
HETATM   35  H12 UNL     1       0.135   7.880   7.297  1.00  0.00     0.217 HD
ENDBRANCH   3  34
BRANCH   1  36
HETATM   36  C4  UNL     1       4.954   7.611  10.304  1.00  0.00     0.308 C 
BRANCH  36  37
HETATM   37  N1  UNL     1       5.616   6.308  10.435  1.00  0.00     0.087 N 
HETATM   38  H8  UNL     1       5.762   5.887   9.521  1.00  0.00     0.316 HD
BRANCH  37  39
HETATM   39  C3  UNL     1       6.858   6.371  11.204  1.00  0.00     0.269 C 
BRANCH  39  40
HETATM   40  C2  UNL     1       6.591   6.839  12.638  1.00  0.00     0.025 C 
HETATM   41  C1  UNL     1       7.612   7.846  13.147  1.00  0.00     0.007 C 
ENDBRANCH  39  40
ENDBRANCH  37  39
ENDBRANCH  36  37
ENDBRANCH   1  36
TORSDOF 9
ENDMDL
MODEL 9
REMARK minimizedAffinity -7.43393373
REMARK  9 active torsions:
REMARK  status: ('A' for Active; 'I' for Inactive)
REMARK    1  A    between atoms: C2_2  and  C3_3 
REMARK    2  A    between atoms: C3_3  and  N1_4 
REMARK    3  A    between atoms: N1_4  and  C4_5 
REMARK    4  A    between atoms: C4_5  and  C5_6 
REMARK    5  A    between atoms: C7_8  and  O1_9 
REMARK    6  A    between atoms: C25_28  and  N2_29 
REMARK    7  A    between atoms: C25_28  and  C26_30 
REMARK    8  A    between atoms: C26_30  and  C27_31 
REMARK    9  A    between atoms: C27_31  and  O3_32 
ROOT
HETATM    1  C5  UNL     1       3.012   7.072  10.097  1.00  0.00    -0.021 A 
HETATM    2  C6  UNL     1       2.503   7.352   8.814  1.00  0.00     0.045 A 
HETATM    3  C7  UNL     1       1.177   7.707   8.625  1.00  0.00     0.066 A 
HETATM    4  C8  UNL     1       0.296   7.743   9.691  1.00  0.00     0.045 A 
HETATM    5  C9  UNL     1       0.732   7.419  10.990  1.00  0.00    -0.037 A 
HETATM    6  C10 UNL     1       2.118   7.116  11.213  1.00  0.00    -0.042 A 
HETATM    7  C11 UNL     1       2.670   6.946  12.641  1.00  0.00     0.044 C 
HETATM    8  C12 UNL     1       2.923   8.332  13.267  1.00  0.00    -0.010 C 
HETATM    9  C13 UNL     1       4.376   8.750  13.535  1.00  0.00     0.005 C 
HETATM   10  C14 UNL     1       4.443  10.216  14.028  1.00  0.00     0.001 C 
HETATM   11  C15 UNL     1       3.391  10.610  15.091  1.00  0.00     0.007 C 
HETATM   12  C16 UNL     1       1.999  10.050  14.730  1.00  0.00     0.022 C 
HETATM   13  C17 UNL     1       2.173   8.528  14.595  1.00  0.00     0.012 C 
HETATM   14  C18 UNL     1       0.790  10.543  15.563  1.00  0.00     0.082 C 
HETATM   15  C19 UNL     1       0.992  10.421  17.089  1.00  0.00     0.040 C 
HETATM   16  C20 UNL     1      -0.273  10.942  17.800  1.00  0.00     0.013 C 
HETATM   17  C21 UNL     1      -1.204  11.651  16.766  1.00  0.00     0.059 C 
HETATM   18  C22 UNL     1      -0.303  12.685  16.006  1.00  0.00     0.061 C 
HETATM   19  C23 UNL     1      -1.047  13.614  15.030  1.00  0.00     0.046 C 
HETATM   20  C24 UNL     1       0.452  13.633  16.966  1.00  0.00     0.046 C 
HETATM   21  O2  UNL     1       0.674  11.955  15.240  1.00  0.00    -0.368 OA
HETATM   22  C25 UNL     1      -1.796  10.559  15.783  1.00  0.00     0.180 C 
HETATM   23  C28 UNL     1      -0.557   9.782  15.232  1.00  0.00     0.139 C 
HETATM   24  C29 UNL     1      -0.671   9.258  13.841  1.00  0.00    -0.096 C 
HETATM   25  C30 UNL     1      -0.575   8.511  12.901  1.00  0.00    -0.101 C 
HETATM   26  C31 UNL     1      -0.362   7.329  12.043  1.00  0.00     0.133 C 
ENDROOT
BRANCH  22  27
HETATM   27  N2  UNL     1      -2.627  11.215  14.755  1.00  0.00     0.090 N 
HETATM   28  H37 UNL     1      -2.083  11.337  13.898  1.00  0.00     0.313 HD
HETATM   29  H38 UNL     1      -3.399  10.597  14.481  1.00  0.00     0.313 HD
ENDBRANCH  22  27
BRANCH  22  30
HETATM   30  C26 UNL     1      -2.777   9.595  16.546  1.00  0.00     0.069 C 
BRANCH  30  31
HETATM   31  C27 UNL     1      -3.078   8.243  15.886  1.00  0.00     0.166 C 
BRANCH  31  32
HETATM   32  O3  UNL     1      -2.757   7.148  16.733  1.00  0.00    -0.401 OA
HETATM   33  H43 UNL     1      -3.600   6.784  17.062  1.00  0.00     0.209 HD
ENDBRANCH  31  32
ENDBRANCH  30  31
ENDBRANCH  22  30
BRANCH   3  34
HETATM   34  O1  UNL     1       0.771   7.994   7.355  1.00  0.00    -0.361 OA
HETATM   35  H12 UNL     1      -0.154   8.283   7.383  1.00  0.00     0.217 HD
ENDBRANCH   3  34
BRANCH   1  36
HETATM   36  C4  UNL     1       4.465   6.636  10.261  1.00  0.00     0.308 C 
BRANCH  36  37
HETATM   37  N1  UNL     1       4.769   5.205  10.148  1.00  0.00     0.087 N 
HETATM   38  H8  UNL     1       4.984   4.811  11.060  1.00  0.00     0.316 HD
BRANCH  37  39
HETATM   39  C3  UNL     1       3.720   4.448   9.467  1.00  0.00     0.269 C 
BRANCH  39  40
HETATM   40  C2  UNL     1       4.315   3.530   8.395  1.00  0.00     0.025 C 
HETATM   41  C1  UNL     1       3.847   3.862   6.985  1.00  0.00     0.007 C 
ENDBRANCH  39  40
ENDBRANCH  37  39
ENDBRANCH  36  37
ENDBRANCH   1  36
TORSDOF 9
ENDMDL
