MODEL 1
REMARK minimizedAffinity -9.97903442
REMARK  7 active torsions:
REMARK  status: ('A' for Active; 'I' for Inactive)
REMARK    1  A    between atoms: C4_4  and  C5_5 
REMARK    2  A    between atoms: C5_5  and  O1_6 
REMARK    3  A    between atoms: C5_5  and  C6_7 
REMARK    4  A    between atoms: C6_7  and  C7_8 
REMARK    5  A    between atoms: C7_8  and  C8_10 
REMARK    6  A    between atoms: C8_10  and  C10_12 
REMARK    7  A    between atoms: C18_20  and  O3_21 
ROOT
HETATM    1  C10 UNL     1      -0.881  50.310 -19.614  1.00  0.00     0.008 C 
HETATM    2  C11 UNL     1       0.364  50.792 -20.388  1.00  0.00     0.007 C 
HETATM    3  C12 UNL     1      -0.009  51.549 -21.664  1.00  0.00     0.006 C 
HETATM    4  C13 UNL     1      -0.943  50.750 -22.600  1.00  0.00     0.003 C 
HETATM    5  C14 UNL     1      -1.230  51.453 -24.005  1.00  0.00    -0.035 C 
HETATM    6  C15 UNL     1      -1.963  52.804 -23.830  1.00  0.00     0.016 C 
HETATM    7  C16 UNL     1       0.129  51.749 -24.712  1.00  0.00     0.012 C 
HETATM    8  C17 UNL     1       0.003  52.136 -26.184  1.00  0.00     0.033 C 
HETATM    9  C18 UNL     1      -0.773  51.101 -26.990  1.00  0.00     0.126 C 
HETATM   10  C19 UNL     1      -2.181  50.775 -26.412  1.00  0.00    -0.017 C 
HETATM   11  C20 UNL     1      -2.718  49.541 -27.192  1.00  0.00     0.018 C 
HETATM   12  C21 UNL     1      -3.189  51.912 -26.677  1.00  0.00     0.018 C 
HETATM   13  C22 UNL     1      -2.017  50.412 -24.888  1.00  0.00     0.004 C 
HETATM   14  C23 UNL     1      -3.312  49.953 -24.193  1.00  0.00     0.007 C 
HETATM   15  C24 UNL     1      -3.026  49.302 -22.834  1.00  0.00     0.011 C 
HETATM   16  C25 UNL     1      -2.213  50.175 -21.836  1.00  0.00    -0.029 C 
HETATM   17  C26 UNL     1      -3.153  51.328 -21.358  1.00  0.00     0.016 C 
HETATM   18  C27 UNL     1      -1.711  49.315 -20.529  1.00  0.00     0.002 C 
HETATM   19  C28 UNL     1      -0.904  48.066 -20.956  1.00  0.00     0.190 C 
HETATM   20  O4  UNL     1      -1.823  46.983 -21.101  1.00  0.00    -0.321 OA
HETATM   21  C29 UNL     1      -2.966  47.263 -20.426  1.00  0.00     0.259 C 
HETATM   22  O5  UNL     1      -3.907  46.495 -20.323  1.00  0.00    -0.265 OA
HETATM   23  C30 UNL     1      -2.872  48.617 -19.794  1.00  0.00     0.124 C 
ENDROOT
BRANCH   1  24
HETATM   24  C8  UNL     1      -0.491  49.957 -18.130  1.00  0.00     0.056 C 
HETATM   25  C9  UNL     1      -1.503  49.132 -17.347  1.00  0.00     0.018 C 
BRANCH  24  26
HETATM   26  C7  UNL     1       0.002  51.192 -17.344  1.00  0.00     0.133 C 
HETATM   27  O2  UNL     1       0.479  52.172 -17.922  1.00  0.00    -0.297 OA
BRANCH  26  28
HETATM   28  C6  UNL     1      -0.056  51.185 -15.825  1.00  0.00     0.114 C 
BRANCH  28  29
HETATM   29  C5  UNL     1       1.034  52.013 -15.147  1.00  0.00     0.148 C 
BRANCH  29  30
HETATM   30  C4  UNL     1       2.145  51.203 -14.540  1.00  0.00     0.007 C 
HETATM   31  C2  UNL     1       3.466  51.260 -14.804  1.00  0.00    -0.089 C 
HETATM   32  C1  UNL     1       4.126  52.181 -15.793  1.00  0.00     0.042 C 
HETATM   33  C3  UNL     1       4.426  50.342 -14.091  1.00  0.00     0.042 C 
ENDBRANCH  29  30
BRANCH  29  34
HETATM   34  O1  UNL     1       0.466  52.813 -14.115  1.00  0.00    -0.391 OA
HETATM   35  H9  UNL     1       1.204  53.306 -13.711  1.00  0.00     0.210 HD
ENDBRANCH  29  34
ENDBRANCH  28  29
ENDBRANCH  26  28
ENDBRANCH  24  26
ENDBRANCH   1  24
BRANCH   9  36
HETATM   36  O3  UNL     1      -0.845  51.538 -28.348  1.00  0.00    -0.395 OA
HETATM   37  H30 UNL     1      -1.240  52.424 -28.362  1.00  0.00     0.210 HD
ENDBRANCH   9  36
TORSDOF 7
ENDMDL
MODEL 2
REMARK minimizedAffinity -9.75494289
REMARK  7 active torsions:
REMARK  status: ('A' for Active; 'I' for Inactive)
REMARK    1  A    between atoms: C4_4  and  C5_5 
REMARK    2  A    between atoms: C5_5  and  O1_6 
REMARK    3  A    between atoms: C5_5  and  C6_7 
REMARK    4  A    between atoms: C6_7  and  C7_8 
REMARK    5  A    between atoms: C7_8  and  C8_10 
REMARK    6  A    between atoms: C8_10  and  C10_12 
REMARK    7  A    between atoms: C18_20  and  O3_21 
ROOT
HETATM    1  C10 UNL     1      -3.429  49.621 -24.831  1.00  0.00     0.008 C 
HETATM    2  C11 UNL     1      -2.286  50.650 -24.703  1.00  0.00     0.007 C 
HETATM    3  C12 UNL     1      -1.412  50.389 -23.475  1.00  0.00     0.006 C 
HETATM    4  C13 UNL     1      -2.213  50.315 -22.155  1.00  0.00     0.003 C 
HETATM    5  C14 UNL     1      -1.315  50.192 -20.842  1.00  0.00    -0.035 C 
HETATM    6  C15 UNL     1      -0.487  48.886 -20.834  1.00  0.00     0.016 C 
HETATM    7  C16 UNL     1      -0.306  51.383 -20.802  1.00  0.00     0.012 C 
HETATM    8  C17 UNL     1       0.403  51.565 -19.462  1.00  0.00     0.033 C 
HETATM    9  C18 UNL     1      -0.578  51.694 -18.302  1.00  0.00     0.126 C 
HETATM   10  C19 UNL     1      -1.596  50.519 -18.201  1.00  0.00    -0.017 C 
HETATM   11  C20 UNL     1      -2.660  50.930 -17.144  1.00  0.00     0.018 C 
HETATM   12  C21 UNL     1      -0.938  49.234 -17.659  1.00  0.00     0.018 C 
HETATM   13  C22 UNL     1      -2.283  50.340 -19.607  1.00  0.00     0.004 C 
HETATM   14  C23 UNL     1      -3.404  49.284 -19.645  1.00  0.00     0.007 C 
HETATM   15  C24 UNL     1      -4.245  49.396 -20.923  1.00  0.00     0.011 C 
HETATM   16  C25 UNL     1      -3.444  49.315 -22.254  1.00  0.00    -0.029 C 
HETATM   17  C26 UNL     1      -2.960  47.839 -22.414  1.00  0.00     0.016 C 
HETATM   18  C27 UNL     1      -4.365  49.721 -23.554  1.00  0.00     0.002 C 
HETATM   19  C28 UNL     1      -5.002  51.119 -23.375  1.00  0.00     0.190 C 
HETATM   20  O4  UNL     1      -6.272  50.942 -22.747  1.00  0.00    -0.321 OA
HETATM   21  C29 UNL     1      -6.683  49.660 -22.908  1.00  0.00     0.259 C 
HETATM   22  O5  UNL     1      -7.760  49.233 -22.527  1.00  0.00    -0.265 OA
HETATM   23  C30 UNL     1      -5.651  48.878 -23.659  1.00  0.00     0.124 C 
ENDROOT
BRANCH   1  24
HETATM   24  C8  UNL     1      -4.005  49.633 -26.295  1.00  0.00     0.056 C 
HETATM   25  C9  UNL     1      -4.299  48.274 -26.914  1.00  0.00     0.018 C 
BRANCH  24  26
HETATM   26  C7  UNL     1      -3.192  50.549 -27.237  1.00  0.00     0.133 C 
HETATM   27  O2  UNL     1      -3.111  50.316 -28.447  1.00  0.00    -0.297 OA
BRANCH  26  28
HETATM   28  C6  UNL     1      -2.439  51.737 -26.662  1.00  0.00     0.114 C 
BRANCH  28  29
HETATM   29  C5  UNL     1      -1.372  52.318 -27.587  1.00  0.00     0.148 C 
BRANCH  29  30
HETATM   30  C4  UNL     1       0.013  51.782 -27.357  1.00  0.00     0.007 C 
HETATM   31  C2  UNL     1       0.864  52.061 -26.349  1.00  0.00    -0.089 C 
HETATM   32  C1  UNL     1       0.593  52.996 -25.203  1.00  0.00     0.042 C 
HETATM   33  C3  UNL     1       2.229  51.422 -26.306  1.00  0.00     0.042 C 
ENDBRANCH  29  30
BRANCH  29  34
HETATM   34  O1  UNL     1      -1.320  53.734 -27.441  1.00  0.00    -0.391 OA
HETATM   35  H9  UNL     1      -0.617  54.046 -28.040  1.00  0.00     0.210 HD
ENDBRANCH  29  34
ENDBRANCH  28  29
ENDBRANCH  26  28
ENDBRANCH  24  26
ENDBRANCH   1  24
BRANCH   9  36
HETATM   36  O3  UNL     1       0.162  51.859 -17.092  1.00  0.00    -0.395 OA
HETATM   37  H30 UNL     1       0.777  51.112 -17.006  1.00  0.00     0.210 HD
ENDBRANCH   9  36
TORSDOF 7
ENDMDL
MODEL 3
REMARK minimizedAffinity -9.71762657
REMARK  7 active torsions:
REMARK  status: ('A' for Active; 'I' for Inactive)
REMARK    1  A    between atoms: C4_4  and  C5_5 
REMARK    2  A    between atoms: C5_5  and  O1_6 
REMARK    3  A    between atoms: C5_5  and  C6_7 
REMARK    4  A    between atoms: C6_7  and  C7_8 
REMARK    5  A    between atoms: C7_8  and  C8_10 
REMARK    6  A    between atoms: C8_10  and  C10_12 
REMARK    7  A    between atoms: C18_20  and  O3_21 
ROOT
HETATM    1  C10 UNL     1      -1.967  51.268 -22.784  1.00  0.00     0.008 C 
HETATM    2  C11 UNL     1      -3.196  51.613 -21.917  1.00  0.00     0.007 C 
HETATM    3  C12 UNL     1      -4.194  50.456 -21.846  1.00  0.00     0.006 C 
HETATM    4  C13 UNL     1      -4.647  49.951 -23.234  1.00  0.00     0.003 C 
HETATM    5  C14 UNL     1      -5.798  48.846 -23.193  1.00  0.00    -0.035 C 
HETATM    6  C15 UNL     1      -5.330  47.558 -22.476  1.00  0.00     0.016 C 
HETATM    7  C16 UNL     1      -7.014  49.408 -22.394  1.00  0.00     0.012 C 
HETATM    8  C17 UNL     1      -8.294  48.588 -22.532  1.00  0.00     0.033 C 
HETATM    9  C18 UNL     1      -8.696  48.384 -23.989  1.00  0.00     0.126 C 
HETATM   10  C19 UNL     1      -7.576  47.761 -24.873  1.00  0.00    -0.017 C 
HETATM   11  C20 UNL     1      -8.055  47.858 -26.349  1.00  0.00     0.018 C 
HETATM   12  C21 UNL     1      -7.390  46.256 -24.589  1.00  0.00     0.018 C 
HETATM   13  C22 UNL     1      -6.265  48.612 -24.680  1.00  0.00     0.004 C 
HETATM   14  C23 UNL     1      -5.087  48.190 -25.578  1.00  0.00     0.007 C 
HETATM   15  C24 UNL     1      -3.976  49.248 -25.590  1.00  0.00     0.011 C 
HETATM   16  C25 UNL     1      -3.417  49.641 -24.193  1.00  0.00    -0.029 C 
HETATM   17  C26 UNL     1      -2.586  48.427 -23.669  1.00  0.00     0.016 C 
HETATM   18  C27 UNL     1      -2.444  50.964 -24.266  1.00  0.00     0.002 C 
HETATM   19  C28 UNL     1      -3.173  52.159 -24.927  1.00  0.00     0.190 C 
HETATM   20  O4  UNL     1      -2.915  52.103 -26.330  1.00  0.00    -0.321 OA
HETATM   21  C29 UNL     1      -1.820  51.337 -26.561  1.00  0.00     0.259 C 
HETATM   22  O5  UNL     1      -1.328  51.158 -27.662  1.00  0.00    -0.265 OA
HETATM   23  C30 UNL     1      -1.288  50.797 -25.270  1.00  0.00     0.124 C 
ENDROOT
BRANCH   1  24
HETATM   24  C8  UNL     1      -0.788  52.262 -22.471  1.00  0.00     0.056 C 
HETATM   25  C9  UNL     1      -0.108  52.900 -23.674  1.00  0.00     0.018 C 
BRANCH  24  26
HETATM   26  C7  UNL     1       0.223  51.673 -21.462  1.00  0.00     0.133 C 
HETATM   27  O2  UNL     1       0.071  50.545 -20.985  1.00  0.00    -0.297 OA
BRANCH  26  28
HETATM   28  C6  UNL     1       1.406  52.513 -21.009  1.00  0.00     0.114 C 
BRANCH  28  29
HETATM   29  C5  UNL     1       1.186  53.258 -19.694  1.00  0.00     0.148 C 
BRANCH  29  30
HETATM   30  C4  UNL     1       0.584  52.423 -18.598  1.00  0.00     0.007 C 
HETATM   31  C2  UNL     1       1.092  52.141 -17.382  1.00  0.00    -0.089 C 
HETATM   32  C1  UNL     1       2.412  52.623 -16.847  1.00  0.00     0.042 C 
HETATM   33  C3  UNL     1       0.329  51.262 -16.423  1.00  0.00     0.042 C 
ENDBRANCH  29  30
BRANCH  29  34
HETATM   34  O1  UNL     1       0.333  54.378 -19.905  1.00  0.00    -0.391 OA
HETATM   35  H9  UNL     1       0.217  54.804 -19.036  1.00  0.00     0.210 HD
ENDBRANCH  29  34
ENDBRANCH  28  29
ENDBRANCH  26  28
ENDBRANCH  24  26
ENDBRANCH   1  24
BRANCH   9  36
HETATM   36  O3  UNL     1      -9.895  47.610 -24.029  1.00  0.00    -0.395 OA
HETATM   37  H30 UNL     1      -9.742  46.783 -23.545  1.00  0.00     0.210 HD
ENDBRANCH   9  36
TORSDOF 7
ENDMDL
MODEL 4
REMARK minimizedAffinity -9.50373363
REMARK  7 active torsions:
REMARK  status: ('A' for Active; 'I' for Inactive)
REMARK    1  A    between atoms: C4_4  and  C5_5 
REMARK    2  A    between atoms: C5_5  and  O1_6 
REMARK    3  A    between atoms: C5_5  and  C6_7 
REMARK    4  A    between atoms: C6_7  and  C7_8 
REMARK    5  A    between atoms: C7_8  and  C8_10 
REMARK    6  A    between atoms: C8_10  and  C10_12 
REMARK    7  A    between atoms: C18_20  and  O3_21 
ROOT
HETATM    1  C10 UNL     1      -1.132  50.777 -19.341  1.00  0.00     0.008 C 
HETATM    2  C11 UNL     1       0.058  51.399 -20.102  1.00  0.00     0.007 C 
HETATM    3  C12 UNL     1      -0.364  51.981 -21.452  1.00  0.00     0.006 C 
HETATM    4  C13 UNL     1      -1.103  50.968 -22.354  1.00  0.00     0.003 C 
HETATM    5  C14 UNL     1      -1.425  51.501 -23.824  1.00  0.00    -0.035 C 
HETATM    6  C15 UNL     1      -2.376  52.720 -23.796  1.00  0.00     0.016 C 
HETATM    7  C16 UNL     1      -0.096  51.964 -24.499  1.00  0.00     0.012 C 
HETATM    8  C17 UNL     1      -0.203  52.210 -26.002  1.00  0.00     0.033 C 
HETATM    9  C18 UNL     1      -0.754  51.000 -26.748  1.00  0.00     0.126 C 
HETATM   10  C19 UNL     1      -2.120  50.488 -26.201  1.00  0.00    -0.017 C 
HETATM   11  C20 UNL     1      -2.405  49.126 -26.894  1.00  0.00     0.018 C 
HETATM   12  C21 UNL     1      -3.284  51.417 -26.604  1.00  0.00     0.018 C 
HETATM   13  C22 UNL     1      -1.981  50.278 -24.646  1.00  0.00     0.004 C 
HETATM   14  C23 UNL     1      -3.220  49.664 -23.968  1.00  0.00     0.007 C 
HETATM   15  C24 UNL     1      -2.905  49.177 -22.547  1.00  0.00     0.011 C 
HETATM   16  C25 UNL     1      -2.301  50.249 -21.596  1.00  0.00    -0.029 C 
HETATM   17  C26 UNL     1      -3.441  51.262 -21.256  1.00  0.00     0.016 C 
HETATM   18  C27 UNL     1      -1.737  49.589 -20.200  1.00  0.00     0.002 C 
HETATM   19  C28 UNL     1      -0.715  48.464 -20.486  1.00  0.00     0.190 C 
HETATM   20  O4  UNL     1      -1.436  47.234 -20.575  1.00  0.00    -0.321 OA
HETATM   21  C29 UNL     1      -2.644  47.370 -19.974  1.00  0.00     0.259 C 
HETATM   22  O5  UNL     1      -3.451  46.466 -19.844  1.00  0.00    -0.265 OA
HETATM   23  C30 UNL     1      -2.806  48.766 -19.457  1.00  0.00     0.124 C 
ENDROOT
BRANCH   1  24
HETATM   24  C8  UNL     1      -0.771  50.610 -17.818  1.00  0.00     0.056 C 
HETATM   25  C9  UNL     1      -0.131  49.288 -17.419  1.00  0.00     0.018 C 
BRANCH  24  26
HETATM   26  C7  UNL     1      -1.942  51.005 -16.891  1.00  0.00     0.133 C 
HETATM   27  O2  UNL     1      -2.984  51.487 -17.344  1.00  0.00    -0.297 OA
BRANCH  26  28
HETATM   28  C6  UNL     1      -1.796  50.841 -15.388  1.00  0.00     0.114 C 
BRANCH  28  29
HETATM   29  C5  UNL     1      -3.111  50.907 -14.613  1.00  0.00     0.148 C 
BRANCH  29  30
HETATM   30  C4  UNL     1      -3.193  52.032 -13.620  1.00  0.00     0.007 C 
HETATM   31  C2  UNL     1      -3.375  51.962 -12.286  1.00  0.00    -0.089 C 
HETATM   32  C1  UNL     1      -3.536  50.699 -11.485  1.00  0.00     0.042 C 
HETATM   33  C3  UNL     1      -3.445  53.221 -11.460  1.00  0.00     0.042 C 
ENDBRANCH  29  30
BRANCH  29  34
HETATM   34  O1  UNL     1      -3.323  49.689 -13.908  1.00  0.00    -0.391 OA
HETATM   35  H9  UNL     1      -4.163  49.792 -13.425  1.00  0.00     0.210 HD
ENDBRANCH  29  34
ENDBRANCH  28  29
ENDBRANCH  26  28
ENDBRANCH  24  26
ENDBRANCH   1  24
BRANCH   9  36
HETATM   36  O3  UNL     1      -0.824  51.311 -28.139  1.00  0.00    -0.395 OA
HETATM   37  H30 UNL     1      -1.357  52.115 -28.246  1.00  0.00     0.210 HD
ENDBRANCH   9  36
TORSDOF 7
ENDMDL
MODEL 5
REMARK minimizedAffinity -9.44514656
REMARK  7 active torsions:
REMARK  status: ('A' for Active; 'I' for Inactive)
REMARK    1  A    between atoms: C4_4  and  C5_5 
REMARK    2  A    between atoms: C5_5  and  O1_6 
REMARK    3  A    between atoms: C5_5  and  C6_7 
REMARK    4  A    between atoms: C6_7  and  C7_8 
REMARK    5  A    between atoms: C7_8  and  C8_10 
REMARK    6  A    between atoms: C8_10  and  C10_12 
REMARK    7  A    between atoms: C18_20  and  O3_21 
ROOT
HETATM    1  C10 UNL     1      -1.175  51.598 -21.485  1.00  0.00     0.008 C 
HETATM    2  C11 UNL     1      -1.035  50.600 -22.652  1.00  0.00     0.007 C 
HETATM    3  C12 UNL     1      -2.356  50.392 -23.394  1.00  0.00     0.006 C 
HETATM    4  C13 UNL     1      -3.520  49.970 -22.468  1.00  0.00     0.003 C 
HETATM    5  C14 UNL     1      -4.873  49.603 -23.231  1.00  0.00    -0.035 C 
HETATM    6  C15 UNL     1      -5.445  50.818 -23.998  1.00  0.00     0.016 C 
HETATM    7  C16 UNL     1      -4.578  48.487 -24.280  1.00  0.00     0.012 C 
HETATM    8  C17 UNL     1      -5.824  47.826 -24.865  1.00  0.00     0.033 C 
HETATM    9  C18 UNL     1      -6.747  47.273 -23.785  1.00  0.00     0.126 C 
HETATM   10  C19 UNL     1      -7.165  48.323 -22.714  1.00  0.00    -0.017 C 
HETATM   11  C20 UNL     1      -7.881  47.546 -21.572  1.00  0.00     0.018 C 
HETATM   12  C21 UNL     1      -8.206  49.320 -23.262  1.00  0.00     0.018 C 
HETATM   13  C22 UNL     1      -5.859  49.006 -22.157  1.00  0.00     0.004 C 
HETATM   14  C23 UNL     1      -6.095  49.996 -21.001  1.00  0.00     0.007 C 
HETATM   15  C24 UNL     1      -4.785  50.361 -20.291  1.00  0.00     0.011 C 
HETATM   16  C25 UNL     1      -3.667  50.931 -21.210  1.00  0.00    -0.029 C 
HETATM   17  C26 UNL     1      -4.111  52.364 -21.645  1.00  0.00     0.016 C 
HETATM   18  C27 UNL     1      -2.221  51.030 -20.435  1.00  0.00     0.002 C 
HETATM   19  C28 UNL     1      -1.807  49.662 -19.845  1.00  0.00     0.190 C 
HETATM   20  O4  UNL     1      -2.320  49.589 -18.514  1.00  0.00    -0.321 OA
HETATM   21  C29 UNL     1      -2.599  50.838 -18.066  1.00  0.00     0.259 C 
HETATM   22  O5  UNL     1      -2.996  51.091 -16.941  1.00  0.00    -0.265 OA
HETATM   23  C30 UNL     1      -2.299  51.847 -19.131  1.00  0.00     0.124 C 
ENDROOT
BRANCH   1  24
HETATM   24  C8  UNL     1       0.244  52.125 -21.051  1.00  0.00     0.056 C 
HETATM   25  C9  UNL     1       0.342  52.724 -19.655  1.00  0.00     0.018 C 
BRANCH  24  26
HETATM   26  C7  UNL     1       0.888  53.026 -22.129  1.00  0.00     0.133 C 
HETATM   27  O2  UNL     1       1.373  54.124 -21.840  1.00  0.00    -0.297 OA
BRANCH  26  28
HETATM   28  C6  UNL     1       0.887  52.577 -23.580  1.00  0.00     0.114 C 
BRANCH  28  29
HETATM   29  C5  UNL     1       0.237  53.564 -24.547  1.00  0.00     0.148 C 
BRANCH  29  30
HETATM   30  C4  UNL     1      -0.024  53.011 -25.921  1.00  0.00     0.007 C 
HETATM   31  C2  UNL     1       0.768  52.219 -26.671  1.00  0.00    -0.089 C 
HETATM   32  C1  UNL     1       2.124  51.702 -26.274  1.00  0.00     0.042 C 
HETATM   33  C3  UNL     1       0.325  51.781 -28.044  1.00  0.00     0.042 C 
ENDBRANCH  29  30
BRANCH  29  34
HETATM   34  O1  UNL     1       1.060  54.716 -24.693  1.00  0.00    -0.391 OA
HETATM   35  H9  UNL     1       0.606  55.301 -25.327  1.00  0.00     0.210 HD
ENDBRANCH  29  34
ENDBRANCH  28  29
ENDBRANCH  26  28
ENDBRANCH  24  26
ENDBRANCH   1  24
BRANCH   9  36
HETATM   36  O3  UNL     1      -7.882  46.676 -24.413  1.00  0.00    -0.395 OA
HETATM   37  H30 UNL     1      -8.299  47.341 -24.985  1.00  0.00     0.210 HD
ENDBRANCH   9  36
TORSDOF 7
ENDMDL
MODEL 6
REMARK minimizedAffinity -9.01928806
REMARK  7 active torsions:
REMARK  status: ('A' for Active; 'I' for Inactive)
REMARK    1  A    between atoms: C4_4  and  C5_5 
REMARK    2  A    between atoms: C5_5  and  O1_6 
REMARK    3  A    between atoms: C5_5  and  C6_7 
REMARK    4  A    between atoms: C6_7  and  C7_8 
REMARK    5  A    between atoms: C7_8  and  C8_10 
REMARK    6  A    between atoms: C8_10  and  C10_12 
REMARK    7  A    between atoms: C18_20  and  O3_21 
ROOT
HETATM    1  C10 UNL     1      -2.776  49.940 -22.657  1.00  0.00     0.008 C 
HETATM    2  C11 UNL     1      -2.956  49.697 -24.170  1.00  0.00     0.007 C 
HETATM    3  C12 UNL     1      -4.422  49.477 -24.547  1.00  0.00     0.006 C 
HETATM    4  C13 UNL     1      -5.099  48.346 -23.741  1.00  0.00     0.003 C 
HETATM    5  C14 UNL     1      -6.583  47.993 -24.214  1.00  0.00    -0.035 C 
HETATM    6  C15 UNL     1      -7.542  49.192 -24.030  1.00  0.00     0.016 C 
HETATM    7  C16 UNL     1      -6.562  47.643 -25.735  1.00  0.00     0.012 C 
HETATM    8  C17 UNL     1      -7.845  46.995 -26.251  1.00  0.00     0.033 C 
HETATM    9  C18 UNL     1      -8.228  45.755 -25.451  1.00  0.00     0.126 C 
HETATM   10  C19 UNL     1      -8.346  46.003 -23.918  1.00  0.00    -0.017 C 
HETATM   11  C20 UNL     1      -8.489  44.609 -23.243  1.00  0.00     0.018 C 
HETATM   12  C21 UNL     1      -9.630  46.779 -23.559  1.00  0.00     0.018 C 
HETATM   13  C22 UNL     1      -7.021  46.700 -23.428  1.00  0.00     0.004 C 
HETATM   14  C23 UNL     1      -6.933  46.913 -21.905  1.00  0.00     0.007 C 
HETATM   15  C24 UNL     1      -5.508  47.275 -21.466  1.00  0.00     0.011 C 
HETATM   16  C25 UNL     1      -4.888  48.513 -22.175  1.00  0.00    -0.029 C 
HETATM   17  C26 UNL     1      -5.634  49.776 -21.637  1.00  0.00     0.016 C 
HETATM   18  C27 UNL     1      -3.282  48.664 -21.860  1.00  0.00     0.002 C 
HETATM   19  C28 UNL     1      -2.515  47.373 -22.230  1.00  0.00     0.190 C 
HETATM   20  O4  UNL     1      -2.487  46.537 -21.073  1.00  0.00    -0.321 OA
HETATM   21  C29 UNL     1      -2.732  47.283 -19.967  1.00  0.00     0.259 C 
HETATM   22  O5  UNL     1      -2.712  46.849 -18.828  1.00  0.00    -0.265 OA
HETATM   23  C30 UNL     1      -2.973  48.710 -20.352  1.00  0.00     0.124 C 
ENDROOT
BRANCH   1  24
HETATM   24  C8  UNL     1      -1.374  50.599 -22.379  1.00  0.00     0.056 C 
HETATM   25  C9  UNL     1      -0.963  50.716 -20.918  1.00  0.00     0.018 C 
BRANCH  24  26
HETATM   26  C7  UNL     1      -1.183  51.920 -23.155  1.00  0.00     0.133 C 
HETATM   27  O2  UNL     1      -2.109  52.725 -23.290  1.00  0.00    -0.297 OA
BRANCH  26  28
HETATM   28  C6  UNL     1       0.157  52.220 -23.807  1.00  0.00     0.114 C 
BRANCH  28  29
HETATM   29  C5  UNL     1       0.125  53.360 -24.823  1.00  0.00     0.148 C 
BRANCH  29  30
HETATM   30  C4  UNL     1       0.143  52.916 -26.259  1.00  0.00     0.007 C 
HETATM   31  C2  UNL     1       1.038  52.122 -26.880  1.00  0.00    -0.089 C 
HETATM   32  C1  UNL     1       2.245  51.490 -26.244  1.00  0.00     0.042 C 
HETATM   33  C3  UNL     1       0.885  51.805 -28.346  1.00  0.00     0.042 C 
ENDBRANCH  29  30
BRANCH  29  34
HETATM   34  O1  UNL     1       1.240  54.223 -24.621  1.00  0.00    -0.391 OA
HETATM   35  H9  UNL     1       1.177  54.918 -25.301  1.00  0.00     0.210 HD
ENDBRANCH  29  34
ENDBRANCH  28  29
ENDBRANCH  26  28
ENDBRANCH  24  26
ENDBRANCH   1  24
BRANCH   9  36
HETATM   36  O3  UNL     1      -9.432  45.214 -25.995  1.00  0.00    -0.395 OA
HETATM   37  H30 UNL     1     -10.109  45.910 -25.990  1.00  0.00     0.210 HD
ENDBRANCH   9  36
TORSDOF 7
ENDMDL
MODEL 7
REMARK minimizedAffinity -8.94829273
REMARK  7 active torsions:
REMARK  status: ('A' for Active; 'I' for Inactive)
REMARK    1  A    between atoms: C4_4  and  C5_5 
REMARK    2  A    between atoms: C5_5  and  O1_6 
REMARK    3  A    between atoms: C5_5  and  C6_7 
REMARK    4  A    between atoms: C6_7  and  C7_8 
REMARK    5  A    between atoms: C7_8  and  C8_10 
REMARK    6  A    between atoms: C8_10  and  C10_12 
REMARK    7  A    between atoms: C18_20  and  O3_21 
ROOT
HETATM    1  C10 UNL     1      -0.194  51.419 -17.996  1.00  0.00     0.008 C 
HETATM    2  C11 UNL     1      -1.695  51.298 -17.660  1.00  0.00     0.007 C 
HETATM    3  C12 UNL     1      -2.463  50.517 -18.728  1.00  0.00     0.006 C 
HETATM    4  C13 UNL     1      -2.279  51.084 -20.154  1.00  0.00     0.003 C 
HETATM    5  C14 UNL     1      -3.183  50.383 -21.267  1.00  0.00    -0.035 C 
HETATM    6  C15 UNL     1      -2.835  48.885 -21.427  1.00  0.00     0.016 C 
HETATM    7  C16 UNL     1      -4.680  50.469 -20.834  1.00  0.00     0.012 C 
HETATM    8  C17 UNL     1      -5.677  50.115 -21.935  1.00  0.00     0.033 C 
HETATM    9  C18 UNL     1      -5.466  50.947 -23.195  1.00  0.00     0.126 C 
HETATM   10  C19 UNL     1      -4.016  50.882 -23.760  1.00  0.00    -0.017 C 
HETATM   11  C20 UNL     1      -3.913  51.966 -24.871  1.00  0.00     0.018 C 
HETATM   12  C21 UNL     1      -3.730  49.536 -24.456  1.00  0.00     0.018 C 
HETATM   13  C22 UNL     1      -3.016  51.220 -22.591  1.00  0.00     0.004 C 
HETATM   14  C23 UNL     1      -1.538  51.309 -23.015  1.00  0.00     0.007 C 
HETATM   15  C24 UNL     1      -0.675  51.962 -21.928  1.00  0.00     0.011 C 
HETATM   16  C25 UNL     1      -0.748  51.289 -20.527  1.00  0.00    -0.029 C 
HETATM   17  C26 UNL     1      -0.005  49.920 -20.633  1.00  0.00     0.016 C 
HETATM   18  C27 UNL     1      -0.027  52.202 -19.366  1.00  0.00     0.002 C 
HETATM   19  C28 UNL     1      -0.622  53.629 -19.325  1.00  0.00     0.190 C 
HETATM   20  O4  UNL     1       0.151  54.448 -20.205  1.00  0.00    -0.321 OA
HETATM   21  C29 UNL     1       1.353  53.861 -20.432  1.00  0.00     0.259 C 
HETATM   22  O5  UNL     1       2.244  54.360 -21.098  1.00  0.00    -0.265 OA
HETATM   23  C30 UNL     1       1.433  52.554 -19.707  1.00  0.00     0.124 C 
ENDROOT
BRANCH   1  24
HETATM   24  C8  UNL     1       0.619  51.806 -16.705  1.00  0.00     0.056 C 
HETATM   25  C9  UNL     1       2.089  52.142 -16.911  1.00  0.00     0.018 C 
BRANCH  24  26
HETATM   26  C7  UNL     1       0.397  50.805 -15.550  1.00  0.00     0.133 C 
HETATM   27  O2  UNL     1       0.753  49.627 -15.643  1.00  0.00    -0.297 OA
BRANCH  26  28
HETATM   28  C6  UNL     1      -0.317  51.263 -14.288  1.00  0.00     0.114 C 
BRANCH  28  29
HETATM   29  C5  UNL     1      -1.710  50.668 -14.098  1.00  0.00     0.148 C 
BRANCH  29  30
HETATM   30  C4  UNL     1      -2.731  51.630 -13.558  1.00  0.00     0.007 C 
HETATM   31  C2  UNL     1      -2.772  52.217 -12.345  1.00  0.00    -0.089 C 
HETATM   32  C1  UNL     1      -1.767  52.028 -11.242  1.00  0.00     0.042 C 
HETATM   33  C3  UNL     1      -3.901  53.150 -11.989  1.00  0.00     0.042 C 
ENDBRANCH  29  30
BRANCH  29  34
HETATM   34  O1  UNL     1      -1.647  49.557 -13.209  1.00  0.00    -0.391 OA
HETATM   35  H9  UNL     1      -2.560  49.228 -13.114  1.00  0.00     0.210 HD
ENDBRANCH  29  34
ENDBRANCH  28  29
ENDBRANCH  26  28
ENDBRANCH  24  26
ENDBRANCH   1  24
BRANCH   9  36
HETATM   36  O3  UNL     1      -6.432  50.555 -24.170  1.00  0.00    -0.395 OA
HETATM   37  H30 UNL     1      -6.352  49.598 -24.312  1.00  0.00     0.210 HD
ENDBRANCH   9  36
TORSDOF 7
ENDMDL
MODEL 8
REMARK minimizedAffinity -8.89544964
REMARK  7 active torsions:
REMARK  status: ('A' for Active; 'I' for Inactive)
REMARK    1  A    between atoms: C4_4  and  C5_5 
REMARK    2  A    between atoms: C5_5  and  O1_6 
REMARK    3  A    between atoms: C5_5  and  C6_7 
REMARK    4  A    between atoms: C6_7  and  C7_8 
REMARK    5  A    between atoms: C7_8  and  C8_10 
REMARK    6  A    between atoms: C8_10  and  C10_12 
REMARK    7  A    between atoms: C18_20  and  O3_21 
ROOT
HETATM    1  C10 UNL     1      -1.392  50.705 -21.290  1.00  0.00     0.008 C 
HETATM    2  C11 UNL     1      -1.171  49.288 -20.722  1.00  0.00     0.007 C 
HETATM    3  C12 UNL     1      -1.223  49.266 -19.193  1.00  0.00     0.006 C 
HETATM    4  C13 UNL     1      -0.246  50.264 -18.532  1.00  0.00     0.003 C 
HETATM    5  C14 UNL     1      -0.171  50.160 -16.941  1.00  0.00    -0.035 C 
HETATM    6  C15 UNL     1      -1.528  50.492 -16.280  1.00  0.00     0.016 C 
HETATM    7  C16 UNL     1       0.194  48.695 -16.544  1.00  0.00     0.012 C 
HETATM    8  C17 UNL     1       0.598  48.520 -15.082  1.00  0.00     0.033 C 
HETATM    9  C18 UNL     1       1.736  49.451 -14.680  1.00  0.00     0.126 C 
HETATM   10  C19 UNL     1       1.454  50.955 -14.969  1.00  0.00    -0.017 C 
HETATM   11  C20 UNL     1       2.790  51.719 -14.742  1.00  0.00     0.018 C 
HETATM   12  C21 UNL     1       0.450  51.554 -13.964  1.00  0.00     0.018 C 
HETATM   13  C22 UNL     1       1.010  51.093 -16.474  1.00  0.00     0.004 C 
HETATM   14  C23 UNL     1       0.801  52.543 -16.951  1.00  0.00     0.007 C 
HETATM   15  C24 UNL     1       0.705  52.627 -18.480  1.00  0.00     0.011 C 
HETATM   16  C25 UNL     1      -0.388  51.730 -19.128  1.00  0.00    -0.029 C 
HETATM   17  C26 UNL     1      -1.773  52.355 -18.766  1.00  0.00     0.016 C 
HETATM   18  C27 UNL     1      -0.242  51.664 -20.764  1.00  0.00     0.002 C 
HETATM   19  C28 UNL     1       1.173  51.199 -21.181  1.00  0.00     0.190 C 
HETATM   20  O4  UNL     1       1.987  52.363 -21.328  1.00  0.00    -0.321 OA
HETATM   21  C29 UNL     1       1.196  53.454 -21.485  1.00  0.00     0.259 C 
HETATM   22  O5  UNL     1       1.615  54.580 -21.692  1.00  0.00    -0.265 OA
HETATM   23  C30 UNL     1      -0.246  53.057 -21.420  1.00  0.00     0.124 C 
ENDROOT
BRANCH   1  24
HETATM   24  C8  UNL     1      -1.782  50.622 -22.813  1.00  0.00     0.056 C 
HETATM   25  C9  UNL     1      -0.721  51.075 -23.805  1.00  0.00     0.018 C 
BRANCH  24  26
HETATM   26  C7  UNL     1      -3.165  51.249 -23.098  1.00  0.00     0.133 C 
HETATM   27  O2  UNL     1      -3.303  52.469 -23.228  1.00  0.00    -0.297 OA
BRANCH  26  28
HETATM   28  C6  UNL     1      -4.392  50.355 -23.176  1.00  0.00     0.114 C 
BRANCH  28  29
HETATM   29  C5  UNL     1      -4.105  48.926 -23.634  1.00  0.00     0.148 C 
BRANCH  29  30
HETATM   30  C4  UNL     1      -4.638  48.591 -24.999  1.00  0.00     0.007 C 
HETATM   31  C2  UNL     1      -3.973  48.544 -26.171  1.00  0.00    -0.089 C 
HETATM   32  C1  UNL     1      -2.508  48.825 -26.363  1.00  0.00     0.042 C 
HETATM   33  C3  UNL     1      -4.701  48.198 -27.446  1.00  0.00     0.042 C 
ENDBRANCH  29  30
BRANCH  29  34
HETATM   34  O1  UNL     1      -4.663  47.998 -22.710  1.00  0.00    -0.391 OA
HETATM   35  H9  UNL     1      -4.463  47.109 -23.058  1.00  0.00     0.210 HD
ENDBRANCH  29  34
ENDBRANCH  28  29
ENDBRANCH  26  28
ENDBRANCH  24  26
ENDBRANCH   1  24
BRANCH   9  36
HETATM   36  O3  UNL     1       2.050  49.225 -13.306  1.00  0.00    -0.395 OA
HETATM   37  H30 UNL     1       1.241  49.345 -12.784  1.00  0.00     0.210 HD
ENDBRANCH   9  36
TORSDOF 7
ENDMDL
MODEL 9
REMARK minimizedAffinity -8.8685627
REMARK  7 active torsions:
REMARK  status: ('A' for Active; 'I' for Inactive)
REMARK    1  A    between atoms: C4_4  and  C5_5 
REMARK    2  A    between atoms: C5_5  and  O1_6 
REMARK    3  A    between atoms: C5_5  and  C6_7 
REMARK    4  A    between atoms: C6_7  and  C7_8 
REMARK    5  A    between atoms: C7_8  and  C8_10 
REMARK    6  A    between atoms: C8_10  and  C10_12 
REMARK    7  A    between atoms: C18_20  and  O3_21 
ROOT
HETATM    1  C10 UNL     1      -3.363  50.045 -23.231  1.00  0.00     0.008 C 
HETATM    2  C11 UNL     1      -3.523  48.605 -23.761  1.00  0.00     0.007 C 
HETATM    3  C12 UNL     1      -4.961  48.101 -23.633  1.00  0.00     0.006 C 
HETATM    4  C13 UNL     1      -5.523  48.206 -22.197  1.00  0.00     0.003 C 
HETATM    5  C14 UNL     1      -6.966  47.553 -22.001  1.00  0.00    -0.035 C 
HETATM    6  C15 UNL     1      -8.038  48.263 -22.860  1.00  0.00     0.016 C 
HETATM    7  C16 UNL     1      -6.916  46.062 -22.460  1.00  0.00     0.012 C 
HETATM    8  C17 UNL     1      -8.130  45.233 -22.048  1.00  0.00     0.033 C 
HETATM    9  C18 UNL     1      -8.388  45.293 -20.546  1.00  0.00     0.126 C 
HETATM   10  C19 UNL     1      -8.526  46.739 -19.985  1.00  0.00    -0.017 C 
HETATM   11  C20 UNL     1      -8.529  46.625 -18.434  1.00  0.00     0.018 C 
HETATM   12  C21 UNL     1      -9.878  47.376 -20.364  1.00  0.00     0.018 C 
HETATM   13  C22 UNL     1      -7.274  47.571 -20.456  1.00  0.00     0.004 C 
HETATM   14  C23 UNL     1      -7.202  49.001 -19.888  1.00  0.00     0.007 C 
HETATM   15  C24 UNL     1      -5.819  49.628 -20.104  1.00  0.00     0.011 C 
HETATM   16  C25 UNL     1      -5.325  49.657 -21.578  1.00  0.00    -0.029 C 
HETATM   17  C26 UNL     1      -6.189  50.715 -22.335  1.00  0.00     0.016 C 
HETATM   18  C27 UNL     1      -3.740  50.079 -21.690  1.00  0.00     0.002 C 
HETATM   19  C28 UNL     1      -2.851  49.153 -20.827  1.00  0.00     0.190 C 
HETATM   20  O4  UNL     1      -2.739  49.742 -19.531  1.00  0.00    -0.321 OA
HETATM   21  C29 UNL     1      -3.052  51.060 -19.602  1.00  0.00     0.259 C 
HETATM   22  O5  UNL     1      -2.987  51.832 -18.661  1.00  0.00    -0.265 OA
HETATM   23  C30 UNL     1      -3.432  51.423 -21.004  1.00  0.00     0.124 C 
ENDROOT
BRANCH   1  24
HETATM   24  C8  UNL     1      -2.031  50.679 -23.782  1.00  0.00     0.056 C 
HETATM   25  C9  UNL     1      -0.979  51.042 -22.743  1.00  0.00     0.018 C 
BRANCH  24  26
HETATM   26  C7  UNL     1      -2.298  51.826 -24.781  1.00  0.00     0.133 C 
HETATM   27  O2  UNL     1      -2.204  53.009 -24.440  1.00  0.00    -0.297 OA
BRANCH  26  28
HETATM   28  C6  UNL     1      -2.729  51.498 -26.201  1.00  0.00     0.114 C 
BRANCH  28  29
HETATM   29  C5  UNL     1      -1.576  51.217 -27.163  1.00  0.00     0.148 C 
BRANCH  29  30
HETATM   30  C4  UNL     1      -0.233  51.078 -26.502  1.00  0.00     0.007 C 
HETATM   31  C2  UNL     1       0.985  51.358 -27.009  1.00  0.00    -0.089 C 
HETATM   32  C1  UNL     1       1.262  51.890 -28.388  1.00  0.00     0.042 C 
HETATM   33  C3  UNL     1       2.224  51.133 -26.180  1.00  0.00     0.042 C 
ENDBRANCH  29  30
BRANCH  29  34
HETATM   34  O1  UNL     1      -1.480  52.261 -28.126  1.00  0.00    -0.391 OA
HETATM   35  H9  UNL     1      -0.725  52.037 -28.700  1.00  0.00     0.210 HD
ENDBRANCH  29  34
ENDBRANCH  28  29
ENDBRANCH  26  28
ENDBRANCH  24  26
ENDBRANCH   1  24
BRANCH   9  36
HETATM   36  O3  UNL     1      -9.535  44.497 -20.247  1.00  0.00    -0.395 OA
HETATM   37  H30 UNL     1     -10.277  44.815 -20.786  1.00  0.00     0.210 HD
ENDBRANCH   9  36
TORSDOF 7
ENDMDL
