MODEL 1
REMARK minimizedAffinity -9.73494053
REMARK  12 active torsions:
REMARK  status: ('A' for Active; 'I' for Inactive)
REMARK    1  A    between atoms: C2_2  and  C3_3 
REMARK    2  A    between atoms: C2_2  and  C26_31 
REMARK    3  A    between atoms: C3_3  and  C4_4 
REMARK    4  A    between atoms: C4_4  and  C5_5 
REMARK    5  A    between atoms: C5_5  and  C7_7 
REMARK    6  A    between atoms: C8_8  and  O1_9 
REMARK    7  A    between atoms: C9_10  and  O2_11 
REMARK    8  A    between atoms: C20_22  and  O3_23 
REMARK    9  A    between atoms: C23_26  and  O4_27 
REMARK   10  A    between atoms: C25_29  and  O5_30 
REMARK   11  A    between atoms: C26_31  and  C28_33 
REMARK   12  A    between atoms: C28_33  and  O6_34 
ROOT
HETATM    1  C7  UNL     1      -2.825  51.909 -22.271  1.00  0.00     0.029 C 
HETATM    2  C8  UNL     1      -4.109  51.032 -22.094  1.00  0.00     0.152 C 
HETATM    3  C9  UNL     1      -3.937  50.232 -20.779  1.00  0.00     0.155 C 
HETATM    4  C10 UNL     1      -2.735  50.890 -20.110  1.00  0.00     0.060 C 
HETATM    5  C11 UNL     1      -1.788  51.201 -21.329  1.00  0.00    -0.029 C 
HETATM    6  C12 UNL     1      -1.187  49.964 -22.046  1.00  0.00     0.016 C 
HETATM    7  C13 UNL     1      -0.630  52.086 -20.819  1.00  0.00     0.011 C 
HETATM    8  C14 UNL     1       0.083  51.503 -19.578  1.00  0.00     0.009 C 
HETATM    9  C15 UNL     1      -0.921  51.215 -18.446  1.00  0.00     0.029 C 
HETATM   10  C16 UNL     1      -0.320  50.853 -17.047  1.00  0.00    -0.031 C 
HETATM   11  C17 UNL     1       0.212  49.400 -16.997  1.00  0.00     0.016 C 
HETATM   12  C18 UNL     1       0.853  51.797 -16.650  1.00  0.00     0.012 C 
HETATM   13  C19 UNL     1       1.296  51.645 -15.189  1.00  0.00     0.032 C 
HETATM   14  C20 UNL     1       0.138  51.719 -14.194  1.00  0.00     0.118 C 
HETATM   15  C21 UNL     1      -1.052  50.837 -14.585  1.00  0.00     0.039 C 
HETATM   16  C22 UNL     1      -1.476  51.122 -16.030  1.00  0.00     0.025 C 
HETATM   17  C23 UNL     1      -2.867  50.596 -16.467  1.00  0.00     0.126 C 
HETATM   18  C24 UNL     1      -2.924  49.754 -17.741  1.00  0.00     0.071 C 
HETATM   19  C25 UNL     1      -2.025  50.206 -18.914  1.00  0.00     0.071 C 
ENDROOT
BRANCH   1  20
HETATM   20  C5  UNL     1      -2.467  52.211 -23.760  1.00  0.00    -0.011 C 
HETATM   21  C6  UNL     1      -3.690  52.127 -24.682  1.00  0.00     0.010 C 
BRANCH  20  22
HETATM   22  C4  UNL     1      -1.371  51.225 -24.259  1.00  0.00     0.009 C 
BRANCH  22  23
HETATM   23  C3  UNL     1      -0.004  51.894 -24.492  1.00  0.00     0.034 C 
BRANCH  23  24
HETATM   24  C2  UNL     1       0.283  52.431 -25.894  1.00  0.00    -0.083 C 
HETATM   25  C1  UNL     1      -0.087  53.658 -26.304  1.00  0.00     0.015 C 
BRANCH  24  26
HETATM   26  C26 UNL     1       1.016  51.430 -26.807  1.00  0.00     0.033 C 
HETATM   27  C27 UNL     1       0.913  51.732 -28.309  1.00  0.00     0.017 C 
BRANCH  26  28
HETATM   28  C28 UNL     1       2.494  51.263 -26.400  1.00  0.00     0.172 C 
BRANCH  28  29
HETATM   29  O6  UNL     1       3.382  51.561 -27.474  1.00  0.00    -0.400 OA
HETATM   30  H48 UNL     1       3.158  52.457 -27.782  1.00  0.00     0.209 HD
ENDBRANCH  28  29
ENDBRANCH  26  28
ENDBRANCH  24  26
ENDBRANCH  23  24
ENDBRANCH  22  23
ENDBRANCH  20  22
ENDBRANCH   1  20
BRANCH   2  31
HETATM   31  O1  UNL     1      -4.292  50.121 -23.175  1.00  0.00    -0.393 OA
HETATM   32  H13 UNL     1      -5.198  49.775 -23.121  1.00  0.00     0.210 HD
ENDBRANCH   2  31
BRANCH   3  33
HETATM   33  O2  UNL     1      -5.108  50.356 -19.981  1.00  0.00    -0.392 OA
HETATM   34  H15 UNL     1      -5.830  49.892 -20.439  1.00  0.00     0.210 HD
ENDBRANCH   3  33
BRANCH  19  35
HETATM   35  O5  UNL     1      -1.398  49.007 -19.390  1.00  0.00    -0.389 OA
HETATM   36  H41 UNL     1      -2.092  48.367 -19.624  1.00  0.00     0.210 HD
ENDBRANCH  19  35
BRANCH  17  37
HETATM   37  O4  UNL     1      -3.509  49.882 -15.411  1.00  0.00    -0.395 OA
HETATM   38  H38 UNL     1      -3.018  49.054 -15.269  1.00  0.00     0.210 HD
ENDBRANCH  17  37
BRANCH  14  39
HETATM   39  O3  UNL     1       0.617  51.335 -12.910  1.00  0.00    -0.396 OA
HETATM   40  H33 UNL     1      -0.129  51.397 -12.289  1.00  0.00     0.210 HD
ENDBRANCH  14  39
TORSDOF 12
ENDMDL
MODEL 2
REMARK minimizedAffinity -9.61635303
REMARK  12 active torsions:
REMARK  status: ('A' for Active; 'I' for Inactive)
REMARK    1  A    between atoms: C2_2  and  C3_3 
REMARK    2  A    between atoms: C2_2  and  C26_31 
REMARK    3  A    between atoms: C3_3  and  C4_4 
REMARK    4  A    between atoms: C4_4  and  C5_5 
REMARK    5  A    between atoms: C5_5  and  C7_7 
REMARK    6  A    between atoms: C8_8  and  O1_9 
REMARK    7  A    between atoms: C9_10  and  O2_11 
REMARK    8  A    between atoms: C20_22  and  O3_23 
REMARK    9  A    between atoms: C23_26  and  O4_27 
REMARK   10  A    between atoms: C25_29  and  O5_30 
REMARK   11  A    between atoms: C26_31  and  C28_33 
REMARK   12  A    between atoms: C28_33  and  O6_34 
ROOT
HETATM    1  C7  UNL     1       0.134  51.419 -23.178  1.00  0.00     0.029 C 
HETATM    2  C8  UNL     1       0.458  52.949 -23.100  1.00  0.00     0.152 C 
HETATM    3  C9  UNL     1       0.262  53.381 -21.625  1.00  0.00     0.155 C 
HETATM    4  C10 UNL     1       0.138  52.059 -20.874  1.00  0.00     0.060 C 
HETATM    5  C11 UNL     1      -0.699  51.173 -21.871  1.00  0.00    -0.029 C 
HETATM    6  C12 UNL     1      -2.168  51.618 -22.094  1.00  0.00     0.016 C 
HETATM    7  C13 UNL     1      -0.698  49.725 -21.336  1.00  0.00     0.011 C 
HETATM    8  C14 UNL     1      -1.131  49.619 -19.856  1.00  0.00     0.009 C 
HETATM    9  C15 UNL     1      -0.271  50.531 -18.961  1.00  0.00     0.029 C 
HETATM   10  C16 UNL     1      -0.429  50.349 -17.414  1.00  0.00    -0.031 C 
HETATM   11  C17 UNL     1      -1.732  50.990 -16.880  1.00  0.00     0.016 C 
HETATM   12  C18 UNL     1      -0.436  48.848 -16.997  1.00  0.00     0.012 C 
HETATM   13  C19 UNL     1      -0.328  48.633 -15.482  1.00  0.00     0.032 C 
HETATM   14  C20 UNL     1       0.828  49.400 -14.842  1.00  0.00     0.118 C 
HETATM   15  C21 UNL     1       0.891  50.869 -15.273  1.00  0.00     0.039 C 
HETATM   16  C22 UNL     1       0.864  50.978 -16.802  1.00  0.00     0.025 C 
HETATM   17  C23 UNL     1       1.282  52.341 -17.411  1.00  0.00     0.126 C 
HETATM   18  C24 UNL     1       0.319  52.979 -18.413  1.00  0.00     0.071 C 
HETATM   19  C25 UNL     1      -0.376  52.028 -19.413  1.00  0.00     0.071 C 
ENDROOT
BRANCH   1  20
HETATM   20  C5  UNL     1      -0.412  50.960 -24.566  1.00  0.00    -0.011 C 
HETATM   21  C6  UNL     1      -0.174  52.007 -25.661  1.00  0.00     0.010 C 
BRANCH  20  22
HETATM   22  C4  UNL     1      -1.934  50.649 -24.467  1.00  0.00     0.009 C 
BRANCH  22  23
HETATM   23  C3  UNL     1      -2.287  49.193 -24.825  1.00  0.00     0.034 C 
BRANCH  23  24
HETATM   24  C2  UNL     1      -3.586  48.958 -25.595  1.00  0.00    -0.083 C 
HETATM   25  C1  UNL     1      -4.778  48.784 -24.995  1.00  0.00     0.015 C 
BRANCH  24  26
HETATM   26  C26 UNL     1      -3.405  48.914 -27.124  1.00  0.00     0.033 C 
HETATM   27  C27 UNL     1      -4.560  48.253 -27.892  1.00  0.00     0.017 C 
BRANCH  26  28
HETATM   28  C28 UNL     1      -3.114  50.313 -27.705  1.00  0.00     0.172 C 
BRANCH  28  29
HETATM   29  O6  UNL     1      -3.577  50.443 -29.046  1.00  0.00    -0.400 OA
HETATM   30  H48 UNL     1      -4.522  50.208 -29.041  1.00  0.00     0.209 HD
ENDBRANCH  28  29
ENDBRANCH  26  28
ENDBRANCH  24  26
ENDBRANCH  23  24
ENDBRANCH  22  23
ENDBRANCH  20  22
ENDBRANCH   1  20
BRANCH   2  31
HETATM   31  O1  UNL     1      -0.401  53.724 -23.932  1.00  0.00    -0.393 OA
HETATM   32  H13 UNL     1      -0.015  54.612 -24.010  1.00  0.00     0.210 HD
ENDBRANCH   2  31
BRANCH   3  33
HETATM   33  O2  UNL     1       1.393  54.124 -21.185  1.00  0.00    -0.392 OA
HETATM   34  H15 UNL     1       1.403  54.966 -21.671  1.00  0.00     0.210 HD
ENDBRANCH   3  33
BRANCH  19  35
HETATM   35  O5  UNL     1      -1.754  52.426 -19.412  1.00  0.00    -0.389 OA
HETATM   36  H41 UNL     1      -1.803  53.370 -19.638  1.00  0.00     0.210 HD
ENDBRANCH  19  35
BRANCH  17  37
HETATM   37  O4  UNL     1       1.592  53.294 -16.396  1.00  0.00    -0.395 OA
HETATM   38  H38 UNL     1       0.764  53.524 -15.940  1.00  0.00     0.210 HD
ENDBRANCH  17  37
BRANCH  14  39
HETATM   39  O3  UNL     1       0.697  49.321 -13.427  1.00  0.00    -0.396 OA
HETATM   40  H33 UNL     1       1.445  49.806 -13.036  1.00  0.00     0.210 HD
ENDBRANCH  14  39
TORSDOF 12
ENDMDL
MODEL 3
REMARK minimizedAffinity -9.4984417
REMARK  12 active torsions:
REMARK  status: ('A' for Active; 'I' for Inactive)
REMARK    1  A    between atoms: C2_2  and  C3_3 
REMARK    2  A    between atoms: C2_2  and  C26_31 
REMARK    3  A    between atoms: C3_3  and  C4_4 
REMARK    4  A    between atoms: C4_4  and  C5_5 
REMARK    5  A    between atoms: C5_5  and  C7_7 
REMARK    6  A    between atoms: C8_8  and  O1_9 
REMARK    7  A    between atoms: C9_10  and  O2_11 
REMARK    8  A    between atoms: C20_22  and  O3_23 
REMARK    9  A    between atoms: C23_26  and  O4_27 
REMARK   10  A    between atoms: C25_29  and  O5_30 
REMARK   11  A    between atoms: C26_31  and  C28_33 
REMARK   12  A    between atoms: C28_33  and  O6_34 
ROOT
HETATM    1  C7  UNL     1      -2.597  49.246 -25.775  1.00  0.00     0.029 C 
HETATM    2  C8  UNL     1      -2.051  50.605 -26.329  1.00  0.00     0.152 C 
HETATM    3  C9  UNL     1      -1.799  51.525 -25.109  1.00  0.00     0.155 C 
HETATM    4  C10 UNL     1      -1.911  50.583 -23.916  1.00  0.00     0.060 C 
HETATM    5  C11 UNL     1      -3.093  49.632 -24.337  1.00  0.00    -0.029 C 
HETATM    6  C12 UNL     1      -4.492  50.295 -24.424  1.00  0.00     0.016 C 
HETATM    7  C13 UNL     1      -3.158  48.474 -23.317  1.00  0.00     0.011 C 
HETATM    8  C14 UNL     1      -3.207  48.955 -21.849  1.00  0.00     0.009 C 
HETATM    9  C15 UNL     1      -2.026  49.892 -21.534  1.00  0.00     0.029 C 
HETATM   10  C16 UNL     1      -1.805  50.264 -20.029  1.00  0.00    -0.031 C 
HETATM   11  C17 UNL     1      -2.823  51.317 -19.531  1.00  0.00     0.016 C 
HETATM   12  C18 UNL     1      -1.917  49.022 -19.096  1.00  0.00     0.012 C 
HETATM   13  C19 UNL     1      -1.454  49.293 -17.658  1.00  0.00     0.032 C 
HETATM   14  C20 UNL     1      -0.076  49.948 -17.578  1.00  0.00     0.118 C 
HETATM   15  C21 UNL     1       0.081  51.144 -18.523  1.00  0.00     0.039 C 
HETATM   16  C22 UNL     1      -0.322  50.753 -19.950  1.00  0.00     0.025 C 
HETATM   17  C23 UNL     1       0.112  51.713 -21.086  1.00  0.00     0.126 C 
HETATM   18  C24 UNL     1      -0.975  52.189 -22.049  1.00  0.00     0.071 C 
HETATM   19  C25 UNL     1      -2.031  51.145 -22.476  1.00  0.00     0.071 C 
ENDROOT
BRANCH   1  20
HETATM   20  C5  UNL     1      -3.541  48.495 -26.765  1.00  0.00    -0.011 C 
HETATM   21  C6  UNL     1      -3.837  49.317 -28.026  1.00  0.00     0.010 C 
BRANCH  20  22
HETATM   22  C4  UNL     1      -4.879  48.130 -26.058  1.00  0.00     0.009 C 
BRANCH  22  23
HETATM   23  C3  UNL     1      -6.018  47.792 -27.038  1.00  0.00     0.034 C 
BRANCH  23  24
HETATM   24  C2  UNL     1      -7.410  47.574 -26.444  1.00  0.00    -0.083 C 
HETATM   25  C1  UNL     1      -7.634  46.829 -25.345  1.00  0.00     0.015 C 
BRANCH  24  26
HETATM   26  C26 UNL     1      -8.538  48.266 -27.230  1.00  0.00     0.033 C 
HETATM   27  C27 UNL     1      -9.095  47.454 -28.409  1.00  0.00     0.017 C 
BRANCH  26  28
HETATM   28  C28 UNL     1      -9.688  48.714 -26.304  1.00  0.00     0.172 C 
BRANCH  28  29
HETATM   29  O6  UNL     1      -9.638  50.110 -26.025  1.00  0.00    -0.400 OA
HETATM   30  H48 UNL     1      -9.623  50.568 -26.884  1.00  0.00     0.209 HD
ENDBRANCH  28  29
ENDBRANCH  26  28
ENDBRANCH  24  26
ENDBRANCH  23  24
ENDBRANCH  22  23
ENDBRANCH  20  22
ENDBRANCH   1  20
BRANCH   2  31
HETATM   31  O1  UNL     1      -2.978  51.239 -27.209  1.00  0.00    -0.393 OA
HETATM   32  H13 UNL     1      -2.503  51.943 -27.681  1.00  0.00     0.210 HD
ENDBRANCH   2  31
BRANCH   3  33
HETATM   33  O2  UNL     1      -0.500  52.099 -25.198  1.00  0.00    -0.392 OA
HETATM   34  H15 UNL     1      -0.497  52.713 -25.953  1.00  0.00     0.210 HD
ENDBRANCH   3  33
BRANCH  19  35
HETATM   35  O5  UNL     1      -3.292  51.818 -22.360  1.00  0.00    -0.389 OA
HETATM   36  H41 UNL     1      -3.264  52.623 -22.904  1.00  0.00     0.210 HD
ENDBRANCH  19  35
BRANCH  17  37
HETATM   37  O4  UNL     1       0.805  52.850 -20.572  1.00  0.00    -0.395 OA
HETATM   38  H38 UNL     1       0.163  53.395 -20.084  1.00  0.00     0.210 HD
ENDBRANCH  17  37
BRANCH  14  39
HETATM   39  O3  UNL     1       0.151  50.366 -16.236  1.00  0.00    -0.396 OA
HETATM   40  H33 UNL     1       1.036  50.771 -16.202  1.00  0.00     0.210 HD
ENDBRANCH  14  39
TORSDOF 12
ENDMDL
MODEL 4
REMARK minimizedAffinity -9.3670063
REMARK  12 active torsions:
REMARK  status: ('A' for Active; 'I' for Inactive)
REMARK    1  A    between atoms: C2_2  and  C3_3 
REMARK    2  A    between atoms: C2_2  and  C26_31 
REMARK    3  A    between atoms: C3_3  and  C4_4 
REMARK    4  A    between atoms: C4_4  and  C5_5 
REMARK    5  A    between atoms: C5_5  and  C7_7 
REMARK    6  A    between atoms: C8_8  and  O1_9 
REMARK    7  A    between atoms: C9_10  and  O2_11 
REMARK    8  A    between atoms: C20_22  and  O3_23 
REMARK    9  A    between atoms: C23_26  and  O4_27 
REMARK   10  A    between atoms: C25_29  and  O5_30 
REMARK   11  A    between atoms: C26_31  and  C28_33 
REMARK   12  A    between atoms: C28_33  and  O6_34 
ROOT
HETATM    1  C7  UNL     1      -1.113  50.811 -25.371  1.00  0.00     0.029 C 
HETATM    2  C8  UNL     1      -0.573  52.278 -25.470  1.00  0.00     0.152 C 
HETATM    3  C9  UNL     1      -0.599  52.870 -24.039  1.00  0.00     0.155 C 
HETATM    4  C10 UNL     1      -0.852  51.657 -23.150  1.00  0.00     0.060 C 
HETATM    5  C11 UNL     1      -1.876  50.814 -24.000  1.00  0.00    -0.029 C 
HETATM    6  C12 UNL     1      -3.280  51.445 -24.181  1.00  0.00     0.016 C 
HETATM    7  C13 UNL     1      -2.038  49.437 -23.319  1.00  0.00     0.011 C 
HETATM    8  C14 UNL     1      -2.373  49.535 -21.814  1.00  0.00     0.009 C 
HETATM    9  C15 UNL     1      -1.332  50.391 -21.069  1.00  0.00     0.029 C 
HETATM   10  C16 UNL     1      -1.400  50.380 -19.505  1.00  0.00    -0.031 C 
HETATM   11  C17 UNL     1      -2.559  51.252 -18.964  1.00  0.00     0.016 C 
HETATM   12  C18 UNL     1      -1.587  48.942 -18.936  1.00  0.00     0.012 C 
HETATM   13  C19 UNL     1      -1.401  48.856 -17.415  1.00  0.00     0.032 C 
HETATM   14  C20 UNL     1      -0.105  49.502 -16.926  1.00  0.00     0.118 C 
HETATM   15  C21 UNL     1       0.131  50.900 -17.509  1.00  0.00     0.039 C 
HETATM   16  C22 UNL     1       0.009  50.868 -19.037  1.00  0.00     0.025 C 
HETATM   17  C23 UNL     1       0.568  52.091 -19.807  1.00  0.00     0.126 C 
HETATM   18  C24 UNL     1      -0.366  52.767 -20.811  1.00  0.00     0.071 C 
HETATM   19  C25 UNL     1      -1.258  51.838 -21.665  1.00  0.00     0.071 C 
ENDROOT
BRANCH   1  20
HETATM   20  C5  UNL     1      -1.817  50.310 -26.670  1.00  0.00    -0.011 C 
HETATM   21  C6  UNL     1      -2.929  51.259 -27.135  1.00  0.00     0.010 C 
BRANCH  20  22
HETATM   22  C4  UNL     1      -2.409  48.888 -26.444  1.00  0.00     0.009 C 
BRANCH  22  23
HETATM   23  C3  UNL     1      -3.456  48.485 -27.500  1.00  0.00     0.034 C 
BRANCH  23  24
HETATM   24  C2  UNL     1      -4.861  48.148 -27.000  1.00  0.00    -0.083 C 
HETATM   25  C1  UNL     1      -5.248  48.317 -25.722  1.00  0.00     0.015 C 
BRANCH  24  26
HETATM   26  C26 UNL     1      -5.789  47.577 -28.087  1.00  0.00     0.033 C 
HETATM   27  C27 UNL     1      -7.284  47.595 -27.734  1.00  0.00     0.017 C 
BRANCH  26  28
HETATM   28  C28 UNL     1      -5.559  48.259 -29.452  1.00  0.00     0.172 C 
BRANCH  28  29
HETATM   29  O6  UNL     1      -4.954  47.379 -30.395  1.00  0.00    -0.400 OA
HETATM   30  H48 UNL     1      -5.518  46.587 -30.441  1.00  0.00     0.209 HD
ENDBRANCH  28  29
ENDBRANCH  26  28
ENDBRANCH  24  26
ENDBRANCH  23  24
ENDBRANCH  22  23
ENDBRANCH  20  22
ENDBRANCH   1  20
BRANCH   2  31
HETATM   31  O1  UNL     1      -1.374  53.089 -26.326  1.00  0.00    -0.393 OA
HETATM   32  H13 UNL     1      -0.874  53.900 -26.518  1.00  0.00     0.210 HD
ENDBRANCH   2  31
BRANCH   3  33
HETATM   33  O2  UNL     1       0.653  53.477 -23.744  1.00  0.00    -0.392 OA
HETATM   34  H15 UNL     1       0.745  54.260 -24.315  1.00  0.00     0.210 HD
ENDBRANCH   3  33
BRANCH  19  35
HETATM   35  O5  UNL     1      -2.563  52.432 -21.625  1.00  0.00    -0.389 OA
HETATM   36  H41 UNL     1      -2.496  53.348 -21.944  1.00  0.00     0.210 HD
ENDBRANCH  19  35
BRANCH  17  37
HETATM   37  O4  UNL     1       1.081  53.079 -18.915  1.00  0.00    -0.395 OA
HETATM   38  H38 UNL     1       0.329  53.470 -18.438  1.00  0.00     0.210 HD
ENDBRANCH  17  37
BRANCH  14  39
HETATM   39  O3  UNL     1      -0.143  49.577 -15.505  1.00  0.00    -0.396 OA
HETATM   40  H33 UNL     1       0.692  49.981 -15.211  1.00  0.00     0.210 HD
ENDBRANCH  14  39
TORSDOF 12
ENDMDL
MODEL 5
REMARK minimizedAffinity -9.33261299
REMARK  12 active torsions:
REMARK  status: ('A' for Active; 'I' for Inactive)
REMARK    1  A    between atoms: C2_2  and  C3_3 
REMARK    2  A    between atoms: C2_2  and  C26_31 
REMARK    3  A    between atoms: C3_3  and  C4_4 
REMARK    4  A    between atoms: C4_4  and  C5_5 
REMARK    5  A    between atoms: C5_5  and  C7_7 
REMARK    6  A    between atoms: C8_8  and  O1_9 
REMARK    7  A    between atoms: C9_10  and  O2_11 
REMARK    8  A    between atoms: C20_22  and  O3_23 
REMARK    9  A    between atoms: C23_26  and  O4_27 
REMARK   10  A    between atoms: C25_29  and  O5_30 
REMARK   11  A    between atoms: C26_31  and  C28_33 
REMARK   12  A    between atoms: C28_33  and  O6_34 
ROOT
HETATM    1  C7  UNL     1      -1.604  48.772 -19.460  1.00  0.00     0.029 C 
HETATM    2  C8  UNL     1      -3.062  48.236 -19.661  1.00  0.00     0.152 C 
HETATM    3  C9  UNL     1      -3.604  48.873 -20.965  1.00  0.00     0.155 C 
HETATM    4  C10 UNL     1      -2.367  49.489 -21.609  1.00  0.00     0.060 C 
HETATM    5  C11 UNL     1      -1.576  50.051 -20.369  1.00  0.00    -0.029 C 
HETATM    6  C12 UNL     1      -2.243  51.238 -19.627  1.00  0.00     0.016 C 
HETATM    7  C13 UNL     1      -0.180  50.496 -20.858  1.00  0.00     0.011 C 
HETATM    8  C14 UNL     1      -0.233  51.446 -22.075  1.00  0.00     0.009 C 
HETATM    9  C15 UNL     1      -1.040  50.823 -23.229  1.00  0.00     0.029 C 
HETATM   10  C16 UNL     1      -0.977  51.558 -24.610  1.00  0.00    -0.031 C 
HETATM   11  C17 UNL     1      -1.854  52.832 -24.635  1.00  0.00     0.016 C 
HETATM   12  C18 UNL     1       0.475  51.978 -24.985  1.00  0.00     0.012 C 
HETATM   13  C19 UNL     1       0.618  52.465 -26.433  1.00  0.00     0.032 C 
HETATM   14  C20 UNL     1       0.017  51.503 -27.458  1.00  0.00     0.118 C 
HETATM   15  C21 UNL     1      -1.395  51.032 -27.090  1.00  0.00     0.039 C 
HETATM   16  C22 UNL     1      -1.418  50.485 -25.658  1.00  0.00     0.025 C 
HETATM   17  C23 UNL     1      -2.655  49.644 -25.252  1.00  0.00     0.126 C 
HETATM   18  C24 UNL     1      -3.385  50.052 -23.973  1.00  0.00     0.071 C 
HETATM   19  C25 UNL     1      -2.506  50.494 -22.781  1.00  0.00     0.071 C 
ENDROOT
BRANCH   1  20
HETATM   20  C5  UNL     1      -1.163  48.851 -17.965  1.00  0.00    -0.011 C 
HETATM   21  C6  UNL     1      -2.134  48.120 -17.030  1.00  0.00     0.010 C 
BRANCH  20  22
HETATM   22  C4  UNL     1      -1.036  50.338 -17.521  1.00  0.00     0.009 C 
BRANCH  22  23
HETATM   23  C3  UNL     1       0.123  50.588 -16.538  1.00  0.00     0.034 C 
BRANCH  23  24
HETATM   24  C2  UNL     1       1.108  51.703 -16.887  1.00  0.00    -0.083 C 
HETATM   25  C1  UNL     1       0.915  52.567 -17.901  1.00  0.00     0.015 C 
BRANCH  24  26
HETATM   26  C26 UNL     1       2.356  51.737 -15.986  1.00  0.00     0.033 C 
HETATM   27  C27 UNL     1       3.369  52.840 -16.327  1.00  0.00     0.017 C 
BRANCH  26  28
HETATM   28  C28 UNL     1       1.981  51.805 -14.492  1.00  0.00     0.172 C 
BRANCH  28  29
HETATM   29  O6  UNL     1       2.996  52.433 -13.713  1.00  0.00    -0.400 OA
HETATM   30  H48 UNL     1       3.162  53.303 -14.117  1.00  0.00     0.209 HD
ENDBRANCH  28  29
ENDBRANCH  26  28
ENDBRANCH  24  26
ENDBRANCH  23  24
ENDBRANCH  22  23
ENDBRANCH  20  22
ENDBRANCH   1  20
BRANCH   2  31
HETATM   31  O1  UNL     1      -3.919  48.587 -18.578  1.00  0.00    -0.393 OA
HETATM   32  H13 UNL     1      -4.725  48.049 -18.652  1.00  0.00     0.210 HD
ENDBRANCH   2  31
BRANCH   3  33
HETATM   33  O2  UNL     1      -4.174  47.866 -21.794  1.00  0.00    -0.392 OA
HETATM   34  H15 UNL     1      -4.974  47.534 -21.350  1.00  0.00     0.210 HD
ENDBRANCH   3  33
BRANCH  19  35
HETATM   35  O5  UNL     1      -3.125  51.686 -22.280  1.00  0.00    -0.389 OA
HETATM   36  H41 UNL     1      -4.050  51.484 -22.059  1.00  0.00     0.210 HD
ENDBRANCH  19  35
BRANCH  17  37
HETATM   37  O4  UNL     1      -3.601  49.559 -26.317  1.00  0.00    -0.395 OA
HETATM   38  H38 UNL     1      -3.991  50.442 -26.440  1.00  0.00     0.210 HD
ENDBRANCH  17  37
BRANCH  14  39
HETATM   39  O3  UNL     1      -0.010  52.148 -28.726  1.00  0.00    -0.396 OA
HETATM   40  H33 UNL     1      -0.386  51.519 -29.366  1.00  0.00     0.210 HD
ENDBRANCH  14  39
TORSDOF 12
ENDMDL
MODEL 6
REMARK minimizedAffinity -9.32754135
REMARK  12 active torsions:
REMARK  status: ('A' for Active; 'I' for Inactive)
REMARK    1  A    between atoms: C2_2  and  C3_3 
REMARK    2  A    between atoms: C2_2  and  C26_31 
REMARK    3  A    between atoms: C3_3  and  C4_4 
REMARK    4  A    between atoms: C4_4  and  C5_5 
REMARK    5  A    between atoms: C5_5  and  C7_7 
REMARK    6  A    between atoms: C8_8  and  O1_9 
REMARK    7  A    between atoms: C9_10  and  O2_11 
REMARK    8  A    between atoms: C20_22  and  O3_23 
REMARK    9  A    between atoms: C23_26  and  O4_27 
REMARK   10  A    between atoms: C25_29  and  O5_30 
REMARK   11  A    between atoms: C26_31  and  C28_33 
REMARK   12  A    between atoms: C28_33  and  O6_34 
ROOT
HETATM    1  C7  UNL     1      -0.348  49.840 -18.275  1.00  0.00     0.029 C 
HETATM    2  C8  UNL     1      -1.430  48.715 -18.152  1.00  0.00     0.152 C 
HETATM    3  C9  UNL     1      -2.345  48.825 -19.397  1.00  0.00     0.155 C 
HETATM    4  C10 UNL     1      -1.592  49.780 -20.317  1.00  0.00     0.060 C 
HETATM    5  C11 UNL     1      -0.993  50.831 -19.307  1.00  0.00    -0.029 C 
HETATM    6  C12 UNL     1      -2.027  51.737 -18.589  1.00  0.00     0.016 C 
HETATM    7  C13 UNL     1      -0.006  51.728 -20.084  1.00  0.00     0.011 C 
HETATM    8  C14 UNL     1      -0.614  52.337 -21.368  1.00  0.00     0.009 C 
HETATM    9  C15 UNL     1      -1.189  51.241 -22.283  1.00  0.00     0.029 C 
HETATM   10  C16 UNL     1      -1.617  51.679 -23.724  1.00  0.00    -0.031 C 
HETATM   11  C17 UNL     1      -2.964  52.441 -23.727  1.00  0.00     0.016 C 
HETATM   12  C18 UNL     1      -0.555  52.598 -24.398  1.00  0.00     0.012 C 
HETATM   13  C19 UNL     1      -0.810  52.837 -25.892  1.00  0.00     0.032 C 
HETATM   14  C20 UNL     1      -1.037  51.548 -26.681  1.00  0.00     0.118 C 
HETATM   15  C21 UNL     1      -2.042  50.601 -26.016  1.00  0.00     0.039 C 
HETATM   16  C22 UNL     1      -1.655  50.355 -24.553  1.00  0.00     0.025 C 
HETATM   17  C23 UNL     1      -2.337  49.158 -23.843  1.00  0.00     0.126 C 
HETATM   18  C24 UNL     1      -3.019  49.439 -22.504  1.00  0.00     0.071 C 
HETATM   19  C25 UNL     1      -2.295  50.411 -21.545  1.00  0.00     0.071 C 
ENDROOT
BRANCH   1  20
HETATM   20  C5  UNL     1       0.182  50.358 -16.902  1.00  0.00    -0.011 C 
HETATM   21  C6  UNL     1      -0.945  50.876 -16.000  1.00  0.00     0.010 C 
BRANCH  20  22
HETATM   22  C4  UNL     1       1.230  51.487 -17.123  1.00  0.00     0.009 C 
BRANCH  22  23
HETATM   23  C3  UNL     1       1.641  52.206 -15.824  1.00  0.00     0.034 C 
BRANCH  23  24
HETATM   24  C2  UNL     1       3.073  51.999 -15.333  1.00  0.00    -0.083 C 
HETATM   25  C1  UNL     1       4.157  52.279 -16.081  1.00  0.00     0.015 C 
BRANCH  24  26
HETATM   26  C26 UNL     1       3.166  51.420 -13.909  1.00  0.00     0.033 C 
HETATM   27  C27 UNL     1       1.918  51.638 -13.041  1.00  0.00     0.017 C 
BRANCH  26  28
HETATM   28  C28 UNL     1       3.547  49.925 -13.924  1.00  0.00     0.172 C 
BRANCH  28  29
HETATM   29  O6  UNL     1       4.930  49.721 -13.650  1.00  0.00    -0.400 OA
HETATM   30  H48 UNL     1       5.117  50.167 -12.805  1.00  0.00     0.209 HD
ENDBRANCH  28  29
ENDBRANCH  26  28
ENDBRANCH  24  26
ENDBRANCH  23  24
ENDBRANCH  22  23
ENDBRANCH  20  22
ENDBRANCH   1  20
BRANCH   2  31
HETATM   31  O1  UNL     1      -2.223  48.857 -16.975  1.00  0.00    -0.393 OA
HETATM   32  H13 UNL     1      -2.711  48.027 -16.845  1.00  0.00     0.210 HD
ENDBRANCH   2  31
BRANCH   3  33
HETATM   33  O2  UNL     1      -2.502  47.544 -19.996  1.00  0.00    -0.392 OA
HETATM   34  H15 UNL     1      -3.015  46.990 -19.382  1.00  0.00     0.210 HD
ENDBRANCH   3  33
BRANCH  19  35
HETATM   35  O5  UNL     1      -3.315  51.300 -21.072  1.00  0.00    -0.389 OA
HETATM   36  H41 UNL     1      -4.023  50.771 -20.667  1.00  0.00     0.210 HD
ENDBRANCH  19  35
BRANCH  17  37
HETATM   37  O4  UNL     1      -3.263  48.498 -24.705  1.00  0.00    -0.395 OA
HETATM   38  H38 UNL     1      -4.015  49.099 -24.850  1.00  0.00     0.210 HD
ENDBRANCH  17  37
BRANCH  14  39
HETATM   39  O3  UNL     1      -1.492  51.889 -27.986  1.00  0.00    -0.396 OA
HETATM   40  H33 UNL     1      -1.622  51.058 -28.476  1.00  0.00     0.210 HD
ENDBRANCH  14  39
TORSDOF 12
ENDMDL
MODEL 7
REMARK minimizedAffinity -9.24523926
REMARK  12 active torsions:
REMARK  status: ('A' for Active; 'I' for Inactive)
REMARK    1  A    between atoms: C2_2  and  C3_3 
REMARK    2  A    between atoms: C2_2  and  C26_31 
REMARK    3  A    between atoms: C3_3  and  C4_4 
REMARK    4  A    between atoms: C4_4  and  C5_5 
REMARK    5  A    between atoms: C5_5  and  C7_7 
REMARK    6  A    between atoms: C8_8  and  O1_9 
REMARK    7  A    between atoms: C9_10  and  O2_11 
REMARK    8  A    between atoms: C20_22  and  O3_23 
REMARK    9  A    between atoms: C23_26  and  O4_27 
REMARK   10  A    between atoms: C25_29  and  O5_30 
REMARK   11  A    between atoms: C26_31  and  C28_33 
REMARK   12  A    between atoms: C28_33  and  O6_34 
ROOT
HETATM    1  C7  UNL     1      -2.963  50.348 -25.161  1.00  0.00     0.029 C 
HETATM    2  C8  UNL     1      -2.744  51.871 -24.874  1.00  0.00     0.152 C 
HETATM    3  C9  UNL     1      -3.237  52.137 -23.430  1.00  0.00     0.155 C 
HETATM    4  C10 UNL     1      -3.428  50.740 -22.849  1.00  0.00     0.060 C 
HETATM    5  C11 UNL     1      -4.014  49.936 -24.071  1.00  0.00    -0.029 C 
HETATM    6  C12 UNL     1      -5.436  50.351 -24.529  1.00  0.00     0.016 C 
HETATM    7  C13 UNL     1      -4.034  48.440 -23.689  1.00  0.00     0.011 C 
HETATM    8  C14 UNL     1      -4.732  48.164 -22.338  1.00  0.00     0.009 C 
HETATM    9  C15 UNL     1      -4.107  49.004 -21.210  1.00  0.00     0.029 C 
HETATM   10  C16 UNL     1      -4.543  48.655 -19.747  1.00  0.00    -0.031 C 
HETATM   11  C17 UNL     1      -5.957  49.189 -19.415  1.00  0.00     0.016 C 
HETATM   12  C18 UNL     1      -4.548  47.119 -19.488  1.00  0.00     0.012 C 
HETATM   13  C19 UNL     1      -4.716  46.748 -18.008  1.00  0.00     0.032 C 
HETATM   14  C20 UNL     1      -3.744  47.482 -17.085  1.00  0.00     0.118 C 
HETATM   15  C21 UNL     1      -3.681  48.990 -17.351  1.00  0.00     0.039 C 
HETATM   16  C22 UNL     1      -3.425  49.260 -18.838  1.00  0.00     0.025 C 
HETATM   17  C23 UNL     1      -2.975  50.693 -19.220  1.00  0.00     0.126 C 
HETATM   18  C24 UNL     1      -3.765  51.400 -20.322  1.00  0.00     0.071 C 
HETATM   19  C25 UNL     1      -4.207  50.536 -21.525  1.00  0.00     0.071 C 
ENDROOT
BRANCH   1  20
HETATM   20  C5  UNL     1      -3.213  50.020 -26.667  1.00  0.00    -0.011 C 
HETATM   21  C6  UNL     1      -3.245  48.511 -26.938  1.00  0.00     0.010 C 
BRANCH  20  22
HETATM   22  C4  UNL     1      -2.115  50.683 -27.549  1.00  0.00     0.009 C 
BRANCH  22  23
HETATM   23  C3  UNL     1      -0.726  50.707 -26.885  1.00  0.00     0.034 C 
BRANCH  23  24
HETATM   24  C2  UNL     1       0.184  51.892 -27.208  1.00  0.00    -0.083 C 
HETATM   25  C1  UNL     1       0.051  52.643 -28.318  1.00  0.00     0.015 C 
BRANCH  24  26
HETATM   26  C26 UNL     1       1.284  52.138 -26.159  1.00  0.00     0.033 C 
HETATM   27  C27 UNL     1       0.796  52.149 -24.703  1.00  0.00     0.017 C 
BRANCH  26  28
HETATM   28  C28 UNL     1       2.457  51.149 -26.318  1.00  0.00     0.172 C 
BRANCH  28  29
HETATM   29  O6  UNL     1       3.341  51.529 -27.368  1.00  0.00    -0.400 OA
HETATM   30  H48 UNL     1       3.619  52.444 -27.183  1.00  0.00     0.209 HD
ENDBRANCH  28  29
ENDBRANCH  26  28
ENDBRANCH  24  26
ENDBRANCH  23  24
ENDBRANCH  22  23
ENDBRANCH  20  22
ENDBRANCH   1  20
BRANCH   2  31
HETATM   31  O1  UNL     1      -3.472  52.700 -25.777  1.00  0.00    -0.393 OA
HETATM   32  H13 UNL     1      -3.127  53.604 -25.692  1.00  0.00     0.210 HD
ENDBRANCH   2  31
BRANCH   3  33
HETATM   33  O2  UNL     1      -2.252  52.868 -22.709  1.00  0.00    -0.392 OA
HETATM   34  H15 UNL     1      -2.196  53.758 -23.101  1.00  0.00     0.210 HD
ENDBRANCH   3  33
BRANCH  19  35
HETATM   35  O5  UNL     1      -5.579  50.884 -21.752  1.00  0.00    -0.389 OA
HETATM   36  H41 UNL     1      -5.636  51.845 -21.890  1.00  0.00     0.210 HD
ENDBRANCH  19  35
BRANCH  17  37
HETATM   37  O4  UNL     1      -2.914  51.543 -18.076  1.00  0.00    -0.395 OA
HETATM   38  H38 UNL     1      -3.824  51.695 -17.768  1.00  0.00     0.210 HD
ENDBRANCH  17  37
BRANCH  14  39
HETATM   39  O3  UNL     1      -4.136  47.250 -15.737  1.00  0.00    -0.396 OA
HETATM   40  H33 UNL     1      -3.502  47.716 -15.164  1.00  0.00     0.210 HD
ENDBRANCH  14  39
TORSDOF 12
ENDMDL
MODEL 8
REMARK minimizedAffinity -9.2321434
REMARK  12 active torsions:
REMARK  status: ('A' for Active; 'I' for Inactive)
REMARK    1  A    between atoms: C2_2  and  C3_3 
REMARK    2  A    between atoms: C2_2  and  C26_31 
REMARK    3  A    between atoms: C3_3  and  C4_4 
REMARK    4  A    between atoms: C4_4  and  C5_5 
REMARK    5  A    between atoms: C5_5  and  C7_7 
REMARK    6  A    between atoms: C8_8  and  O1_9 
REMARK    7  A    between atoms: C9_10  and  O2_11 
REMARK    8  A    between atoms: C20_22  and  O3_23 
REMARK    9  A    between atoms: C23_26  and  O4_27 
REMARK   10  A    between atoms: C25_29  and  O5_30 
REMARK   11  A    between atoms: C26_31  and  C28_33 
REMARK   12  A    between atoms: C28_33  and  O6_34 
ROOT
HETATM    1  C7  UNL     1      -1.054  50.687 -22.207  1.00  0.00     0.029 C 
HETATM    2  C8  UNL     1      -1.343  50.879 -20.680  1.00  0.00     0.152 C 
HETATM    3  C9  UNL     1      -2.847  50.581 -20.461  1.00  0.00     0.155 C 
HETATM    4  C10 UNL     1      -3.286  49.947 -21.777  1.00  0.00     0.060 C 
HETATM    5  C11 UNL     1      -2.484  50.780 -22.846  1.00  0.00    -0.029 C 
HETATM    6  C12 UNL     1      -2.900  52.267 -22.988  1.00  0.00     0.016 C 
HETATM    7  C13 UNL     1      -2.655  50.087 -24.215  1.00  0.00     0.011 C 
HETATM    8  C14 UNL     1      -4.131  49.813 -24.582  1.00  0.00     0.009 C 
HETATM    9  C15 UNL     1      -4.838  49.011 -23.474  1.00  0.00     0.029 C 
HETATM   10  C16 UNL     1      -6.261  48.451 -23.809  1.00  0.00    -0.031 C 
HETATM   11  C17 UNL     1      -7.349  49.550 -23.760  1.00  0.00     0.016 C 
HETATM   12  C18 UNL     1      -6.316  47.796 -25.221  1.00  0.00     0.012 C 
HETATM   13  C19 UNL     1      -7.608  47.012 -25.483  1.00  0.00     0.032 C 
HETATM   14  C20 UNL     1      -7.947  46.015 -24.376  1.00  0.00     0.118 C 
HETATM   15  C21 UNL     1      -7.852  46.617 -22.970  1.00  0.00     0.039 C 
HETATM   16  C22 UNL     1      -6.495  47.304 -22.774  1.00  0.00     0.025 C 
HETATM   17  C23 UNL     1      -6.089  47.643 -21.317  1.00  0.00     0.126 C 
HETATM   18  C24 UNL     1      -5.660  49.082 -21.031  1.00  0.00     0.071 C 
HETATM   19  C25 UNL     1      -4.791  49.774 -22.106  1.00  0.00     0.071 C 
ENDROOT
BRANCH   1  20
HETATM   20  C5  UNL     1       0.114  51.573 -22.743  1.00  0.00    -0.011 C 
HETATM   21  C6  UNL     1       1.026  52.079 -21.619  1.00  0.00     0.010 C 
BRANCH  20  22
HETATM   22  C4  UNL     1      -0.454  52.786 -23.537  1.00  0.00     0.009 C 
BRANCH  22  23
HETATM   23  C3  UNL     1       0.577  53.443 -24.474  1.00  0.00     0.034 C 
BRANCH  23  24
HETATM   24  C2  UNL     1       0.478  53.113 -25.963  1.00  0.00    -0.083 C 
HETATM   25  C1  UNL     1      -0.081  53.940 -26.866  1.00  0.00     0.015 C 
BRANCH  24  26
HETATM   26  C26 UNL     1       1.058  51.737 -26.337  1.00  0.00     0.033 C 
HETATM   27  C27 UNL     1       0.015  50.624 -26.517  1.00  0.00     0.017 C 
BRANCH  26  28
HETATM   28  C28 UNL     1       1.967  51.817 -27.581  1.00  0.00     0.172 C 
BRANCH  28  29
HETATM   29  O6  UNL     1       3.319  51.483 -27.280  1.00  0.00    -0.400 OA
HETATM   30  H48 UNL     1       3.304  50.605 -26.860  1.00  0.00     0.209 HD
ENDBRANCH  28  29
ENDBRANCH  26  28
ENDBRANCH  24  26
ENDBRANCH  23  24
ENDBRANCH  22  23
ENDBRANCH  20  22
ENDBRANCH   1  20
BRANCH   2  31
HETATM   31  O1  UNL     1      -1.060  52.205 -20.240  1.00  0.00    -0.393 OA
HETATM   32  H13 UNL     1      -1.045  52.198 -19.269  1.00  0.00     0.210 HD
ENDBRANCH   2  31
BRANCH   3  33
HETATM   33  O2  UNL     1      -3.008  49.680 -19.372  1.00  0.00    -0.392 OA
HETATM   34  H15 UNL     1      -2.745  50.146 -18.559  1.00  0.00     0.210 HD
ENDBRANCH   3  33
BRANCH  19  35
HETATM   35  O5  UNL     1      -5.367  51.077 -22.272  1.00  0.00    -0.389 OA
HETATM   36  H41 UNL     1      -5.385  51.520 -21.406  1.00  0.00     0.210 HD
ENDBRANCH  19  35
BRANCH  17  37
HETATM   37  O4  UNL     1      -7.110  47.272 -20.391  1.00  0.00    -0.395 OA
HETATM   38  H38 UNL     1      -7.869  47.866 -20.530  1.00  0.00     0.210 HD
ENDBRANCH  17  37
BRANCH  14  39
HETATM   39  O3  UNL     1      -9.262  45.520 -24.597  1.00  0.00    -0.396 OA
HETATM   40  H33 UNL     1      -9.457  44.880 -23.889  1.00  0.00     0.210 HD
ENDBRANCH  14  39
TORSDOF 12
ENDMDL
MODEL 9
REMARK minimizedAffinity -9.13640499
REMARK  12 active torsions:
REMARK  status: ('A' for Active; 'I' for Inactive)
REMARK    1  A    between atoms: C2_2  and  C3_3 
REMARK    2  A    between atoms: C2_2  and  C26_31 
REMARK    3  A    between atoms: C3_3  and  C4_4 
REMARK    4  A    between atoms: C4_4  and  C5_5 
REMARK    5  A    between atoms: C5_5  and  C7_7 
REMARK    6  A    between atoms: C8_8  and  O1_9 
REMARK    7  A    between atoms: C9_10  and  O2_11 
REMARK    8  A    between atoms: C20_22  and  O3_23 
REMARK    9  A    between atoms: C23_26  and  O4_27 
REMARK   10  A    between atoms: C25_29  and  O5_30 
REMARK   11  A    between atoms: C26_31  and  C28_33 
REMARK   12  A    between atoms: C28_33  and  O6_34 
ROOT
HETATM    1  C7  UNL     1      -3.087  49.283 -22.888  1.00  0.00     0.029 C 
HETATM    2  C8  UNL     1      -3.730  49.780 -21.550  1.00  0.00     0.152 C 
HETATM    3  C9  UNL     1      -5.266  49.657 -21.710  1.00  0.00     0.155 C 
HETATM    4  C10 UNL     1      -5.432  48.828 -22.979  1.00  0.00     0.060 C 
HETATM    5  C11 UNL     1      -4.280  49.376 -23.903  1.00  0.00    -0.029 C 
HETATM    6  C12 UNL     1      -4.446  50.840 -24.387  1.00  0.00     0.016 C 
HETATM    7  C13 UNL     1      -4.184  48.456 -25.139  1.00  0.00     0.011 C 
HETATM    8  C14 UNL     1      -5.539  48.244 -25.851  1.00  0.00     0.009 C 
HETATM    9  C15 UNL     1      -6.606  47.727 -24.869  1.00  0.00     0.029 C 
HETATM   10  C16 UNL     1      -7.957  47.236 -25.491  1.00  0.00    -0.031 C 
HETATM   11  C17 UNL     1      -8.866  48.413 -25.917  1.00  0.00     0.016 C 
HETATM   12  C18 UNL     1      -7.734  46.336 -26.743  1.00  0.00     0.012 C 
HETATM   13  C19 UNL     1      -9.007  45.629 -27.224  1.00  0.00     0.032 C 
HETATM   14  C20 UNL     1      -9.747  44.889 -26.110  1.00  0.00     0.118 C 
HETATM   15  C21 UNL     1      -9.938  45.734 -24.846  1.00  0.00     0.039 C 
HETATM   16  C22 UNL     1      -8.598  46.327 -24.394  1.00  0.00     0.025 C 
HETATM   17  C23 UNL     1      -8.539  46.897 -22.954  1.00  0.00     0.126 C 
HETATM   18  C24 UNL     1      -8.011  48.322 -22.791  1.00  0.00     0.071 C 
HETATM   19  C25 UNL     1      -6.811  48.725 -23.679  1.00  0.00     0.071 C 
ENDROOT
BRANCH   1  20
HETATM   20  C5  UNL     1      -1.714  49.951 -23.214  1.00  0.00    -0.011 C 
HETATM   21  C6  UNL     1      -0.958  50.378 -21.950  1.00  0.00     0.010 C 
BRANCH  20  22
HETATM   22  C4  UNL     1      -1.925  51.187 -24.136  1.00  0.00     0.009 C 
BRANCH  22  23
HETATM   23  C3  UNL     1      -1.189  51.079 -25.484  1.00  0.00     0.034 C 
BRANCH  23  24
HETATM   24  C2  UNL     1       0.185  51.741 -25.586  1.00  0.00    -0.083 C 
HETATM   25  C1  UNL     1       0.586  52.736 -24.774  1.00  0.00     0.015 C 
BRANCH  24  26
HETATM   26  C26 UNL     1       1.064  51.181 -26.720  1.00  0.00     0.033 C 
HETATM   27  C27 UNL     1       0.791  51.784 -28.106  1.00  0.00     0.017 C 
BRANCH  26  28
HETATM   28  C28 UNL     1       2.566  51.285 -26.384  1.00  0.00     0.172 C 
BRANCH  28  29
HETATM   29  O6  UNL     1       3.288  52.010 -27.375  1.00  0.00    -0.400 OA
HETATM   30  H48 UNL     1       2.846  52.872 -27.470  1.00  0.00     0.209 HD
ENDBRANCH  28  29
ENDBRANCH  26  28
ENDBRANCH  24  26
ENDBRANCH  23  24
ENDBRANCH  22  23
ENDBRANCH  20  22
ENDBRANCH   1  20
BRANCH   2  31
HETATM   31  O1  UNL     1      -3.397  51.137 -21.264  1.00  0.00    -0.393 OA
HETATM   32  H13 UNL     1      -3.633  51.310 -20.338  1.00  0.00     0.210 HD
ENDBRANCH   2  31
BRANCH   3  33
HETATM   33  O2  UNL     1      -5.818  48.993 -20.580  1.00  0.00    -0.392 OA
HETATM   34  H15 UNL     1      -5.714  49.579 -19.810  1.00  0.00     0.210 HD
ENDBRANCH   3  33
BRANCH  19  35
HETATM   35  O5  UNL     1      -7.149  50.018 -24.200  1.00  0.00    -0.389 OA
HETATM   36  H41 UNL     1      -7.329  50.615 -23.454  1.00  0.00     0.210 HD
ENDBRANCH  19  35
BRANCH  17  37
HETATM   37  O4  UNL     1      -9.802  46.794 -22.299  1.00  0.00    -0.395 OA
HETATM   38  H38 UNL     1     -10.415  47.413 -22.733  1.00  0.00     0.210 HD
ENDBRANCH  17  37
BRANCH  14  39
HETATM   39  O3  UNL     1     -11.016  44.475 -26.605  1.00  0.00    -0.396 OA
HETATM   40  H33 UNL     1     -11.468  43.998 -25.887  1.00  0.00     0.210 HD
ENDBRANCH  14  39
TORSDOF 12
ENDMDL
