MODEL 1
REMARK minimizedAffinity -8.50661564
REMARK CNNscore 0.448870033
REMARK CNNaffinity 6.8089757
REMARK  23 active torsions:
REMARK  status: ('A' for Active; 'I' for Inactive)
REMARK    1  A    between atoms: C3_3  and  C4_4 
REMARK    2  A    between atoms: C5_5  and  C6_6 
REMARK    3  A    between atoms: C7_8  and  O2_9 
REMARK    4  A    between atoms: C7_8  and  C8_10 
REMARK    5  A    between atoms: C8_10  and  C10_12 
REMARK       I    between atoms: C10_12  and  N1_14 
REMARK    6  A    between atoms: N1_14  and  C11_15 
REMARK    7  A    between atoms: C11_15  and  C12_16 
REMARK    8  A    between atoms: C13_17  and  C14_18 
REMARK    9  A    between atoms: C15_19  and  C17_21 
REMARK   10  A    between atoms: C17_21  and  O4_22 
REMARK   11  A    between atoms: C17_21  and  C19_24 
REMARK   12  A    between atoms: C19_24  and  C21_26 
REMARK   13  A    between atoms: C23_28  and  O5_29 
REMARK   14  A    between atoms: C24_30  and  C25_31 
REMARK   15  A    between atoms: C26_32  and  C27_33 
REMARK   16  A    between atoms: C28_34  and  C29_35 
REMARK   17  A    between atoms: C30_36  and  C31_37 
REMARK   18  A    between atoms: C31_37  and  O7_39 
REMARK   19  A    between atoms: C32_41  and  O9_42 
REMARK   20  A    between atoms: O9_42  and  C33_43 
REMARK   21  A    between atoms: C33_43  and  C34_45 
REMARK   22  A    between atoms: C34_45  and  C35_46 
REMARK   23  A    between atoms: C41_52  and  O11_53 
ROOT
HETATM    1  C10 UNL     1      -1.416   9.757  16.136  1.00  0.00     0.227 C 
HETATM    2  O3  UNL     1      -2.411  10.337  15.706  1.00  0.00    -0.273 OA
HETATM    3  N1  UNL     1      -0.971   9.882  17.431  1.00  0.00    -0.357 N 
HETATM    4  H14 UNL     1       0.000   9.631  17.604  1.00  0.00     0.162 HD
ENDROOT
BRANCH   1   5
HETATM    5  C8  UNL     1      -0.535   8.905  15.226  1.00  0.00     0.139 C 
HETATM    6  C9  UNL     1       0.839   8.796  15.897  1.00  0.00     0.026 C 
BRANCH   5   7
HETATM    7  C7  UNL     1      -1.270   7.555  14.968  1.00  0.00     0.204 C 
HETATM    8  O1  UNL     1      -2.621   7.700  15.470  1.00  0.00    -0.342 OA
HETATM    9  C6  UNL     1      -3.521   6.712  14.968  1.00  0.00     0.158 C 
HETATM   10  C42 UNL     1      -3.851   7.034  13.473  1.00  0.00     0.011 C 
HETATM   11  C41 UNL     1      -2.572   7.591  12.772  1.00  0.00     0.163 C 
HETATM   12  C43 UNL     1      -4.280   5.724  12.774  1.00  0.00     0.020 C 
HETATM   13  C44 UNL     1      -5.012   8.042  13.331  1.00  0.00     0.020 C 
HETATM   14  C32 UNL     1      -1.307   7.070  13.476  1.00  0.00     0.224 C 
BRANCH   9  15
HETATM   15  C5  UNL     1      -4.729   6.598  15.868  1.00  0.00     0.006 C 
HETATM   16  C4  UNL     1      -6.009   6.816  15.524  1.00  0.00    -0.002 C 
BRANCH  16  17
HETATM   17  C3  UNL     1      -7.095   6.687  16.468  1.00  0.00    -0.005 C 
HETATM   18  C2  UNL     1      -8.406   6.738  16.193  1.00  0.00    -0.031 C 
HETATM   19  C1  UNL     1      -9.067   6.901  14.864  1.00  0.00     0.036 C 
ENDBRANCH  16  17
ENDBRANCH   9  15
BRANCH  11  20
HETATM   20  O11 UNL     1      -2.527   9.026  12.761  1.00  0.00    -0.392 OA
HETATM   21  H53 UNL     1      -3.131   9.340  12.063  1.00  0.00     0.210 HD
ENDBRANCH  11  20
BRANCH  14  22
HETATM   22  O9  UNL     1      -0.126   7.424  12.730  1.00  0.00    -0.307 OA
BRANCH  22  23
HETATM   23  C33 UNL     1       0.768   6.413  12.541  1.00  0.00     0.263 C 
HETATM   24  O10 UNL     1       1.625   6.088  13.353  1.00  0.00    -0.265 OA
BRANCH  23  25
HETATM   25  C34 UNL     1       0.546   5.738  11.206  1.00  0.00     0.149 C 
BRANCH  25  26
HETATM   26  C35 UNL     1       1.101   6.541  10.056  1.00  0.00    -0.049 A 
HETATM   27  C36 UNL     1       0.318   7.533   9.455  1.00  0.00     0.007 A 
HETATM   28  C37 UNL     1       0.831   8.304   8.410  1.00  0.00     0.001 A 
HETATM   29  C38 UNL     1       2.130   8.085   7.956  1.00  0.00     0.000 A 
HETATM   30  C39 UNL     1       2.919   7.097   8.546  1.00  0.00     0.001 A 
HETATM   31  C40 UNL     1       2.407   6.332   9.595  1.00  0.00     0.007 A 
ENDBRANCH  25  26
ENDBRANCH  23  25
ENDBRANCH  22  23
ENDBRANCH  14  22
BRANCH   7  32
HETATM   32  O2  UNL     1      -0.632   6.498  15.707  1.00  0.00    -0.362 OA
HETATM   33  H9  UNL     1      -0.357   6.860  16.570  1.00  0.00     0.213 HD
ENDBRANCH   7  32
ENDBRANCH   5   7
ENDBRANCH   1   5
BRANCH   3  34
HETATM   34  C11 UNL     1      -1.596  10.790  18.362  1.00  0.00     0.149 C 
BRANCH  34  35
HETATM   35  C12 UNL     1      -0.597  11.431  19.274  1.00  0.00    -0.007 C 
HETATM   36  C13 UNL     1       0.498  10.875  19.810  1.00  0.00    -0.002 C 
BRANCH  36  37
HETATM   37  C14 UNL     1       1.371  11.597  20.716  1.00  0.00     0.005 C 
HETATM   38  C15 UNL     1       2.707  11.733  20.591  1.00  0.00    -0.055 C 
HETATM   39  C16 UNL     1       3.498  11.166  19.437  1.00  0.00     0.046 C 
BRANCH  38  40
HETATM   40  C17 UNL     1       3.502  12.442  21.694  1.00  0.00     0.155 C 
BRANCH  40  41
HETATM   41  O4  UNL     1       2.656  12.642  22.830  1.00  0.00    -0.386 OA
HETATM   42  C18 UNL     1       2.675  13.982  23.307  1.00  0.00     0.202 C 
ENDBRANCH  40  41
BRANCH  40  43
HETATM   43  C19 UNL     1       4.797  11.666  22.084  1.00  0.00     0.044 C 
HETATM   44  C20 UNL     1       4.508  10.467  22.999  1.00  0.00     0.015 C 
BRANCH  43  45
HETATM   45  C21 UNL     1       5.870  12.559  22.754  1.00  0.00     0.131 C 
HETATM   46  C22 UNL     1       7.083  11.820  23.307  1.00  0.00     0.067 C 
HETATM   47  C23 UNL     1       8.288  12.625  22.866  1.00  0.00     0.153 C 
HETATM   48  C24 UNL     1       7.720  13.840  22.128  1.00  0.00     0.173 C 
HETATM   49  O8  UNL     1       6.336  13.578  21.874  1.00  0.00    -0.374 OA
BRANCH  47  50
HETATM   50  O5  UNL     1       9.091  11.828  21.990  1.00  0.00    -0.393 OA
HETATM   51  H35 UNL     1       9.463  11.099  22.510  1.00  0.00     0.210 HD
ENDBRANCH  47  50
BRANCH  48  52
HETATM   52  C25 UNL     1       7.785  15.114  22.928  1.00  0.00     0.007 C 
HETATM   53  C26 UNL     1       8.641  15.316  23.944  1.00  0.00    -0.001 C 
BRANCH  53  54
HETATM   54  C27 UNL     1       8.722  16.566  24.664  1.00  0.00    -0.000 C 
HETATM   55  C28 UNL     1       7.944  16.852  25.720  1.00  0.00     0.000 C 
BRANCH  55  56
HETATM   56  C29 UNL     1       8.037  18.099  26.448  1.00  0.00     0.007 C 
HETATM   57  C30 UNL     1       7.489  18.272  27.659  1.00  0.00     0.081 C 
BRANCH  57  58
HETATM   58  C31 UNL     1       7.644  19.562  28.346  1.00  0.00     0.165 C 
HETATM   59  O6  UNL     1       8.643  20.252  28.413  1.00  0.00    -0.647 OA
BRANCH  58  60
HETATM   60  O7  UNL     1       6.479  19.925  28.912  1.00  0.00    -0.773 OA
HETATM   61  H43 UNL     1       6.682  20.782  29.342  1.00  0.00     0.167 HD
ENDBRANCH  58  60
ENDBRANCH  57  58
ENDBRANCH  55  56
ENDBRANCH  53  54
ENDBRANCH  48  52
ENDBRANCH  43  45
ENDBRANCH  40  43
ENDBRANCH  38  40
ENDBRANCH  36  37
ENDBRANCH  34  35
ENDBRANCH   3  34
TORSDOF 23
ENDMDL
MODEL 2
REMARK minimizedAffinity -8.55192947
REMARK CNNscore 0.442480028
REMARK CNNaffinity 7.70490122
REMARK  23 active torsions:
REMARK  status: ('A' for Active; 'I' for Inactive)
REMARK    1  A    between atoms: C3_3  and  C4_4 
REMARK    2  A    between atoms: C5_5  and  C6_6 
REMARK    3  A    between atoms: C7_8  and  O2_9 
REMARK    4  A    between atoms: C7_8  and  C8_10 
REMARK    5  A    between atoms: C8_10  and  C10_12 
REMARK       I    between atoms: C10_12  and  N1_14 
REMARK    6  A    between atoms: N1_14  and  C11_15 
REMARK    7  A    between atoms: C11_15  and  C12_16 
REMARK    8  A    between atoms: C13_17  and  C14_18 
REMARK    9  A    between atoms: C15_19  and  C17_21 
REMARK   10  A    between atoms: C17_21  and  O4_22 
REMARK   11  A    between atoms: C17_21  and  C19_24 
REMARK   12  A    between atoms: C19_24  and  C21_26 
REMARK   13  A    between atoms: C23_28  and  O5_29 
REMARK   14  A    between atoms: C24_30  and  C25_31 
REMARK   15  A    between atoms: C26_32  and  C27_33 
REMARK   16  A    between atoms: C28_34  and  C29_35 
REMARK   17  A    between atoms: C30_36  and  C31_37 
REMARK   18  A    between atoms: C31_37  and  O7_39 
REMARK   19  A    between atoms: C32_41  and  O9_42 
REMARK   20  A    between atoms: O9_42  and  C33_43 
REMARK   21  A    between atoms: C33_43  and  C34_45 
REMARK   22  A    between atoms: C34_45  and  C35_46 
REMARK   23  A    between atoms: C41_52  and  O11_53 
ROOT
HETATM    1  C10 UNL     1      -4.058   5.937  15.180  1.00  0.00     0.227 C 
HETATM    2  O3  UNL     1      -3.446   5.841  16.242  1.00  0.00    -0.273 OA
HETATM    3  N1  UNL     1      -5.423   6.088  15.107  1.00  0.00    -0.357 N 
HETATM    4  H14 UNL     1      -5.859   5.847  14.219  1.00  0.00     0.162 HD
ENDROOT
BRANCH   1   5
HETATM    5  C8  UNL     1      -3.346   5.810  13.836  1.00  0.00     0.139 C 
HETATM    6  C9  UNL     1      -4.416   5.504  12.781  1.00  0.00     0.026 C 
BRANCH   5   7
HETATM    7  C7  UNL     1      -2.520   7.110  13.602  1.00  0.00     0.204 C 
HETATM    8  O1  UNL     1      -2.287   7.710  14.900  1.00  0.00    -0.342 OA
HETATM    9  C6  UNL     1      -1.235   8.675  14.899  1.00  0.00     0.158 C 
HETATM   10  C42 UNL     1       0.138   7.933  14.797  1.00  0.00     0.011 C 
HETATM   11  C41 UNL     1      -0.012   6.698  13.854  1.00  0.00     0.163 C 
HETATM   12  C43 UNL     1       1.176   8.906  14.193  1.00  0.00     0.020 C 
HETATM   13  C44 UNL     1       0.667   7.483  16.176  1.00  0.00     0.020 C 
HETATM   14  C32 UNL     1      -1.154   6.929  12.850  1.00  0.00     0.224 C 
BRANCH   9  15
HETATM   15  C5  UNL     1      -1.366   9.595  16.090  1.00  0.00     0.006 C 
HETATM   16  C4  UNL     1      -1.097  10.911  16.120  1.00  0.00    -0.002 C 
BRANCH  16  17
HETATM   17  C3  UNL     1      -1.249  11.702  17.319  1.00  0.00    -0.005 C 
HETATM   18  C2  UNL     1      -2.322  11.745  18.121  1.00  0.00    -0.031 C 
HETATM   19  C1  UNL     1      -3.596  10.974  18.003  1.00  0.00     0.036 C 
ENDBRANCH  16  17
ENDBRANCH   9  15
BRANCH  11  20
HETATM   20  O11 UNL     1      -0.277   5.483  14.572  1.00  0.00    -0.392 OA
HETATM   21  H53 UNL     1       0.562   5.173  14.958  1.00  0.00     0.210 HD
ENDBRANCH  11  20
BRANCH  14  22
HETATM   22  O9  UNL     1      -1.182   5.882  11.860  1.00  0.00    -0.307 OA
BRANCH  22  23
HETATM   23  C33 UNL     1       0.039   5.429  11.458  1.00  0.00     0.263 C 
HETATM   24  O10 UNL     1       0.314   4.250  11.279  1.00  0.00    -0.265 OA
BRANCH  23  25
HETATM   25  C34 UNL     1       0.999   6.579  11.247  1.00  0.00     0.149 C 
BRANCH  25  26
HETATM   26  C35 UNL     1       1.272   6.841   9.787  1.00  0.00    -0.049 A 
HETATM   27  C36 UNL     1       0.521   7.799   9.097  1.00  0.00     0.007 A 
HETATM   28  C37 UNL     1       0.785   8.071   7.753  1.00  0.00     0.001 A 
HETATM   29  C38 UNL     1       1.801   7.386   7.089  1.00  0.00     0.000 A 
HETATM   30  C39 UNL     1       2.555   6.427   7.767  1.00  0.00     0.001 A 
HETATM   31  C40 UNL     1       2.294   6.160   9.112  1.00  0.00     0.007 A 
ENDBRANCH  25  26
ENDBRANCH  23  25
ENDBRANCH  22  23
ENDBRANCH  14  22
BRANCH   7  32
HETATM   32  O2  UNL     1      -3.280   8.042  12.812  1.00  0.00    -0.362 OA
HETATM   33  H9  UNL     1      -4.212   7.982  13.094  1.00  0.00     0.213 HD
ENDBRANCH   7  32
ENDBRANCH   5   7
ENDBRANCH   1   5
BRANCH   3  34
HETATM   34  C11 UNL     1      -6.253   6.048  16.285  1.00  0.00     0.149 C 
BRANCH  34  35
HETATM   35  C12 UNL     1      -7.579   6.705  16.059  1.00  0.00    -0.007 C 
HETATM   36  C13 UNL     1      -7.852   7.742  15.254  1.00  0.00    -0.002 C 
BRANCH  36  37
HETATM   37  C14 UNL     1      -9.180   8.315  15.151  1.00  0.00     0.005 C 
HETATM   38  C15 UNL     1     -10.182   7.862  14.369  1.00  0.00    -0.055 C 
HETATM   39  C16 UNL     1     -10.067   6.637  13.495  1.00  0.00     0.046 C 
BRANCH  38  40
HETATM   40  C17 UNL     1     -11.497   8.646  14.295  1.00  0.00     0.155 C 
BRANCH  40  41
HETATM   41  O4  UNL     1     -11.258   9.911  13.672  1.00  0.00    -0.386 OA
HETATM   42  C18 UNL     1     -11.502  11.012  14.538  1.00  0.00     0.202 C 
ENDBRANCH  40  41
BRANCH  40  43
HETATM   43  C19 UNL     1     -12.619   7.855  13.554  1.00  0.00     0.044 C 
HETATM   44  C20 UNL     1     -13.492   8.763  12.675  1.00  0.00     0.015 C 
BRANCH  43  45
HETATM   45  C21 UNL     1     -13.535   7.050  14.508  1.00  0.00     0.131 C 
HETATM   46  C22 UNL     1     -14.304   7.880  15.530  1.00  0.00     0.067 C 
HETATM   47  C23 UNL     1     -15.719   7.339  15.513  1.00  0.00     0.153 C 
HETATM   48  C24 UNL     1     -15.699   6.171  14.525  1.00  0.00     0.173 C 
HETATM   49  O8  UNL     1     -14.473   6.251  13.791  1.00  0.00    -0.374 OA
BRANCH  47  50
HETATM   50  O5  UNL     1     -16.609   8.367  15.066  1.00  0.00    -0.393 OA
HETATM   51  H35 UNL     1     -16.622   9.062  15.742  1.00  0.00     0.210 HD
ENDBRANCH  47  50
BRANCH  48  52
HETATM   52  C25 UNL     1     -15.722   4.820  15.191  1.00  0.00     0.007 C 
HETATM   53  C26 UNL     1     -16.418   3.769  14.726  1.00  0.00    -0.001 C 
BRANCH  53  54
HETATM   54  C27 UNL     1     -16.384   2.467  15.351  1.00  0.00    -0.000 C 
HETATM   55  C28 UNL     1     -15.326   1.644  15.267  1.00  0.00     0.000 C 
BRANCH  55  56
HETATM   56  C29 UNL     1     -15.288   0.347  15.906  1.00  0.00     0.007 C 
HETATM   57  C30 UNL     1     -16.137  -0.003  16.883  1.00  0.00     0.081 C 
BRANCH  57  58
HETATM   58  C31 UNL     1     -16.051  -1.347  17.469  1.00  0.00     0.165 C 
HETATM   59  O6  UNL     1     -16.412  -1.700  18.575  1.00  0.00    -0.647 OA
BRANCH  58  60
HETATM   60  O7  UNL     1     -15.512  -2.202  16.582  1.00  0.00    -0.773 OA
HETATM   61  H43 UNL     1     -15.493  -3.059  17.059  1.00  0.00     0.167 HD
ENDBRANCH  58  60
ENDBRANCH  57  58
ENDBRANCH  55  56
ENDBRANCH  53  54
ENDBRANCH  48  52
ENDBRANCH  43  45
ENDBRANCH  40  43
ENDBRANCH  38  40
ENDBRANCH  36  37
ENDBRANCH  34  35
ENDBRANCH   3  34
TORSDOF 23
ENDMDL
MODEL 3
REMARK minimizedAffinity -9.07416058
REMARK CNNscore 0.358247221
REMARK CNNaffinity 6.91741705
REMARK  23 active torsions:
REMARK  status: ('A' for Active; 'I' for Inactive)
REMARK    1  A    between atoms: C3_3  and  C4_4 
REMARK    2  A    between atoms: C5_5  and  C6_6 
REMARK    3  A    between atoms: C7_8  and  O2_9 
REMARK    4  A    between atoms: C7_8  and  C8_10 
REMARK    5  A    between atoms: C8_10  and  C10_12 
REMARK       I    between atoms: C10_12  and  N1_14 
REMARK    6  A    between atoms: N1_14  and  C11_15 
REMARK    7  A    between atoms: C11_15  and  C12_16 
REMARK    8  A    between atoms: C13_17  and  C14_18 
REMARK    9  A    between atoms: C15_19  and  C17_21 
REMARK   10  A    between atoms: C17_21  and  O4_22 
REMARK   11  A    between atoms: C17_21  and  C19_24 
REMARK   12  A    between atoms: C19_24  and  C21_26 
REMARK   13  A    between atoms: C23_28  and  O5_29 
REMARK   14  A    between atoms: C24_30  and  C25_31 
REMARK   15  A    between atoms: C26_32  and  C27_33 
REMARK   16  A    between atoms: C28_34  and  C29_35 
REMARK   17  A    between atoms: C30_36  and  C31_37 
REMARK   18  A    between atoms: C31_37  and  O7_39 
REMARK   19  A    between atoms: C32_41  and  O9_42 
REMARK   20  A    between atoms: O9_42  and  C33_43 
REMARK   21  A    between atoms: C33_43  and  C34_45 
REMARK   22  A    between atoms: C34_45  and  C35_46 
REMARK   23  A    between atoms: C41_52  and  O11_53 
ROOT
HETATM    1  C10 UNL     1      -1.919  10.264  15.354  1.00  0.00     0.227 C 
HETATM    2  O3  UNL     1      -1.394  11.149  14.680  1.00  0.00    -0.273 OA
HETATM    3  N1  UNL     1      -2.918  10.505  16.268  1.00  0.00    -0.357 N 
HETATM    4  H14 UNL     1      -3.064   9.791  16.979  1.00  0.00     0.162 HD
ENDROOT
BRANCH   1   5
HETATM    5  C8  UNL     1      -1.436   8.818  15.286  1.00  0.00     0.139 C 
HETATM    6  C9  UNL     1      -2.023   8.084  16.497  1.00  0.00     0.026 C 
BRANCH   5   7
HETATM    7  C7  UNL     1      -1.828   8.242  13.892  1.00  0.00     0.204 C 
HETATM    8  O1  UNL     1      -0.661   8.345  13.041  1.00  0.00    -0.342 OA
HETATM    9  C6  UNL     1      -0.732   7.520  11.878  1.00  0.00     0.158 C 
HETATM   10  C42 UNL     1      -0.517   6.028  12.295  1.00  0.00     0.011 C 
HETATM   11  C41 UNL     1      -1.201   5.776  13.675  1.00  0.00     0.163 C 
HETATM   12  C43 UNL     1      -1.178   5.123  11.231  1.00  0.00     0.020 C 
HETATM   13  C44 UNL     1       0.978   5.648  12.369  1.00  0.00     0.020 C 
HETATM   14  C32 UNL     1      -2.360   6.765  13.886  1.00  0.00     0.224 C 
BRANCH   9  15
HETATM   15  C5  UNL     1       0.224   8.022  10.821  1.00  0.00     0.006 C 
HETATM   16  C4  UNL     1       0.066   7.931   9.490  1.00  0.00    -0.002 C 
BRANCH  16  17
HETATM   17  C3  UNL     1       1.049   8.438   8.560  1.00  0.00    -0.005 C 
HETATM   18  C2  UNL     1       2.133   7.793   8.109  1.00  0.00    -0.031 C 
HETATM   19  C1  UNL     1       2.576   6.400   8.417  1.00  0.00     0.036 C 
ENDBRANCH  16  17
ENDBRANCH   9  15
BRANCH  11  20
HETATM   20  O11 UNL     1      -0.289   5.904  14.777  1.00  0.00    -0.392 OA
HETATM   21  H53 UNL     1       0.250   5.093  14.817  1.00  0.00     0.210 HD
ENDBRANCH  11  20
BRANCH  14  22
HETATM   22  O9  UNL     1      -3.113   6.424  15.066  1.00  0.00    -0.307 OA
BRANCH  22  23
HETATM   23  C33 UNL     1      -4.449   6.240  14.871  1.00  0.00     0.263 C 
HETATM   24  O10 UNL     1      -5.275   6.168  15.771  1.00  0.00    -0.265 OA
BRANCH  23  25
HETATM   25  C34 UNL     1      -4.773   6.154  13.396  1.00  0.00     0.149 C 
BRANCH  25  26
HETATM   26  C35 UNL     1      -5.500   4.881  13.040  1.00  0.00    -0.049 A 
HETATM   27  C36 UNL     1      -6.833   4.706  13.427  1.00  0.00     0.007 A 
HETATM   28  C37 UNL     1      -7.526   3.546  13.076  1.00  0.00     0.001 A 
HETATM   29  C38 UNL     1      -6.890   2.550  12.337  1.00  0.00     0.000 A 
HETATM   30  C39 UNL     1      -5.560   2.714  11.947  1.00  0.00     0.001 A 
HETATM   31  C40 UNL     1      -4.870   3.876  12.293  1.00  0.00     0.007 A 
ENDBRANCH  25  26
ENDBRANCH  23  25
ENDBRANCH  22  23
ENDBRANCH  14  22
BRANCH   7  32
HETATM   32  O2  UNL     1      -2.875   9.037  13.307  1.00  0.00    -0.362 OA
HETATM   33  H9  UNL     1      -2.701   9.971  13.528  1.00  0.00     0.213 HD
ENDBRANCH   7  32
ENDBRANCH   5   7
ENDBRANCH   1   5
BRANCH   3  34
HETATM   34  C11 UNL     1      -3.359  11.843  16.572  1.00  0.00     0.149 C 
BRANCH  34  35
HETATM   35  C12 UNL     1      -3.717  12.000  18.017  1.00  0.00    -0.007 C 
HETATM   36  C13 UNL     1      -4.537  12.908  18.564  1.00  0.00    -0.002 C 
BRANCH  36  37
HETATM   37  C14 UNL     1      -4.774  12.979  19.993  1.00  0.00     0.005 C 
HETATM   38  C15 UNL     1      -5.907  13.400  20.590  1.00  0.00    -0.055 C 
HETATM   39  C16 UNL     1      -7.137  13.836  19.831  1.00  0.00     0.046 C 
BRANCH  38  40
HETATM   40  C17 UNL     1      -5.961  13.515  22.118  1.00  0.00     0.155 C 
BRANCH  40  41
HETATM   41  O4  UNL     1      -4.873  14.327  22.569  1.00  0.00    -0.386 OA
HETATM   42  C18 UNL     1      -4.953  15.669  22.106  1.00  0.00     0.202 C 
ENDBRANCH  40  41
BRANCH  40  43
HETATM   43  C19 UNL     1      -7.327  14.069  22.625  1.00  0.00     0.044 C 
HETATM   44  C20 UNL     1      -7.156  15.135  23.719  1.00  0.00     0.015 C 
BRANCH  43  45
HETATM   45  C21 UNL     1      -8.283  12.968  23.145  1.00  0.00     0.131 C 
HETATM   46  C22 UNL     1      -8.912  13.238  24.507  1.00  0.00     0.067 C 
HETATM   47  C23 UNL     1     -10.377  12.881  24.358  1.00  0.00     0.153 C 
HETATM   48  C24 UNL     1     -10.526  12.355  22.928  1.00  0.00     0.173 C 
HETATM   49  O8  UNL     1      -9.331  12.697  22.219  1.00  0.00    -0.374 OA
BRANCH  47  50
HETATM   50  O5  UNL     1     -11.168  14.058  24.551  1.00  0.00    -0.393 OA
HETATM   51  H35 UNL     1     -11.077  14.328  25.478  1.00  0.00     0.210 HD
ENDBRANCH  47  50
BRANCH  48  52
HETATM   52  C25 UNL     1     -10.667  10.858  22.851  1.00  0.00     0.007 C 
HETATM   53  C26 UNL     1     -11.092  10.093  23.871  1.00  0.00    -0.001 C 
BRANCH  53  54
HETATM   54  C27 UNL     1     -11.271   8.663  23.759  1.00  0.00    -0.000 C 
HETATM   55  C28 UNL     1     -12.472   8.090  23.582  1.00  0.00     0.000 C 
BRANCH  55  56
HETATM   56  C29 UNL     1     -12.647   6.659  23.456  1.00  0.00     0.007 C 
HETATM   57  C30 UNL     1     -13.520   5.968  24.203  1.00  0.00     0.081 C 
BRANCH  57  58
HETATM   58  C31 UNL     1     -13.656   4.519  24.002  1.00  0.00     0.165 C 
HETATM   59  O6  UNL     1     -13.609   3.908  22.953  1.00  0.00    -0.647 OA
BRANCH  58  60
HETATM   60  O7  UNL     1     -13.831   3.905  25.186  1.00  0.00    -0.773 OA
HETATM   61  H43 UNL     1     -13.915   2.957  24.950  1.00  0.00     0.167 HD
ENDBRANCH  58  60
ENDBRANCH  57  58
ENDBRANCH  55  56
ENDBRANCH  53  54
ENDBRANCH  48  52
ENDBRANCH  43  45
ENDBRANCH  40  43
ENDBRANCH  38  40
ENDBRANCH  36  37
ENDBRANCH  34  35
ENDBRANCH   3  34
TORSDOF 23
ENDMDL
MODEL 4
REMARK minimizedAffinity -8.90530586
REMARK CNNscore 0.343474567
REMARK CNNaffinity 7.53735209
REMARK  23 active torsions:
REMARK  status: ('A' for Active; 'I' for Inactive)
REMARK    1  A    between atoms: C3_3  and  C4_4 
REMARK    2  A    between atoms: C5_5  and  C6_6 
REMARK    3  A    between atoms: C7_8  and  O2_9 
REMARK    4  A    between atoms: C7_8  and  C8_10 
REMARK    5  A    between atoms: C8_10  and  C10_12 
REMARK       I    between atoms: C10_12  and  N1_14 
REMARK    6  A    between atoms: N1_14  and  C11_15 
REMARK    7  A    between atoms: C11_15  and  C12_16 
REMARK    8  A    between atoms: C13_17  and  C14_18 
REMARK    9  A    between atoms: C15_19  and  C17_21 
REMARK   10  A    between atoms: C17_21  and  O4_22 
REMARK   11  A    between atoms: C17_21  and  C19_24 
REMARK   12  A    between atoms: C19_24  and  C21_26 
REMARK   13  A    between atoms: C23_28  and  O5_29 
REMARK   14  A    between atoms: C24_30  and  C25_31 
REMARK   15  A    between atoms: C26_32  and  C27_33 
REMARK   16  A    between atoms: C28_34  and  C29_35 
REMARK   17  A    between atoms: C30_36  and  C31_37 
REMARK   18  A    between atoms: C31_37  and  O7_39 
REMARK   19  A    between atoms: C32_41  and  O9_42 
REMARK   20  A    between atoms: O9_42  and  C33_43 
REMARK   21  A    between atoms: C33_43  and  C34_45 
REMARK   22  A    between atoms: C34_45  and  C35_46 
REMARK   23  A    between atoms: C41_52  and  O11_53 
ROOT
HETATM    1  C10 UNL     1       1.980   9.614  14.811  1.00  0.00     0.227 C 
HETATM    2  O3  UNL     1       1.469  10.610  15.319  1.00  0.00    -0.273 OA
HETATM    3  N1  UNL     1       1.417   8.931  13.758  1.00  0.00    -0.357 N 
HETATM    4  H14 UNL     1       1.733   7.973  13.618  1.00  0.00     0.162 HD
ENDROOT
BRANCH   1   5
HETATM    5  C8  UNL     1       3.258   8.999  15.375  1.00  0.00     0.139 C 
HETATM    6  C9  UNL     1       3.047   7.481  15.430  1.00  0.00     0.026 C 
BRANCH   5   7
HETATM    7  C7  UNL     1       4.454   9.483  14.500  1.00  0.00     0.204 C 
HETATM    8  O1  UNL     1       5.483   9.953  15.404  1.00  0.00    -0.342 OA
HETATM    9  C6  UNL     1       6.769  10.061  14.792  1.00  0.00     0.158 C 
HETATM   10  C42 UNL     1       7.357   8.627  14.582  1.00  0.00     0.011 C 
HETATM   11  C41 UNL     1       6.205   7.649  14.192  1.00  0.00     0.163 C 
HETATM   12  C43 UNL     1       8.383   8.683  13.428  1.00  0.00     0.020 C 
HETATM   13  C44 UNL     1       8.092   8.104  15.836  1.00  0.00     0.020 C 
HETATM   14  C32 UNL     1       5.057   8.419  13.516  1.00  0.00     0.224 C 
BRANCH   9  15
HETATM   15  C5  UNL     1       7.651  10.993  15.588  1.00  0.00     0.006 C 
HETATM   16  C4  UNL     1       7.265  11.804  16.587  1.00  0.00    -0.002 C 
BRANCH  16  17
HETATM   17  C3  UNL     1       8.192  12.668  17.283  1.00  0.00    -0.005 C 
HETATM   18  C2  UNL     1       9.485  12.858  16.987  1.00  0.00    -0.031 C 
HETATM   19  C1  UNL     1      10.275  12.268  15.865  1.00  0.00     0.036 C 
ENDBRANCH  16  17
ENDBRANCH   9  15
BRANCH  11  20
HETATM   20  O11 UNL     1       5.672   6.942  15.323  1.00  0.00    -0.392 OA
HETATM   21  H53 UNL     1       6.295   6.228  15.551  1.00  0.00     0.210 HD
ENDBRANCH  11  20
BRANCH  14  22
HETATM   22  O9  UNL     1       4.074   7.507  12.988  1.00  0.00    -0.307 OA
BRANCH  22  23
HETATM   23  C33 UNL     1       4.057   7.393  11.629  1.00  0.00     0.263 C 
HETATM   24  O10 UNL     1       4.878   7.909  10.883  1.00  0.00    -0.265 OA
BRANCH  23  25
HETATM   25  C34 UNL     1       2.902   6.531  11.174  1.00  0.00     0.149 C 
BRANCH  25  26
HETATM   26  C35 UNL     1       2.479   6.834   9.758  1.00  0.00    -0.049 A 
HETATM   27  C36 UNL     1       2.933   6.031   8.706  1.00  0.00     0.007 A 
HETATM   28  C37 UNL     1       2.524   6.284   7.395  1.00  0.00     0.001 A 
HETATM   29  C38 UNL     1       1.660   7.344   7.126  1.00  0.00     0.000 A 
HETATM   30  C39 UNL     1       1.203   8.153   8.168  1.00  0.00     0.001 A 
HETATM   31  C40 UNL     1       1.607   7.895   9.478  1.00  0.00     0.007 A 
ENDBRANCH  25  26
ENDBRANCH  23  25
ENDBRANCH  22  23
ENDBRANCH  14  22
BRANCH   7  32
HETATM   32  O2  UNL     1       4.046  10.590  13.676  1.00  0.00    -0.362 OA
HETATM   33  H9  UNL     1       3.441  11.146  14.201  1.00  0.00     0.213 HD
ENDBRANCH   7  32
ENDBRANCH   5   7
ENDBRANCH   1   5
BRANCH   3  34
HETATM   34  C11 UNL     1       0.122   9.286  13.231  1.00  0.00     0.149 C 
BRANCH  34  35
HETATM   35  C12 UNL     1      -0.532   8.135  12.532  1.00  0.00    -0.007 C 
HETATM   36  C13 UNL     1      -0.245   6.832  12.655  1.00  0.00    -0.002 C 
BRANCH  36  37
HETATM   37  C14 UNL     1      -0.931   5.811  11.888  1.00  0.00     0.005 C 
HETATM   38  C15 UNL     1      -2.123   5.256  12.192  1.00  0.00    -0.055 C 
HETATM   39  C16 UNL     1      -2.948   5.659  13.390  1.00  0.00     0.046 C 
BRANCH  38  40
HETATM   40  C17 UNL     1      -2.665   4.109  11.332  1.00  0.00     0.155 C 
BRANCH  40  41
HETATM   41  O4  UNL     1      -1.570   3.402  10.742  1.00  0.00    -0.386 OA
HETATM   42  C18 UNL     1      -0.650   2.901  11.704  1.00  0.00     0.202 C 
ENDBRANCH  40  41
BRANCH  40  43
HETATM   43  C19 UNL     1      -3.589   3.146  12.139  1.00  0.00     0.044 C 
HETATM   44  C20 UNL     1      -3.441   1.683  11.693  1.00  0.00     0.015 C 
BRANCH  43  45
HETATM   45  C21 UNL     1      -5.085   3.537  12.080  1.00  0.00     0.131 C 
HETATM   46  C22 UNL     1      -5.982   2.577  11.308  1.00  0.00     0.067 C 
HETATM   47  C23 UNL     1      -7.213   2.384  12.170  1.00  0.00     0.153 C 
HETATM   48  C24 UNL     1      -7.008   3.295  13.383  1.00  0.00     0.173 C 
HETATM   49  O8  UNL     1      -5.639   3.709  13.382  1.00  0.00    -0.374 OA
BRANCH  47  50
HETATM   50  O5  UNL     1      -7.294   1.013  12.573  1.00  0.00    -0.393 OA
HETATM   51  H35 UNL     1      -7.467   0.481  11.781  1.00  0.00     0.210 HD
ENDBRANCH  47  50
BRANCH  48  52
HETATM   52  C25 UNL     1      -7.844   4.547  13.342  1.00  0.00     0.007 C 
HETATM   53  C26 UNL     1      -8.371   5.057  12.216  1.00  0.00    -0.001 C 
BRANCH  53  54
HETATM   54  C27 UNL     1      -9.215   6.230  12.207  1.00  0.00    -0.000 C 
HETATM   55  C28 UNL     1     -10.136   6.475  13.154  1.00  0.00     0.000 C 
BRANCH  55  56
HETATM   56  C29 UNL     1     -10.969   7.657  13.150  1.00  0.00     0.007 C 
HETATM   57  C30 UNL     1     -12.299   7.603  12.989  1.00  0.00     0.081 C 
BRANCH  57  58
HETATM   58  C31 UNL     1     -13.082   8.846  13.018  1.00  0.00     0.165 C 
HETATM   59  O6  UNL     1     -13.505   9.479  12.071  1.00  0.00    -0.647 OA
BRANCH  58  60
HETATM   60  O7  UNL     1     -13.310   9.217  14.291  1.00  0.00    -0.773 OA
HETATM   61  H43 UNL     1     -13.828  10.045  14.208  1.00  0.00     0.167 HD
ENDBRANCH  58  60
ENDBRANCH  57  58
ENDBRANCH  55  56
ENDBRANCH  53  54
ENDBRANCH  48  52
ENDBRANCH  43  45
ENDBRANCH  40  43
ENDBRANCH  38  40
ENDBRANCH  36  37
ENDBRANCH  34  35
ENDBRANCH   3  34
TORSDOF 23
ENDMDL
MODEL 5
REMARK minimizedAffinity -8.97668266
REMARK CNNscore 0.326695412
REMARK CNNaffinity 6.92786932
REMARK  23 active torsions:
REMARK  status: ('A' for Active; 'I' for Inactive)
REMARK    1  A    between atoms: C3_3  and  C4_4 
REMARK    2  A    between atoms: C5_5  and  C6_6 
REMARK    3  A    between atoms: C7_8  and  O2_9 
REMARK    4  A    between atoms: C7_8  and  C8_10 
REMARK    5  A    between atoms: C8_10  and  C10_12 
REMARK       I    between atoms: C10_12  and  N1_14 
REMARK    6  A    between atoms: N1_14  and  C11_15 
REMARK    7  A    between atoms: C11_15  and  C12_16 
REMARK    8  A    between atoms: C13_17  and  C14_18 
REMARK    9  A    between atoms: C15_19  and  C17_21 
REMARK   10  A    between atoms: C17_21  and  O4_22 
REMARK   11  A    between atoms: C17_21  and  C19_24 
REMARK   12  A    between atoms: C19_24  and  C21_26 
REMARK   13  A    between atoms: C23_28  and  O5_29 
REMARK   14  A    between atoms: C24_30  and  C25_31 
REMARK   15  A    between atoms: C26_32  and  C27_33 
REMARK   16  A    between atoms: C28_34  and  C29_35 
REMARK   17  A    between atoms: C30_36  and  C31_37 
REMARK   18  A    between atoms: C31_37  and  O7_39 
REMARK   19  A    between atoms: C32_41  and  O9_42 
REMARK   20  A    between atoms: O9_42  and  C33_43 
REMARK   21  A    between atoms: C33_43  and  C34_45 
REMARK   22  A    between atoms: C34_45  and  C35_46 
REMARK   23  A    between atoms: C41_52  and  O11_53 
ROOT
HETATM    1  C10 UNL     1       4.527   8.900  14.898  1.00  0.00     0.227 C 
HETATM    2  O3  UNL     1       4.952   9.737  14.104  1.00  0.00    -0.273 OA
HETATM    3  N1  UNL     1       5.254   7.804  15.300  1.00  0.00    -0.357 N 
HETATM    4  H14 UNL     1       4.726   7.027  15.693  1.00  0.00     0.162 HD
ENDROOT
BRANCH   1   5
HETATM    5  C8  UNL     1       3.103   8.969  15.443  1.00  0.00     0.139 C 
HETATM    6  C9  UNL     1       2.587  10.390  15.187  1.00  0.00     0.026 C 
BRANCH   5   7
HETATM    7  C7  UNL     1       2.278   7.822  14.787  1.00  0.00     0.204 C 
HETATM    8  O1  UNL     1       0.897   8.009  15.181  1.00  0.00    -0.342 OA
HETATM    9  C6  UNL     1      -0.028   7.289  14.364  1.00  0.00     0.158 C 
HETATM   10  C42 UNL     1      -0.142   7.998  12.975  1.00  0.00     0.011 C 
HETATM   11  C41 UNL     1       1.260   8.544  12.558  1.00  0.00     0.163 C 
HETATM   12  C43 UNL     1      -0.609   6.958  11.932  1.00  0.00     0.020 C 
HETATM   13  C44 UNL     1      -1.174   9.147  12.983  1.00  0.00     0.020 C 
HETATM   14  C32 UNL     1       2.374   7.717  13.223  1.00  0.00     0.224 C 
BRANCH   9  15
HETATM   15  C5  UNL     1      -1.341   7.113  15.091  1.00  0.00     0.006 C 
HETATM   16  C4  UNL     1      -2.331   6.266  14.762  1.00  0.00    -0.002 C 
BRANCH  16  17
HETATM   17  C3  UNL     1      -3.557   6.180  15.522  1.00  0.00    -0.005 C 
HETATM   18  C2  UNL     1      -4.805   6.191  15.033  1.00  0.00    -0.031 C 
HETATM   19  C1  UNL     1      -5.239   6.257  13.606  1.00  0.00     0.036 C 
ENDBRANCH  16  17
ENDBRANCH   9  15
BRANCH  11  20
HETATM   20  O11 UNL     1       1.445   9.923  12.913  1.00  0.00    -0.392 OA
HETATM   21  H53 UNL     1       0.963  10.467  12.263  1.00  0.00     0.210 HD
ENDBRANCH  11  20
BRANCH  14  22
HETATM   22  O9  UNL     1       3.665   8.091  12.704  1.00  0.00    -0.307 OA
BRANCH  22  23
HETATM   23  C33 UNL     1       4.123   7.323  11.675  1.00  0.00     0.263 C 
HETATM   24  O10 UNL     1       5.270   7.351  11.249  1.00  0.00    -0.265 OA
BRANCH  23  25
HETATM   25  C34 UNL     1       3.029   6.422  11.145  1.00  0.00     0.149 C 
BRANCH  25  26
HETATM   26  C35 UNL     1       2.710   6.695   9.697  1.00  0.00    -0.049 A 
HETATM   27  C36 UNL     1       2.968   5.718   8.728  1.00  0.00     0.007 A 
HETATM   28  C37 UNL     1       2.648   5.947   7.389  1.00  0.00     0.001 A 
HETATM   29  C38 UNL     1       2.070   7.157   7.007  1.00  0.00     0.000 A 
HETATM   30  C39 UNL     1       1.810   8.138   7.964  1.00  0.00     0.001 A 
HETATM   31  C40 UNL     1       2.124   7.906   9.303  1.00  0.00     0.007 A 
ENDBRANCH  25  26
ENDBRANCH  23  25
ENDBRANCH  22  23
ENDBRANCH  14  22
BRANCH   7  32
HETATM   32  O2  UNL     1       2.716   6.548  15.291  1.00  0.00    -0.362 OA
HETATM   33  H9  UNL     1       2.919   6.656  16.239  1.00  0.00     0.213 HD
ENDBRANCH   7  32
ENDBRANCH   5   7
ENDBRANCH   1   5
BRANCH   3  34
HETATM   34  C11 UNL     1       6.549   7.506  14.737  1.00  0.00     0.149 C 
BRANCH  34  35
HETATM   35  C12 UNL     1       7.574   8.528  15.119  1.00  0.00    -0.007 C 
HETATM   36  C13 UNL     1       7.930   8.910  16.353  1.00  0.00    -0.002 C 
BRANCH  36  37
HETATM   37  C14 UNL     1       8.917   9.945  16.591  1.00  0.00     0.005 C 
HETATM   38  C15 UNL     1       8.659  11.234  16.894  1.00  0.00    -0.055 C 
HETATM   39  C16 UNL     1       7.265  11.786  17.067  1.00  0.00     0.046 C 
BRANCH  38  40
HETATM   40  C17 UNL     1       9.818  12.230  17.013  1.00  0.00     0.155 C 
BRANCH  40  41
HETATM   41  O4  UNL     1       9.308  13.563  16.900  1.00  0.00    -0.386 OA
HETATM   42  C18 UNL     1      10.198  14.544  17.419  1.00  0.00     0.202 C 
ENDBRANCH  40  41
BRANCH  40  43
HETATM   43  C19 UNL     1      10.626  12.046  18.333  1.00  0.00     0.044 C 
HETATM   44  C20 UNL     1      11.434  10.739  18.347  1.00  0.00     0.015 C 
BRANCH  43  45
HETATM   45  C21 UNL     1       9.746  12.104  19.606  1.00  0.00     0.131 C 
HETATM   46  C22 UNL     1      10.448  12.606  20.863  1.00  0.00     0.067 C 
HETATM   47  C23 UNL     1       9.487  13.587  21.502  1.00  0.00     0.153 C 
HETATM   48  C24 UNL     1       8.235  13.566  20.622  1.00  0.00     0.173 C 
HETATM   49  O8  UNL     1       8.578  12.894  19.406  1.00  0.00    -0.374 OA
BRANCH  47  50
HETATM   50  O5  UNL     1      10.082  14.889  21.509  1.00  0.00    -0.393 OA
HETATM   51  H35 UNL     1      10.841  14.865  22.112  1.00  0.00     0.210 HD
ENDBRANCH  47  50
BRANCH  48  52
HETATM   52  C25 UNL     1       7.085  12.809  21.231  1.00  0.00     0.007 C 
HETATM   53  C26 UNL     1       6.882  12.697  22.555  1.00  0.00    -0.001 C 
BRANCH  53  54
HETATM   54  C27 UNL     1       5.741  12.010  23.117  1.00  0.00    -0.000 C 
HETATM   55  C28 UNL     1       5.188  10.926  22.548  1.00  0.00     0.000 C 
BRANCH  55  56
HETATM   56  C29 UNL     1       4.055  10.232  23.121  1.00  0.00     0.007 C 
HETATM   57  C30 UNL     1       3.481   9.174  22.530  1.00  0.00     0.081 C 
BRANCH  57  58
HETATM   58  C31 UNL     1       2.347   8.508  23.184  1.00  0.00     0.165 C 
HETATM   59  O6  UNL     1       1.989   8.615  24.340  1.00  0.00    -0.647 OA
BRANCH  58  60
HETATM   60  O7  UNL     1       1.697   7.732  22.298  1.00  0.00    -0.773 OA
HETATM   61  H43 UNL     1       0.970   7.333  22.821  1.00  0.00     0.167 HD
ENDBRANCH  58  60
ENDBRANCH  57  58
ENDBRANCH  55  56
ENDBRANCH  53  54
ENDBRANCH  48  52
ENDBRANCH  43  45
ENDBRANCH  40  43
ENDBRANCH  38  40
ENDBRANCH  36  37
ENDBRANCH  34  35
ENDBRANCH   3  34
TORSDOF 23
ENDMDL
MODEL 6
REMARK minimizedAffinity -8.76427841
REMARK CNNscore 0.301858068
REMARK CNNaffinity 7.34690475
REMARK  23 active torsions:
REMARK  status: ('A' for Active; 'I' for Inactive)
REMARK    1  A    between atoms: C3_3  and  C4_4 
REMARK    2  A    between atoms: C5_5  and  C6_6 
REMARK    3  A    between atoms: C7_8  and  O2_9 
REMARK    4  A    between atoms: C7_8  and  C8_10 
REMARK    5  A    between atoms: C8_10  and  C10_12 
REMARK       I    between atoms: C10_12  and  N1_14 
REMARK    6  A    between atoms: N1_14  and  C11_15 
REMARK    7  A    between atoms: C11_15  and  C12_16 
REMARK    8  A    between atoms: C13_17  and  C14_18 
REMARK    9  A    between atoms: C15_19  and  C17_21 
REMARK   10  A    between atoms: C17_21  and  O4_22 
REMARK   11  A    between atoms: C17_21  and  C19_24 
REMARK   12  A    between atoms: C19_24  and  C21_26 
REMARK   13  A    between atoms: C23_28  and  O5_29 
REMARK   14  A    between atoms: C24_30  and  C25_31 
REMARK   15  A    between atoms: C26_32  and  C27_33 
REMARK   16  A    between atoms: C28_34  and  C29_35 
REMARK   17  A    between atoms: C30_36  and  C31_37 
REMARK   18  A    between atoms: C31_37  and  O7_39 
REMARK   19  A    between atoms: C32_41  and  O9_42 
REMARK   20  A    between atoms: O9_42  and  C33_43 
REMARK   21  A    between atoms: C33_43  and  C34_45 
REMARK   22  A    between atoms: C34_45  and  C35_46 
REMARK   23  A    between atoms: C41_52  and  O11_53 
ROOT
HETATM    1  C10 UNL     1      -0.114   7.892  15.893  1.00  0.00     0.227 C 
HETATM    2  O3  UNL     1       0.890   7.358  16.361  1.00  0.00    -0.273 OA
HETATM    3  N1  UNL     1      -1.143   7.186  15.316  1.00  0.00    -0.357 N 
HETATM    4  H14 UNL     1      -1.759   7.707  14.695  1.00  0.00     0.162 HD
ENDROOT
BRANCH   1   5
HETATM    5  C8  UNL     1      -0.258   9.411  15.841  1.00  0.00     0.139 C 
HETATM    6  C9  UNL     1       0.092   9.949  17.233  1.00  0.00     0.026 C 
BRANCH   5   7
HETATM    7  C7  UNL     1       0.625   9.940  14.671  1.00  0.00     0.204 C 
HETATM    8  O1  UNL     1       1.945  10.192  15.211  1.00  0.00    -0.342 OA
HETATM    9  C6  UNL     1       2.956  10.304  14.208  1.00  0.00     0.158 C 
HETATM   10  C42 UNL     1       3.266   8.883  13.635  1.00  0.00     0.011 C 
HETATM   11  C41 UNL     1       1.943   8.059  13.554  1.00  0.00     0.163 C 
HETATM   12  C43 UNL     1       3.847   9.046  12.212  1.00  0.00     0.020 C 
HETATM   13  C44 UNL     1       4.310   8.122  14.481  1.00  0.00     0.020 C 
HETATM   14  C32 UNL     1       0.735   9.002  13.417  1.00  0.00     0.224 C 
BRANCH   9  15
HETATM   15  C5  UNL     1       4.157  11.039  14.755  1.00  0.00     0.006 C 
HETATM   16  C4  UNL     1       4.562  11.071  16.036  1.00  0.00    -0.002 C 
BRANCH  16  17
HETATM   17  C3  UNL     1       5.726  11.815  16.459  1.00  0.00    -0.005 C 
HETATM   18  C2  UNL     1       6.929  11.312  16.769  1.00  0.00    -0.031 C 
HETATM   19  C1  UNL     1       7.376   9.888  16.722  1.00  0.00     0.036 C 
ENDBRANCH  16  17
ENDBRANCH   9  15
BRANCH  11  20
HETATM   20  O11 UNL     1       1.739   7.224  14.704  1.00  0.00    -0.392 OA
HETATM   21  H53 UNL     1       2.314   6.442  14.612  1.00  0.00     0.210 HD
ENDBRANCH  11  20
BRANCH  14  22
HETATM   22  O9  UNL     1      -0.468   8.253  13.156  1.00  0.00    -0.307 OA
BRANCH  22  23
HETATM   23  C33 UNL     1      -0.883   8.252  11.858  1.00  0.00     0.263 C 
HETATM   24  O10 UNL     1      -1.462   9.185  11.317  1.00  0.00    -0.265 OA
BRANCH  23  25
HETATM   25  C34 UNL     1      -0.516   6.953  11.175  1.00  0.00     0.149 C 
BRANCH  25  26
HETATM   26  C35 UNL     1       0.651   7.108  10.232  1.00  0.00    -0.049 A 
HETATM   27  C36 UNL     1       1.766   6.273  10.358  1.00  0.00     0.007 A 
HETATM   28  C37 UNL     1       2.839   6.386   9.472  1.00  0.00     0.001 A 
HETATM   29  C38 UNL     1       2.806   7.338   8.454  1.00  0.00     0.000 A 
HETATM   30  C39 UNL     1       1.699   8.177   8.321  1.00  0.00     0.001 A 
HETATM   31  C40 UNL     1       0.625   8.059   9.203  1.00  0.00     0.007 A 
ENDBRANCH  25  26
ENDBRANCH  23  25
ENDBRANCH  22  23
ENDBRANCH  14  22
BRANCH   7  32
HETATM   32  O2  UNL     1       0.099  11.186  14.181  1.00  0.00    -0.362 OA
HETATM   33  H9  UNL     1      -0.226  11.695  14.947  1.00  0.00     0.213 HD
ENDBRANCH   7  32
ENDBRANCH   5   7
ENDBRANCH   1   5
BRANCH   3  34
HETATM   34  C11 UNL     1      -1.072   5.757  15.133  1.00  0.00     0.149 C 
BRANCH  34  35
HETATM   35  C12 UNL     1      -2.339   5.203  14.558  1.00  0.00    -0.007 C 
HETATM   36  C13 UNL     1      -3.118   5.749  13.615  1.00  0.00    -0.002 C 
BRANCH  36  37
HETATM   37  C14 UNL     1      -4.348   5.126  13.167  1.00  0.00     0.005 C 
HETATM   38  C15 UNL     1      -4.457   4.176  12.216  1.00  0.00    -0.055 C 
HETATM   39  C16 UNL     1      -3.274   3.586  11.489  1.00  0.00     0.046 C 
BRANCH  38  40
HETATM   40  C17 UNL     1      -5.847   3.693  11.784  1.00  0.00     0.155 C 
BRANCH  40  41
HETATM   41  O4  UNL     1      -5.709   2.765  10.704  1.00  0.00    -0.386 OA
HETATM   42  C18 UNL     1      -5.849   1.411  11.115  1.00  0.00     0.202 C 
ENDBRANCH  40  41
BRANCH  40  43
HETATM   43  C19 UNL     1      -6.653   3.070  12.964  1.00  0.00     0.044 C 
HETATM   44  C20 UNL     1      -7.242   1.696  12.610  1.00  0.00     0.015 C 
BRANCH  43  45
HETATM   45  C21 UNL     1      -7.791   3.984  13.481  1.00  0.00     0.131 C 
HETATM   46  C22 UNL     1      -7.639   4.467  14.919  1.00  0.00     0.067 C 
HETATM   47  C23 UNL     1      -7.973   5.945  14.891  1.00  0.00     0.153 C 
HETATM   48  C24 UNL     1      -8.371   6.246  13.444  1.00  0.00     0.173 C 
HETATM   49  O8  UNL     1      -7.974   5.125  12.648  1.00  0.00    -0.374 OA
BRANCH  47  50
HETATM   50  O5  UNL     1      -6.815   6.696  15.266  1.00  0.00    -0.393 OA
HETATM   51  H35 UNL     1      -6.628   6.507  16.198  1.00  0.00     0.210 HD
ENDBRANCH  47  50
BRANCH  48  52
HETATM   52  C25 UNL     1      -9.855   6.415  13.252  1.00  0.00     0.007 C 
HETATM   53  C26 UNL     1     -10.659   7.023  14.140  1.00  0.00    -0.001 C 
BRANCH  53  54
HETATM   54  C27 UNL     1     -12.073   7.221  13.911  1.00  0.00    -0.000 C 
HETATM   55  C28 UNL     1     -12.551   8.121  13.035  1.00  0.00     0.000 C 
BRANCH  55  56
HETATM   56  C29 UNL     1     -13.965   8.308  12.797  1.00  0.00     0.007 C 
HETATM   57  C30 UNL     1     -14.467   9.432  12.267  1.00  0.00     0.081 C 
BRANCH  57  58
HETATM   58  C31 UNL     1     -15.913   9.540  12.035  1.00  0.00     0.165 C 
HETATM   59  O6  UNL     1     -16.777   9.814  12.845  1.00  0.00    -0.647 OA
BRANCH  58  60
HETATM   60  O7  UNL     1     -16.191   9.305  10.740  1.00  0.00    -0.773 OA
HETATM   61  H43 UNL     1     -17.166   9.395  10.686  1.00  0.00     0.167 HD
ENDBRANCH  58  60
ENDBRANCH  57  58
ENDBRANCH  55  56
ENDBRANCH  53  54
ENDBRANCH  48  52
ENDBRANCH  43  45
ENDBRANCH  40  43
ENDBRANCH  38  40
ENDBRANCH  36  37
ENDBRANCH  34  35
ENDBRANCH   3  34
TORSDOF 23
ENDMDL
MODEL 7
REMARK minimizedAffinity -8.81317139
REMARK CNNscore 0.284133315
REMARK CNNaffinity 7.80123329
REMARK  23 active torsions:
REMARK  status: ('A' for Active; 'I' for Inactive)
REMARK    1  A    between atoms: C3_3  and  C4_4 
REMARK    2  A    between atoms: C5_5  and  C6_6 
REMARK    3  A    between atoms: C7_8  and  O2_9 
REMARK    4  A    between atoms: C7_8  and  C8_10 
REMARK    5  A    between atoms: C8_10  and  C10_12 
REMARK       I    between atoms: C10_12  and  N1_14 
REMARK    6  A    between atoms: N1_14  and  C11_15 
REMARK    7  A    between atoms: C11_15  and  C12_16 
REMARK    8  A    between atoms: C13_17  and  C14_18 
REMARK    9  A    between atoms: C15_19  and  C17_21 
REMARK   10  A    between atoms: C17_21  and  O4_22 
REMARK   11  A    between atoms: C17_21  and  C19_24 
REMARK   12  A    between atoms: C19_24  and  C21_26 
REMARK   13  A    between atoms: C23_28  and  O5_29 
REMARK   14  A    between atoms: C24_30  and  C25_31 
REMARK   15  A    between atoms: C26_32  and  C27_33 
REMARK   16  A    between atoms: C28_34  and  C29_35 
REMARK   17  A    between atoms: C30_36  and  C31_37 
REMARK   18  A    between atoms: C31_37  and  O7_39 
REMARK   19  A    between atoms: C32_41  and  O9_42 
REMARK   20  A    between atoms: O9_42  and  C33_43 
REMARK   21  A    between atoms: C33_43  and  C34_45 
REMARK   22  A    between atoms: C34_45  and  C35_46 
REMARK   23  A    between atoms: C41_52  and  O11_53 
ROOT
HETATM    1  C10 UNL     1      -1.703   8.813  15.677  1.00  0.00     0.227 C 
HETATM    2  O3  UNL     1      -1.579   8.149  16.704  1.00  0.00    -0.273 OA
HETATM    3  N1  UNL     1      -2.838   9.527  15.373  1.00  0.00    -0.357 N 
HETATM    4  H14 UNL     1      -2.970   9.776  14.394  1.00  0.00     0.162 HD
ENDROOT
BRANCH   1   5
HETATM    5  C8  UNL     1      -0.620   8.827  14.601  1.00  0.00     0.139 C 
HETATM    6  C9  UNL     1       0.635   8.191  15.211  1.00  0.00     0.026 C 
BRANCH   5   7
HETATM    7  C7  UNL     1      -1.187   8.120  13.334  1.00  0.00     0.204 C 
HETATM    8  O1  UNL     1      -0.107   8.030  12.374  1.00  0.00    -0.342 OA
HETATM    9  C6  UNL     1      -0.349   7.079  11.336  1.00  0.00     0.158 C 
HETATM   10  C42 UNL     1      -0.191   5.636  11.918  1.00  0.00     0.011 C 
HETATM   11  C41 UNL     1      -0.747   5.605  13.376  1.00  0.00     0.163 C 
HETATM   12  C43 UNL     1      -1.013   4.664  11.043  1.00  0.00     0.020 C 
HETATM   13  C44 UNL     1       1.276   5.153  11.902  1.00  0.00     0.020 C 
HETATM   14  C32 UNL     1      -1.813   6.699  13.565  1.00  0.00     0.224 C 
BRANCH   9  15
HETATM   15  C5  UNL     1       0.526   7.375  10.140  1.00  0.00     0.006 C 
HETATM   16  C4  UNL     1       0.189   8.099   9.060  1.00  0.00    -0.002 C 
BRANCH  16  17
HETATM   17  C3  UNL     1       1.102   8.317   7.961  1.00  0.00    -0.005 C 
HETATM   18  C2  UNL     1       2.144   7.546   7.621  1.00  0.00    -0.031 C 
HETATM   19  C1  UNL     1       2.599   6.272   8.254  1.00  0.00     0.036 C 
ENDBRANCH  16  17
ENDBRANCH   9  15
BRANCH  11  20
HETATM   20  O11 UNL     1       0.277   5.794  14.364  1.00  0.00    -0.392 OA
HETATM   21  H53 UNL     1       0.763   4.954  14.457  1.00  0.00     0.210 HD
ENDBRANCH  11  20
BRANCH  14  22
HETATM   22  O9  UNL     1      -2.463   6.562  14.843  1.00  0.00    -0.307 OA
BRANCH  22  23
HETATM   23  C33 UNL     1      -3.724   6.044  14.801  1.00  0.00     0.263 C 
HETATM   24  O10 UNL     1      -4.309   5.573  15.767  1.00  0.00    -0.265 OA
BRANCH  23  25
HETATM   25  C34 UNL     1      -4.304   6.146  13.408  1.00  0.00     0.149 C 
BRANCH  25  26
HETATM   26  C35 UNL     1      -5.024   4.888  12.991  1.00  0.00    -0.049 A 
HETATM   27  C36 UNL     1      -4.420   4.004  12.090  1.00  0.00     0.007 A 
HETATM   28  C37 UNL     1      -5.064   2.822  11.719  1.00  0.00     0.001 A 
HETATM   29  C38 UNL     1      -6.318   2.516  12.245  1.00  0.00     0.000 A 
HETATM   30  C39 UNL     1      -6.930   3.392  13.142  1.00  0.00     0.001 A 
HETATM   31  C40 UNL     1      -6.283   4.570  13.517  1.00  0.00     0.007 A 
ENDBRANCH  25  26
ENDBRANCH  23  25
ENDBRANCH  22  23
ENDBRANCH  14  22
BRANCH   7  32
HETATM   32  O2  UNL     1      -2.234   8.918  12.752  1.00  0.00    -0.362 OA
HETATM   33  H9  UNL     1      -1.977   9.855  12.835  1.00  0.00     0.213 HD
ENDBRANCH   7  32
ENDBRANCH   5   7
ENDBRANCH   1   5
BRANCH   3  34
HETATM   34  C11 UNL     1      -4.014   9.470  16.206  1.00  0.00     0.149 C 
BRANCH  34  35
HETATM   35  C12 UNL     1      -5.258   9.242  15.403  1.00  0.00    -0.007 C 
HETATM   36  C13 UNL     1      -6.267   8.403  15.677  1.00  0.00    -0.002 C 
BRANCH  36  37
HETATM   37  C14 UNL     1      -7.406   8.246  14.794  1.00  0.00     0.005 C 
HETATM   38  C15 UNL     1      -8.368   7.306  14.899  1.00  0.00    -0.055 C 
HETATM   39  C16 UNL     1      -8.413   6.279  16.004  1.00  0.00     0.046 C 
BRANCH  38  40
HETATM   40  C17 UNL     1      -9.453   7.210  13.820  1.00  0.00     0.155 C 
BRANCH  40  41
HETATM   41  O4  UNL     1      -9.344   5.949  13.153  1.00  0.00    -0.386 OA
HETATM   42  C18 UNL     1      -9.035   6.076  11.771  1.00  0.00     0.202 C 
ENDBRANCH  40  41
BRANCH  40  43
HETATM   43  C19 UNL     1     -10.886   7.421  14.397  1.00  0.00     0.044 C 
HETATM   44  C20 UNL     1     -11.927   7.682  13.299  1.00  0.00     0.015 C 
BRANCH  43  45
HETATM   45  C21 UNL     1     -10.966   8.560  15.443  1.00  0.00     0.131 C 
HETATM   46  C22 UNL     1     -10.552   9.938  14.940  1.00  0.00     0.067 C 
HETATM   47  C23 UNL     1     -11.606  10.895  15.458  1.00  0.00     0.153 C 
HETATM   48  C24 UNL     1     -12.557  10.039  16.299  1.00  0.00     0.173 C 
HETATM   49  O8  UNL     1     -12.268   8.668  16.010  1.00  0.00    -0.374 OA
BRANCH  47  50
HETATM   50  O5  UNL     1     -12.296  11.480  14.349  1.00  0.00    -0.393 OA
HETATM   51  H35 UNL     1     -11.668  12.045  13.874  1.00  0.00     0.210 HD
ENDBRANCH  47  50
BRANCH  48  52
HETATM   52  C25 UNL     1     -12.375  10.221  17.783  1.00  0.00     0.007 C 
HETATM   53  C26 UNL     1     -11.190  10.471  18.366  1.00  0.00    -0.001 C 
BRANCH  53  54
HETATM   54  C27 UNL     1     -11.047  10.695  19.787  1.00  0.00    -0.000 C 
HETATM   55  C28 UNL     1     -11.804  11.571  20.467  1.00  0.00     0.000 C 
BRANCH  55  56
HETATM   56  C29 UNL     1     -11.668  11.783  21.892  1.00  0.00     0.007 C 
HETATM   57  C30 UNL     1     -11.076  10.894  22.702  1.00  0.00     0.081 C 
BRANCH  57  58
HETATM   58  C31 UNL     1     -10.956  11.190  24.136  1.00  0.00     0.165 C 
HETATM   59  O6  UNL     1     -11.110  12.261  24.689  1.00  0.00    -0.647 OA
BRANCH  58  60
HETATM   60  O7  UNL     1     -10.658  10.067  24.815  1.00  0.00    -0.773 OA
HETATM   61  H43 UNL     1     -10.596  10.363  25.747  1.00  0.00     0.167 HD
ENDBRANCH  58  60
ENDBRANCH  57  58
ENDBRANCH  55  56
ENDBRANCH  53  54
ENDBRANCH  48  52
ENDBRANCH  43  45
ENDBRANCH  40  43
ENDBRANCH  38  40
ENDBRANCH  36  37
ENDBRANCH  34  35
ENDBRANCH   3  34
TORSDOF 23
ENDMDL
MODEL 8
REMARK minimizedAffinity -8.88008881
REMARK CNNscore 0.259627581
REMARK CNNaffinity 6.68916178
REMARK  23 active torsions:
REMARK  status: ('A' for Active; 'I' for Inactive)
REMARK    1  A    between atoms: C3_3  and  C4_4 
REMARK    2  A    between atoms: C5_5  and  C6_6 
REMARK    3  A    between atoms: C7_8  and  O2_9 
REMARK    4  A    between atoms: C7_8  and  C8_10 
REMARK    5  A    between atoms: C8_10  and  C10_12 
REMARK       I    between atoms: C10_12  and  N1_14 
REMARK    6  A    between atoms: N1_14  and  C11_15 
REMARK    7  A    between atoms: C11_15  and  C12_16 
REMARK    8  A    between atoms: C13_17  and  C14_18 
REMARK    9  A    between atoms: C15_19  and  C17_21 
REMARK   10  A    between atoms: C17_21  and  O4_22 
REMARK   11  A    between atoms: C17_21  and  C19_24 
REMARK   12  A    between atoms: C19_24  and  C21_26 
REMARK   13  A    between atoms: C23_28  and  O5_29 
REMARK   14  A    between atoms: C24_30  and  C25_31 
REMARK   15  A    between atoms: C26_32  and  C27_33 
REMARK   16  A    between atoms: C28_34  and  C29_35 
REMARK   17  A    between atoms: C30_36  and  C31_37 
REMARK   18  A    between atoms: C31_37  and  O7_39 
REMARK   19  A    between atoms: C32_41  and  O9_42 
REMARK   20  A    between atoms: O9_42  and  C33_43 
REMARK   21  A    between atoms: C33_43  and  C34_45 
REMARK   22  A    between atoms: C34_45  and  C35_46 
REMARK   23  A    between atoms: C41_52  and  O11_53 
ROOT
HETATM    1  C10 UNL     1      -4.398   9.833  15.754  1.00  0.00     0.227 C 
HETATM    2  O3  UNL     1      -4.026  10.550  14.828  1.00  0.00    -0.273 OA
HETATM    3  N1  UNL     1      -4.084  10.076  17.071  1.00  0.00    -0.357 N 
HETATM    4  H14 UNL     1      -4.162   9.286  17.710  1.00  0.00     0.162 HD
ENDROOT
BRANCH   1   5
HETATM    5  C8  UNL     1      -5.183   8.548  15.501  1.00  0.00     0.139 C 
HETATM    6  C9  UNL     1      -6.667   8.926  15.438  1.00  0.00     0.026 C 
BRANCH   5   7
HETATM    7  C7  UNL     1      -4.603   7.873  14.222  1.00  0.00     0.204 C 
HETATM    8  O1  UNL     1      -3.186   8.171  14.184  1.00  0.00    -0.342 OA
HETATM    9  C6  UNL     1      -2.450   7.317  13.307  1.00  0.00     0.158 C 
HETATM   10  C42 UNL     1      -2.318   5.903  13.963  1.00  0.00     0.011 C 
HETATM   11  C41 UNL     1      -3.637   5.563  14.725  1.00  0.00     0.163 C 
HETATM   12  C43 UNL     1      -2.100   4.863  12.841  1.00  0.00     0.020 C 
HETATM   13  C44 UNL     1      -1.113   5.812  14.925  1.00  0.00     0.020 C 
HETATM   14  C32 UNL     1      -4.823   6.323  14.106  1.00  0.00     0.224 C 
BRANCH   9  15
HETATM   15  C5  UNL     1      -1.137   7.962  12.930  1.00  0.00     0.006 C 
HETATM   16  C4  UNL     1      -0.444   7.764  11.796  1.00  0.00    -0.002 C 
BRANCH  16  17
HETATM   17  C3  UNL     1       0.813   8.427  11.534  1.00  0.00    -0.005 C 
HETATM   18  C2  UNL     1       1.521   8.380  10.397  1.00  0.00    -0.031 C 
HETATM   19  C1  UNL     1       1.182   7.676   9.124  1.00  0.00     0.036 C 
ENDBRANCH  16  17
ENDBRANCH   9  15
BRANCH  11  20
HETATM   20  O11 UNL     1      -3.569   5.889  16.122  1.00  0.00    -0.392 OA
HETATM   21  H53 UNL     1      -3.050   5.194  16.567  1.00  0.00     0.210 HD
ENDBRANCH  11  20
BRANCH  14  22
HETATM   22  O9  UNL     1      -6.068   5.877  14.678  1.00  0.00    -0.307 OA
BRANCH  22  23
HETATM   23  C33 UNL     1      -7.035   5.544  13.778  1.00  0.00     0.263 C 
HETATM   24  O10 UNL     1      -7.497   6.311  12.944  1.00  0.00    -0.265 OA
BRANCH  23  25
HETATM   25  C34 UNL     1      -7.447   4.097  13.939  1.00  0.00     0.149 C 
BRANCH  25  26
HETATM   26  C35 UNL     1      -6.798   3.197  12.918  1.00  0.00    -0.049 A 
HETATM   27  C36 UNL     1      -5.623   3.602  12.275  1.00  0.00     0.007 A 
HETATM   28  C37 UNL     1      -4.996   2.764  11.350  1.00  0.00     0.001 A 
HETATM   29  C38 UNL     1      -5.542   1.515  11.060  1.00  0.00     0.000 A 
HETATM   30  C39 UNL     1      -6.715   1.102  11.693  1.00  0.00     0.001 A 
HETATM   31  C40 UNL     1      -7.336   1.937  12.622  1.00  0.00     0.007 A 
ENDBRANCH  25  26
ENDBRANCH  23  25
ENDBRANCH  22  23
ENDBRANCH  14  22
BRANCH   7  32
HETATM   32  O2  UNL     1      -5.208   8.442  13.047  1.00  0.00    -0.362 OA
HETATM   33  H9  UNL     1      -5.325   9.397  13.204  1.00  0.00     0.213 HD
ENDBRANCH   7  32
ENDBRANCH   5   7
ENDBRANCH   1   5
BRANCH   3  34
HETATM   34  C11 UNL     1      -3.203  11.152  17.452  1.00  0.00     0.149 C 
BRANCH  34  35
HETATM   35  C12 UNL     1      -2.038  10.664  18.257  1.00  0.00    -0.007 C 
HETATM   36  C13 UNL     1      -1.157  11.397  18.950  1.00  0.00    -0.002 C 
BRANCH  36  37
HETATM   37  C14 UNL     1      -0.042  10.803  19.662  1.00  0.00     0.005 C 
HETATM   38  C15 UNL     1       1.029  11.461  20.151  1.00  0.00    -0.055 C 
HETATM   39  C16 UNL     1       1.204  12.957  20.054  1.00  0.00     0.046 C 
BRANCH  38  40
HETATM   40  C17 UNL     1       2.176  10.669  20.791  1.00  0.00     0.155 C 
BRANCH  40  41
HETATM   41  O4  UNL     1       2.776   9.827  19.802  1.00  0.00    -0.386 OA
HETATM   42  C18 UNL     1       2.497  10.246  18.472  1.00  0.00     0.202 C 
ENDBRANCH  40  41
BRANCH  40  43
HETATM   43  C19 UNL     1       3.236  11.596  21.461  1.00  0.00     0.044 C 
HETATM   44  C20 UNL     1       2.610  12.865  22.058  1.00  0.00     0.015 C 
BRANCH  43  45
HETATM   45  C21 UNL     1       4.385  12.006  20.507  1.00  0.00     0.131 C 
HETATM   46  C22 UNL     1       4.688  13.499  20.454  1.00  0.00     0.067 C 
HETATM   47  C23 UNL     1       6.197  13.612  20.521  1.00  0.00     0.153 C 
HETATM   48  C24 UNL     1       6.714  12.171  20.545  1.00  0.00     0.173 C 
HETATM   49  O8  UNL     1       5.595  11.319  20.811  1.00  0.00    -0.374 OA
BRANCH  47  50
HETATM   50  O5  UNL     1       6.564  14.302  21.720  1.00  0.00    -0.393 OA
HETATM   51  H35 UNL     1       6.255  15.218  21.641  1.00  0.00     0.210 HD
ENDBRANCH  47  50
BRANCH  48  52
HETATM   52  C25 UNL     1       7.304  11.723  19.234  1.00  0.00     0.007 C 
HETATM   53  C26 UNL     1       8.480  11.082  19.123  1.00  0.00    -0.001 C 
BRANCH  53  54
HETATM   54  C27 UNL     1       9.001  10.613  17.860  1.00  0.00    -0.000 C 
HETATM   55  C28 UNL     1       8.214  10.258  16.832  1.00  0.00     0.000 C 
BRANCH  55  56
HETATM   56  C29 UNL     1       8.739   9.803  15.563  1.00  0.00     0.007 C 
HETATM   57  C30 UNL     1       9.331   8.609  15.411  1.00  0.00     0.081 C 
BRANCH  57  58
HETATM   58  C31 UNL     1       9.820   8.207  14.086  1.00  0.00     0.165 C 
HETATM   59  O6  UNL     1      10.969   7.992  13.752  1.00  0.00    -0.647 OA
BRANCH  58  60
HETATM   60  O7  UNL     1       8.787   8.077  13.234  1.00  0.00    -0.773 OA
HETATM   61  H43 UNL     1       9.209   7.814  12.389  1.00  0.00     0.167 HD
ENDBRANCH  58  60
ENDBRANCH  57  58
ENDBRANCH  55  56
ENDBRANCH  53  54
ENDBRANCH  48  52
ENDBRANCH  43  45
ENDBRANCH  40  43
ENDBRANCH  38  40
ENDBRANCH  36  37
ENDBRANCH  34  35
ENDBRANCH   3  34
TORSDOF 23
ENDMDL
MODEL 9
REMARK minimizedAffinity -8.20705605
REMARK CNNscore 0.236633405
REMARK CNNaffinity 6.44934845
REMARK  23 active torsions:
REMARK  status: ('A' for Active; 'I' for Inactive)
REMARK    1  A    between atoms: C3_3  and  C4_4 
REMARK    2  A    between atoms: C5_5  and  C6_6 
REMARK    3  A    between atoms: C7_8  and  O2_9 
REMARK    4  A    between atoms: C7_8  and  C8_10 
REMARK    5  A    between atoms: C8_10  and  C10_12 
REMARK       I    between atoms: C10_12  and  N1_14 
REMARK    6  A    between atoms: N1_14  and  C11_15 
REMARK    7  A    between atoms: C11_15  and  C12_16 
REMARK    8  A    between atoms: C13_17  and  C14_18 
REMARK    9  A    between atoms: C15_19  and  C17_21 
REMARK   10  A    between atoms: C17_21  and  O4_22 
REMARK   11  A    between atoms: C17_21  and  C19_24 
REMARK   12  A    between atoms: C19_24  and  C21_26 
REMARK   13  A    between atoms: C23_28  and  O5_29 
REMARK   14  A    between atoms: C24_30  and  C25_31 
REMARK   15  A    between atoms: C26_32  and  C27_33 
REMARK   16  A    between atoms: C28_34  and  C29_35 
REMARK   17  A    between atoms: C30_36  and  C31_37 
REMARK   18  A    between atoms: C31_37  and  O7_39 
REMARK   19  A    between atoms: C32_41  and  O9_42 
REMARK   20  A    between atoms: O9_42  and  C33_43 
REMARK   21  A    between atoms: C33_43  and  C34_45 
REMARK   22  A    between atoms: C34_45  and  C35_46 
REMARK   23  A    between atoms: C41_52  and  O11_53 
ROOT
HETATM    1  C10 UNL     1      -0.684   9.603  15.082  1.00  0.00     0.227 C 
HETATM    2  O3  UNL     1      -0.682  10.767  14.688  1.00  0.00    -0.273 OA
HETATM    3  N1  UNL     1       0.460   8.920  15.423  1.00  0.00    -0.357 N 
HETATM    4  H14 UNL     1       0.396   7.904  15.431  1.00  0.00     0.162 HD
ENDROOT
BRANCH   1   5
HETATM    5  C8  UNL     1      -1.972   8.785  15.146  1.00  0.00     0.139 C 
HETATM    6  C9  UNL     1      -3.094   9.737  15.576  1.00  0.00     0.026 C 
BRANCH   5   7
HETATM    7  C7  UNL     1      -2.170   8.088  13.766  1.00  0.00     0.204 C 
HETATM    8  O1  UNL     1      -0.954   8.290  13.006  1.00  0.00    -0.342 OA
HETATM    9  C6  UNL     1      -0.823   7.399  11.897  1.00  0.00     0.158 C 
HETATM   10  C42 UNL     1      -0.467   5.972  12.428  1.00  0.00     0.011 C 
HETATM   11  C41 UNL     1      -1.233   5.712  13.763  1.00  0.00     0.163 C 
HETATM   12  C43 UNL     1      -0.920   4.933  11.376  1.00  0.00     0.020 C 
HETATM   13  C44 UNL     1       1.050   5.787  12.645  1.00  0.00     0.020 C 
HETATM   14  C32 UNL     1      -2.517   6.558  13.815  1.00  0.00     0.224 C 
BRANCH   9  15
HETATM   15  C5  UNL     1       0.153   7.958  10.888  1.00  0.00     0.006 C 
HETATM   16  C4  UNL     1       0.052   7.886   9.551  1.00  0.00    -0.002 C 
BRANCH  16  17
HETATM   17  C3  UNL     1       1.050   8.448   8.670  1.00  0.00    -0.005 C 
HETATM   18  C2  UNL     1       2.132   7.825   8.183  1.00  0.00    -0.031 C 
HETATM   19  C1  UNL     1       2.556   6.408   8.393  1.00  0.00     0.036 C 
ENDBRANCH  16  17
ENDBRANCH   9  15
BRANCH  11  20
HETATM   20  O11 UNL     1      -0.442   6.015  14.922  1.00  0.00    -0.392 OA
HETATM   21  H53 UNL     1       0.185   5.281  15.058  1.00  0.00     0.210 HD
ENDBRANCH  11  20
BRANCH  14  22
HETATM   22  O9  UNL     1      -3.323   6.191  14.952  1.00  0.00    -0.307 OA
BRANCH  22  23
HETATM   23  C33 UNL     1      -4.669   6.195  14.737  1.00  0.00     0.263 C 
HETATM   24  O10 UNL     1      -5.508   6.349  15.614  1.00  0.00    -0.265 OA
BRANCH  23  25
HETATM   25  C34 UNL     1      -4.982   6.002  13.270  1.00  0.00     0.149 C 
BRANCH  25  26
HETATM   26  C35 UNL     1      -5.758   4.735  13.009  1.00  0.00    -0.049 A 
HETATM   27  C36 UNL     1      -7.116   4.667  13.337  1.00  0.00     0.007 A 
HETATM   28  C37 UNL     1      -7.852   3.511  13.072  1.00  0.00     0.001 A 
HETATM   29  C38 UNL     1      -7.233   2.411  12.479  1.00  0.00     0.000 A 
HETATM   30  C39 UNL     1      -5.878   2.467  12.151  1.00  0.00     0.001 A 
HETATM   31  C40 UNL     1      -5.146   3.625  12.410  1.00  0.00     0.007 A 
ENDBRANCH  25  26
ENDBRANCH  23  25
ENDBRANCH  22  23
ENDBRANCH  14  22
BRANCH   7  32
HETATM   32  O2  UNL     1      -3.250   8.711  13.049  1.00  0.00    -0.362 OA
HETATM   33  H9  UNL     1      -3.209   9.670  13.221  1.00  0.00     0.213 HD
ENDBRANCH   7  32
ENDBRANCH   5   7
ENDBRANCH   1   5
BRANCH   3  34
HETATM   34  C11 UNL     1       1.768   9.501  15.248  1.00  0.00     0.149 C 
BRANCH  34  35
HETATM   35  C12 UNL     1       2.464   9.719  16.556  1.00  0.00    -0.007 C 
HETATM   36  C13 UNL     1       2.112  10.557  17.540  1.00  0.00    -0.002 C 
BRANCH  36  37
HETATM   37  C14 UNL     1       2.896  10.705  18.751  1.00  0.00     0.005 C 
HETATM   38  C15 UNL     1       2.411  10.775  20.007  1.00  0.00    -0.055 C 
HETATM   39  C16 UNL     1       0.943  10.671  20.341  1.00  0.00     0.046 C 
BRANCH  38  40
HETATM   40  C17 UNL     1       3.369  11.036  21.175  1.00  0.00     0.155 C 
BRANCH  40  41
HETATM   41  O4  UNL     1       3.916   9.793  21.625  1.00  0.00    -0.386 OA
HETATM   42  C18 UNL     1       3.460   9.422  22.920  1.00  0.00     0.202 C 
ENDBRANCH  40  41
BRANCH  40  43
HETATM   43  C19 UNL     1       4.497  12.046  20.804  1.00  0.00     0.044 C 
HETATM   44  C20 UNL     1       5.652  11.380  20.040  1.00  0.00     0.015 C 
BRANCH  43  45
HETATM   45  C21 UNL     1       5.076  12.799  22.026  1.00  0.00     0.131 C 
HETATM   46  C22 UNL     1       6.121  12.034  22.830  1.00  0.00     0.067 C 
HETATM   47  C23 UNL     1       7.237  13.024  23.096  1.00  0.00     0.153 C 
HETATM   48  C24 UNL     1       6.762  14.347  22.490  1.00  0.00     0.173 C 
HETATM   49  O8  UNL     1       5.634  14.057  21.658  1.00  0.00    -0.374 OA
BRANCH  47  50
HETATM   50  O5  UNL     1       8.431  12.570  22.453  1.00  0.00    -0.393 OA
HETATM   51  H35 UNL     1       8.717  11.757  22.897  1.00  0.00     0.210 HD
ENDBRANCH  47  50
BRANCH  48  52
HETATM   52  C25 UNL     1       6.302  15.348  23.516  1.00  0.00     0.007 C 
HETATM   53  C26 UNL     1       6.377  16.679  23.349  1.00  0.00    -0.001 C 
BRANCH  53  54
HETATM   54  C27 UNL     1       5.880  17.622  24.325  1.00  0.00    -0.000 C 
HETATM   55  C28 UNL     1       5.347  17.245  25.499  1.00  0.00     0.000 C 
BRANCH  55  56
HETATM   56  C29 UNL     1       4.864  18.190  26.481  1.00  0.00     0.007 C 
HETATM   57  C30 UNL     1       5.459  18.368  27.668  1.00  0.00     0.081 C 
BRANCH  57  58
HETATM   58  C31 UNL     1       4.922  19.363  28.606  1.00  0.00     0.165 C 
HETATM   59  O6  UNL     1       4.771  19.247  29.806  1.00  0.00    -0.647 OA
BRANCH  58  60
HETATM   60  O7  UNL     1       4.616  20.496  27.948  1.00  0.00    -0.773 OA
HETATM   61  H43 UNL     1       4.267  21.089  28.647  1.00  0.00     0.167 HD
ENDBRANCH  58  60
ENDBRANCH  57  58
ENDBRANCH  55  56
ENDBRANCH  53  54
ENDBRANCH  48  52
ENDBRANCH  43  45
ENDBRANCH  40  43
ENDBRANCH  38  40
ENDBRANCH  36  37
ENDBRANCH  34  35
ENDBRANCH   3  34
TORSDOF 23
ENDMDL
