MODEL 1
REMARK minimizedAffinity -10.385911
REMARK CNNscore 0.575928867
REMARK CNNaffinity 6.6598525
REMARK  12 active torsions:
REMARK  status: ('A' for Active; 'I' for Inactive)
REMARK    1  A    between atoms: C19_21  and  O3_22 
REMARK    2  A    between atoms: C19_21  and  C20_23 
REMARK    3  A    between atoms: C20_23  and  C21_25 
REMARK    4  A    between atoms: C21_25  and  O5_26 
REMARK    5  A    between atoms: O5_26  and  C22_27 
REMARK    6  A    between atoms: C22_27  and  C23_29 
REMARK    7  A    between atoms: C23_29  and  C24_30 
REMARK    8  A    between atoms: C24_30  and  C25_31 
REMARK       I    between atoms: C25_31  and  N1_33 
REMARK    9  A    between atoms: N1_33  and  C26_34 
REMARK   10  A    between atoms: C26_34  and  C27_35 
REMARK   11  A    between atoms: C30_38  and  C31_39 
REMARK   12  A    between atoms: C31_39  and  O9_41 
ROOT
HETATM    1  C1  UNL     1      -6.218   5.411  15.191  1.00  0.00     0.021 C 
HETATM    2  C2  UNL     1      -5.986   5.647  13.678  1.00  0.00    -0.009 C 
HETATM    3  C3  UNL     1      -7.319   6.054  12.993  1.00  0.00     0.022 C 
HETATM    4  C4  UNL     1      -8.400   4.976  13.090  1.00  0.00     0.084 C 
HETATM    5  C5  UNL     1      -7.883   3.600  12.753  1.00  0.00     0.149 C 
HETATM    6  O1  UNL     1      -8.637   2.645  12.591  1.00  0.00    -0.293 OA
HETATM    7  C6  UNL     1      -6.420   3.391  12.628  1.00  0.00     0.053 C 
HETATM    8  C7  UNL     1      -5.540   4.328  13.024  1.00  0.00    -0.067 C 
HETATM    9  C8  UNL     1      -4.068   4.141  12.727  1.00  0.00     0.035 C 
HETATM   10  C9  UNL     1      -3.143   4.806  13.741  1.00  0.00     0.010 C 
HETATM   11  C10 UNL     1      -3.510   6.265  14.070  1.00  0.00     0.003 C 
HETATM   12  C11 UNL     1      -4.864   6.702  13.428  1.00  0.00     0.072 C 
HETATM   13  C12 UNL     1      -5.158   8.148  13.852  1.00  0.00     0.133 C 
HETATM   14  O2  UNL     1      -6.196   8.502  14.406  1.00  0.00    -0.297 OA
HETATM   15  C13 UNL     1      -4.071   9.168  13.525  1.00  0.00     0.091 C 
HETATM   16  C14 UNL     1      -2.756   8.729  14.188  1.00  0.00     0.005 C 
HETATM   17  C15 UNL     1      -2.918   8.812  15.731  1.00  0.00     0.019 C 
HETATM   18  C16 UNL     1      -2.433   7.292  13.675  1.00  0.00     0.002 C 
HETATM   19  C17 UNL     1      -1.005   7.062  14.150  1.00  0.00     0.009 C 
HETATM   20  C18 UNL     1      -0.338   8.445  14.057  1.00  0.00     0.047 C 
HETATM   21  C19 UNL     1      -1.464   9.476  13.738  1.00  0.00     0.128 C 
ENDROOT
BRANCH  21  22
HETATM   22  O3  UNL     1      -1.485   9.648  12.320  1.00  0.00    -0.381 OA
HETATM   23  H25 UNL     1      -0.578   9.889  12.043  1.00  0.00     0.211 HD
ENDBRANCH  21  22
BRANCH  21  24
HETATM   24  C20 UNL     1      -1.223  10.831  14.454  1.00  0.00     0.185 C 
HETATM   25  O4  UNL     1      -1.757  11.875  14.062  1.00  0.00    -0.292 OA
BRANCH  24  26
HETATM   26  C21 UNL     1      -0.217  10.881  15.613  1.00  0.00     0.260 C 
BRANCH  26  27
HETATM   27  O5  UNL     1      -0.673  11.012  16.953  1.00  0.00    -0.314 OA
BRANCH  27  28
HETATM   28  C22 UNL     1       0.174  10.515  17.897  1.00  0.00     0.259 C 
HETATM   29  O6  UNL     1       1.215   9.921  17.647  1.00  0.00    -0.265 OA
BRANCH  28  30
HETATM   30  C23 UNL     1      -0.319  10.830  19.282  1.00  0.00     0.120 C 
BRANCH  30  31
HETATM   31  C24 UNL     1       0.681  11.727  20.000  1.00  0.00     0.112 C 
BRANCH  31  32
HETATM   32  C25 UNL     1       1.773  10.929  20.676  1.00  0.00     0.218 C 
HETATM   33  O7  UNL     1       1.592   9.818  21.160  1.00  0.00    -0.274 OA
HETATM   34  N1  UNL     1       2.974  11.602  20.716  1.00  0.00    -0.361 N 
HETATM   35  H32 UNL     1       3.037  12.522  20.293  1.00  0.00     0.162 HD
BRANCH  34  36
HETATM   36  C26 UNL     1       4.139  11.091  21.412  1.00  0.00     0.127 C 
BRANCH  36  37
HETATM   37  C27 UNL     1       5.229  12.158  21.622  1.00  0.00     0.003 C 
HETATM   38  C28 UNL     1       6.277  12.147  20.500  1.00  0.00     0.007 C 
HETATM   39  C29 UNL     1       7.335  13.231  20.707  1.00  0.00     0.015 C 
HETATM   40  C30 UNL     1       8.018  13.131  22.075  1.00  0.00     0.084 C 
HETATM   41  C32 UNL     1       6.993  13.065  23.216  1.00  0.00     0.015 C 
HETATM   42  C33 UNL     1       5.900  12.020  22.998  1.00  0.00     0.007 C 
BRANCH  40  43
HETATM   43  C31 UNL     1       8.984  11.965  22.113  1.00  0.00     0.143 C 
HETATM   44  O8  UNL     1       9.725  11.585  21.223  1.00  0.00    -0.650 OA
BRANCH  43  45
HETATM   45  O9  UNL     1       8.964  11.324  23.298  1.00  0.00    -0.776 OA
HETATM   46  H41 UNL     1       9.621  10.604  23.193  1.00  0.00     0.167 HD
ENDBRANCH  43  45
ENDBRANCH  40  43
ENDBRANCH  36  37
ENDBRANCH  34  36
ENDBRANCH  31  32
ENDBRANCH  30  31
ENDBRANCH  28  30
ENDBRANCH  27  28
ENDBRANCH  26  27
ENDBRANCH  24  26
ENDBRANCH  21  24
TORSDOF 12
ENDMDL
MODEL 2
REMARK minimizedAffinity -9.99456024
REMARK CNNscore 0.533439875
REMARK CNNaffinity 6.59833384
REMARK  12 active torsions:
REMARK  status: ('A' for Active; 'I' for Inactive)
REMARK    1  A    between atoms: C19_21  and  O3_22 
REMARK    2  A    between atoms: C19_21  and  C20_23 
REMARK    3  A    between atoms: C20_23  and  C21_25 
REMARK    4  A    between atoms: C21_25  and  O5_26 
REMARK    5  A    between atoms: O5_26  and  C22_27 
REMARK    6  A    between atoms: C22_27  and  C23_29 
REMARK    7  A    between atoms: C23_29  and  C24_30 
REMARK    8  A    between atoms: C24_30  and  C25_31 
REMARK       I    between atoms: C25_31  and  N1_33 
REMARK    9  A    between atoms: N1_33  and  C26_34 
REMARK   10  A    between atoms: C26_34  and  C27_35 
REMARK   11  A    between atoms: C30_38  and  C31_39 
REMARK   12  A    between atoms: C31_39  and  O9_41 
ROOT
HETATM    1  C1  UNL     1      -6.192   5.370  15.121  1.00  0.00     0.021 C 
HETATM    2  C2  UNL     1      -5.964   5.596  13.606  1.00  0.00    -0.009 C 
HETATM    3  C3  UNL     1      -7.293   6.024  12.927  1.00  0.00     0.022 C 
HETATM    4  C4  UNL     1      -8.391   4.964  13.032  1.00  0.00     0.084 C 
HETATM    5  C5  UNL     1      -7.899   3.578  12.698  1.00  0.00     0.149 C 
HETATM    6  O1  UNL     1      -8.670   2.636  12.543  1.00  0.00    -0.293 OA
HETATM    7  C6  UNL     1      -6.440   3.344  12.567  1.00  0.00     0.053 C 
HETATM    8  C7  UNL     1      -5.543   4.268  12.955  1.00  0.00    -0.067 C 
HETATM    9  C8  UNL     1      -4.076   4.055  12.652  1.00  0.00     0.035 C 
HETATM   10  C9  UNL     1      -3.135   4.708  13.658  1.00  0.00     0.010 C 
HETATM   11  C10 UNL     1      -3.476   6.174  13.984  1.00  0.00     0.003 C 
HETATM   12  C11 UNL     1      -4.826   6.631  13.347  1.00  0.00     0.072 C 
HETATM   13  C12 UNL     1      -5.093   8.084  13.768  1.00  0.00     0.133 C 
HETATM   14  O2  UNL     1      -6.122   8.457  14.325  1.00  0.00    -0.297 OA
HETATM   15  C13 UNL     1      -3.990   9.084  13.432  1.00  0.00     0.091 C 
HETATM   16  C14 UNL     1      -2.680   8.625  14.090  1.00  0.00     0.005 C 
HETATM   17  C15 UNL     1      -2.833   8.716  15.633  1.00  0.00     0.019 C 
HETATM   18  C16 UNL     1      -2.384   7.181  13.580  1.00  0.00     0.002 C 
HETATM   19  C17 UNL     1      -0.957   6.929  14.050  1.00  0.00     0.009 C 
HETATM   20  C18 UNL     1      -0.267   8.300  13.948  1.00  0.00     0.047 C 
HETATM   21  C19 UNL     1      -1.377   9.349  13.630  1.00  0.00     0.128 C 
ENDROOT
BRANCH  21  22
HETATM   22  O3  UNL     1      -1.403   9.517  12.212  1.00  0.00    -0.381 OA
HETATM   23  H25 UNL     1      -0.493   9.741  11.930  1.00  0.00     0.211 HD
ENDBRANCH  21  22
BRANCH  21  24
HETATM   24  C20 UNL     1      -1.111  10.702  14.341  1.00  0.00     0.185 C 
HETATM   25  O4  UNL     1      -1.741  11.724  14.046  1.00  0.00    -0.292 OA
BRANCH  24  26
HETATM   26  C21 UNL     1       0.036  10.784  15.359  1.00  0.00     0.260 C 
BRANCH  26  27
HETATM   27  O5  UNL     1      -0.088  10.156  16.629  1.00  0.00    -0.314 OA
BRANCH  27  28
HETATM   28  C22 UNL     1       0.322  10.914  17.684  1.00  0.00     0.259 C 
HETATM   29  O6  UNL     1       0.743  10.460  18.740  1.00  0.00    -0.265 OA
BRANCH  28  30
HETATM   30  C23 UNL     1       0.229  12.380  17.361  1.00  0.00     0.120 C 
BRANCH  30  31
HETATM   31  C24 UNL     1      -0.224  13.157  18.591  1.00  0.00     0.112 C 
BRANCH  31  32
HETATM   32  C25 UNL     1       0.947  13.668  19.400  1.00  0.00     0.218 C 
HETATM   33  O7  UNL     1       1.750  14.491  18.975  1.00  0.00    -0.274 OA
HETATM   34  N1  UNL     1       1.026  13.085  20.645  1.00  0.00    -0.361 N 
HETATM   35  H32 UNL     1       0.320  12.410  20.918  1.00  0.00     0.162 HD
BRANCH  34  36
HETATM   36  C26 UNL     1       2.124  13.329  21.560  1.00  0.00     0.127 C 
BRANCH  36  37
HETATM   37  C27 UNL     1       3.052  12.112  21.722  1.00  0.00     0.003 C 
HETATM   38  C28 UNL     1       2.544  10.886  20.949  1.00  0.00     0.007 C 
HETATM   39  C29 UNL     1       3.491   9.695  21.095  1.00  0.00     0.015 C 
HETATM   40  C30 UNL     1       3.752   9.330  22.560  1.00  0.00     0.084 C 
HETATM   41  C32 UNL     1       4.192  10.551  23.379  1.00  0.00     0.015 C 
HETATM   42  C33 UNL     1       3.282  11.767  23.202  1.00  0.00     0.007 C 
BRANCH  40  43
HETATM   43  C31 UNL     1       2.547   8.643  23.170  1.00  0.00     0.143 C 
HETATM   44  O8  UNL     1       2.140   8.739  24.315  1.00  0.00    -0.650 OA
BRANCH  43  45
HETATM   45  O9  UNL     1       1.908   7.853  22.286  1.00  0.00    -0.776 OA
HETATM   46  H41 UNL     1       1.162   7.474  22.798  1.00  0.00     0.167 HD
ENDBRANCH  43  45
ENDBRANCH  40  43
ENDBRANCH  36  37
ENDBRANCH  34  36
ENDBRANCH  31  32
ENDBRANCH  30  31
ENDBRANCH  28  30
ENDBRANCH  27  28
ENDBRANCH  26  27
ENDBRANCH  24  26
ENDBRANCH  21  24
TORSDOF 12
ENDMDL
MODEL 3
REMARK minimizedAffinity -8.01327896
REMARK CNNscore 0.528168082
REMARK CNNaffinity 6.54535246
REMARK  12 active torsions:
REMARK  status: ('A' for Active; 'I' for Inactive)
REMARK    1  A    between atoms: C19_21  and  O3_22 
REMARK    2  A    between atoms: C19_21  and  C20_23 
REMARK    3  A    between atoms: C20_23  and  C21_25 
REMARK    4  A    between atoms: C21_25  and  O5_26 
REMARK    5  A    between atoms: O5_26  and  C22_27 
REMARK    6  A    between atoms: C22_27  and  C23_29 
REMARK    7  A    between atoms: C23_29  and  C24_30 
REMARK    8  A    between atoms: C24_30  and  C25_31 
REMARK       I    between atoms: C25_31  and  N1_33 
REMARK    9  A    between atoms: N1_33  and  C26_34 
REMARK   10  A    between atoms: C26_34  and  C27_35 
REMARK   11  A    between atoms: C30_38  and  C31_39 
REMARK   12  A    between atoms: C31_39  and  O9_41 
ROOT
HETATM    1  C1  UNL     1       0.722   8.762  11.630  1.00  0.00     0.021 C 
HETATM    2  C2  UNL     1       0.589   7.589  12.632  1.00  0.00    -0.009 C 
HETATM    3  C3  UNL     1       1.991   7.008  12.961  1.00  0.00     0.022 C 
HETATM    4  C4  UNL     1       2.707   6.435  11.736  1.00  0.00     0.084 C 
HETATM    5  C5  UNL     1       1.814   5.558  10.895  1.00  0.00     0.149 C 
HETATM    6  O1  UNL     1       2.257   4.862   9.987  1.00  0.00    -0.293 OA
HETATM    7  C6  UNL     1       0.355   5.547  11.165  1.00  0.00     0.053 C 
HETATM    8  C7  UNL     1      -0.216   6.454  11.976  1.00  0.00    -0.067 C 
HETATM    9  C8  UNL     1      -1.675   6.304  12.352  1.00  0.00     0.035 C 
HETATM   10  C9  UNL     1      -2.377   7.625  12.645  1.00  0.00     0.010 C 
HETATM   11  C10 UNL     1      -1.602   8.556  13.598  1.00  0.00     0.003 C 
HETATM   12  C11 UNL     1      -0.172   8.023  13.924  1.00  0.00     0.072 C 
HETATM   13  C12 UNL     1       0.527   9.039  14.838  1.00  0.00     0.133 C 
HETATM   14  O2  UNL     1       1.616   9.550  14.588  1.00  0.00    -0.297 OA
HETATM   15  C13 UNL     1      -0.209   9.385  16.129  1.00  0.00     0.091 C 
HETATM   16  C14 UNL     1      -1.603   9.929  15.781  1.00  0.00     0.005 C 
HETATM   17  C15 UNL     1      -1.444  11.289  15.046  1.00  0.00     0.019 C 
HETATM   18  C16 UNL     1      -2.326   8.844  14.925  1.00  0.00     0.002 C 
HETATM   19  C17 UNL     1      -3.765   9.339  14.872  1.00  0.00     0.009 C 
HETATM   20  C18 UNL     1      -3.997  10.004  16.240  1.00  0.00     0.047 C 
HETATM   21  C19 UNL     1      -2.614  10.066  16.960  1.00  0.00     0.128 C 
ENDROOT
BRANCH  21  22
HETATM   22  O3  UNL     1      -2.525   8.911  17.797  1.00  0.00    -0.381 OA
HETATM   23  H25 UNL     1      -3.319   8.906  18.370  1.00  0.00     0.211 HD
ENDBRANCH  21  22
BRANCH  21  24
HETATM   24  C20 UNL     1      -2.456  11.365  17.794  1.00  0.00     0.185 C 
HETATM   25  O4  UNL     1      -3.062  12.401  17.499  1.00  0.00    -0.292 OA
BRANCH  24  26
HETATM   26  C21 UNL     1      -1.443  11.378  18.947  1.00  0.00     0.260 C 
BRANCH  26  27
HETATM   27  O5  UNL     1      -0.075  11.672  18.695  1.00  0.00    -0.314 OA
BRANCH  27  28
HETATM   28  C22 UNL     1       0.774  11.354  19.712  1.00  0.00     0.259 C 
HETATM   29  O6  UNL     1       0.658  10.367  20.427  1.00  0.00    -0.265 OA
BRANCH  28  30
HETATM   30  C23 UNL     1       1.895  12.352  19.810  1.00  0.00     0.120 C 
BRANCH  30  31
HETATM   31  C24 UNL     1       3.216  11.692  19.436  1.00  0.00     0.112 C 
BRANCH  31  32
HETATM   32  C25 UNL     1       4.011  11.289  20.657  1.00  0.00     0.218 C 
HETATM   33  O7  UNL     1       4.297  10.126  20.919  1.00  0.00    -0.274 OA
HETATM   34  N1  UNL     1       4.346  12.364  21.451  1.00  0.00    -0.361 N 
HETATM   35  H32 UNL     1       4.067  13.295  21.161  1.00  0.00     0.162 HD
BRANCH  34  36
HETATM   36  C26 UNL     1       5.009  12.219  22.731  1.00  0.00     0.127 C 
BRANCH  36  37
HETATM   37  C27 UNL     1       6.417  12.842  22.752  1.00  0.00     0.003 C 
HETATM   38  C28 UNL     1       6.772  13.521  21.421  1.00  0.00     0.007 C 
HETATM   39  C29 UNL     1       8.160  14.161  21.467  1.00  0.00     0.015 C 
HETATM   40  C30 UNL     1       9.252  13.163  21.863  1.00  0.00     0.084 C 
HETATM   41  C32 UNL     1       8.894  12.412  23.153  1.00  0.00     0.015 C 
HETATM   42  C33 UNL     1       7.488  11.811  23.141  1.00  0.00     0.007 C 
BRANCH  40  43
HETATM   43  C31 UNL     1       9.559  12.215  20.723  1.00  0.00     0.143 C 
HETATM   44  O8  UNL     1       8.839  11.929  19.781  1.00  0.00    -0.650 OA
BRANCH  43  45
HETATM   45  O9  UNL     1      10.783  11.663  20.833  1.00  0.00    -0.776 OA
HETATM   46  H41 UNL     1      10.855  11.080  20.047  1.00  0.00     0.167 HD
ENDBRANCH  43  45
ENDBRANCH  40  43
ENDBRANCH  36  37
ENDBRANCH  34  36
ENDBRANCH  31  32
ENDBRANCH  30  31
ENDBRANCH  28  30
ENDBRANCH  27  28
ENDBRANCH  26  27
ENDBRANCH  24  26
ENDBRANCH  21  24
TORSDOF 12
ENDMDL
MODEL 4
REMARK minimizedAffinity -8.80883789
REMARK CNNscore 0.462190092
REMARK CNNaffinity 6.57124138
REMARK  12 active torsions:
REMARK  status: ('A' for Active; 'I' for Inactive)
REMARK    1  A    between atoms: C19_21  and  O3_22 
REMARK    2  A    between atoms: C19_21  and  C20_23 
REMARK    3  A    between atoms: C20_23  and  C21_25 
REMARK    4  A    between atoms: C21_25  and  O5_26 
REMARK    5  A    between atoms: O5_26  and  C22_27 
REMARK    6  A    between atoms: C22_27  and  C23_29 
REMARK    7  A    between atoms: C23_29  and  C24_30 
REMARK    8  A    between atoms: C24_30  and  C25_31 
REMARK       I    between atoms: C25_31  and  N1_33 
REMARK    9  A    between atoms: N1_33  and  C26_34 
REMARK   10  A    between atoms: C26_34  and  C27_35 
REMARK   11  A    between atoms: C30_38  and  C31_39 
REMARK   12  A    between atoms: C31_39  and  O9_41 
ROOT
HETATM    1  C1  UNL     1       0.056   7.513  10.291  1.00  0.00     0.021 C 
HETATM    2  C2  UNL     1       0.612   6.866  11.584  1.00  0.00    -0.009 C 
HETATM    3  C3  UNL     1       1.892   7.614  12.044  1.00  0.00     0.022 C 
HETATM    4  C4  UNL     1       3.028   7.551  11.021  1.00  0.00     0.084 C 
HETATM    5  C5  UNL     1       3.240   6.163  10.471  1.00  0.00     0.149 C 
HETATM    6  O1  UNL     1       4.220   5.878   9.789  1.00  0.00    -0.293 OA
HETATM    7  C6  UNL     1       2.230   5.114  10.752  1.00  0.00     0.053 C 
HETATM    8  C7  UNL     1       1.032   5.417  11.284  1.00  0.00    -0.067 C 
HETATM    9  C8  UNL     1       0.100   4.302  11.705  1.00  0.00     0.035 C 
HETATM   10  C9  UNL     1      -1.379   4.668  11.624  1.00  0.00     0.010 C 
HETATM   11  C10 UNL     1      -1.731   6.023  12.268  1.00  0.00     0.003 C 
HETATM   12  C11 UNL     1      -0.466   6.822  12.712  1.00  0.00     0.072 C 
HETATM   13  C12 UNL     1      -0.923   8.167  13.295  1.00  0.00     0.133 C 
HETATM   14  O2  UNL     1      -0.520   9.258  12.898  1.00  0.00    -0.297 OA
HETATM   15  C13 UNL     1      -1.921   8.085  14.446  1.00  0.00     0.091 C 
HETATM   16  C14 UNL     1      -3.165   7.316  13.977  1.00  0.00     0.005 C 
HETATM   17  C15 UNL     1      -3.893   8.152  12.888  1.00  0.00     0.019 C 
HETATM   18  C16 UNL     1      -2.686   5.921  13.470  1.00  0.00     0.002 C 
HETATM   19  C17 UNL     1      -3.985   5.144  13.298  1.00  0.00     0.009 C 
HETATM   20  C18 UNL     1      -4.896   5.658  14.427  1.00  0.00     0.047 C 
HETATM   21  C19 UNL     1      -4.171   6.874  15.083  1.00  0.00     0.128 C 
ENDROOT
BRANCH  21  22
HETATM   22  O3  UNL     1      -3.448   6.374  16.209  1.00  0.00    -0.381 OA
HETATM   23  H25 UNL     1      -4.085   5.887  16.771  1.00  0.00     0.211 HD
ENDBRANCH  21  22
BRANCH  21  24
HETATM   24  C20 UNL     1      -5.174   7.976  15.517  1.00  0.00     0.185 C 
HETATM   25  O4  UNL     1      -4.808   9.138  15.726  1.00  0.00    -0.292 OA
BRANCH  24  26
HETATM   26  C21 UNL     1      -6.631   7.577  15.788  1.00  0.00     0.260 C 
BRANCH  26  27
HETATM   27  O5  UNL     1      -7.585   7.588  14.734  1.00  0.00    -0.314 OA
BRANCH  27  28
HETATM   28  C22 UNL     1      -8.836   7.182  15.090  1.00  0.00     0.259 C 
HETATM   29  O6  UNL     1      -9.070   6.287  15.892  1.00  0.00    -0.265 OA
BRANCH  28  30
HETATM   30  C23 UNL     1      -9.886   8.008  14.400  1.00  0.00     0.120 C 
BRANCH  30  31
HETATM   31  C24 UNL     1     -10.952   7.101  13.799  1.00  0.00     0.112 C 
BRANCH  31  32
HETATM   32  C25 UNL     1     -12.342   7.670  13.971  1.00  0.00     0.218 C 
HETATM   33  O7  UNL     1     -12.875   8.402  13.146  1.00  0.00    -0.274 OA
HETATM   34  N1  UNL     1     -12.921   7.302  15.166  1.00  0.00    -0.361 N 
HETATM   35  H32 UNL     1     -12.409   6.694  15.795  1.00  0.00     0.162 HD
BRANCH  34  36
HETATM   36  C26 UNL     1     -14.204   7.814  15.608  1.00  0.00     0.127 C 
BRANCH  36  37
HETATM   37  C27 UNL     1     -15.307   6.741  15.617  1.00  0.00     0.003 C 
HETATM   38  C28 UNL     1     -14.898   5.479  14.844  1.00  0.00     0.007 C 
HETATM   39  C29 UNL     1     -15.991   4.411  14.888  1.00  0.00     0.015 C 
HETATM   40  C30 UNL     1     -17.340   4.932  14.381  1.00  0.00     0.084 C 
HETATM   41  C32 UNL     1     -17.744   6.236  15.082  1.00  0.00     0.015 C 
HETATM   42  C33 UNL     1     -16.642   7.294  15.091  1.00  0.00     0.007 C 
BRANCH  40  43
HETATM   43  C31 UNL     1     -17.331   5.079  12.873  1.00  0.00     0.143 C 
HETATM   44  O8  UNL     1     -16.797   5.957  12.216  1.00  0.00    -0.650 OA
BRANCH  43  45
HETATM   45  O9  UNL     1     -18.012   4.092  12.259  1.00  0.00    -0.776 OA
HETATM   46  H41 UNL     1     -17.931   4.302  11.305  1.00  0.00     0.167 HD
ENDBRANCH  43  45
ENDBRANCH  40  43
ENDBRANCH  36  37
ENDBRANCH  34  36
ENDBRANCH  31  32
ENDBRANCH  30  31
ENDBRANCH  28  30
ENDBRANCH  27  28
ENDBRANCH  26  27
ENDBRANCH  24  26
ENDBRANCH  21  24
TORSDOF 12
ENDMDL
MODEL 5
REMARK minimizedAffinity -8.99213982
REMARK CNNscore 0.383194178
REMARK CNNaffinity 6.28238916
REMARK  12 active torsions:
REMARK  status: ('A' for Active; 'I' for Inactive)
REMARK    1  A    between atoms: C19_21  and  O3_22 
REMARK    2  A    between atoms: C19_21  and  C20_23 
REMARK    3  A    between atoms: C20_23  and  C21_25 
REMARK    4  A    between atoms: C21_25  and  O5_26 
REMARK    5  A    between atoms: O5_26  and  C22_27 
REMARK    6  A    between atoms: C22_27  and  C23_29 
REMARK    7  A    between atoms: C23_29  and  C24_30 
REMARK    8  A    between atoms: C24_30  and  C25_31 
REMARK       I    between atoms: C25_31  and  N1_33 
REMARK    9  A    between atoms: N1_33  and  C26_34 
REMARK   10  A    between atoms: C26_34  and  C27_35 
REMARK   11  A    between atoms: C30_38  and  C31_39 
REMARK   12  A    between atoms: C31_39  and  O9_41 
ROOT
HETATM    1  C1  UNL     1      -2.969   7.222  12.698  1.00  0.00     0.021 C 
HETATM    2  C2  UNL     1      -3.523   6.562  13.985  1.00  0.00    -0.009 C 
HETATM    3  C3  UNL     1      -2.915   5.145  14.159  1.00  0.00     0.022 C 
HETATM    4  C4  UNL     1      -3.268   4.193  13.014  1.00  0.00     0.084 C 
HETATM    5  C5  UNL     1      -4.729   4.240  12.645  1.00  0.00     0.149 C 
HETATM    6  O1  UNL     1      -5.233   3.418  11.887  1.00  0.00    -0.293 OA
HETATM    7  C6  UNL     1      -5.579   5.319  13.205  1.00  0.00     0.053 C 
HETATM    8  C7  UNL     1      -5.043   6.376  13.842  1.00  0.00    -0.067 C 
HETATM    9  C8  UNL     1      -5.952   7.365  14.538  1.00  0.00     0.035 C 
HETATM   10  C9  UNL     1      -5.391   8.782  14.603  1.00  0.00     0.010 C 
HETATM   11  C10 UNL     1      -3.931   8.862  15.087  1.00  0.00     0.003 C 
HETATM   12  C11 UNL     1      -3.272   7.455  15.240  1.00  0.00     0.072 C 
HETATM   13  C12 UNL     1      -1.813   7.648  15.680  1.00  0.00     0.133 C 
HETATM   14  O2  UNL     1      -0.850   7.178  15.081  1.00  0.00    -0.297 OA
HETATM   15  C13 UNL     1      -1.608   8.463  16.953  1.00  0.00     0.091 C 
HETATM   16  C14 UNL     1      -2.243   9.850  16.769  1.00  0.00     0.005 C 
HETATM   17  C15 UNL     1      -1.453  10.624  15.677  1.00  0.00     0.019 C 
HETATM   18  C16 UNL     1      -3.745   9.630  16.408  1.00  0.00     0.002 C 
HETATM   19  C17 UNL     1      -4.342  11.027  16.523  1.00  0.00     0.009 C 
HETATM   20  C18 UNL     1      -3.567  11.685  17.677  1.00  0.00     0.047 C 
HETATM   21  C19 UNL     1      -2.396  10.725  18.050  1.00  0.00     0.128 C 
ENDROOT
BRANCH  21  22
HETATM   22  O3  UNL     1      -2.851   9.907  19.130  1.00  0.00    -0.381 OA
HETATM   23  H25 UNL     1      -3.167  10.508  19.835  1.00  0.00     0.211 HD
ENDBRANCH  21  22
BRANCH  21  24
HETATM   24  C20 UNL     1      -1.116  11.505  18.451  1.00  0.00     0.185 C 
HETATM   25  O4  UNL     1      -0.898  12.649  18.034  1.00  0.00    -0.292 OA
BRANCH  24  26
HETATM   26  C21 UNL     1      -0.056  10.791  19.301  1.00  0.00     0.260 C 
BRANCH  26  27
HETATM   27  O5  UNL     1       1.173  10.379  18.717  1.00  0.00    -0.314 OA
BRANCH  27  28
HETATM   28  C22 UNL     1       2.256  10.475  19.538  1.00  0.00     0.259 C 
HETATM   29  O6  UNL     1       3.365  10.848  19.178  1.00  0.00    -0.265 OA
BRANCH  28  30
HETATM   30  C23 UNL     1       1.897  10.103  20.950  1.00  0.00     0.120 C 
BRANCH  30  31
HETATM   31  C24 UNL     1       3.162   9.868  21.765  1.00  0.00     0.112 C 
BRANCH  31  32
HETATM   32  C25 UNL     1       3.470  11.032  22.678  1.00  0.00     0.218 C 
HETATM   33  O7  UNL     1       2.825  11.284  23.689  1.00  0.00    -0.274 OA
HETATM   34  N1  UNL     1       4.529  11.791  22.230  1.00  0.00    -0.361 N 
HETATM   35  H32 UNL     1       5.009  11.514  21.381  1.00  0.00     0.162 HD
BRANCH  34  36
HETATM   36  C26 UNL     1       4.942  13.023  22.874  1.00  0.00     0.127 C 
BRANCH  36  37
HETATM   37  C27 UNL     1       6.472  13.193  22.920  1.00  0.00     0.003 C 
HETATM   38  C28 UNL     1       7.014  13.918  21.681  1.00  0.00     0.007 C 
HETATM   39  C29 UNL     1       8.530  14.105  21.756  1.00  0.00     0.015 C 
HETATM   40  C30 UNL     1       9.274  12.783  21.967  1.00  0.00     0.084 C 
HETATM   41  C32 UNL     1       8.706  11.997  23.157  1.00  0.00     0.015 C 
HETATM   42  C33 UNL     1       7.186  11.846  23.122  1.00  0.00     0.007 C 
BRANCH  40  43
HETATM   43  C31 UNL     1       9.285  11.958  20.697  1.00  0.00     0.143 C 
HETATM   44  O8  UNL     1       8.397  11.862  19.867  1.00  0.00    -0.650 OA
BRANCH  43  45
HETATM   45  O9  UNL     1      10.439  11.280  20.538  1.00  0.00    -0.776 OA
HETATM   46  H41 UNL     1      10.317  10.795  19.694  1.00  0.00     0.167 HD
ENDBRANCH  43  45
ENDBRANCH  40  43
ENDBRANCH  36  37
ENDBRANCH  34  36
ENDBRANCH  31  32
ENDBRANCH  30  31
ENDBRANCH  28  30
ENDBRANCH  27  28
ENDBRANCH  26  27
ENDBRANCH  24  26
ENDBRANCH  21  24
TORSDOF 12
ENDMDL
MODEL 6
REMARK minimizedAffinity -8.81725407
REMARK CNNscore 0.349194944
REMARK CNNaffinity 6.27004194
REMARK  12 active torsions:
REMARK  status: ('A' for Active; 'I' for Inactive)
REMARK    1  A    between atoms: C19_21  and  O3_22 
REMARK    2  A    between atoms: C19_21  and  C20_23 
REMARK    3  A    between atoms: C20_23  and  C21_25 
REMARK    4  A    between atoms: C21_25  and  O5_26 
REMARK    5  A    between atoms: O5_26  and  C22_27 
REMARK    6  A    between atoms: C22_27  and  C23_29 
REMARK    7  A    between atoms: C23_29  and  C24_30 
REMARK    8  A    between atoms: C24_30  and  C25_31 
REMARK       I    between atoms: C25_31  and  N1_33 
REMARK    9  A    between atoms: N1_33  and  C26_34 
REMARK   10  A    between atoms: C26_34  and  C27_35 
REMARK   11  A    between atoms: C30_38  and  C31_39 
REMARK   12  A    between atoms: C31_39  and  O9_41 
ROOT
HETATM    1  C1  UNL     1      -0.768   6.301  11.398  1.00  0.00     0.021 C 
HETATM    2  C2  UNL     1      -1.248   5.433  12.586  1.00  0.00    -0.009 C 
HETATM    3  C3  UNL     1      -0.227   4.295  12.860  1.00  0.00     0.022 C 
HETATM    4  C4  UNL     1      -0.062   3.337  11.679  1.00  0.00     0.084 C 
HETATM    5  C5  UNL     1      -1.381   2.907  11.088  1.00  0.00     0.149 C 
HETATM    6  O1  UNL     1      -1.458   2.000  10.265  1.00  0.00    -0.293 OA
HETATM    7  C6  UNL     1      -2.620   3.609  11.504  1.00  0.00     0.053 C 
HETATM    8  C7  UNL     1      -2.576   4.752  12.210  1.00  0.00    -0.067 C 
HETATM    9  C8  UNL     1      -3.859   5.344  12.752  1.00  0.00     0.035 C 
HETATM   10  C9  UNL     1      -3.829   6.861  12.896  1.00  0.00     0.010 C 
HETATM   11  C10 UNL     1      -2.571   7.405  13.600  1.00  0.00     0.003 C 
HETATM   12  C11 UNL     1      -1.504   6.296  13.860  1.00  0.00     0.072 C 
HETATM   13  C12 UNL     1      -0.279   6.947  14.520  1.00  0.00     0.133 C 
HETATM   14  O2  UNL     1       0.864   6.858  14.080  1.00  0.00    -0.297 OA
HETATM   15  C13 UNL     1      -0.554   7.722  15.806  1.00  0.00     0.091 C 
HETATM   16  C14 UNL     1      -1.588   8.822  15.518  1.00  0.00     0.005 C 
HETATM   17  C15 UNL     1      -0.956   9.868  14.558  1.00  0.00     0.019 C 
HETATM   18  C16 UNL     1      -2.854   8.127  14.929  1.00  0.00     0.002 C 
HETATM   19  C17 UNL     1      -3.901   9.234  14.943  1.00  0.00     0.009 C 
HETATM   20  C18 UNL     1      -3.575  10.058  16.200  1.00  0.00     0.047 C 
HETATM   21  C19 UNL     1      -2.216   9.531  16.756  1.00  0.00     0.128 C 
ENDROOT
BRANCH  21  22
HETATM   22  O3  UNL     1      -2.521   8.558  17.756  1.00  0.00    -0.381 OA
HETATM   23  H25 UNL     1      -3.123   8.983  18.400  1.00  0.00     0.211 HD
ENDBRANCH  21  22
BRANCH  21  24
HETATM   24  C20 UNL     1      -1.352  10.677  17.346  1.00  0.00     0.185 C 
HETATM   25  O4  UNL     1      -1.718  11.857  17.294  1.00  0.00    -0.292 OA
BRANCH  24  26
HETATM   26  C21 UNL     1       0.033  10.335  17.913  1.00  0.00     0.260 C 
BRANCH  26  27
HETATM   27  O5  UNL     1       0.746  11.290  18.687  1.00  0.00    -0.314 OA
BRANCH  27  28
HETATM   28  C22 UNL     1       1.852  10.804  19.318  1.00  0.00     0.259 C 
HETATM   29  O6  UNL     1       2.829  10.343  18.743  1.00  0.00    -0.265 OA
BRANCH  28  30
HETATM   30  C23 UNL     1       1.728  10.951  20.809  1.00  0.00     0.120 C 
BRANCH  30  31
HETATM   31  C24 UNL     1       1.935   9.601  21.485  1.00  0.00     0.112 C 
BRANCH  31  32
HETATM   32  C25 UNL     1       3.019   9.655  22.537  1.00  0.00     0.218 C 
HETATM   33  O7  UNL     1       2.975   9.014  23.581  1.00  0.00    -0.274 OA
HETATM   34  N1  UNL     1       4.035  10.525  22.208  1.00  0.00    -0.361 N 
HETATM   35  H32 UNL     1       3.991  11.020  21.323  1.00  0.00     0.162 HD
BRANCH  34  36
HETATM   36  C26 UNL     1       5.129  10.834  23.108  1.00  0.00     0.127 C 
BRANCH  36  37
HETATM   37  C27 UNL     1       5.980  12.025  22.632  1.00  0.00     0.003 C 
HETATM   38  C28 UNL     1       6.043  12.120  21.101  1.00  0.00     0.007 C 
HETATM   39  C29 UNL     1       6.866  13.325  20.644  1.00  0.00     0.015 C 
HETATM   40  C30 UNL     1       8.279  13.328  21.236  1.00  0.00     0.084 C 
HETATM   41  C32 UNL     1       8.255  13.160  22.762  1.00  0.00     0.015 C 
HETATM   42  C33 UNL     1       7.393  11.989  23.235  1.00  0.00     0.007 C 
BRANCH  40  43
HETATM   43  C31 UNL     1       9.149  12.285  20.566  1.00  0.00     0.143 C 
HETATM   44  O8  UNL     1       9.886  11.476  21.104  1.00  0.00    -0.650 OA
BRANCH  43  45
HETATM   45  O9  UNL     1       9.045  12.319  19.223  1.00  0.00    -0.776 OA
HETATM   46  H41 UNL     1       9.647  11.608  18.917  1.00  0.00     0.167 HD
ENDBRANCH  43  45
ENDBRANCH  40  43
ENDBRANCH  36  37
ENDBRANCH  34  36
ENDBRANCH  31  32
ENDBRANCH  30  31
ENDBRANCH  28  30
ENDBRANCH  27  28
ENDBRANCH  26  27
ENDBRANCH  24  26
ENDBRANCH  21  24
TORSDOF 12
ENDMDL
MODEL 7
REMARK minimizedAffinity -8.41942215
REMARK CNNscore 0.286399484
REMARK CNNaffinity 6.72160196
REMARK  12 active torsions:
REMARK  status: ('A' for Active; 'I' for Inactive)
REMARK    1  A    between atoms: C19_21  and  O3_22 
REMARK    2  A    between atoms: C19_21  and  C20_23 
REMARK    3  A    between atoms: C20_23  and  C21_25 
REMARK    4  A    between atoms: C21_25  and  O5_26 
REMARK    5  A    between atoms: O5_26  and  C22_27 
REMARK    6  A    between atoms: C22_27  and  C23_29 
REMARK    7  A    between atoms: C23_29  and  C24_30 
REMARK    8  A    between atoms: C24_30  and  C25_31 
REMARK       I    between atoms: C25_31  and  N1_33 
REMARK    9  A    between atoms: N1_33  and  C26_34 
REMARK   10  A    between atoms: C26_34  and  C27_35 
REMARK   11  A    between atoms: C30_38  and  C31_39 
REMARK   12  A    between atoms: C31_39  and  O9_41 
ROOT
HETATM    1  C1  UNL     1      -4.181   4.391  10.806  1.00  0.00     0.021 C 
HETATM    2  C2  UNL     1      -4.339   3.849  12.247  1.00  0.00    -0.009 C 
HETATM    3  C3  UNL     1      -3.636   2.471  12.376  1.00  0.00     0.022 C 
HETATM    4  C4  UNL     1      -4.232   1.402  11.457  1.00  0.00     0.084 C 
HETATM    5  C5  UNL     1      -5.739   1.376  11.494  1.00  0.00     0.149 C 
HETATM    6  O1  UNL     1      -6.385   0.470  10.976  1.00  0.00    -0.293 OA
HETATM    7  C6  UNL     1      -6.462   2.484  12.165  1.00  0.00     0.053 C 
HETATM    8  C7  UNL     1      -5.831   3.611  12.537  1.00  0.00    -0.067 C 
HETATM    9  C8  UNL     1      -6.570   4.642  13.362  1.00  0.00     0.035 C 
HETATM   10  C9  UNL     1      -6.085   6.071  13.147  1.00  0.00     0.010 C 
HETATM   11  C10 UNL     1      -4.554   6.235  13.210  1.00  0.00     0.003 C 
HETATM   12  C11 UNL     1      -3.808   4.867  13.304  1.00  0.00     0.072 C 
HETATM   13  C12 UNL     1      -2.297   5.139  13.315  1.00  0.00     0.133 C 
HETATM   14  O2  UNL     1      -1.505   4.636  12.522  1.00  0.00    -0.297 OA
HETATM   15  C13 UNL     1      -1.802   6.081  14.408  1.00  0.00     0.091 C 
HETATM   16  C14 UNL     1      -2.532   7.426  14.279  1.00  0.00     0.005 C 
HETATM   17  C15 UNL     1      -2.101   8.108  12.951  1.00  0.00     0.019 C 
HETATM   18  C16 UNL     1      -4.062   7.135  14.358  1.00  0.00     0.002 C 
HETATM   19  C17 UNL     1      -4.677   8.521  14.505  1.00  0.00     0.009 C 
HETATM   20  C18 UNL     1      -3.657   9.309  15.345  1.00  0.00     0.047 C 
HETATM   21  C19 UNL     1      -2.382   8.420  15.472  1.00  0.00     0.128 C 
ENDROOT
BRANCH  21  22
HETATM   22  O3  UNL     1      -2.491   7.703  16.702  1.00  0.00    -0.381 OA
HETATM   23  H25 UNL     1      -2.638   8.362  17.410  1.00  0.00     0.211 HD
ENDBRANCH  21  22
BRANCH  21  24
HETATM   24  C20 UNL     1      -1.083   9.268  15.441  1.00  0.00     0.185 C 
HETATM   25  O4  UNL     1      -0.823  10.020  14.495  1.00  0.00    -0.292 OA
BRANCH  24  26
HETATM   26  C21 UNL     1      -0.057   9.082  16.568  1.00  0.00     0.260 C 
BRANCH  26  27
HETATM   27  O5  UNL     1       0.382  10.199  17.329  1.00  0.00    -0.314 OA
BRANCH  27  28
HETATM   28  C22 UNL     1       1.734  10.302  17.465  1.00  0.00     0.259 C 
HETATM   29  O6  UNL     1       2.463   9.390  17.833  1.00  0.00    -0.265 OA
BRANCH  28  30
HETATM   30  C23 UNL     1       2.213  11.670  17.064  1.00  0.00     0.120 C 
BRANCH  30  31
HETATM   31  C24 UNL     1       1.645  12.042  15.700  1.00  0.00     0.112 C 
BRANCH  31  32
HETATM   32  C25 UNL     1       2.609  11.726  14.580  1.00  0.00     0.218 C 
HETATM   33  O7  UNL     1       3.504  12.487  14.229  1.00  0.00    -0.274 OA
HETATM   34  N1  UNL     1       2.350  10.512  13.983  1.00  0.00    -0.361 N 
HETATM   35  H32 UNL     1       1.588   9.944  14.335  1.00  0.00     0.162 HD
BRANCH  34  36
HETATM   36  C26 UNL     1       3.068  10.042  12.814  1.00  0.00     0.127 C 
BRANCH  36  37
HETATM   37  C27 UNL     1       4.489   9.550  13.141  1.00  0.00     0.003 C 
HETATM   38  C28 UNL     1       5.462   9.764  11.972  1.00  0.00     0.007 C 
HETATM   39  C29 UNL     1       6.875   9.299  12.322  1.00  0.00     0.015 C 
HETATM   40  C30 UNL     1       6.914   7.839  12.786  1.00  0.00     0.084 C 
HETATM   41  C32 UNL     1       5.899   7.573  13.906  1.00  0.00     0.015 C 
HETATM   42  C33 UNL     1       4.492   8.080  13.590  1.00  0.00     0.007 C 
BRANCH  40  43
HETATM   43  C31 UNL     1       6.727   6.894  11.616  1.00  0.00     0.143 C 
HETATM   44  O8  UNL     1       7.076   7.066  10.461  1.00  0.00    -0.650 OA
BRANCH  43  45
HETATM   45  O9  UNL     1       6.094   5.759  11.973  1.00  0.00    -0.776 OA
HETATM   46  H41 UNL     1       6.038   5.245  11.140  1.00  0.00     0.167 HD
ENDBRANCH  43  45
ENDBRANCH  40  43
ENDBRANCH  36  37
ENDBRANCH  34  36
ENDBRANCH  31  32
ENDBRANCH  30  31
ENDBRANCH  28  30
ENDBRANCH  27  28
ENDBRANCH  26  27
ENDBRANCH  24  26
ENDBRANCH  21  24
TORSDOF 12
ENDMDL
MODEL 8
REMARK minimizedAffinity -8.65607738
REMARK CNNscore 0.276865065
REMARK CNNaffinity 7.04457521
REMARK  12 active torsions:
REMARK  status: ('A' for Active; 'I' for Inactive)
REMARK    1  A    between atoms: C19_21  and  O3_22 
REMARK    2  A    between atoms: C19_21  and  C20_23 
REMARK    3  A    between atoms: C20_23  and  C21_25 
REMARK    4  A    between atoms: C21_25  and  O5_26 
REMARK    5  A    between atoms: O5_26  and  C22_27 
REMARK    6  A    between atoms: C22_27  and  C23_29 
REMARK    7  A    between atoms: C23_29  and  C24_30 
REMARK    8  A    between atoms: C24_30  and  C25_31 
REMARK       I    between atoms: C25_31  and  N1_33 
REMARK    9  A    between atoms: N1_33  and  C26_34 
REMARK   10  A    between atoms: C26_34  and  C27_35 
REMARK   11  A    between atoms: C30_38  and  C31_39 
REMARK   12  A    between atoms: C31_39  and  O9_41 
ROOT
HETATM    1  C1  UNL     1      -4.026   4.484  10.931  1.00  0.00     0.021 C 
HETATM    2  C2  UNL     1      -4.249   3.953  12.369  1.00  0.00    -0.009 C 
HETATM    3  C3  UNL     1      -3.609   2.546  12.520  1.00  0.00     0.022 C 
HETATM    4  C4  UNL     1      -4.223   1.501  11.587  1.00  0.00     0.084 C 
HETATM    5  C5  UNL     1      -5.731   1.539  11.579  1.00  0.00     0.149 C 
HETATM    6  O1  UNL     1      -6.399   0.660  11.044  1.00  0.00    -0.293 OA
HETATM    7  C6  UNL     1      -6.425   2.679  12.226  1.00  0.00     0.053 C 
HETATM    8  C7  UNL     1      -5.757   3.780  12.614  1.00  0.00    -0.067 C 
HETATM    9  C8  UNL     1      -6.476   4.844  13.416  1.00  0.00     0.035 C 
HETATM   10  C9  UNL     1      -5.923   6.251  13.212  1.00  0.00     0.010 C 
HETATM   11  C10 UNL     1      -4.390   6.349  13.319  1.00  0.00     0.003 C 
HETATM   12  C11 UNL     1      -3.706   4.951  13.438  1.00  0.00     0.072 C 
HETATM   13  C12 UNL     1      -2.186   5.158  13.493  1.00  0.00     0.133 C 
HETATM   14  O2  UNL     1      -1.393   4.619  12.725  1.00  0.00    -0.297 OA
HETATM   15  C13 UNL     1      -1.683   6.082  14.598  1.00  0.00     0.091 C 
HETATM   16  C14 UNL     1      -2.351   7.456  14.446  1.00  0.00     0.005 C 
HETATM   17  C15 UNL     1      -1.852   8.115  13.129  1.00  0.00     0.019 C 
HETATM   18  C16 UNL     1      -3.894   7.231  14.480  1.00  0.00     0.002 C 
HETATM   19  C17 UNL     1      -4.453   8.642  14.606  1.00  0.00     0.009 C 
HETATM   20  C18 UNL     1      -3.425   9.389  15.474  1.00  0.00     0.047 C 
HETATM   21  C19 UNL     1      -2.193   8.446  15.640  1.00  0.00     0.128 C 
ENDROOT
BRANCH  21  22
HETATM   22  O3  UNL     1      -2.369   7.738  16.868  1.00  0.00    -0.381 OA
HETATM   23  H25 UNL     1      -2.509   8.406  17.571  1.00  0.00     0.211 HD
ENDBRANCH  21  22
BRANCH  21  24
HETATM   24  C20 UNL     1      -0.859   9.238  15.646  1.00  0.00     0.185 C 
HETATM   25  O4  UNL     1      -0.106   9.246  14.665  1.00  0.00    -0.292 OA
BRANCH  24  26
HETATM   26  C21 UNL     1      -0.427   9.940  16.942  1.00  0.00     0.260 C 
BRANCH  26  27
HETATM   27  O5  UNL     1       0.668  10.846  16.935  1.00  0.00    -0.314 OA
BRANCH  27  28
HETATM   28  C22 UNL     1       1.668  10.541  17.808  1.00  0.00     0.259 C 
HETATM   29  O6  UNL     1       1.502   9.963  18.875  1.00  0.00    -0.265 OA
BRANCH  28  30
HETATM   30  C23 UNL     1       3.004  10.971  17.268  1.00  0.00     0.120 C 
BRANCH  30  31
HETATM   31  C24 UNL     1       3.002  10.892  15.747  1.00  0.00     0.112 C 
BRANCH  31  32
HETATM   32  C25 UNL     1       3.465   9.542  15.249  1.00  0.00     0.218 C 
HETATM   33  O7  UNL     1       4.484   8.991  15.650  1.00  0.00    -0.274 OA
HETATM   34  N1  UNL     1       2.637   9.022  14.279  1.00  0.00    -0.361 N 
HETATM   35  H32 UNL     1       1.814   9.546  14.002  1.00  0.00     0.162 HD
BRANCH  34  36
HETATM   36  C26 UNL     1       2.933   7.793  13.568  1.00  0.00     0.127 C 
BRANCH  36  37
HETATM   37  C27 UNL     1       1.949   7.514  12.418  1.00  0.00     0.003 C 
HETATM   38  C28 UNL     1       2.002   6.052  11.950  1.00  0.00     0.007 C 
HETATM   39  C29 UNL     1       0.999   5.783  10.828  1.00  0.00     0.015 C 
HETATM   40  C30 UNL     1       1.183   6.730   9.638  1.00  0.00     0.084 C 
HETATM   41  C32 UNL     1       1.209   8.200  10.081  1.00  0.00     0.015 C 
HETATM   42  C33 UNL     1       2.170   8.473  11.237  1.00  0.00     0.007 C 
BRANCH  40  43
HETATM   43  C31 UNL     1       2.413   6.359   8.835  1.00  0.00     0.143 C 
HETATM   44  O8  UNL     1       2.949   5.267   8.762  1.00  0.00    -0.650 OA
BRANCH  43  45
HETATM   45  O9  UNL     1       2.913   7.409   8.154  1.00  0.00    -0.776 OA
HETATM   46  H41 UNL     1       3.692   7.041   7.685  1.00  0.00     0.167 HD
ENDBRANCH  43  45
ENDBRANCH  40  43
ENDBRANCH  36  37
ENDBRANCH  34  36
ENDBRANCH  31  32
ENDBRANCH  30  31
ENDBRANCH  28  30
ENDBRANCH  27  28
ENDBRANCH  26  27
ENDBRANCH  24  26
ENDBRANCH  21  24
TORSDOF 12
ENDMDL
MODEL 9
REMARK minimizedAffinity -7.9455142
REMARK CNNscore 0.256962031
REMARK CNNaffinity 6.77138186
REMARK  12 active torsions:
REMARK  status: ('A' for Active; 'I' for Inactive)
REMARK    1  A    between atoms: C19_21  and  O3_22 
REMARK    2  A    between atoms: C19_21  and  C20_23 
REMARK    3  A    between atoms: C20_23  and  C21_25 
REMARK    4  A    between atoms: C21_25  and  O5_26 
REMARK    5  A    between atoms: O5_26  and  C22_27 
REMARK    6  A    between atoms: C22_27  and  C23_29 
REMARK    7  A    between atoms: C23_29  and  C24_30 
REMARK    8  A    between atoms: C24_30  and  C25_31 
REMARK       I    between atoms: C25_31  and  N1_33 
REMARK    9  A    between atoms: N1_33  and  C26_34 
REMARK   10  A    between atoms: C26_34  and  C27_35 
REMARK   11  A    between atoms: C30_38  and  C31_39 
REMARK   12  A    between atoms: C31_39  and  O9_41 
ROOT
HETATM    1  C1  UNL     1     -11.027   8.299  12.632  1.00  0.00     0.021 C 
HETATM    2  C2  UNL     1     -11.096   7.680  14.050  1.00  0.00    -0.009 C 
HETATM    3  C3  UNL     1     -12.105   6.500  14.066  1.00  0.00     0.022 C 
HETATM    4  C4  UNL     1     -13.535   6.926  13.724  1.00  0.00     0.084 C 
HETATM    5  C5  UNL     1     -13.965   8.169  14.461  1.00  0.00     0.149 C 
HETATM    6  O1  UNL     1     -15.132   8.551  14.462  1.00  0.00    -0.293 OA
HETATM    7  C6  UNL     1     -12.948   8.961  15.194  1.00  0.00     0.053 C 
HETATM    8  C7  UNL     1     -11.632   8.733  15.035  1.00  0.00    -0.067 C 
HETATM    9  C8  UNL     1     -10.638   9.450  15.923  1.00  0.00     0.035 C 
HETATM   10  C9  UNL     1      -9.280   9.682  15.271  1.00  0.00     0.010 C 
HETATM   11  C10 UNL     1      -8.686   8.436  14.587  1.00  0.00     0.003 C 
HETATM   12  C11 UNL     1      -9.686   7.238  14.551  1.00  0.00     0.072 C 
HETATM   13  C12 UNL     1      -9.016   6.069  13.813  1.00  0.00     0.133 C 
HETATM   14  O2  UNL     1      -9.507   5.503  12.840  1.00  0.00    -0.297 OA
HETATM   15  C13 UNL     1      -7.673   5.614  14.375  1.00  0.00     0.091 C 
HETATM   16  C14 UNL     1      -6.700   6.803  14.377  1.00  0.00     0.005 C 
HETATM   17  C15 UNL     1      -6.393   7.204  12.907  1.00  0.00     0.019 C 
HETATM   18  C16 UNL     1      -7.365   7.946  15.205  1.00  0.00     0.002 C 
HETATM   19  C17 UNL     1      -6.234   8.951  15.387  1.00  0.00     0.009 C 
HETATM   20  C18 UNL     1      -4.966   8.089  15.511  1.00  0.00     0.047 C 
HETATM   21  C19 UNL     1      -5.375   6.621  15.178  1.00  0.00     0.128 C 
ENDROOT
BRANCH  21  22
HETATM   22  O3  UNL     1      -5.657   5.972  16.419  1.00  0.00    -0.381 OA
HETATM   23  H25 UNL     1      -4.872   6.089  16.992  1.00  0.00     0.211 HD
ENDBRANCH  21  22
BRANCH  21  24
HETATM   24  C20 UNL     1      -4.257   5.872  14.405  1.00  0.00     0.185 C 
HETATM   25  O4  UNL     1      -4.513   4.933  13.643  1.00  0.00    -0.292 OA
BRANCH  24  26
HETATM   26  C21 UNL     1      -2.794   6.251  14.681  1.00  0.00     0.260 C 
BRANCH  26  27
HETATM   27  O5  UNL     1      -2.017   6.887  13.674  1.00  0.00    -0.314 OA
BRANCH  27  28
HETATM   28  C22 UNL     1      -1.042   7.715  14.143  1.00  0.00     0.259 C 
HETATM   29  O6  UNL     1      -0.168   7.377  14.931  1.00  0.00    -0.265 OA
BRANCH  28  30
HETATM   30  C23 UNL     1      -1.158   9.083  13.531  1.00  0.00     0.120 C 
BRANCH  30  31
HETATM   31  C24 UNL     1      -0.460  10.110  14.414  1.00  0.00     0.112 C 
BRANCH  31  32
HETATM   32  C25 UNL     1       1.045  10.017  14.309  1.00  0.00     0.218 C 
HETATM   33  O7  UNL     1       1.805  10.372  15.203  1.00  0.00    -0.274 OA
HETATM   34  N1  UNL     1       1.462   9.524  13.092  1.00  0.00    -0.361 N 
HETATM   35  H32 UNL     1       0.766   9.255  12.405  1.00  0.00     0.162 HD
BRANCH  34  36
HETATM   36  C26 UNL     1       2.859   9.447  12.712  1.00  0.00     0.127 C 
BRANCH  36  37
HETATM   37  C27 UNL     1       3.266   8.054  12.199  1.00  0.00     0.003 C 
HETATM   38  C28 UNL     1       4.326   8.129  11.091  1.00  0.00     0.007 C 
HETATM   39  C29 UNL     1       4.742   6.737  10.613  1.00  0.00     0.015 C 
HETATM   40  C30 UNL     1       3.548   5.895  10.152  1.00  0.00     0.084 C 
HETATM   41  C32 UNL     1       2.436   5.860  11.210  1.00  0.00     0.015 C 
HETATM   42  C33 UNL     1       2.046   7.242  11.734  1.00  0.00     0.007 C 
BRANCH  40  43
HETATM   43  C31 UNL     1       3.036   6.371   8.808  1.00  0.00     0.143 C 
HETATM   44  O8  UNL     1       2.772   7.514   8.477  1.00  0.00    -0.650 OA
BRANCH  43  45
HETATM   45  O9  UNL     1       2.879   5.358   7.933  1.00  0.00    -0.776 OA
HETATM   46  H41 UNL     1       2.549   5.794   7.119  1.00  0.00     0.167 HD
ENDBRANCH  43  45
ENDBRANCH  40  43
ENDBRANCH  36  37
ENDBRANCH  34  36
ENDBRANCH  31  32
ENDBRANCH  30  31
ENDBRANCH  28  30
ENDBRANCH  27  28
ENDBRANCH  26  27
ENDBRANCH  24  26
ENDBRANCH  21  24
TORSDOF 12
ENDMDL
