MODEL 1
REMARK minimizedAffinity -8.38418674
REMARK CNNscore 0.594326079
REMARK CNNaffinity 6.31259727
REMARK  11 active torsions:
REMARK  status: ('A' for Active; 'I' for Inactive)
REMARK    1  A    between atoms: O1_2  and  C2_3 
REMARK    2  A    between atoms: C4_5  and  O2_6 
REMARK    3  A    between atoms: O2_6  and  C5_7 
REMARK    4  A    between atoms: C8_10  and  C9_11 
REMARK    5  A    between atoms: N1_12  and  C10_14 
REMARK    6  A    between atoms: C10_14  and  C11_15 
REMARK    7  A    between atoms: C11_15  and  O3_16 
REMARK    8  A    between atoms: C17_22  and  C18_23 
REMARK    9  A    between atoms: C24_31  and  O6_32 
REMARK   10  A    between atoms: C28_36  and  O7_37 
REMARK   11  A    between atoms: C32_42  and  O9_43 
ROOT
HETATM    1  C5  UNL     1      -7.609  47.707 -25.306  1.00  0.00     0.127 C 
HETATM    2  C6  UNL     1      -8.460  48.822 -25.938  1.00  0.00     0.033 C 
HETATM    3  C7  UNL     1      -9.920  48.418 -26.156  1.00  0.00     0.021 C 
HETATM    4  C8  UNL     1     -10.132  47.082 -26.955  1.00  0.00     0.026 C 
HETATM    5  C12 UNL     1     -11.511  46.464 -26.464  1.00  0.00     0.009 C 
HETATM    6  C13 UNL     1     -12.737  47.332 -26.849  1.00  0.00     0.007 C 
HETATM    7  C14 UNL     1     -14.063  46.756 -26.353  1.00  0.00     0.013 C 
HETATM    8  C15 UNL     1     -14.294  45.298 -26.813  1.00  0.00    -0.005 C 
HETATM    9  C16 UNL     1     -14.575  45.267 -28.338  1.00  0.00     0.019 C 
HETATM   10  C17 UNL     1     -15.445  44.605 -26.002  1.00  0.00     0.028 C 
HETATM   11  C22 UNL     1     -14.772  44.218 -24.659  1.00  0.00     0.013 C 
HETATM   12  C23 UNL     1     -13.259  44.179 -24.910  1.00  0.00     0.040 C 
HETATM   13  C24 UNL     1     -13.080  44.394 -26.426  1.00  0.00     0.070 C 
HETATM   14  C25 UNL     1     -11.709  44.982 -26.865  1.00  0.00     0.026 C 
HETATM   15  C26 UNL     1     -10.518  44.162 -26.353  1.00  0.00     0.011 C 
HETATM   16  C27 UNL     1      -9.236  44.643 -27.010  1.00  0.00     0.039 C 
HETATM   17  C28 UNL     1      -8.906  46.118 -26.753  1.00  0.00     0.073 C 
HETATM   18  C29 UNL     1      -8.299  46.340 -25.356  1.00  0.00     0.071 C 
ENDROOT
BRANCH   1  19
HETATM   19  O2  UNL     1      -7.258  48.059 -23.961  1.00  0.00    -0.356 OA
BRANCH  19  20
HETATM   20  C4  UNL     1      -5.859  47.896 -23.697  1.00  0.00     0.263 C 
HETATM   21  C3  UNL     1      -5.059  48.232 -24.953  1.00  0.00     0.095 C 
HETATM   22  C2  UNL     1      -3.621  48.542 -24.565  1.00  0.00     0.156 C 
HETATM   23  C32 UNL     1      -3.598  49.787 -23.652  1.00  0.00     0.175 C 
HETATM   24  C30 UNL     1      -4.850  49.892 -22.761  1.00  0.00     0.151 C 
HETATM   25  O8  UNL     1      -5.437  48.605 -22.536  1.00  0.00    -0.354 OA
HETATM   26  C31 UNL     1      -5.898  50.909 -23.216  1.00  0.00     0.042 C 
BRANCH  22  27
HETATM   27  O1  UNL     1      -2.779  48.825 -25.706  1.00  0.00    -0.388 OA
HETATM   28  C1  UNL     1      -3.385  48.481 -26.949  1.00  0.00     0.202 C 
ENDBRANCH  22  27
BRANCH  23  29
HETATM   29  O9  UNL     1      -3.412  50.978 -24.424  1.00  0.00    -0.390 OA
HETATM   30  H49 UNL     1      -2.940  50.679 -25.230  1.00  0.00     0.210 HD
ENDBRANCH  23  29
ENDBRANCH  19  20
ENDBRANCH   1  19
BRANCH  17  31
HETATM   31  O7  UNL     1      -7.862  46.454 -27.695  1.00  0.00    -0.389 OA
HETATM   32  H41 UNL     1      -7.145  45.801 -27.592  1.00  0.00     0.210 HD
ENDBRANCH  17  31
BRANCH   4  33
HETATM   33  C9  UNL     1     -10.158  47.442 -28.447  1.00  0.00     0.068 C 
HETATM   34  N1  UNL     1      -9.455  48.406 -28.945  1.00  0.00    -0.399 N 
ATOM     35  H1  UNL     1      -8.791  48.945 -28.388  1.00  0.00     0.158 HD
BRANCH  34  36
HETATM   36  C10 UNL     1      -9.683  48.667 -30.370  1.00  0.00     0.144 C 
BRANCH  36  37
HETATM   37  C11 UNL     1      -8.567  49.574 -30.893  1.00  0.00     0.183 C 
BRANCH  37  38
HETATM   38  O3  UNL     1      -8.889  50.949 -30.705  1.00  0.00    -0.399 OA
HETATM   39  H18 UNL     1      -8.960  51.102 -29.745  1.00  0.00     0.209 HD
ENDBRANCH  37  38
ENDBRANCH  36  37
ENDBRANCH  34  36
ENDBRANCH   4  33
BRANCH  13  40
HETATM   40  O6  UNL     1     -13.263  43.114 -27.064  1.00  0.00    -0.389 OA
HETATM   41  H35 UNL     1     -12.604  42.498 -26.716  1.00  0.00     0.210 HD
ENDBRANCH  13  40
BRANCH  10  42
HETATM   42  C18 UNL     1     -16.765  45.322 -25.885  1.00  0.00    -0.045 A 
HETATM   43  C19 UNL     1     -17.178  46.200 -24.968  1.00  0.00     0.087 A 
HETATM   44  C20 UNL     1     -18.576  46.506 -25.258  1.00  0.00     0.283 A 
HETATM   45  O4  UNL     1     -19.266  47.277 -24.609  1.00  0.00    -0.260 OA
HETATM   46  O5  UNL     1     -18.980  45.779 -26.330  1.00  0.00    -0.314 OA
HETATM   47  C21 UNL     1     -17.886  44.997 -26.804  1.00  0.00     0.213 A 
ENDBRANCH  10  42
TORSDOF 11
ENDMDL
MODEL 2
REMARK minimizedAffinity -6.80929565
REMARK CNNscore 0.495970726
REMARK CNNaffinity 6.63025093
REMARK  11 active torsions:
REMARK  status: ('A' for Active; 'I' for Inactive)
REMARK    1  A    between atoms: O1_2  and  C2_3 
REMARK    2  A    between atoms: C4_5  and  O2_6 
REMARK    3  A    between atoms: O2_6  and  C5_7 
REMARK    4  A    between atoms: C8_10  and  C9_11 
REMARK    5  A    between atoms: N1_12  and  C10_14 
REMARK    6  A    between atoms: C10_14  and  C11_15 
REMARK    7  A    between atoms: C11_15  and  O3_16 
REMARK    8  A    between atoms: C17_22  and  C18_23 
REMARK    9  A    between atoms: C24_31  and  O6_32 
REMARK   10  A    between atoms: C28_36  and  O7_37 
REMARK   11  A    between atoms: C32_42  and  O9_43 
ROOT
HETATM    1  C5  UNL     1      -1.997  50.458 -16.078  1.00  0.00     0.127 C 
HETATM    2  C6  UNL     1      -3.118  51.067 -15.218  1.00  0.00     0.033 C 
HETATM    3  C7  UNL     1      -2.611  51.684 -13.914  1.00  0.00     0.021 C 
HETATM    4  C8  UNL     1      -1.729  50.737 -13.024  1.00  0.00     0.026 C 
HETATM    5  C12 UNL     1      -0.743  51.669 -12.196  1.00  0.00     0.009 C 
HETATM    6  C13 UNL     1      -1.478  52.571 -11.171  1.00  0.00     0.007 C 
HETATM    7  C14 UNL     1      -0.536  53.489 -10.392  1.00  0.00     0.013 C 
HETATM    8  C15 UNL     1       0.603  52.721  -9.684  1.00  0.00    -0.005 C 
HETATM    9  C16 UNL     1       0.029  51.905  -8.497  1.00  0.00     0.019 C 
HETATM   10  C17 UNL     1       1.755  53.680  -9.218  1.00  0.00     0.028 C 
HETATM   11  C22 UNL     1       2.560  53.951 -10.516  1.00  0.00     0.013 C 
HETATM   12  C23 UNL     1       2.239  52.810 -11.490  1.00  0.00     0.040 C 
HETATM   13  C24 UNL     1       1.373  51.812 -10.695  1.00  0.00     0.070 C 
HETATM   14  C25 UNL     1       0.438  50.907 -11.546  1.00  0.00     0.026 C 
HETATM   15  C26 UNL     1       1.190  50.129 -12.634  1.00  0.00     0.011 C 
HETATM   16  C27 UNL     1       0.272  49.095 -13.261  1.00  0.00     0.039 C 
HETATM   17  C28 UNL     1      -0.986  49.677 -13.917  1.00  0.00     0.073 C 
HETATM   18  C29 UNL     1      -0.688  50.283 -15.300  1.00  0.00     0.071 C 
ENDROOT
BRANCH   1  19
HETATM   19  O2  UNL     1      -1.795  51.249 -17.257  1.00  0.00    -0.356 OA
BRANCH  19  20
HETATM   20  C4  UNL     1      -2.330  50.630 -18.433  1.00  0.00     0.263 C 
HETATM   21  C3  UNL     1      -1.335  49.602 -18.967  1.00  0.00     0.095 C 
HETATM   22  C2  UNL     1      -2.064  48.622 -19.874  1.00  0.00     0.156 C 
HETATM   23  C32 UNL     1      -3.124  47.859 -19.051  1.00  0.00     0.175 C 
HETATM   24  C30 UNL     1      -3.729  48.717 -17.924  1.00  0.00     0.151 C 
HETATM   25  O8  UNL     1      -3.641  50.114 -18.229  1.00  0.00    -0.354 OA
HETATM   26  C31 UNL     1      -3.205  48.422 -16.517  1.00  0.00     0.042 C 
BRANCH  22  27
HETATM   27  O1  UNL     1      -1.182  47.639 -20.464  1.00  0.00    -0.388 OA
HETATM   28  C1  UNL     1      -1.594  47.224 -21.763  1.00  0.00     0.202 C 
ENDBRANCH  22  27
BRANCH  23  29
HETATM   29  O9  UNL     1      -2.584  46.638 -18.536  1.00  0.00    -0.390 OA
HETATM   30  H49 UNL     1      -1.865  46.402 -19.161  1.00  0.00     0.210 HD
ENDBRANCH  23  29
ENDBRANCH  19  20
ENDBRANCH   1  19
BRANCH  17  31
HETATM   31  O7  UNL     1      -1.857  48.549 -14.159  1.00  0.00    -0.389 OA
HETATM   32  H41 UNL     1      -1.350  47.881 -14.658  1.00  0.00     0.210 HD
ENDBRANCH  17  31
BRANCH   4  33
HETATM   33  C9  UNL     1      -2.679  49.947 -12.114  1.00  0.00     0.068 C 
HETATM   34  N1  UNL     1      -3.943  49.828 -12.362  1.00  0.00    -0.399 N 
ATOM     35  H1  UNL     1      -4.373  50.197 -13.210  1.00  0.00     0.158 HD
BRANCH  34  36
HETATM   36  C10 UNL     1      -4.710  49.123 -11.331  1.00  0.00     0.144 C 
BRANCH  36  37
HETATM   37  C11 UNL     1      -5.379  50.154 -10.418  1.00  0.00     0.183 C 
BRANCH  37  38
HETATM   38  O3  UNL     1      -5.924  49.538  -9.255  1.00  0.00    -0.399 OA
HETATM   39  H18 UNL     1      -5.182  49.150  -8.758  1.00  0.00     0.209 HD
ENDBRANCH  37  38
ENDBRANCH  36  37
ENDBRANCH  34  36
ENDBRANCH   4  33
BRANCH  13  40
HETATM   40  O6  UNL     1       2.271  50.973  -9.940  1.00  0.00    -0.389 OA
HETATM   41  H35 UNL     1       2.859  50.517 -10.556  1.00  0.00     0.210 HD
ENDBRANCH  13  40
BRANCH  10  42
HETATM   42  C18 UNL     1       1.383  54.901  -8.418  1.00  0.00    -0.045 A 
HETATM   43  C19 UNL     1       0.207  55.246  -7.888  1.00  0.00     0.087 A 
HETATM   44  C20 UNL     1       0.366  56.576  -7.305  1.00  0.00     0.283 A 
HETATM   45  O4  UNL     1      -0.520  57.194  -6.738  1.00  0.00    -0.260 OA
HETATM   46  O5  UNL     1       1.632  57.012  -7.526  1.00  0.00    -0.314 OA
HETATM   47  C21 UNL     1       2.360  56.004  -8.224  1.00  0.00     0.213 A 
ENDBRANCH  10  42
TORSDOF 11
ENDMDL
MODEL 3
REMARK minimizedAffinity -8.08290958
REMARK CNNscore 0.477466226
REMARK CNNaffinity 6.09303617
REMARK  11 active torsions:
REMARK  status: ('A' for Active; 'I' for Inactive)
REMARK    1  A    between atoms: O1_2  and  C2_3 
REMARK    2  A    between atoms: C4_5  and  O2_6 
REMARK    3  A    between atoms: O2_6  and  C5_7 
REMARK    4  A    between atoms: C8_10  and  C9_11 
REMARK    5  A    between atoms: N1_12  and  C10_14 
REMARK    6  A    between atoms: C10_14  and  C11_15 
REMARK    7  A    between atoms: C11_15  and  O3_16 
REMARK    8  A    between atoms: C17_22  and  C18_23 
REMARK    9  A    between atoms: C24_31  and  O6_32 
REMARK   10  A    between atoms: C28_36  and  O7_37 
REMARK   11  A    between atoms: C32_42  and  O9_43 
ROOT
HETATM    1  C5  UNL     1      -7.599  46.848 -25.341  1.00  0.00     0.127 C 
HETATM    2  C6  UNL     1      -8.368  48.072 -25.866  1.00  0.00     0.033 C 
HETATM    3  C7  UNL     1      -9.852  47.795 -26.111  1.00  0.00     0.021 C 
HETATM    4  C8  UNL     1     -10.159  46.556 -27.025  1.00  0.00     0.026 C 
HETATM    5  C12 UNL     1     -11.580  45.997 -26.583  1.00  0.00     0.009 C 
HETATM    6  C13 UNL     1     -12.740  46.981 -26.882  1.00  0.00     0.007 C 
HETATM    7  C14 UNL     1     -14.104  46.459 -26.432  1.00  0.00     0.013 C 
HETATM    8  C15 UNL     1     -14.439  45.069 -27.019  1.00  0.00    -0.005 C 
HETATM    9  C16 UNL     1     -14.720  45.195 -28.539  1.00  0.00     0.019 C 
HETATM   10  C17 UNL     1     -15.638  44.390 -26.267  1.00  0.00     0.028 C 
HETATM   11  C22 UNL     1     -14.995  43.838 -24.968  1.00  0.00     0.013 C 
HETATM   12  C23 UNL     1     -13.489  43.713 -25.229  1.00  0.00     0.040 C 
HETATM   13  C24 UNL     1     -13.293  44.049 -26.721  1.00  0.00     0.070 C 
HETATM   14  C25 UNL     1     -11.884  44.574 -27.113  1.00  0.00     0.026 C 
HETATM   15  C26 UNL     1     -10.755  43.629 -26.684  1.00  0.00     0.011 C 
HETATM   16  C27 UNL     1      -9.442  44.073 -27.302  1.00  0.00     0.039 C 
HETATM   17  C28 UNL     1      -9.006  45.492 -26.917  1.00  0.00     0.073 C 
HETATM   18  C29 UNL     1      -8.385  45.543 -25.509  1.00  0.00     0.071 C 
ENDROOT
BRANCH   1  19
HETATM   19  O2  UNL     1      -7.224  47.052 -23.972  1.00  0.00    -0.356 OA
BRANCH  19  20
HETATM   20  C4  UNL     1      -7.278  48.430 -23.586  1.00  0.00     0.263 C 
HETATM   21  C3  UNL     1      -7.316  48.534 -22.063  1.00  0.00     0.095 C 
HETATM   22  C2  UNL     1      -6.881  49.930 -21.644  1.00  0.00     0.156 C 
HETATM   23  C32 UNL     1      -5.421  50.163 -22.089  1.00  0.00     0.175 C 
HETATM   24  C30 UNL     1      -5.078  49.431 -23.401  1.00  0.00     0.151 C 
HETATM   25  O8  UNL     1      -6.250  49.207 -24.193  1.00  0.00    -0.354 OA
HETATM   26  C31 UNL     1      -4.259  48.149 -23.244  1.00  0.00     0.042 C 
BRANCH  22  27
HETATM   27  O1  UNL     1      -6.935  50.130 -20.212  1.00  0.00    -0.388 OA
HETATM   28  C1  UNL     1      -7.793  49.206 -19.549  1.00  0.00     0.202 C 
ENDBRANCH  22  27
BRANCH  23  29
HETATM   29  O9  UNL     1      -4.510  49.806 -21.046  1.00  0.00    -0.390 OA
HETATM   30  H49 UNL     1      -5.026  49.915 -20.218  1.00  0.00     0.210 HD
ENDBRANCH  23  29
ENDBRANCH  19  20
ENDBRANCH   1  19
BRANCH  17  31
HETATM   31  O7  UNL     1      -7.940  45.834 -27.831  1.00  0.00    -0.389 OA
HETATM   32  H41 UNL     1      -7.272  45.125 -27.790  1.00  0.00     0.210 HD
ENDBRANCH  17  31
BRANCH   4  33
HETATM   33  C9  UNL     1     -10.158  47.048 -28.479  1.00  0.00     0.068 C 
HETATM   34  N1  UNL     1      -9.854  48.262 -28.803  1.00  0.00    -0.399 N 
ATOM     35  H1  UNL     1      -9.533  48.949 -28.121  1.00  0.00     0.158 HD
BRANCH  34  36
HETATM   36  C10 UNL     1     -10.004  48.577 -30.228  1.00  0.00     0.144 C 
BRANCH  36  37
HETATM   37  C11 UNL     1      -8.732  49.274 -30.718  1.00  0.00     0.183 C 
BRANCH  37  38
HETATM   38  O3  UNL     1      -8.846  50.690 -30.613  1.00  0.00    -0.399 OA
HETATM   39  H18 UNL     1      -8.947  50.904 -29.668  1.00  0.00     0.209 HD
ENDBRANCH  37  38
ENDBRANCH  36  37
ENDBRANCH  34  36
ENDBRANCH   4  33
BRANCH  13  40
HETATM   40  O6  UNL     1     -13.568  42.848 -27.470  1.00  0.00    -0.389 OA
HETATM   41  H35 UNL     1     -12.955  42.158 -27.181  1.00  0.00     0.210 HD
ENDBRANCH  13  40
BRANCH  10  42
HETATM   42  C18 UNL     1     -16.902  45.187 -26.078  1.00  0.00    -0.045 A 
HETATM   43  C19 UNL     1     -17.232  46.045 -25.110  1.00  0.00     0.087 A 
HETATM   44  C20 UNL     1     -18.613  46.458 -25.345  1.00  0.00     0.283 A 
HETATM   45  O4  UNL     1     -19.232  47.240 -24.642  1.00  0.00    -0.260 OA
HETATM   46  O5  UNL     1     -19.092  45.811 -26.438  1.00  0.00    -0.314 OA
HETATM   47  C21 UNL     1     -18.066  44.982 -26.979  1.00  0.00     0.213 A 
ENDBRANCH  10  42
TORSDOF 11
ENDMDL
MODEL 4
REMARK minimizedAffinity -6.64574432
REMARK CNNscore 0.441415817
REMARK CNNaffinity 6.2817502
REMARK  11 active torsions:
REMARK  status: ('A' for Active; 'I' for Inactive)
REMARK    1  A    between atoms: O1_2  and  C2_3 
REMARK    2  A    between atoms: C4_5  and  O2_6 
REMARK    3  A    between atoms: O2_6  and  C5_7 
REMARK    4  A    between atoms: C8_10  and  C9_11 
REMARK    5  A    between atoms: N1_12  and  C10_14 
REMARK    6  A    between atoms: C10_14  and  C11_15 
REMARK    7  A    between atoms: C11_15  and  O3_16 
REMARK    8  A    between atoms: C17_22  and  C18_23 
REMARK    9  A    between atoms: C24_31  and  O6_32 
REMARK   10  A    between atoms: C28_36  and  O7_37 
REMARK   11  A    between atoms: C32_42  and  O9_43 
ROOT
HETATM    1  C5  UNL     1       0.114  56.706  -5.212  1.00  0.00     0.127 C 
HETATM    2  C6  UNL     1       0.405  57.387  -6.560  1.00  0.00     0.033 C 
HETATM    3  C7  UNL     1       0.076  56.506  -7.766  1.00  0.00     0.021 C 
HETATM    4  C8  UNL     1       0.732  55.079  -7.751  1.00  0.00     0.026 C 
HETATM    5  C12 UNL     1      -0.231  54.119  -8.573  1.00  0.00     0.009 C 
HETATM    6  C13 UNL     1      -0.309  54.482 -10.079  1.00  0.00     0.007 C 
HETATM    7  C14 UNL     1      -1.256  53.579 -10.868  1.00  0.00     0.013 C 
HETATM    8  C15 UNL     1      -0.924  52.077 -10.712  1.00  0.00    -0.005 C 
HETATM    9  C16 UNL     1       0.395  51.750 -11.459  1.00  0.00     0.019 C 
HETATM   10  C17 UNL     1      -2.103  51.164 -11.201  1.00  0.00     0.028 C 
HETATM   11  C22 UNL     1      -3.114  51.202 -10.026  1.00  0.00     0.013 C 
HETATM   12  C23 UNL     1      -2.333  51.623  -8.775  1.00  0.00     0.040 C 
HETATM   13  C24 UNL     1      -0.853  51.677  -9.203  1.00  0.00     0.070 C 
HETATM   14  C25 UNL     1       0.057  52.613  -8.360  1.00  0.00     0.026 C 
HETATM   15  C26 UNL     1       0.005  52.302  -6.859  1.00  0.00     0.011 C 
HETATM   16  C27 UNL     1       1.085  53.079  -6.129  1.00  0.00     0.039 C 
HETATM   17  C28 UNL     1       0.979  54.602  -6.273  1.00  0.00     0.073 C 
HETATM   18  C29 UNL     1      -0.101  55.195  -5.350  1.00  0.00     0.071 C 
ENDROOT
BRANCH   1  19
HETATM   19  O2  UNL     1      -1.009  57.332  -4.576  1.00  0.00    -0.356 OA
BRANCH  19  20
HETATM   20  C4  UNL     1      -1.068  57.060  -3.171  1.00  0.00     0.263 C 
HETATM   21  C3  UNL     1      -0.026  57.906  -2.442  1.00  0.00     0.095 C 
HETATM   22  C2  UNL     1      -0.399  58.005  -0.971  1.00  0.00     0.156 C 
HETATM   23  C32 UNL     1      -1.759  58.725  -0.838  1.00  0.00     0.175 C 
HETATM   24  C30 UNL     1      -2.700  58.438  -2.024  1.00  0.00     0.151 C 
HETATM   25  O8  UNL     1      -2.386  57.186  -2.646  1.00  0.00    -0.354 OA
HETATM   26  C31 UNL     1      -2.815  59.559  -3.059  1.00  0.00     0.042 C 
BRANCH  22  27
HETATM   27  O1  UNL     1       0.565  58.752  -0.195  1.00  0.00    -0.388 OA
HETATM   28  C1  UNL     1       1.642  59.259  -0.977  1.00  0.00     0.202 C 
ENDBRANCH  22  27
BRANCH  23  29
HETATM   29  O9  UNL     1      -1.571  60.131  -0.657  1.00  0.00    -0.390 OA
HETATM   30  H49 UNL     1      -0.682  60.212  -0.250  1.00  0.00     0.210 HD
ENDBRANCH  23  29
ENDBRANCH  19  20
ENDBRANCH   1  19
BRANCH  17  31
HETATM   31  O7  UNL     1       2.238  55.128  -5.795  1.00  0.00    -0.389 OA
HETATM   32  H41 UNL     1       2.396  54.763  -4.904  1.00  0.00     0.210 HD
ENDBRANCH  17  31
BRANCH   4  33
HETATM   33  C9  UNL     1       2.116  55.206  -8.402  1.00  0.00     0.068 C 
HETATM   34  N1  UNL     1       2.521  56.293  -8.973  1.00  0.00    -0.399 N 
ATOM     35  H1  UNL     1       1.972  57.152  -8.971  1.00  0.00     0.158 HD
BRANCH  34  36
HETATM   36  C10 UNL     1       3.831  56.196  -9.626  1.00  0.00     0.144 C 
BRANCH  36  37
HETATM   37  C11 UNL     1       3.871  54.920 -10.470  1.00  0.00     0.183 C 
BRANCH  37  38
HETATM   38  O3  UNL     1       2.717  54.812 -11.298  1.00  0.00    -0.399 OA
HETATM   39  H18 UNL     1       2.730  55.566 -11.914  1.00  0.00     0.209 HD
ENDBRANCH  37  38
ENDBRANCH  36  37
ENDBRANCH  34  36
ENDBRANCH   4  33
BRANCH  13  40
HETATM   40  O6  UNL     1      -0.336  50.333  -9.128  1.00  0.00    -0.389 OA
HETATM   41  H35 UNL     1      -0.428  50.018  -8.219  1.00  0.00     0.210 HD
ENDBRANCH  13  40
BRANCH  10  42
HETATM   42  C18 UNL     1      -2.684  51.423 -12.567  1.00  0.00    -0.045 A 
HETATM   43  C19 UNL     1      -2.422  50.824 -13.731  1.00  0.00     0.087 A 
HETATM   44  C20 UNL     1      -3.179  51.528 -14.763  1.00  0.00     0.283 A 
HETATM   45  O4  UNL     1      -3.168  51.240 -15.949  1.00  0.00    -0.260 OA
HETATM   46  O5  UNL     1      -3.857  52.558 -14.196  1.00  0.00    -0.314 OA
HETATM   47  C21 UNL     1      -3.608  52.565 -12.791  1.00  0.00     0.213 A 
ENDBRANCH  10  42
TORSDOF 11
ENDMDL
MODEL 5
REMARK minimizedAffinity -7.29449415
REMARK CNNscore 0.437035561
REMARK CNNaffinity 6.48942804
REMARK  11 active torsions:
REMARK  status: ('A' for Active; 'I' for Inactive)
REMARK    1  A    between atoms: O1_2  and  C2_3 
REMARK    2  A    between atoms: C4_5  and  O2_6 
REMARK    3  A    between atoms: O2_6  and  C5_7 
REMARK    4  A    between atoms: C8_10  and  C9_11 
REMARK    5  A    between atoms: N1_12  and  C10_14 
REMARK    6  A    between atoms: C10_14  and  C11_15 
REMARK    7  A    between atoms: C11_15  and  O3_16 
REMARK    8  A    between atoms: C17_22  and  C18_23 
REMARK    9  A    between atoms: C24_31  and  O6_32 
REMARK   10  A    between atoms: C28_36  and  O7_37 
REMARK   11  A    between atoms: C32_42  and  O9_43 
ROOT
HETATM    1  C5  UNL     1      -3.738  44.689 -18.401  1.00  0.00     0.127 C 
HETATM    2  C6  UNL     1      -4.261  44.673 -19.848  1.00  0.00     0.033 C 
HETATM    3  C7  UNL     1      -3.845  45.903 -20.656  1.00  0.00     0.021 C 
HETATM    4  C8  UNL     1      -4.188  47.285 -19.993  1.00  0.00     0.026 C 
HETATM    5  C12 UNL     1      -3.108  48.328 -20.516  1.00  0.00     0.009 C 
HETATM    6  C13 UNL     1      -3.217  48.603 -22.038  1.00  0.00     0.007 C 
HETATM    7  C14 UNL     1      -2.163  49.584 -22.551  1.00  0.00     0.013 C 
HETATM    8  C15 UNL     1      -2.163  50.923 -21.781  1.00  0.00    -0.005 C 
HETATM    9  C16 UNL     1      -3.437  51.734 -22.137  1.00  0.00     0.019 C 
HETATM   10  C17 UNL     1      -0.859  51.754 -22.050  1.00  0.00     0.028 C 
HETATM   11  C22 UNL     1       0.205  51.078 -21.147  1.00  0.00     0.013 C 
HETATM   12  C23 UNL     1      -0.554  50.316 -20.052  1.00  0.00     0.040 C 
HETATM   13  C24 UNL     1      -2.040  50.680 -20.242  1.00  0.00     0.070 C 
HETATM   14  C25 UNL     1      -3.061  49.642 -19.699  1.00  0.00     0.026 C 
HETATM   15  C26 UNL     1      -2.836  49.302 -18.220  1.00  0.00     0.011 C 
HETATM   16  C27 UNL     1      -3.999  48.480 -17.693  1.00  0.00     0.039 C 
HETATM   17  C28 UNL     1      -4.222  47.152 -18.426  1.00  0.00     0.073 C 
HETATM   18  C29 UNL     1      -3.224  46.069 -17.977  1.00  0.00     0.071 C 
ENDROOT
BRANCH   1  19
HETATM   19  O2  UNL     1      -2.726  43.687 -18.232  1.00  0.00    -0.356 OA
BRANCH  19  20
HETATM   20  C4  UNL     1      -3.248  42.461 -17.708  1.00  0.00     0.263 C 
HETATM   21  C3  UNL     1      -3.225  41.389 -18.794  1.00  0.00     0.095 C 
HETATM   22  C2  UNL     1      -3.296  40.015 -18.147  1.00  0.00     0.156 C 
HETATM   23  C32 UNL     1      -2.049  39.805 -17.260  1.00  0.00     0.175 C 
HETATM   24  C30 UNL     1      -1.549  41.115 -16.622  1.00  0.00     0.151 C 
HETATM   25  O8  UNL     1      -2.609  42.070 -16.496  1.00  0.00    -0.354 OA
HETATM   26  C31 UNL     1      -0.315  41.738 -17.278  1.00  0.00     0.042 C 
BRANCH  22  27
HETATM   27  O1  UNL     1      -3.328  38.938 -19.112  1.00  0.00    -0.388 OA
HETATM   28  C1  UNL     1      -4.387  38.013 -18.884  1.00  0.00     0.202 C 
ENDBRANCH  22  27
BRANCH  23  29
HETATM   29  O9  UNL     1      -1.006  39.159 -17.997  1.00  0.00    -0.390 OA
HETATM   30  H49 UNL     1      -1.473  38.654 -18.696  1.00  0.00     0.210 HD
ENDBRANCH  23  29
ENDBRANCH  19  20
ENDBRANCH   1  19
BRANCH  17  31
HETATM   31  O7  UNL     1      -5.524  46.688 -18.006  1.00  0.00    -0.389 OA
HETATM   32  H41 UNL     1      -5.538  46.678 -17.030  1.00  0.00     0.210 HD
ENDBRANCH  17  31
BRANCH   4  33
HETATM   33  C9  UNL     1      -5.611  47.660 -20.427  1.00  0.00     0.068 C 
HETATM   34  N1  UNL     1      -6.445  46.794 -20.904  1.00  0.00    -0.399 N 
ATOM     35  H1  UNL     1      -6.230  45.799 -20.962  1.00  0.00     0.158 HD
BRANCH  34  36
HETATM   36  C10 UNL     1      -7.723  47.352 -21.357  1.00  0.00     0.144 C 
BRANCH  36  37
HETATM   37  C11 UNL     1      -8.595  47.649 -20.134  1.00  0.00     0.183 C 
BRANCH  37  38
HETATM   38  O3  UNL     1      -9.973  47.718 -20.487  1.00  0.00    -0.399 OA
HETATM   39  H18 UNL     1     -10.232  46.840 -20.821  1.00  0.00     0.209 HD
ENDBRANCH  37  38
ENDBRANCH  36  37
ENDBRANCH  34  36
ENDBRANCH   4  33
BRANCH  13  40
HETATM   40  O6  UNL     1      -2.260  51.941 -19.577  1.00  0.00    -0.389 OA
HETATM   41  H35 UNL     1      -2.038  51.840 -18.642  1.00  0.00     0.210 HD
ENDBRANCH  13  40
BRANCH  10  42
HETATM   42  C18 UNL     1      -0.446  51.984 -23.481  1.00  0.00    -0.045 A 
HETATM   43  C19 UNL     1       0.153  53.041 -24.035  1.00  0.00     0.087 A 
HETATM   44  C20 UNL     1       0.229  52.794 -25.473  1.00  0.00     0.283 A 
HETATM   45  O4  UNL     1       0.719  53.563 -26.283  1.00  0.00    -0.260 OA
HETATM   46  O5  UNL     1      -0.356  51.602 -25.753  1.00  0.00    -0.314 OA
HETATM   47  C21 UNL     1      -0.810  51.006 -24.539  1.00  0.00     0.213 A 
ENDBRANCH  10  42
TORSDOF 11
ENDMDL
MODEL 6
REMARK minimizedAffinity -8.80846882
REMARK CNNscore 0.403781742
REMARK CNNaffinity 6.66553545
REMARK  11 active torsions:
REMARK  status: ('A' for Active; 'I' for Inactive)
REMARK    1  A    between atoms: O1_2  and  C2_3 
REMARK    2  A    between atoms: C4_5  and  O2_6 
REMARK    3  A    between atoms: O2_6  and  C5_7 
REMARK    4  A    between atoms: C8_10  and  C9_11 
REMARK    5  A    between atoms: N1_12  and  C10_14 
REMARK    6  A    between atoms: C10_14  and  C11_15 
REMARK    7  A    between atoms: C11_15  and  O3_16 
REMARK    8  A    between atoms: C17_22  and  C18_23 
REMARK    9  A    between atoms: C24_31  and  O6_32 
REMARK   10  A    between atoms: C28_36  and  O7_37 
REMARK   11  A    between atoms: C32_42  and  O9_43 
ROOT
HETATM    1  C5  UNL     1      -7.782  47.502 -23.441  1.00  0.00     0.127 C 
HETATM    2  C6  UNL     1      -8.027  48.965 -23.034  1.00  0.00     0.033 C 
HETATM    3  C7  UNL     1      -6.839  49.597 -22.305  1.00  0.00     0.021 C 
HETATM    4  C8  UNL     1      -6.312  48.792 -21.064  1.00  0.00     0.026 C 
HETATM    5  C12 UNL     1      -4.766  49.129 -20.918  1.00  0.00     0.009 C 
HETATM    6  C13 UNL     1      -4.500  50.611 -20.546  1.00  0.00     0.007 C 
HETATM    7  C14 UNL     1      -3.013  50.947 -20.433  1.00  0.00     0.013 C 
HETATM    8  C15 UNL     1      -2.261  50.022 -19.449  1.00  0.00    -0.005 C 
HETATM    9  C16 UNL     1      -2.690  50.344 -17.994  1.00  0.00     0.019 C 
HETATM   10  C17 UNL     1      -0.705  50.122 -19.625  1.00  0.00     0.028 C 
HETATM   11  C22 UNL     1      -0.416  49.252 -20.876  1.00  0.00     0.013 C 
HETATM   12  C23 UNL     1      -1.606  48.298 -21.044  1.00  0.00     0.040 C 
HETATM   13  C24 UNL     1      -2.498  48.519 -19.806  1.00  0.00     0.070 C 
HETATM   14  C25 UNL     1      -3.999  48.158 -19.987  1.00  0.00     0.026 C 
HETATM   15  C26 UNL     1      -4.212  46.721 -20.480  1.00  0.00     0.011 C 
HETATM   16  C27 UNL     1      -5.684  46.358 -20.403  1.00  0.00     0.039 C 
HETATM   17  C28 UNL     1      -6.604  47.256 -21.238  1.00  0.00     0.073 C 
HETATM   18  C29 UNL     1      -6.569  46.890 -22.732  1.00  0.00     0.071 C 
ENDROOT
BRANCH   1  19
HETATM   19  O2  UNL     1      -7.653  47.402 -24.865  1.00  0.00    -0.356 OA
BRANCH  19  20
HETATM   20  C4  UNL     1      -8.780  46.766 -25.477  1.00  0.00     0.263 C 
HETATM   21  C3  UNL     1      -9.900  47.785 -25.673  1.00  0.00     0.095 C 
HETATM   22  C2  UNL     1     -10.866  47.274 -26.730  1.00  0.00     0.156 C 
HETATM   23  C32 UNL     1     -10.122  47.137 -28.076  1.00  0.00     0.175 C 
HETATM   24  C30 UNL     1      -8.641  46.751 -27.898  1.00  0.00     0.151 C 
HETATM   25  O8  UNL     1      -8.430  46.057 -26.662  1.00  0.00    -0.354 OA
HETATM   26  C31 UNL     1      -7.637  47.891 -28.072  1.00  0.00     0.042 C 
BRANCH  22  27
HETATM   27  O1  UNL     1     -11.988  48.162 -26.944  1.00  0.00    -0.388 OA
HETATM   28  C1  UNL     1     -13.206  47.472 -27.206  1.00  0.00     0.202 C 
ENDBRANCH  22  27
BRANCH  23  29
HETATM   29  O9  UNL     1     -10.253  48.332 -28.852  1.00  0.00    -0.390 OA
HETATM   30  H49 UNL     1     -11.090  48.738 -28.542  1.00  0.00     0.210 HD
ENDBRANCH  23  29
ENDBRANCH  19  20
ENDBRANCH   1  19
BRANCH  17  31
HETATM   31  O7  UNL     1      -7.947  46.963 -20.790  1.00  0.00    -0.389 OA
HETATM   32  H41 UNL     1      -8.077  45.998 -20.848  1.00  0.00     0.210 HD
ENDBRANCH  17  31
BRANCH   4  33
HETATM   33  C9  UNL     1      -7.122  49.251 -19.843  1.00  0.00     0.068 C 
HETATM   34  N1  UNL     1      -7.752  48.425 -19.074  1.00  0.00    -0.399 N 
ATOM     35  H1  UNL     1      -7.697  47.413 -19.193  1.00  0.00     0.158 HD
BRANCH  34  36
HETATM   36  C10 UNL     1      -8.551  49.053 -18.017  1.00  0.00     0.144 C 
BRANCH  36  37
HETATM   37  C11 UNL     1      -9.538  48.022 -17.463  1.00  0.00     0.183 C 
BRANCH  37  38
HETATM   38  O3  UNL     1      -9.943  48.354 -16.139  1.00  0.00    -0.399 OA
HETATM   39  H18 UNL     1     -10.411  49.207 -16.184  1.00  0.00     0.209 HD
ENDBRANCH  37  38
ENDBRANCH  36  37
ENDBRANCH  34  36
ENDBRANCH   4  33
BRANCH  13  40
HETATM   40  O6  UNL     1      -1.953  47.720 -18.737  1.00  0.00    -0.389 OA
HETATM   41  H35 UNL     1      -1.955  46.794 -19.012  1.00  0.00     0.210 HD
ENDBRANCH  13  40
BRANCH  10  42
HETATM   42  C18 UNL     1      -0.076  51.491 -19.626  1.00  0.00    -0.045 A 
HETATM   43  C19 UNL     1       0.318  52.246 -20.654  1.00  0.00     0.087 A 
HETATM   44  C20 UNL     1       0.960  53.436 -20.100  1.00  0.00     0.283 A 
HETATM   45  O4  UNL     1       1.439  54.339 -20.766  1.00  0.00    -0.260 OA
HETATM   46  O5  UNL     1       0.962  53.352 -18.746  1.00  0.00    -0.314 OA
HETATM   47  C21 UNL     1       0.313  52.145 -18.350  1.00  0.00     0.213 A 
ENDBRANCH  10  42
TORSDOF 11
ENDMDL
MODEL 7
REMARK minimizedAffinity -6.62138844
REMARK CNNscore 0.383256376
REMARK CNNaffinity 6.31599951
REMARK  11 active torsions:
REMARK  status: ('A' for Active; 'I' for Inactive)
REMARK    1  A    between atoms: O1_2  and  C2_3 
REMARK    2  A    between atoms: C4_5  and  O2_6 
REMARK    3  A    between atoms: O2_6  and  C5_7 
REMARK    4  A    between atoms: C8_10  and  C9_11 
REMARK    5  A    between atoms: N1_12  and  C10_14 
REMARK    6  A    between atoms: C10_14  and  C11_15 
REMARK    7  A    between atoms: C11_15  and  O3_16 
REMARK    8  A    between atoms: C17_22  and  C18_23 
REMARK    9  A    between atoms: C24_31  and  O6_32 
REMARK   10  A    between atoms: C28_36  and  O7_37 
REMARK   11  A    between atoms: C32_42  and  O9_43 
ROOT
HETATM    1  C5  UNL     1      -2.784  45.124 -16.015  1.00  0.00     0.127 C 
HETATM    2  C6  UNL     1      -3.527  44.785 -17.318  1.00  0.00     0.033 C 
HETATM    3  C7  UNL     1      -3.370  45.856 -18.400  1.00  0.00     0.021 C 
HETATM    4  C8  UNL     1      -3.741  47.316 -17.953  1.00  0.00     0.026 C 
HETATM    5  C12 UNL     1      -2.869  48.305 -18.841  1.00  0.00     0.009 C 
HETATM    6  C13 UNL     1      -3.246  48.264 -20.345  1.00  0.00     0.007 C 
HETATM    7  C14 UNL     1      -2.390  49.193 -21.206  1.00  0.00     0.013 C 
HETATM    8  C15 UNL     1      -2.403  50.656 -20.708  1.00  0.00    -0.005 C 
HETATM    9  C16 UNL     1      -3.792  51.290 -20.978  1.00  0.00     0.019 C 
HETATM   10  C17 UNL     1      -1.249  51.503 -21.351  1.00  0.00     0.028 C 
HETATM   11  C22 UNL     1       0.008  51.094 -20.539  1.00  0.00     0.013 C 
HETATM   12  C23 UNL     1      -0.487  50.515 -19.207  1.00  0.00     0.040 C 
HETATM   13  C24 UNL     1      -2.013  50.732 -19.196  1.00  0.00     0.070 C 
HETATM   14  C25 UNL     1      -2.825  49.755 -18.301  1.00  0.00     0.026 C 
HETATM   15  C26 UNL     1      -2.335  49.732 -16.847  1.00  0.00     0.011 C 
HETATM   16  C27 UNL     1      -3.310  48.954 -15.982  1.00  0.00     0.039 C 
HETATM   17  C28 UNL     1      -3.512  47.495 -16.408  1.00  0.00     0.073 C 
HETATM   18  C29 UNL     1      -2.352  46.593 -15.949  1.00  0.00     0.071 C 
ENDROOT
BRANCH   1  19
HETATM   19  O2  UNL     1      -1.663  44.248 -15.844  1.00  0.00    -0.356 OA
BRANCH  19  20
HETATM   20  C4  UNL     1      -1.633  43.638 -14.548  1.00  0.00     0.263 C 
HETATM   21  C3  UNL     1      -1.088  42.217 -14.664  1.00  0.00     0.095 C 
HETATM   22  C2  UNL     1      -0.595  41.755 -13.301  1.00  0.00     0.156 C 
HETATM   23  C32 UNL     1       0.568  42.663 -12.846  1.00  0.00     0.175 C 
HETATM   24  C30 UNL     1       0.417  44.113 -13.343  1.00  0.00     0.151 C 
HETATM   25  O8  UNL     1      -0.957  44.440 -13.584  1.00  0.00    -0.354 OA
HETATM   26  C31 UNL     1       1.295  44.496 -14.535  1.00  0.00     0.042 C 
BRANCH  22  27
HETATM   27  O1  UNL     1      -0.105  40.394 -13.311  1.00  0.00    -0.388 OA
HETATM   28  C1  UNL     1      -0.746  39.560 -12.351  1.00  0.00     0.202 C 
ENDBRANCH  22  27
BRANCH  23  29
HETATM   29  O9  UNL     1       1.827  42.111 -13.241  1.00  0.00    -0.390 OA
HETATM   30  H49 UNL     1       1.664  41.146 -13.308  1.00  0.00     0.210 HD
ENDBRANCH  23  29
ENDBRANCH  19  20
ENDBRANCH   1  19
BRANCH  17  31
HETATM   31  O7  UNL     1      -4.677  47.036 -15.687  1.00  0.00    -0.389 OA
HETATM   32  H41 UNL     1      -4.534  47.219 -14.740  1.00  0.00     0.210 HD
ENDBRANCH  17  31
BRANCH   4  33
HETATM   33  C9  UNL     1      -5.246  47.499 -18.192  1.00  0.00     0.068 C 
HETATM   34  N1  UNL     1      -5.904  48.518 -17.745  1.00  0.00    -0.399 N 
ATOM     35  H1  UNL     1      -5.452  49.294 -17.262  1.00  0.00     0.158 HD
BRANCH  34  36
HETATM   36  C10 UNL     1      -7.350  48.473 -17.986  1.00  0.00     0.144 C 
BRANCH  36  37
HETATM   37  C11 UNL     1      -7.957  47.348 -17.144  1.00  0.00     0.183 C 
BRANCH  37  38
HETATM   38  O3  UNL     1      -9.063  47.815 -16.378  1.00  0.00    -0.399 OA
HETATM   39  H18 UNL     1      -9.748  48.109 -17.006  1.00  0.00     0.209 HD
ENDBRANCH  37  38
ENDBRANCH  36  37
ENDBRANCH  34  36
ENDBRANCH   4  33
BRANCH  13  40
HETATM   40  O6  UNL     1      -2.250  52.082 -18.748  1.00  0.00    -0.389 OA
HETATM   41  H35 UNL     1      -1.874  52.184 -17.863  1.00  0.00     0.210 HD
ENDBRANCH  13  40
BRANCH  10  42
HETATM   42  C18 UNL     1      -1.094  51.472 -22.849  1.00  0.00    -0.045 A 
HETATM   43  C19 UNL     1      -1.564  50.591 -23.735  1.00  0.00     0.087 A 
HETATM   44  C20 UNL     1      -1.034  50.966 -25.044  1.00  0.00     0.283 A 
HETATM   45  O4  UNL     1      -1.266  50.368 -26.082  1.00  0.00    -0.260 OA
HETATM   46  O5  UNL     1      -0.230  52.050 -24.907  1.00  0.00    -0.314 OA
HETATM   47  C21 UNL     1      -0.213  52.450 -23.538  1.00  0.00     0.213 A 
ENDBRANCH  10  42
TORSDOF 11
ENDMDL
MODEL 8
REMARK minimizedAffinity -7.96507025
REMARK CNNscore 0.375410557
REMARK CNNaffinity 6.8484726
REMARK  11 active torsions:
REMARK  status: ('A' for Active; 'I' for Inactive)
REMARK    1  A    between atoms: O1_2  and  C2_3 
REMARK    2  A    between atoms: C4_5  and  O2_6 
REMARK    3  A    between atoms: O2_6  and  C5_7 
REMARK    4  A    between atoms: C8_10  and  C9_11 
REMARK    5  A    between atoms: N1_12  and  C10_14 
REMARK    6  A    between atoms: C10_14  and  C11_15 
REMARK    7  A    between atoms: C11_15  and  O3_16 
REMARK    8  A    between atoms: C17_22  and  C18_23 
REMARK    9  A    between atoms: C24_31  and  O6_32 
REMARK   10  A    between atoms: C28_36  and  O7_37 
REMARK   11  A    between atoms: C32_42  and  O9_43 
ROOT
HETATM    1  C5  UNL     1      -2.089  50.538 -22.293  1.00  0.00     0.127 C 
HETATM    2  C6  UNL     1      -1.492  49.282 -21.636  1.00  0.00     0.033 C 
HETATM    3  C7  UNL     1      -2.482  48.119 -21.543  1.00  0.00     0.021 C 
HETATM    4  C8  UNL     1      -3.853  48.463 -20.859  1.00  0.00     0.026 C 
HETATM    5  C12 UNL     1      -4.938  47.482 -21.482  1.00  0.00     0.009 C 
HETATM    6  C13 UNL     1      -4.696  45.996 -21.113  1.00  0.00     0.007 C 
HETATM    7  C14 UNL     1      -5.720  45.047 -21.734  1.00  0.00     0.013 C 
HETATM    8  C15 UNL     1      -7.179  45.433 -21.398  1.00  0.00    -0.005 C 
HETATM    9  C16 UNL     1      -7.466  45.150 -19.901  1.00  0.00     0.019 C 
HETATM   10  C17 UNL     1      -8.207  44.700 -22.330  1.00  0.00     0.028 C 
HETATM   11  C22 UNL     1      -8.153  45.510 -23.652  1.00  0.00     0.013 C 
HETATM   12  C23 UNL     1      -7.585  46.893 -23.309  1.00  0.00     0.040 C 
HETATM   13  C24 UNL     1      -7.459  46.924 -21.772  1.00  0.00     0.070 C 
HETATM   14  C25 UNL     1      -6.400  47.911 -21.205  1.00  0.00     0.026 C 
HETATM   15  C26 UNL     1      -6.601  49.350 -21.699  1.00  0.00     0.011 C 
HETATM   16  C27 UNL     1      -5.697  50.294 -20.928  1.00  0.00     0.039 C 
HETATM   17  C28 UNL     1      -4.200  49.985 -21.053  1.00  0.00     0.073 C 
HETATM   18  C29 UNL     1      -3.617  50.482 -22.388  1.00  0.00     0.071 C 
ENDROOT
BRANCH   1  19
HETATM   19  O2  UNL     1      -1.499  50.746 -23.583  1.00  0.00    -0.356 OA
BRANCH  19  20
HETATM   20  C4  UNL     1      -2.304  51.575 -24.429  1.00  0.00     0.263 C 
HETATM   21  C3  UNL     1      -1.432  52.196 -25.518  1.00  0.00     0.095 C 
HETATM   22  C2  UNL     1      -2.314  52.650 -26.671  1.00  0.00     0.156 C 
HETATM   23  C32 UNL     1      -3.020  51.421 -27.285  1.00  0.00     0.175 C 
HETATM   24  C30 UNL     1      -3.334  50.334 -26.240  1.00  0.00     0.151 C 
HETATM   25  O8  UNL     1      -3.452  50.894 -24.927  1.00  0.00    -0.354 OA
HETATM   26  C31 UNL     1      -2.397  49.125 -26.246  1.00  0.00     0.042 C 
BRANCH  22  27
HETATM   27  O1  UNL     1      -1.569  53.296 -27.729  1.00  0.00    -0.388 OA
HETATM   28  C1  UNL     1      -0.244  53.651 -27.345  1.00  0.00     0.202 C 
ENDBRANCH  22  27
BRANCH  23  29
HETATM   29  O9  UNL     1      -2.256  50.888 -28.371  1.00  0.00    -0.390 OA
HETATM   30  H49 UNL     1      -1.737  51.650 -28.706  1.00  0.00     0.210 HD
ENDBRANCH  23  29
ENDBRANCH  19  20
ENDBRANCH   1  19
BRANCH  17  31
HETATM   31  O7  UNL     1      -3.553  50.767 -20.024  1.00  0.00    -0.389 OA
HETATM   32  H41 UNL     1      -3.837  51.694 -20.130  1.00  0.00     0.210 HD
ENDBRANCH  17  31
BRANCH   4  33
HETATM   33  C9  UNL     1      -3.679  48.248 -19.349  1.00  0.00     0.068 C 
HETATM   34  N1  UNL     1      -2.529  48.007 -18.808  1.00  0.00    -0.399 N 
ATOM     35  H1  UNL     1      -1.660  48.008 -19.342  1.00  0.00     0.158 HD
BRANCH  34  36
HETATM   36  C10 UNL     1      -2.571  47.731 -17.368  1.00  0.00     0.144 C 
BRANCH  36  37
HETATM   37  C11 UNL     1      -3.406  46.471 -17.129  1.00  0.00     0.183 C 
BRANCH  37  38
HETATM   38  O3  UNL     1      -2.705  45.301 -17.539  1.00  0.00    -0.399 OA
HETATM   39  H18 UNL     1      -1.909  45.230 -16.982  1.00  0.00     0.209 HD
ENDBRANCH  37  38
ENDBRANCH  36  37
ENDBRANCH  34  36
ENDBRANCH   4  33
BRANCH  13  40
HETATM   40  O6  UNL     1      -8.753  47.276 -21.244  1.00  0.00    -0.389 OA
HETATM   41  H35 UNL     1      -9.005  48.141 -21.594  1.00  0.00     0.210 HD
ENDBRANCH  13  40
BRANCH  10  42
HETATM   42  C18 UNL     1      -8.093  43.205 -22.478  1.00  0.00    -0.045 A 
HETATM   43  C19 UNL     1      -7.531  42.487 -23.453  1.00  0.00     0.087 A 
HETATM   44  C20 UNL     1      -7.791  41.079 -23.161  1.00  0.00     0.283 A 
HETATM   45  O4  UNL     1      -7.416  40.147 -23.854  1.00  0.00    -0.260 OA
HETATM   46  O5  UNL     1      -8.533  40.987 -22.029  1.00  0.00    -0.314 OA
HETATM   47  C21 UNL     1      -8.768  42.297 -21.516  1.00  0.00     0.213 A 
ENDBRANCH  10  42
TORSDOF 11
ENDMDL
MODEL 9
REMARK minimizedAffinity -7.39387989
REMARK CNNscore 0.356509209
REMARK CNNaffinity 6.36778402
REMARK  11 active torsions:
REMARK  status: ('A' for Active; 'I' for Inactive)
REMARK    1  A    between atoms: O1_2  and  C2_3 
REMARK    2  A    between atoms: C4_5  and  O2_6 
REMARK    3  A    between atoms: O2_6  and  C5_7 
REMARK    4  A    between atoms: C8_10  and  C9_11 
REMARK    5  A    between atoms: N1_12  and  C10_14 
REMARK    6  A    between atoms: C10_14  and  C11_15 
REMARK    7  A    between atoms: C11_15  and  O3_16 
REMARK    8  A    between atoms: C17_22  and  C18_23 
REMARK    9  A    between atoms: C24_31  and  O6_32 
REMARK   10  A    between atoms: C28_36  and  O7_37 
REMARK   11  A    between atoms: C32_42  and  O9_43 
ROOT
HETATM    1  C5  UNL     1      -4.071  44.514 -18.828  1.00  0.00     0.127 C 
HETATM    2  C6  UNL     1      -4.618  44.631 -20.261  1.00  0.00     0.033 C 
HETATM    3  C7  UNL     1      -4.207  45.927 -20.962  1.00  0.00     0.021 C 
HETATM    4  C8  UNL     1      -4.530  47.246 -20.171  1.00  0.00     0.026 C 
HETATM    5  C12 UNL     1      -3.453  48.326 -20.617  1.00  0.00     0.009 C 
HETATM    6  C13 UNL     1      -3.585  48.737 -22.106  1.00  0.00     0.007 C 
HETATM    7  C14 UNL     1      -2.533  49.755 -22.546  1.00  0.00     0.013 C 
HETATM    8  C15 UNL     1      -2.512  51.020 -21.659  1.00  0.00    -0.005 C 
HETATM    9  C16 UNL     1      -3.786  51.866 -21.918  1.00  0.00     0.019 C 
HETATM   10  C17 UNL     1      -1.207  51.865 -21.875  1.00  0.00     0.028 C 
HETATM   11  C22 UNL     1      -0.133  51.105 -21.054  1.00  0.00     0.013 C 
HETATM   12  C23 UNL     1      -0.877  50.251 -20.020  1.00  0.00     0.040 C 
HETATM   13  C24 UNL     1      -2.365  50.638 -20.150  1.00  0.00     0.070 C 
HETATM   14  C25 UNL     1      -3.383  49.560 -19.685  1.00  0.00     0.026 C 
HETATM   15  C26 UNL     1      -3.135  49.087 -18.247  1.00  0.00     0.011 C 
HETATM   16  C27 UNL     1      -4.294  48.227 -17.776  1.00  0.00     0.039 C 
HETATM   17  C28 UNL     1      -4.539  46.972 -18.623  1.00  0.00     0.073 C 
HETATM   18  C29 UNL     1      -3.541  45.848 -18.291  1.00  0.00     0.071 C 
ENDROOT
BRANCH   1  19
HETATM   19  O2  UNL     1      -3.063  43.496 -18.768  1.00  0.00    -0.356 OA
BRANCH  19  20
HETATM   20  C4  UNL     1      -3.099  42.758 -17.541  1.00  0.00     0.263 C 
HETATM   21  C3  UNL     1      -4.511  42.796 -16.963  1.00  0.00     0.095 C 
HETATM   22  C2  UNL     1      -4.681  41.652 -15.975  1.00  0.00     0.156 C 
HETATM   23  C32 UNL     1      -4.519  40.309 -16.720  1.00  0.00     0.175 C 
HETATM   24  C30 UNL     1      -3.518  40.396 -17.888  1.00  0.00     0.151 C 
HETATM   25  O8  UNL     1      -2.565  41.445 -17.679  1.00  0.00    -0.354 OA
HETATM   26  C31 UNL     1      -4.139  40.480 -19.283  1.00  0.00     0.042 C 
BRANCH  22  27
HETATM   27  O1  UNL     1      -5.981  41.642 -15.342  1.00  0.00    -0.388 OA
HETATM   28  C1  UNL     1      -5.921  41.393 -13.941  1.00  0.00     0.202 C 
ENDBRANCH  22  27
BRANCH  23  29
HETATM   29  O9  UNL     1      -5.788  39.820 -17.165  1.00  0.00    -0.390 OA
HETATM   30  H49 UNL     1      -6.437  40.213 -16.543  1.00  0.00     0.210 HD
ENDBRANCH  23  29
ENDBRANCH  19  20
ENDBRANCH   1  19
BRANCH  17  31
HETATM   31  O7  UNL     1      -5.837  46.478 -18.223  1.00  0.00    -0.389 OA
HETATM   32  H41 UNL     1      -5.834  46.381 -17.252  1.00  0.00     0.210 HD
ENDBRANCH  17  31
BRANCH   4  33
HETATM   33  C9  UNL     1      -5.958  47.665 -20.545  1.00  0.00     0.068 C 
HETATM   34  N1  UNL     1      -6.238  48.281 -21.647  1.00  0.00    -0.399 N 
ATOM     35  H1  UNL     1      -5.538  48.469 -22.364  1.00  0.00     0.158 HD
BRANCH  34  36
HETATM   36  C10 UNL     1      -7.640  48.689 -21.787  1.00  0.00     0.144 C 
BRANCH  36  37
HETATM   37  C11 UNL     1      -7.782  49.548 -23.046  1.00  0.00     0.183 C 
BRANCH  37  38
HETATM   38  O3  UNL     1      -7.077  50.779 -22.914  1.00  0.00    -0.399 OA
HETATM   39  H18 UNL     1      -6.132  50.562 -22.816  1.00  0.00     0.209 HD
ENDBRANCH  37  38
ENDBRANCH  36  37
ENDBRANCH  34  36
ENDBRANCH   4  33
BRANCH  13  40
HETATM   40  O6  UNL     1      -2.565  51.835 -19.371  1.00  0.00    -0.389 OA
HETATM   41  H35 UNL     1      -2.328  51.649 -18.453  1.00  0.00     0.210 HD
ENDBRANCH  13  40
BRANCH  10  42
HETATM   42  C18 UNL     1      -0.816  52.221 -23.286  1.00  0.00    -0.045 A 
HETATM   43  C19 UNL     1       0.393  52.262 -23.850  1.00  0.00     0.087 A 
HETATM   44  C20 UNL     1       0.223  52.771 -25.208  1.00  0.00     0.283 A 
HETATM   45  O4  UNL     1       1.132  52.938 -26.005  1.00  0.00    -0.260 OA
HETATM   46  O5  UNL     1      -1.087  53.053 -25.418  1.00  0.00    -0.314 OA
HETATM   47  C21 UNL     1      -1.831  52.725 -24.247  1.00  0.00     0.213 A 
ENDBRANCH  10  42
TORSDOF 11
ENDMDL
