MODEL 1
REMARK minimizedAffinity -8.99660683
REMARK  6 active torsions:
REMARK  status: ('A' for Active; 'I' for Inactive)
REMARK    1  A    between atoms: C2_2  and  C30_32 
REMARK    2  A    between atoms: C3_3  and  C4_4 
REMARK    3  A    between atoms: C4_4  and  C5_5 
REMARK    4  A    between atoms: C5_5  and  C6_6 
REMARK    5  A    between atoms: C6_6  and  C8_8 
REMARK    6  A    between atoms: C30_32  and  O3_33 
ROOT
HETATM    1  C8  UNL     1      -5.736   7.622  14.535  1.00  0.00    -0.002 C 
HETATM    2  C9  UNL     1      -5.309   8.900  15.310  1.00  0.00     0.007 C 
HETATM    3  C10 UNL     1      -3.786   9.050  15.126  1.00  0.00     0.015 C 
HETATM    4  C11 UNL     1      -3.432   8.121  13.947  1.00  0.00    -0.005 C 
HETATM    5  C12 UNL     1      -3.758   8.902  12.636  1.00  0.00     0.021 C 
HETATM    6  C13 UNL     1      -2.007   7.625  13.748  1.00  0.00    -0.000 C 
HETATM    7  C14 UNL     1      -1.747   6.439  13.142  1.00  0.00    -0.060 C 
HETATM    8  C15 UNL     1      -2.903   5.512  12.726  1.00  0.00     0.036 C 
HETATM    9  C16 UNL     1      -4.344   5.958  13.055  1.00  0.00     0.015 C 
HETATM   10  C17 UNL     1      -4.384   6.899  14.265  1.00  0.00    -0.028 C 
HETATM   11  C18 UNL     1      -3.939   6.092  15.519  1.00  0.00     0.016 C 
HETATM   12  C19 UNL     1      -0.318   5.916  12.858  1.00  0.00    -0.014 C 
HETATM   13  C20 UNL     1      -0.027   4.782  13.880  1.00  0.00     0.020 C 
HETATM   14  C21 UNL     1      -0.234   5.311  11.427  1.00  0.00     0.021 C 
HETATM   15  C22 UNL     1       1.171   5.343  10.851  1.00  0.00     0.080 C 
HETATM   16  C23 UNL     1       1.572   6.782  10.637  1.00  0.00     0.135 C 
HETATM   17  O1  UNL     1       2.190   7.106   9.623  1.00  0.00    -0.297 OA
HETATM   18  C24 UNL     1       1.181   7.801  11.725  1.00  0.00     0.018 C 
HETATM   19  C25 UNL     1       0.067   8.687  11.150  1.00  0.00     0.023 C 
HETATM   20  C26 UNL     1       2.422   8.688  11.972  1.00  0.00     0.023 C 
HETATM   21  C27 UNL     1       0.796   7.018  13.036  1.00  0.00     0.020 C 
HETATM   22  C28 UNL     1       0.495   7.891  14.256  1.00  0.00     0.090 C 
HETATM   23  C29 UNL     1      -0.881   8.496  14.197  1.00  0.00     0.157 C 
HETATM   24  O2  UNL     1      -1.066   9.658  14.544  1.00  0.00    -0.293 OA
ENDROOT
BRANCH   1  25
HETATM   25  C6  UNL     1      -6.984   6.908  15.139  1.00  0.00    -0.014 C 
HETATM   26  C7  UNL     1      -6.720   5.941  16.296  1.00  0.00     0.010 C 
BRANCH  25  27
HETATM   27  C5  UNL     1      -7.847   6.252  14.032  1.00  0.00     0.008 C 
BRANCH  27  28
HETATM   28  C4  UNL     1      -7.700   4.724  13.913  1.00  0.00     0.028 C 
BRANCH  28  29
HETATM   29  C3  UNL     1      -6.728   4.287  12.853  1.00  0.00    -0.022 C 
HETATM   30  C2  UNL     1      -6.597   3.055  12.309  1.00  0.00    -0.064 C 
HETATM   31  C1  UNL     1      -7.471   1.887  12.683  1.00  0.00     0.045 C 
BRANCH  30  32
HETATM   32  C30 UNL     1      -5.539   2.705  11.283  1.00  0.00     0.197 C 
BRANCH  32  33
HETATM   33  O3  UNL     1      -5.761   1.432  10.695  1.00  0.00    -0.397 OA
HETATM   34  H46 UNL     1      -5.736   0.790  11.426  1.00  0.00     0.209 HD
ENDBRANCH  32  33
ENDBRANCH  30  32
ENDBRANCH  28  29
ENDBRANCH  27  28
ENDBRANCH  25  27
ENDBRANCH   1  25
TORSDOF 6
ENDMDL
MODEL 2
REMARK minimizedAffinity -8.79240608
REMARK  6 active torsions:
REMARK  status: ('A' for Active; 'I' for Inactive)
REMARK    1  A    between atoms: C2_2  and  C30_32 
REMARK    2  A    between atoms: C3_3  and  C4_4 
REMARK    3  A    between atoms: C4_4  and  C5_5 
REMARK    4  A    between atoms: C5_5  and  C6_6 
REMARK    5  A    between atoms: C6_6  and  C8_8 
REMARK    6  A    between atoms: C30_32  and  O3_33 
ROOT
HETATM    1  C8  UNL     1      -2.546   4.301  12.796  1.00  0.00    -0.002 C 
HETATM    2  C9  UNL     1      -1.679   4.783  11.599  1.00  0.00     0.007 C 
HETATM    3  C10 UNL     1      -1.243   6.228  11.912  1.00  0.00     0.015 C 
HETATM    4  C11 UNL     1      -1.511   6.409  13.421  1.00  0.00    -0.005 C 
HETATM    5  C12 UNL     1      -0.300   5.783  14.179  1.00  0.00     0.021 C 
HETATM    6  C13 UNL     1      -1.659   7.798  14.023  1.00  0.00    -0.000 C 
HETATM    7  C14 UNL     1      -2.417   8.016  15.127  1.00  0.00    -0.060 C 
HETATM    8  C15 UNL     1      -3.233   6.867  15.745  1.00  0.00     0.036 C 
HETATM    9  C16 UNL     1      -3.188   5.490  15.048  1.00  0.00     0.015 C 
HETATM   10  C17 UNL     1      -2.876   5.622  13.552  1.00  0.00    -0.028 C 
HETATM   11  C18 UNL     1      -4.070   6.355  12.873  1.00  0.00     0.016 C 
HETATM   12  C19 UNL     1      -2.551   9.395  15.818  1.00  0.00    -0.014 C 
HETATM   13  C20 UNL     1      -3.958   9.954  15.468  1.00  0.00     0.020 C 
HETATM   14  C21 UNL     1      -2.462   9.241  17.364  1.00  0.00     0.021 C 
HETATM   15  C22 UNL     1      -1.980  10.502  18.059  1.00  0.00     0.080 C 
HETATM   16  C23 UNL     1      -0.547  10.757  17.658  1.00  0.00     0.135 C 
HETATM   17  O1  UNL     1       0.268  11.142  18.496  1.00  0.00    -0.297 OA
HETATM   18  C24 UNL     1      -0.165  10.515  16.185  1.00  0.00     0.018 C 
HETATM   19  C25 UNL     1       0.709   9.254  16.134  1.00  0.00     0.023 C 
HETATM   20  C26 UNL     1       0.701  11.718  15.747  1.00  0.00     0.023 C 
HETATM   21  C27 UNL     1      -1.483  10.445  15.326  1.00  0.00     0.020 C 
HETATM   22  C28 UNL     1      -1.273  10.328  13.814  1.00  0.00     0.090 C 
HETATM   23  C29 UNL     1      -0.911   8.929  13.398  1.00  0.00     0.157 C 
HETATM   24  O2  UNL     1      -0.052   8.737  12.543  1.00  0.00    -0.293 OA
ENDROOT
BRANCH   1  25
HETATM   25  C6  UNL     1      -3.626   3.245  12.405  1.00  0.00    -0.014 C 
HETATM   26  C7  UNL     1      -3.109   1.940  11.793  1.00  0.00     0.010 C 
BRANCH  25  27
HETATM   27  C5  UNL     1      -4.744   3.878  11.541  1.00  0.00     0.008 C 
BRANCH  27  28
HETATM   28  C4  UNL     1      -6.178   3.514  11.964  1.00  0.00     0.028 C 
BRANCH  28  29
HETATM   29  C3  UNL     1      -6.508   3.886  13.383  1.00  0.00    -0.022 C 
HETATM   30  C2  UNL     1      -7.269   4.919  13.810  1.00  0.00    -0.064 C 
HETATM   31  C1  UNL     1      -7.960   5.881  12.880  1.00  0.00     0.045 C 
BRANCH  30  32
HETATM   32  C30 UNL     1      -7.491   5.241  15.273  1.00  0.00     0.197 C 
BRANCH  32  33
HETATM   33  O3  UNL     1      -7.974   4.122  16.003  1.00  0.00    -0.397 OA
HETATM   34  H46 UNL     1      -8.818   3.874  15.589  1.00  0.00     0.209 HD
ENDBRANCH  32  33
ENDBRANCH  30  32
ENDBRANCH  28  29
ENDBRANCH  27  28
ENDBRANCH  25  27
ENDBRANCH   1  25
TORSDOF 6
ENDMDL
MODEL 3
REMARK minimizedAffinity -8.61920261
REMARK  6 active torsions:
REMARK  status: ('A' for Active; 'I' for Inactive)
REMARK    1  A    between atoms: C2_2  and  C30_32 
REMARK    2  A    between atoms: C3_3  and  C4_4 
REMARK    3  A    between atoms: C4_4  and  C5_5 
REMARK    4  A    between atoms: C5_5  and  C6_6 
REMARK    5  A    between atoms: C6_6  and  C8_8 
REMARK    6  A    between atoms: C30_32  and  O3_33 
ROOT
HETATM    1  C8  UNL     1      -6.194   7.236  14.723  1.00  0.00    -0.002 C 
HETATM    2  C9  UNL     1      -5.855   8.586  15.417  1.00  0.00     0.007 C 
HETATM    3  C10 UNL     1      -4.361   8.863  15.157  1.00  0.00     0.015 C 
HETATM    4  C11 UNL     1      -3.972   7.910  14.008  1.00  0.00    -0.005 C 
HETATM    5  C12 UNL     1      -4.421   8.589  12.677  1.00  0.00     0.021 C 
HETATM    6  C13 UNL     1      -2.516   7.534  13.769  1.00  0.00    -0.000 C 
HETATM    7  C14 UNL     1      -2.173   6.347  13.209  1.00  0.00    -0.060 C 
HETATM    8  C15 UNL     1      -3.254   5.299  12.891  1.00  0.00     0.036 C 
HETATM    9  C16 UNL     1      -4.716   5.630  13.264  1.00  0.00     0.015 C 
HETATM   10  C17 UNL     1      -4.793   6.625  14.427  1.00  0.00    -0.028 C 
HETATM   11  C18 UNL     1      -4.224   5.927  15.697  1.00  0.00     0.016 C 
HETATM   12  C19 UNL     1      -0.715   5.940  12.885  1.00  0.00    -0.014 C 
HETATM   13  C20 UNL     1      -0.279   4.892  13.946  1.00  0.00     0.020 C 
HETATM   14  C21 UNL     1      -0.634   5.272  11.482  1.00  0.00     0.021 C 
HETATM   15  C22 UNL     1       0.737   5.400  10.842  1.00  0.00     0.080 C 
HETATM   16  C23 UNL     1       0.995   6.856  10.542  1.00  0.00     0.135 C 
HETATM   17  O1  UNL     1       1.538   7.181   9.486  1.00  0.00    -0.297 OA
HETATM   18  C24 UNL     1       0.557   7.891  11.596  1.00  0.00     0.018 C 
HETATM   19  C25 UNL     1      -0.657   8.643  11.031  1.00  0.00     0.023 C 
HETATM   20  C26 UNL     1       1.720   8.898  11.744  1.00  0.00     0.023 C 
HETATM   21  C27 UNL     1       0.300   7.145  12.959  1.00  0.00     0.020 C 
HETATM   22  C28 UNL     1      -0.031   8.050  14.149  1.00  0.00     0.090 C 
HETATM   23  C29 UNL     1      -1.457   8.524  14.123  1.00  0.00     0.157 C 
HETATM   24  O2  UNL     1      -1.734   9.682  14.423  1.00  0.00    -0.293 OA
ENDROOT
BRANCH   1  25
HETATM   25  C6  UNL     1      -7.345   6.445  15.417  1.00  0.00    -0.014 C 
HETATM   26  C7  UNL     1      -7.586   5.018  14.917  1.00  0.00     0.010 C 
BRANCH  25  27
HETATM   27  C5  UNL     1      -8.655   7.269  15.447  1.00  0.00     0.008 C 
BRANCH  27  28
HETATM   28  C4  UNL     1      -9.730   6.819  14.441  1.00  0.00     0.028 C 
BRANCH  28  29
HETATM   29  C3  UNL     1     -10.453   7.955  13.773  1.00  0.00    -0.022 C 
HETATM   30  C2  UNL     1     -11.759   8.013  13.426  1.00  0.00    -0.064 C 
HETATM   31  C1  UNL     1     -12.740   6.903  13.698  1.00  0.00     0.045 C 
BRANCH  30  32
HETATM   32  C30 UNL     1     -12.376   9.189  12.699  1.00  0.00     0.197 C 
BRANCH  32  33
HETATM   33  O3  UNL     1     -11.680   9.509  11.503  1.00  0.00    -0.397 OA
HETATM   34  H46 UNL     1     -10.771   9.728  11.771  1.00  0.00     0.209 HD
ENDBRANCH  32  33
ENDBRANCH  30  32
ENDBRANCH  28  29
ENDBRANCH  27  28
ENDBRANCH  25  27
ENDBRANCH   1  25
TORSDOF 6
ENDMDL
MODEL 4
REMARK minimizedAffinity -8.55660439
REMARK  6 active torsions:
REMARK  status: ('A' for Active; 'I' for Inactive)
REMARK    1  A    between atoms: C2_2  and  C30_32 
REMARK    2  A    between atoms: C3_3  and  C4_4 
REMARK    3  A    between atoms: C4_4  and  C5_5 
REMARK    4  A    between atoms: C5_5  and  C6_6 
REMARK    5  A    between atoms: C6_6  and  C8_8 
REMARK    6  A    between atoms: C30_32  and  O3_33 
ROOT
HETATM    1  C8  UNL     1      -3.255   3.597  12.387  1.00  0.00    -0.002 C 
HETATM    2  C9  UNL     1      -2.702   3.757  10.942  1.00  0.00     0.007 C 
HETATM    3  C10 UNL     1      -1.779   4.992  10.948  1.00  0.00     0.015 C 
HETATM    4  C11 UNL     1      -1.496   5.273  12.438  1.00  0.00    -0.005 C 
HETATM    5  C12 UNL     1      -0.354   4.306  12.878  1.00  0.00     0.021 C 
HETATM    6  C13 UNL     1      -1.026   6.647  12.895  1.00  0.00    -0.000 C 
HETATM    7  C14 UNL     1      -1.300   7.113  14.139  1.00  0.00    -0.060 C 
HETATM    8  C15 UNL     1      -2.187   6.295  15.095  1.00  0.00     0.036 C 
HETATM    9  C16 UNL     1      -2.776   4.965  14.577  1.00  0.00     0.015 C 
HETATM   10  C17 UNL     1      -2.922   4.966  13.051  1.00  0.00    -0.028 C 
HETATM   11  C18 UNL     1      -3.991   6.031  12.669  1.00  0.00     0.016 C 
HETATM   12  C19 UNL     1      -0.793   8.473  14.677  1.00  0.00    -0.014 C 
HETATM   13  C20 UNL     1      -2.005   9.447  14.690  1.00  0.00     0.020 C 
HETATM   14  C21 UNL     1      -0.276   8.324  16.137  1.00  0.00     0.021 C 
HETATM   15  C22 UNL     1       0.752   9.376  16.513  1.00  0.00     0.080 C 
HETATM   16  C23 UNL     1       1.995   9.153  15.687  1.00  0.00     0.135 C 
HETATM   17  O1  UNL     1       3.106   9.272  16.201  1.00  0.00    -0.297 OA
HETATM   18  C24 UNL     1       1.807   8.778  14.204  1.00  0.00     0.018 C 
HETATM   19  C25 UNL     1       2.203   7.303  14.045  1.00  0.00     0.023 C 
HETATM   20  C26 UNL     1       2.811   9.634  13.398  1.00  0.00     0.023 C 
HETATM   21  C27 UNL     1       0.330   9.119  13.779  1.00  0.00     0.020 C 
HETATM   22  C28 UNL     1       0.012   8.917  12.295  1.00  0.00     0.090 C 
HETATM   23  C29 UNL     1      -0.210   7.469  11.954  1.00  0.00     0.157 C 
HETATM   24  O2  UNL     1       0.241   6.999  10.914  1.00  0.00    -0.293 OA
ENDROOT
BRANCH   1  25
HETATM   25  C6  UNL     1      -4.665   2.935  12.450  1.00  0.00    -0.014 C 
HETATM   26  C7  UNL     1      -4.967   1.874  11.389  1.00  0.00     0.010 C 
BRANCH  25  27
HETATM   27  C5  UNL     1      -5.785   4.003  12.524  1.00  0.00     0.008 C 
BRANCH  27  28
HETATM   28  C4  UNL     1      -6.972   3.640  13.434  1.00  0.00     0.028 C 
BRANCH  28  29
HETATM   29  C3  UNL     1      -7.525   4.804  14.207  1.00  0.00    -0.022 C 
HETATM   30  C2  UNL     1      -8.340   5.784  13.755  1.00  0.00    -0.064 C 
HETATM   31  C1  UNL     1      -8.865   5.841  12.345  1.00  0.00     0.045 C 
BRANCH  30  32
HETATM   32  C30 UNL     1      -8.794   6.950  14.609  1.00  0.00     0.197 C 
BRANCH  32  33
HETATM   33  O3  UNL     1      -9.753   6.563  15.582  1.00  0.00    -0.397 OA
HETATM   34  H46 UNL     1     -10.509   6.203  15.087  1.00  0.00     0.209 HD
ENDBRANCH  32  33
ENDBRANCH  30  32
ENDBRANCH  28  29
ENDBRANCH  27  28
ENDBRANCH  25  27
ENDBRANCH   1  25
TORSDOF 6
ENDMDL
MODEL 5
REMARK minimizedAffinity -8.4952774
REMARK  6 active torsions:
REMARK  status: ('A' for Active; 'I' for Inactive)
REMARK    1  A    between atoms: C2_2  and  C30_32 
REMARK    2  A    between atoms: C3_3  and  C4_4 
REMARK    3  A    between atoms: C4_4  and  C5_5 
REMARK    4  A    between atoms: C5_5  and  C6_6 
REMARK    5  A    between atoms: C6_6  and  C8_8 
REMARK    6  A    between atoms: C30_32  and  O3_33 
ROOT
HETATM    1  C8  UNL     1      -5.816   5.794  14.080  1.00  0.00    -0.002 C 
HETATM    2  C9  UNL     1      -5.151   4.999  12.921  1.00  0.00     0.007 C 
HETATM    3  C10 UNL     1      -3.727   5.563  12.747  1.00  0.00     0.015 C 
HETATM    4  C11 UNL     1      -3.455   6.366  14.037  1.00  0.00    -0.005 C 
HETATM    5  C12 UNL     1      -3.013   5.343  15.129  1.00  0.00     0.021 C 
HETATM    6  C13 UNL     1      -2.380   7.443  14.070  1.00  0.00    -0.000 C 
HETATM    7  C14 UNL     1      -2.469   8.508  14.906  1.00  0.00    -0.060 C 
HETATM    8  C15 UNL     1      -3.721   8.706  15.779  1.00  0.00     0.036 C 
HETATM    9  C16 UNL     1      -4.870   7.683  15.639  1.00  0.00     0.015 C 
HETATM   10  C17 UNL     1      -4.876   7.023  14.255  1.00  0.00    -0.028 C 
HETATM   11  C18 UNL     1      -5.210   8.118  13.200  1.00  0.00     0.016 C 
HETATM   12  C19 UNL     1      -1.376   9.598  15.026  1.00  0.00    -0.014 C 
HETATM   13  C20 UNL     1      -1.908  10.870  14.308  1.00  0.00     0.020 C 
HETATM   14  C21 UNL     1      -1.124   9.955  16.520  1.00  0.00     0.021 C 
HETATM   15  C22 UNL     1       0.268  10.509  16.771  1.00  0.00     0.080 C 
HETATM   16  C23 UNL     1       1.276   9.418  16.506  1.00  0.00     0.135 C 
HETATM   17  O1  UNL     1       2.246   9.281  17.251  1.00  0.00    -0.297 OA
HETATM   18  C24 UNL     1       1.037   8.506  15.287  1.00  0.00     0.018 C 
HETATM   19  C25 UNL     1       0.625   7.124  15.816  1.00  0.00     0.023 C 
HETATM   20  C26 UNL     1       2.397   8.359  14.567  1.00  0.00     0.023 C 
HETATM   21  C27 UNL     1      -0.015   9.195  14.339  1.00  0.00     0.020 C 
HETATM   22  C28 UNL     1      -0.277   8.471  13.016  1.00  0.00     0.090 C 
HETATM   23  C29 UNL     1      -1.187   7.286  13.187  1.00  0.00     0.157 C 
HETATM   24  O2  UNL     1      -0.965   6.239  12.586  1.00  0.00    -0.293 OA
ENDROOT
BRANCH   1  25
HETATM   25  C6  UNL     1      -7.366   5.912  13.953  1.00  0.00    -0.014 C 
HETATM   26  C7  UNL     1      -7.943   5.799  12.539  1.00  0.00     0.010 C 
BRANCH  25  27
HETATM   27  C5  UNL     1      -7.896   7.167  14.688  1.00  0.00     0.008 C 
BRANCH  27  28
HETATM   28  C4  UNL     1      -9.391   7.127  15.050  1.00  0.00     0.028 C 
BRANCH  28  29
HETATM   29  C3  UNL     1     -10.173   8.306  14.543  1.00  0.00    -0.022 C 
HETATM   30  C2  UNL     1     -11.084   8.325  13.543  1.00  0.00    -0.064 C 
HETATM   31  C1  UNL     1     -11.493   7.100  12.769  1.00  0.00     0.045 C 
BRANCH  30  32
HETATM   32  C30 UNL     1     -11.775   9.588  13.070  1.00  0.00     0.197 C 
BRANCH  32  33
HETATM   33  O3  UNL     1     -11.867   9.653  11.655  1.00  0.00    -0.397 OA
HETATM   34  H46 UNL     1     -10.952   9.635  11.325  1.00  0.00     0.209 HD
ENDBRANCH  32  33
ENDBRANCH  30  32
ENDBRANCH  28  29
ENDBRANCH  27  28
ENDBRANCH  25  27
ENDBRANCH   1  25
TORSDOF 6
ENDMDL
MODEL 6
REMARK minimizedAffinity -8.48815155
REMARK  6 active torsions:
REMARK  status: ('A' for Active; 'I' for Inactive)
REMARK    1  A    between atoms: C2_2  and  C30_32 
REMARK    2  A    between atoms: C3_3  and  C4_4 
REMARK    3  A    between atoms: C4_4  and  C5_5 
REMARK    4  A    between atoms: C5_5  and  C6_6 
REMARK    5  A    between atoms: C6_6  and  C8_8 
REMARK    6  A    between atoms: C30_32  and  O3_33 
ROOT
HETATM    1  C8  UNL     1      -3.791   8.966  14.305  1.00  0.00    -0.002 C 
HETATM    2  C9  UNL     1      -3.547   8.929  15.840  1.00  0.00     0.007 C 
HETATM    3  C10 UNL     1      -2.039   8.687  16.050  1.00  0.00     0.015 C 
HETATM    4  C11 UNL     1      -1.392   8.990  14.683  1.00  0.00    -0.005 C 
HETATM    5  C12 UNL     1      -1.222  10.538  14.590  1.00  0.00     0.021 C 
HETATM    6  C13 UNL     1      -0.018   8.436  14.334  1.00  0.00    -0.000 C 
HETATM    7  C14 UNL     1       0.339   8.180  13.051  1.00  0.00    -0.060 C 
HETATM    8  C15 UNL     1      -0.684   8.351  11.913  1.00  0.00     0.036 C 
HETATM    9  C16 UNL     1      -2.119   8.781  12.289  1.00  0.00     0.015 C 
HETATM   10  C17 UNL     1      -2.479   8.365  13.720  1.00  0.00    -0.028 C 
HETATM   11  C18 UNL     1      -2.520   6.810  13.775  1.00  0.00     0.016 C 
HETATM   12  C19 UNL     1       1.742   7.677  12.633  1.00  0.00    -0.014 C 
HETATM   13  C20 UNL     1       1.607   6.171  12.273  1.00  0.00     0.020 C 
HETATM   14  C21 UNL     1       2.240   8.435  11.369  1.00  0.00     0.021 C 
HETATM   15  C22 UNL     1       3.754   8.470  11.255  1.00  0.00     0.080 C 
HETATM   16  C23 UNL     1       4.304   9.300  12.389  1.00  0.00     0.135 C 
HETATM   17  O1  UNL     1       5.236  10.078  12.188  1.00  0.00    -0.297 OA
HETATM   18  C24 UNL     1       3.656   9.130  13.777  1.00  0.00     0.018 C 
HETATM   19  C25 UNL     1       2.853  10.404  14.073  1.00  0.00     0.023 C 
HETATM   20  C26 UNL     1       4.811   9.041  14.800  1.00  0.00     0.023 C 
HETATM   21  C27 UNL     1       2.815   7.799  13.783  1.00  0.00     0.020 C 
HETATM   22  C28 UNL     1       2.200   7.418  15.132  1.00  0.00     0.090 C 
HETATM   23  C29 UNL     1       0.963   8.217  15.438  1.00  0.00     0.157 C 
HETATM   24  O2  UNL     1       0.760   8.639  16.573  1.00  0.00    -0.293 OA
ENDROOT
BRANCH   1  25
HETATM   25  C6  UNL     1      -5.215   8.487  13.883  1.00  0.00    -0.014 C 
HETATM   26  C7  UNL     1      -6.330   8.683  14.914  1.00  0.00     0.010 C 
BRANCH  25  27
HETATM   27  C5  UNL     1      -5.183   7.036  13.344  1.00  0.00     0.008 C 
BRANCH  27  28
HETATM   28  C4  UNL     1      -6.017   6.024  14.150  1.00  0.00     0.028 C 
BRANCH  28  29
HETATM   29  C3  UNL     1      -6.025   4.639  13.566  1.00  0.00    -0.022 C 
HETATM   30  C2  UNL     1      -7.032   4.029  12.900  1.00  0.00    -0.064 C 
HETATM   31  C1  UNL     1      -8.352   4.692  12.604  1.00  0.00     0.045 C 
BRANCH  30  32
HETATM   32  C30 UNL     1      -6.956   2.601  12.401  1.00  0.00     0.197 C 
BRANCH  32  33
HETATM   33  O3  UNL     1      -8.179   1.902  12.583  1.00  0.00    -0.397 OA
HETATM   34  H46 UNL     1      -8.352   1.908  13.540  1.00  0.00     0.209 HD
ENDBRANCH  32  33
ENDBRANCH  30  32
ENDBRANCH  28  29
ENDBRANCH  27  28
ENDBRANCH  25  27
ENDBRANCH   1  25
TORSDOF 6
ENDMDL
MODEL 7
REMARK minimizedAffinity -8.3270731
REMARK  6 active torsions:
REMARK  status: ('A' for Active; 'I' for Inactive)
REMARK    1  A    between atoms: C2_2  and  C30_32 
REMARK    2  A    between atoms: C3_3  and  C4_4 
REMARK    3  A    between atoms: C4_4  and  C5_5 
REMARK    4  A    between atoms: C5_5  and  C6_6 
REMARK    5  A    between atoms: C6_6  and  C8_8 
REMARK    6  A    between atoms: C30_32  and  O3_33 
ROOT
HETATM    1  C8  UNL     1       1.911   7.266  10.219  1.00  0.00    -0.002 C 
HETATM    2  C9  UNL     1       2.575   6.186  11.120  1.00  0.00     0.007 C 
HETATM    3  C10 UNL     1       1.651   5.986  12.337  1.00  0.00     0.015 C 
HETATM    4  C11 UNL     1       0.309   6.629  11.931  1.00  0.00    -0.005 C 
HETATM    5  C12 UNL     1      -0.456   5.581  11.064  1.00  0.00     0.021 C 
HETATM    6  C13 UNL     1      -0.699   7.056  12.987  1.00  0.00    -0.000 C 
HETATM    7  C14 UNL     1      -1.566   8.077  12.768  1.00  0.00    -0.060 C 
HETATM    8  C15 UNL     1      -1.482   8.900  11.471  1.00  0.00     0.036 C 
HETATM    9  C16 UNL     1      -0.366   8.550  10.462  1.00  0.00     0.015 C 
HETATM   10  C17 UNL     1       0.838   7.899  11.152  1.00  0.00    -0.028 C 
HETATM   11  C18 UNL     1       1.489   8.959  12.089  1.00  0.00     0.016 C 
HETATM   12  C19 UNL     1      -2.654   8.512  13.781  1.00  0.00    -0.014 C 
HETATM   13  C20 UNL     1      -2.177   9.840  14.431  1.00  0.00     0.020 C 
HETATM   14  C21 UNL     1      -4.000   8.785  13.051  1.00  0.00     0.021 C 
HETATM   15  C22 UNL     1      -5.210   8.615  13.953  1.00  0.00     0.080 C 
HETATM   16  C23 UNL     1      -5.321   7.161  14.341  1.00  0.00     0.135 C 
HETATM   17  O1  UNL     1      -6.424   6.616  14.380  1.00  0.00    -0.297 OA
HETATM   18  C24 UNL     1      -4.018   6.410  14.678  1.00  0.00     0.018 C 
HETATM   19  C25 UNL     1      -3.739   5.429  13.531  1.00  0.00     0.023 C 
HETATM   20  C26 UNL     1      -4.295   5.588  15.957  1.00  0.00     0.023 C 
HETATM   21  C27 UNL     1      -2.880   7.466  14.940  1.00  0.00     0.020 C 
HETATM   22  C28 UNL     1      -1.542   6.886  15.406  1.00  0.00     0.090 C 
HETATM   23  C29 UNL     1      -0.752   6.296  14.271  1.00  0.00     0.157 C 
HETATM   24  O2  UNL     1      -0.144   5.240  14.418  1.00  0.00    -0.293 OA
ENDROOT
BRANCH   1  25
HETATM   25  C6  UNL     1       2.931   8.107   9.391  1.00  0.00    -0.014 C 
HETATM   26  C7  UNL     1       2.785   8.044   7.868  1.00  0.00     0.010 C 
BRANCH  25  27
HETATM   27  C5  UNL     1       4.386   7.825   9.837  1.00  0.00     0.008 C 
BRANCH  27  28
HETATM   28  C4  UNL     1       5.119   9.025  10.462  1.00  0.00     0.028 C 
BRANCH  28  29
HETATM   29  C3  UNL     1       5.498   8.825  11.903  1.00  0.00    -0.022 C 
HETATM   30  C2  UNL     1       6.170   7.784  12.443  1.00  0.00    -0.064 C 
HETATM   31  C1  UNL     1       6.692   6.624  11.636  1.00  0.00     0.045 C 
BRANCH  30  32
HETATM   32  C30 UNL     1       6.450   7.652  13.926  1.00  0.00     0.197 C 
BRANCH  32  33
HETATM   33  O3  UNL     1       6.207   6.337  14.405  1.00  0.00    -0.397 OA
HETATM   34  H46 UNL     1       5.267   6.157  14.230  1.00  0.00     0.209 HD
ENDBRANCH  32  33
ENDBRANCH  30  32
ENDBRANCH  28  29
ENDBRANCH  27  28
ENDBRANCH  25  27
ENDBRANCH   1  25
TORSDOF 6
ENDMDL
MODEL 8
REMARK minimizedAffinity -8.28364182
REMARK  6 active torsions:
REMARK  status: ('A' for Active; 'I' for Inactive)
REMARK    1  A    between atoms: C2_2  and  C30_32 
REMARK    2  A    between atoms: C3_3  and  C4_4 
REMARK    3  A    between atoms: C4_4  and  C5_5 
REMARK    4  A    between atoms: C5_5  and  C6_6 
REMARK    5  A    between atoms: C6_6  and  C8_8 
REMARK    6  A    between atoms: C30_32  and  O3_33 
ROOT
HETATM    1  C8  UNL     1      -1.752   6.746  13.354  1.00  0.00    -0.002 C 
HETATM    2  C9  UNL     1      -1.465   6.797  14.881  1.00  0.00     0.007 C 
HETATM    3  C10 UNL     1       0.028   7.141  15.047  1.00  0.00     0.015 C 
HETATM    4  C11 UNL     1       0.472   7.672  13.669  1.00  0.00    -0.005 C 
HETATM    5  C12 UNL     1       0.042   9.171  13.596  1.00  0.00     0.021 C 
HETATM    6  C13 UNL     1       1.941   7.680  13.274  1.00  0.00    -0.000 C 
HETATM    7  C14 UNL     1       2.328   7.583  11.977  1.00  0.00    -0.060 C 
HETATM    8  C15 UNL     1       1.282   7.362  10.871  1.00  0.00     0.036 C 
HETATM    9  C16 UNL     1      -0.197   7.216  11.292  1.00  0.00     0.015 C 
HETATM   10  C17 UNL     1      -0.330   6.688  12.725  1.00  0.00    -0.028 C 
HETATM   11  C18 UNL     1       0.221   5.233  12.756  1.00  0.00     0.016 C 
HETATM   12  C19 UNL     1       3.804   7.649  11.515  1.00  0.00    -0.014 C 
HETATM   13  C20 UNL     1       4.236   6.206  11.134  1.00  0.00     0.020 C 
HETATM   14  C21 UNL     1       3.940   8.546  10.250  1.00  0.00     0.021 C 
HETATM   15  C22 UNL     1       5.324   9.150  10.097  1.00  0.00     0.080 C 
HETATM   16  C23 UNL     1       5.556  10.121  11.229  1.00  0.00     0.135 C 
HETATM   17  O1  UNL     1       6.119  11.194  11.015  1.00  0.00    -0.297 OA
HETATM   18  C24 UNL     1       5.063   9.712  12.631  1.00  0.00     0.018 C 
HETATM   19  C25 UNL     1       3.848  10.587  12.969  1.00  0.00     0.023 C 
HETATM   20  C26 UNL     1       6.197  10.061  13.621  1.00  0.00     0.023 C 
HETATM   21  C27 UNL     1       4.787   8.162  12.637  1.00  0.00     0.020 C 
HETATM   22  C28 UNL     1       4.402   7.570  13.995  1.00  0.00     0.090 C 
HETATM   23  C29 UNL     1       2.966   7.841  14.348  1.00  0.00     0.157 C 
HETATM   24  O2  UNL     1       2.654   8.150  15.494  1.00  0.00    -0.293 OA
ENDROOT
BRANCH   1  25
HETATM   25  C6  UNL     1      -2.903   5.768  12.963  1.00  0.00    -0.014 C 
HETATM   26  C7  UNL     1      -3.641   5.090  14.120  1.00  0.00     0.010 C 
BRANCH  25  27
HETATM   27  C5  UNL     1      -2.430   4.739  11.906  1.00  0.00     0.008 C 
BRANCH  27  28
HETATM   28  C4  UNL     1      -3.526   3.793  11.384  1.00  0.00     0.028 C 
BRANCH  28  29
HETATM   29  C3  UNL     1      -4.800   3.837  12.180  1.00  0.00    -0.022 C 
HETATM   30  C2  UNL     1      -5.822   2.952  12.153  1.00  0.00    -0.064 C 
HETATM   31  C1  UNL     1      -5.823   1.711  11.300  1.00  0.00     0.045 C 
BRANCH  30  32
HETATM   32  C30 UNL     1      -7.094   3.124  12.958  1.00  0.00     0.197 C 
BRANCH  32  33
HETATM   33  O3  UNL     1      -8.132   2.262  12.513  1.00  0.00    -0.397 OA
HETATM   34  H46 UNL     1      -8.296   2.496  11.584  1.00  0.00     0.209 HD
ENDBRANCH  32  33
ENDBRANCH  30  32
ENDBRANCH  28  29
ENDBRANCH  27  28
ENDBRANCH  25  27
ENDBRANCH   1  25
TORSDOF 6
ENDMDL
MODEL 9
REMARK minimizedAffinity -8.26333046
REMARK  6 active torsions:
REMARK  status: ('A' for Active; 'I' for Inactive)
REMARK    1  A    between atoms: C2_2  and  C30_32 
REMARK    2  A    between atoms: C3_3  and  C4_4 
REMARK    3  A    between atoms: C4_4  and  C5_5 
REMARK    4  A    between atoms: C5_5  and  C6_6 
REMARK    5  A    between atoms: C6_6  and  C8_8 
REMARK    6  A    between atoms: C30_32  and  O3_33 
ROOT
HETATM    1  C8  UNL     1       6.863   9.854  14.143  1.00  0.00    -0.002 C 
HETATM    2  C9  UNL     1       7.934   8.956  13.462  1.00  0.00     0.007 C 
HETATM    3  C10 UNL     1       7.194   8.067  12.444  1.00  0.00     0.015 C 
HETATM    4  C11 UNL     1       5.813   8.730  12.262  1.00  0.00    -0.005 C 
HETATM    5  C12 UNL     1       5.997   9.899  11.244  1.00  0.00     0.021 C 
HETATM    6  C13 UNL     1       4.634   7.936  11.719  1.00  0.00    -0.000 C 
HETATM    7  C14 UNL     1       3.356   8.244  12.055  1.00  0.00    -0.060 C 
HETATM    8  C15 UNL     1       3.072   9.354  13.082  1.00  0.00     0.036 C 
HETATM    9  C16 UNL     1       4.278  10.064  13.735  1.00  0.00     0.015 C 
HETATM   10  C17 UNL     1       5.521   9.167  13.754  1.00  0.00    -0.028 C 
HETATM   11  C18 UNL     1       5.232   7.962  14.696  1.00  0.00     0.016 C 
HETATM   12  C19 UNL     1       2.118   7.512  11.483  1.00  0.00    -0.014 C 
HETATM   13  C20 UNL     1       1.564   6.591  12.606  1.00  0.00     0.020 C 
HETATM   14  C21 UNL     1       1.008   8.533  11.102  1.00  0.00     0.021 C 
HETATM   15  C22 UNL     1       0.071   8.017  10.025  1.00  0.00     0.080 C 
HETATM   16  C23 UNL     1       0.849   7.865   8.741  1.00  0.00     0.135 C 
HETATM   17  O1  UNL     1       0.341   8.194   7.669  1.00  0.00    -0.297 OA
HETATM   18  C24 UNL     1       2.277   7.292   8.836  1.00  0.00     0.018 C 
HETATM   19  C25 UNL     1       3.256   8.440   8.552  1.00  0.00     0.023 C 
HETATM   20  C26 UNL     1       2.415   6.251   7.701  1.00  0.00     0.023 C 
HETATM   21  C27 UNL     1       2.451   6.601  10.239  1.00  0.00     0.020 C 
HETATM   22  C28 UNL     1       3.782   5.874  10.450  1.00  0.00     0.090 C 
HETATM   23  C29 UNL     1       4.906   6.823  10.762  1.00  0.00     0.157 C 
HETATM   24  O2  UNL     1       6.017   6.656  10.268  1.00  0.00    -0.293 OA
ENDROOT
BRANCH   1  25
HETATM   25  C6  UNL     1       7.223  10.263  15.605  1.00  0.00    -0.014 C 
HETATM   26  C7  UNL     1       6.724  11.634  16.069  1.00  0.00     0.010 C 
BRANCH  25  27
HETATM   27  C5  UNL     1       8.736  10.082  15.883  1.00  0.00     0.008 C 
BRANCH  27  28
HETATM   28  C4  UNL     1       9.080   9.523  17.274  1.00  0.00     0.028 C 
BRANCH  28  29
HETATM   29  C3  UNL     1      10.156  10.290  17.991  1.00  0.00    -0.022 C 
HETATM   30  C2  UNL     1      10.005  11.168  19.008  1.00  0.00    -0.064 C 
HETATM   31  C1  UNL     1       8.673  11.503  19.626  1.00  0.00     0.045 C 
BRANCH  30  32
HETATM   32  C30 UNL     1      11.158  11.935  19.623  1.00  0.00     0.197 C 
BRANCH  32  33
HETATM   33  O3  UNL     1      12.071  11.084  20.300  1.00  0.00    -0.397 OA
HETATM   34  H46 UNL     1      11.559  10.642  20.999  1.00  0.00     0.209 HD
ENDBRANCH  32  33
ENDBRANCH  30  32
ENDBRANCH  28  29
ENDBRANCH  27  28
ENDBRANCH  25  27
ENDBRANCH   1  25
TORSDOF 6
ENDMDL
