MODEL 1
REMARK minimizedAffinity -6.20572138
REMARK CNNscore 0.666093767
REMARK CNNaffinity 6.92492867
REMARK  4 active torsions:
REMARK  status: ('A' for Active; 'I' for Inactive)
REMARK    1  A    between atoms: C4_4  and  C5_5 
REMARK    2  A    between atoms: C5_5  and  C6_6 
REMARK    3  A    between atoms: C6_6  and  C7_7 
REMARK    4  A    between atoms: C7_7  and  C9_9 
ROOT
HETATM    1  C9  UNL     1      -1.866  15.255   4.367  1.00  0.00    -0.002 C 
HETATM    2  C10 UNL     1      -2.738  15.122   3.080  1.00  0.00     0.006 C 
HETATM    3  C11 UNL     1      -1.792  14.796   1.908  1.00  0.00     0.011 C 
HETATM    4  C12 UNL     1      -0.460  14.415   2.575  1.00  0.00    -0.032 C 
HETATM    5  C13 UNL     1      -0.632  12.916   3.017  1.00  0.00     0.016 C 
HETATM    6  C14 UNL     1       0.845  14.468   1.711  1.00  0.00     0.004 C 
HETATM    7  C15 UNL     1       0.743  15.219   0.383  1.00  0.00     0.007 C 
HETATM    8  C16 UNL     1       2.036  15.167  -0.448  1.00  0.00     0.007 C 
HETATM    9  C17 UNL     1       3.250  14.466   0.218  1.00  0.00     0.010 C 
HETATM   10  C18 UNL     1       4.587  14.701  -0.560  1.00  0.00     0.018 C 
HETATM   11  C19 UNL     1       4.500  14.086  -1.972  1.00  0.00     0.023 C 
HETATM   12  C20 UNL     1       4.969  16.184  -0.708  1.00  0.00     0.023 C 
HETATM   13  C21 UNL     1       5.717  14.004   0.212  1.00  0.00     0.135 C 
HETATM   14  O1  UNL     1       6.508  13.224  -0.319  1.00  0.00    -0.297 OA
HETATM   15  C22 UNL     1       5.863  14.359   1.672  1.00  0.00     0.080 C 
HETATM   16  C23 UNL     1       4.556  14.082   2.387  1.00  0.00     0.018 C 
HETATM   17  C24 UNL     1       3.387  14.786   1.723  1.00  0.00    -0.026 A 
HETATM   18  C25 UNL     1       2.938  16.131   2.221  1.00  0.00     0.021 A 
HETATM   19  C26 UNL     1       2.079  14.906   2.529  1.00  0.00    -0.027 A 
HETATM   20  C27 UNL     1       2.006  14.525   4.001  1.00  0.00     0.011 C 
HETATM   21  C28 UNL     1       0.743  15.047   4.719  1.00  0.00     0.011 C 
HETATM   22  C29 UNL     1      -0.423  15.426   3.781  1.00  0.00    -0.032 C 
HETATM   23  C30 UNL     1      -0.252  16.912   3.348  1.00  0.00     0.016 C 
ENDROOT
BRANCH   1  24
HETATM   24  C7  UNL     1      -2.444  16.304   5.367  1.00  0.00    -0.014 C 
HETATM   25  C8  UNL     1      -2.676  15.702   6.757  1.00  0.00     0.010 C 
BRANCH  24  26
HETATM   26  C6  UNL     1      -3.770  16.895   4.808  1.00  0.00     0.008 C 
BRANCH  26  27
HETATM   27  C5  UNL     1      -4.651  17.582   5.860  1.00  0.00     0.028 C 
BRANCH  27  28
HETATM   28  C4  UNL     1      -6.096  17.198   5.678  1.00  0.00    -0.025 C 
HETATM   29  C2  UNL     1      -7.140  17.463   6.488  1.00  0.00    -0.091 C 
HETATM   30  C1  UNL     1      -8.527  17.001   6.122  1.00  0.00     0.042 C 
HETATM   31  C3  UNL     1      -7.069  18.214   7.789  1.00  0.00     0.042 C 
ENDBRANCH  27  28
ENDBRANCH  26  27
ENDBRANCH  24  26
ENDBRANCH   1  24
TORSDOF 4
ENDMDL
MODEL 2
REMARK minimizedAffinity -7.32042885
REMARK CNNscore 0.472559154
REMARK CNNaffinity 7.05853319
REMARK  4 active torsions:
REMARK  status: ('A' for Active; 'I' for Inactive)
REMARK    1  A    between atoms: C4_4  and  C5_5 
REMARK    2  A    between atoms: C5_5  and  C6_6 
REMARK    3  A    between atoms: C6_6  and  C7_7 
REMARK    4  A    between atoms: C7_7  and  C9_9 
ROOT
HETATM    1  C9  UNL     1       1.445   6.770  11.792  1.00  0.00    -0.002 C 
HETATM    2  C10 UNL     1       1.522   5.214  11.705  1.00  0.00     0.006 C 
HETATM    3  C11 UNL     1       0.111   4.660  11.983  1.00  0.00     0.011 C 
HETATM    4  C12 UNL     1      -0.815   5.886  11.890  1.00  0.00    -0.032 C 
HETATM    5  C13 UNL     1      -1.064   6.099  10.353  1.00  0.00     0.016 C 
HETATM    6  C14 UNL     1      -2.229   5.799  12.555  1.00  0.00     0.004 C 
HETATM    7  C15 UNL     1      -2.445   4.644  13.532  1.00  0.00     0.007 C 
HETATM    8  C16 UNL     1      -3.877   4.575  14.089  1.00  0.00     0.007 C 
HETATM    9  C17 UNL     1      -4.832   5.721  13.665  1.00  0.00     0.010 C 
HETATM   10  C18 UNL     1      -6.164   5.735  14.487  1.00  0.00     0.018 C 
HETATM   11  C19 UNL     1      -6.963   4.441  14.233  1.00  0.00     0.023 C 
HETATM   12  C20 UNL     1      -5.957   5.879  16.005  1.00  0.00     0.023 C 
HETATM   13  C21 UNL     1      -7.003   6.933  14.015  1.00  0.00     0.135 C 
HETATM   14  O1  UNL     1      -8.181   6.830  13.674  1.00  0.00    -0.297 OA
HETATM   15  C22 UNL     1      -6.331   8.284  14.037  1.00  0.00     0.080 C 
HETATM   16  C23 UNL     1      -5.068   8.229  13.201  1.00  0.00     0.018 C 
HETATM   17  C24 UNL     1      -4.147   7.106  13.641  1.00  0.00    -0.026 A 
HETATM   18  C25 UNL     1      -3.038   7.382  14.617  1.00  0.00     0.021 A 
HETATM   19  C26 UNL     1      -2.688   7.149  13.148  1.00  0.00    -0.027 A 
HETATM   20  C27 UNL     1      -2.123   8.362  12.422  1.00  0.00     0.011 C 
HETATM   21  C28 UNL     1      -0.581   8.374  12.333  1.00  0.00     0.011 C 
HETATM   22  C29 UNL     1       0.089   6.998  12.541  1.00  0.00    -0.032 C 
HETATM   23  C30 UNL     1       0.339   6.792  14.064  1.00  0.00     0.016 C 
ENDROOT
BRANCH   1  24
HETATM   24  C7  UNL     1       2.766   7.398  12.334  1.00  0.00    -0.014 C 
HETATM   25  C8  UNL     1       2.717   8.930  12.323  1.00  0.00     0.010 C 
BRANCH  24  26
HETATM   26  C6  UNL     1       3.977   6.892  11.498  1.00  0.00     0.008 C 
BRANCH  26  27
HETATM   27  C5  UNL     1       3.945   7.307  10.021  1.00  0.00     0.028 C 
BRANCH  27  28
HETATM   28  C4  UNL     1       2.527   7.483   9.548  1.00  0.00    -0.025 C 
HETATM   29  C2  UNL     1       2.083   8.146   8.461  1.00  0.00    -0.091 C 
HETATM   30  C1  UNL     1       0.611   8.197   8.145  1.00  0.00     0.042 C 
HETATM   31  C3  UNL     1       2.947   8.878   7.471  1.00  0.00     0.042 C 
ENDBRANCH  27  28
ENDBRANCH  26  27
ENDBRANCH  24  26
ENDBRANCH   1  24
TORSDOF 4
ENDMDL
MODEL 3
REMARK minimizedAffinity -6.18403864
REMARK CNNscore 0.452222794
REMARK CNNaffinity 6.17285967
REMARK  4 active torsions:
REMARK  status: ('A' for Active; 'I' for Inactive)
REMARK    1  A    between atoms: C4_4  and  C5_5 
REMARK    2  A    between atoms: C5_5  and  C6_6 
REMARK    3  A    between atoms: C6_6  and  C7_7 
REMARK    4  A    between atoms: C7_7  and  C9_9 
ROOT
HETATM    1  C9  UNL     1      -1.171  10.022  16.162  1.00  0.00    -0.002 C 
HETATM    2  C10 UNL     1       0.041  10.984  15.963  1.00  0.00     0.006 C 
HETATM    3  C11 UNL     1      -0.189  12.215  16.861  1.00  0.00     0.011 C 
HETATM    4  C12 UNL     1      -1.333  11.803  17.804  1.00  0.00    -0.032 C 
HETATM    5  C13 UNL     1      -0.650  10.950  18.933  1.00  0.00     0.016 C 
HETATM    6  C14 UNL     1      -2.136  12.932  18.534  1.00  0.00     0.004 C 
HETATM    7  C15 UNL     1      -1.950  14.349  17.992  1.00  0.00     0.007 C 
HETATM    8  C16 UNL     1      -2.707  15.416  18.801  1.00  0.00     0.007 C 
HETATM    9  C17 UNL     1      -3.605  14.891  19.953  1.00  0.00     0.010 C 
HETATM   10  C18 UNL     1      -4.548  15.996  20.536  1.00  0.00     0.018 C 
HETATM   11  C19 UNL     1      -3.716  17.131  21.168  1.00  0.00     0.023 C 
HETATM   12  C20 UNL     1      -5.494  16.620  19.495  1.00  0.00     0.023 C 
HETATM   13  C21 UNL     1      -5.415  15.353  21.629  1.00  0.00     0.135 C 
HETATM   14  O1  UNL     1      -5.525  15.828  22.760  1.00  0.00    -0.297 OA
HETATM   15  C22 UNL     1      -6.191  14.118  21.242  1.00  0.00     0.080 C 
HETATM   16  C23 UNL     1      -5.233  13.069  20.717  1.00  0.00     0.018 C 
HETATM   17  C24 UNL     1      -4.373  13.602  19.587  1.00  0.00    -0.026 A 
HETATM   18  C25 UNL     1      -4.793  13.390  18.159  1.00  0.00     0.021 A 
HETATM   19  C26 UNL     1      -3.627  12.574  18.715  1.00  0.00    -0.027 A 
HETATM   20  C27 UNL     1      -3.889  11.079  18.836  1.00  0.00     0.011 C 
HETATM   21  C28 UNL     1      -3.335  10.251  17.657  1.00  0.00     0.011 C 
HETATM   22  C29 UNL     1      -2.236  10.955  16.833  1.00  0.00    -0.032 C 
HETATM   23  C30 UNL     1      -2.915  11.796  15.712  1.00  0.00     0.016 C 
ENDROOT
BRANCH   1  24
HETATM   24  C7  UNL     1      -1.518   9.231  14.862  1.00  0.00    -0.014 C 
HETATM   25  C8  UNL     1      -1.065   9.976  13.601  1.00  0.00     0.010 C 
BRANCH  24  26
HETATM   26  C6  UNL     1      -3.047   8.952  14.803  1.00  0.00     0.008 C 
BRANCH  26  27
HETATM   27  C5  UNL     1      -3.553   8.481  13.432  1.00  0.00     0.028 C 
BRANCH  27  28
HETATM   28  C4  UNL     1      -4.969   7.979  13.532  1.00  0.00    -0.025 C 
HETATM   29  C2  UNL     1      -5.416   6.711  13.431  1.00  0.00    -0.091 C 
HETATM   30  C1  UNL     1      -6.885   6.405  13.574  1.00  0.00     0.042 C 
HETATM   31  C3  UNL     1      -4.561   5.500  13.181  1.00  0.00     0.042 C 
ENDBRANCH  27  28
ENDBRANCH  26  27
ENDBRANCH  24  26
ENDBRANCH   1  24
TORSDOF 4
ENDMDL
MODEL 4
REMARK minimizedAffinity -9.28114128
REMARK CNNscore 0.447125733
REMARK CNNaffinity 6.74579048
REMARK  4 active torsions:
REMARK  status: ('A' for Active; 'I' for Inactive)
REMARK    1  A    between atoms: C4_4  and  C5_5 
REMARK    2  A    between atoms: C5_5  and  C6_6 
REMARK    3  A    between atoms: C6_6  and  C7_7 
REMARK    4  A    between atoms: C7_7  and  C9_9 
ROOT
HETATM    1  C9  UNL     1      -2.217   8.144  15.106  1.00  0.00    -0.002 C 
HETATM    2  C10 UNL     1      -3.245   8.884  14.196  1.00  0.00     0.006 C 
HETATM    3  C11 UNL     1      -2.786   8.707  12.735  1.00  0.00     0.011 C 
HETATM    4  C12 UNL     1      -1.715   7.606  12.792  1.00  0.00    -0.032 C 
HETATM    5  C13 UNL     1      -2.515   6.253  12.836  1.00  0.00     0.016 C 
HETATM    6  C14 UNL     1      -0.713   7.482  11.596  1.00  0.00     0.004 C 
HETATM    7  C15 UNL     1      -0.657   8.672  10.638  1.00  0.00     0.007 C 
HETATM    8  C16 UNL     1       0.290   8.452   9.446  1.00  0.00     0.007 C 
HETATM    9  C17 UNL     1       1.103   7.132   9.453  1.00  0.00     0.010 C 
HETATM   10  C18 UNL     1       2.236   7.112   8.374  1.00  0.00     0.018 C 
HETATM   11  C19 UNL     1       1.628   7.195   6.959  1.00  0.00     0.023 C 
HETATM   12  C20 UNL     1       3.257   8.254   8.522  1.00  0.00     0.023 C 
HETATM   13  C21 UNL     1       2.998   5.785   8.506  1.00  0.00     0.135 C 
HETATM   14  O1  UNL     1       3.212   5.038   7.550  1.00  0.00    -0.297 OA
HETATM   15  C22 UNL     1       3.539   5.445   9.874  1.00  0.00     0.080 C 
HETATM   16  C23 UNL     1       2.402   5.443  10.875  1.00  0.00     0.018 C 
HETATM   17  C24 UNL     1       1.627   6.747  10.855  1.00  0.00    -0.026 A 
HETATM   18  C25 UNL     1       1.976   7.843  11.823  1.00  0.00     0.021 A 
HETATM   19  C26 UNL     1       0.696   7.039  12.047  1.00  0.00    -0.027 A 
HETATM   20  C27 UNL     1       0.694   6.168  13.296  1.00  0.00     0.011 C 
HETATM   21  C28 UNL     1      -0.018   6.811  14.505  1.00  0.00     0.011 C 
HETATM   22  C29 UNL     1      -0.993   7.954  14.147  1.00  0.00    -0.032 C 
HETATM   23  C30 UNL     1      -0.199   9.293  14.109  1.00  0.00     0.016 C 
ENDROOT
BRANCH   1  24
HETATM   24  C7  UNL     1      -2.039   8.845  16.489  1.00  0.00    -0.014 C 
HETATM   25  C8  UNL     1      -3.129   9.892  16.744  1.00  0.00     0.010 C 
BRANCH  24  26
HETATM   26  C6  UNL     1      -0.631   9.502  16.573  1.00  0.00     0.008 C 
BRANCH  26  27
HETATM   27  C5  UNL     1      -0.595  10.825  17.350  1.00  0.00     0.028 C 
BRANCH  27  28
HETATM   28  C4  UNL     1       0.275  10.701  18.572  1.00  0.00    -0.025 C 
HETATM   29  C2  UNL     1       0.472  11.604  19.554  1.00  0.00    -0.091 C 
HETATM   30  C1  UNL     1       1.380  11.285  20.714  1.00  0.00     0.042 C 
HETATM   31  C3  UNL     1      -0.152  12.970  19.623  1.00  0.00     0.042 C 
ENDBRANCH  27  28
ENDBRANCH  26  27
ENDBRANCH  24  26
ENDBRANCH   1  24
TORSDOF 4
ENDMDL
MODEL 5
REMARK minimizedAffinity -6.33808565
REMARK CNNscore 0.404731899
REMARK CNNaffinity 6.15309906
REMARK  4 active torsions:
REMARK  status: ('A' for Active; 'I' for Inactive)
REMARK    1  A    between atoms: C4_4  and  C5_5 
REMARK    2  A    between atoms: C5_5  and  C6_6 
REMARK    3  A    between atoms: C6_6  and  C7_7 
REMARK    4  A    between atoms: C7_7  and  C9_9 
ROOT
HETATM    1  C9  UNL     1     -14.673   6.468  22.756  1.00  0.00    -0.002 C 
HETATM    2  C10 UNL     1     -15.293   6.890  24.124  1.00  0.00     0.006 C 
HETATM    3  C11 UNL     1     -14.817   8.323  24.431  1.00  0.00     0.011 C 
HETATM    4  C12 UNL     1     -14.220   8.828  23.106  1.00  0.00    -0.032 C 
HETATM    5  C13 UNL     1     -15.454   9.287  22.246  1.00  0.00     0.016 C 
HETATM    6  C14 UNL     1     -13.241  10.048  23.150  1.00  0.00     0.004 C 
HETATM    7  C15 UNL     1     -12.688  10.419  24.527  1.00  0.00     0.007 C 
HETATM    8  C16 UNL     1     -11.794  11.670  24.509  1.00  0.00     0.007 C 
HETATM    9  C17 UNL     1     -11.512  12.290  23.115  1.00  0.00     0.010 C 
HETATM   10  C18 UNL     1     -10.382  13.372  23.150  1.00  0.00     0.018 C 
HETATM   11  C19 UNL     1     -10.809  14.562  24.034  1.00  0.00     0.023 C 
HETATM   12  C20 UNL     1      -9.034  12.847  23.674  1.00  0.00     0.023 C 
HETATM   13  C21 UNL     1     -10.161  13.877  21.716  1.00  0.00     0.135 C 
HETATM   14  O1  UNL     1     -10.157  15.073  21.422  1.00  0.00    -0.297 OA
HETATM   15  C22 UNL     1      -9.886  12.832  20.663  1.00  0.00     0.080 C 
HETATM   16  C23 UNL     1     -11.021  11.830  20.644  1.00  0.00     0.018 C 
HETATM   17  C24 UNL     1     -11.271  11.231  22.015  1.00  0.00    -0.026 A 
HETATM   18  C25 UNL     1     -10.628   9.927  22.395  1.00  0.00     0.021 A 
HETATM   19  C26 UNL     1     -12.124   9.950  22.088  1.00  0.00    -0.027 A 
HETATM   20  C27 UNL     1     -12.535   9.189  20.835  1.00  0.00     0.011 C 
HETATM   21  C28 UNL     1     -13.061   7.764  21.115  1.00  0.00     0.011 C 
HETATM   22  C29 UNL     1     -13.529   7.521  22.566  1.00  0.00    -0.032 C 
HETATM   23  C30 UNL     1     -12.306   7.063  23.414  1.00  0.00     0.016 C 
ENDROOT
BRANCH   1  24
HETATM   24  C7  UNL     1     -14.362   4.940  22.693  1.00  0.00    -0.014 C 
HETATM   25  C8  UNL     1     -15.588   4.125  22.266  1.00  0.00     0.010 C 
BRANCH  24  26
HETATM   26  C6  UNL     1     -13.842   4.448  24.074  1.00  0.00     0.008 C 
BRANCH  26  27
HETATM   27  C5  UNL     1     -14.091   2.959  24.350  1.00  0.00     0.028 C 
BRANCH  27  28
HETATM   28  C4  UNL     1     -13.511   2.560  25.681  1.00  0.00    -0.025 C 
HETATM   29  C2  UNL     1     -12.361   1.903  25.930  1.00  0.00    -0.091 C 
HETATM   30  C1  UNL     1     -11.942   1.606  27.347  1.00  0.00     0.042 C 
HETATM   31  C3  UNL     1     -11.394   1.408  24.890  1.00  0.00     0.042 C 
ENDBRANCH  27  28
ENDBRANCH  26  27
ENDBRANCH  24  26
ENDBRANCH   1  24
TORSDOF 4
ENDMDL
MODEL 6
REMARK minimizedAffinity -9.16226292
REMARK CNNscore 0.395832092
REMARK CNNaffinity 6.83435106
REMARK  4 active torsions:
REMARK  status: ('A' for Active; 'I' for Inactive)
REMARK    1  A    between atoms: C4_4  and  C5_5 
REMARK    2  A    between atoms: C5_5  and  C6_6 
REMARK    3  A    between atoms: C6_6  and  C7_7 
REMARK    4  A    between atoms: C7_7  and  C9_9 
ROOT
HETATM    1  C9  UNL     1      -2.803   8.233  15.218  1.00  0.00    -0.002 C 
HETATM    2  C10 UNL     1      -1.662   8.304  16.279  1.00  0.00     0.006 C 
HETATM    3  C11 UNL     1      -0.326   8.429  15.520  1.00  0.00     0.011 C 
HETATM    4  C12 UNL     1      -0.728   8.765  14.074  1.00  0.00    -0.032 C 
HETATM    5  C13 UNL     1      -1.016  10.311  14.075  1.00  0.00     0.016 C 
HETATM    6  C14 UNL     1       0.318   8.517  12.936  1.00  0.00     0.004 C 
HETATM    7  C15 UNL     1       1.517   7.643  13.302  1.00  0.00     0.007 C 
HETATM    8  C16 UNL     1       2.541   7.502  12.163  1.00  0.00     0.007 C 
HETATM    9  C17 UNL     1       2.158   8.166  10.814  1.00  0.00     0.010 C 
HETATM   10  C18 UNL     1       3.104   7.743   9.641  1.00  0.00     0.018 C 
HETATM   11  C19 UNL     1       4.546   8.214   9.920  1.00  0.00     0.023 C 
HETATM   12  C20 UNL     1       3.138   6.226   9.386  1.00  0.00     0.023 C 
HETATM   13  C21 UNL     1       2.603   8.421   8.357  1.00  0.00     0.135 C 
HETATM   14  O1  UNL     1       3.338   9.074   7.616  1.00  0.00    -0.297 OA
HETATM   15  C22 UNL     1       1.153   8.207   7.996  1.00  0.00     0.080 C 
HETATM   16  C23 UNL     1       0.279   8.663   9.147  1.00  0.00     0.018 C 
HETATM   17  C24 UNL     1       0.666   7.993  10.452  1.00  0.00    -0.026 A 
HETATM   18  C25 UNL     1      -0.047   6.748  10.899  1.00  0.00     0.021 A 
HETATM   19  C26 UNL     1      -0.342   8.065  11.615  1.00  0.00    -0.027 A 
HETATM   20  C27 UNL     1      -1.754   8.600  11.420  1.00  0.00     0.011 C 
HETATM   21  C28 UNL     1      -2.716   8.261  12.579  1.00  0.00     0.011 C 
HETATM   22  C29 UNL     1      -2.022   7.884  13.905  1.00  0.00    -0.032 C 
HETATM   23  C30 UNL     1      -1.741   6.353  13.904  1.00  0.00     0.016 C 
ENDROOT
BRANCH   1  24
HETATM   24  C7  UNL     1      -3.995   7.344  15.690  1.00  0.00    -0.014 C 
HETATM   25  C8  UNL     1      -3.683   5.849  15.553  1.00  0.00     0.010 C 
BRANCH  24  26
HETATM   26  C6  UNL     1      -5.276   7.703  14.883  1.00  0.00     0.008 C 
BRANCH  26  27
HETATM   27  C5  UNL     1      -5.436   6.927  13.569  1.00  0.00     0.028 C 
BRANCH  27  28
HETATM   28  C4  UNL     1      -6.498   5.868  13.702  1.00  0.00    -0.025 C 
HETATM   29  C2  UNL     1      -6.426   4.564  13.367  1.00  0.00    -0.091 C 
HETATM   30  C1  UNL     1      -7.604   3.651  13.592  1.00  0.00     0.042 C 
HETATM   31  C3  UNL     1      -5.230   3.881  12.763  1.00  0.00     0.042 C 
ENDBRANCH  27  28
ENDBRANCH  26  27
ENDBRANCH  24  26
ENDBRANCH   1  24
TORSDOF 4
ENDMDL
MODEL 7
REMARK minimizedAffinity -7.79654598
REMARK CNNscore 0.3752065
REMARK CNNaffinity 6.54825354
REMARK  4 active torsions:
REMARK  status: ('A' for Active; 'I' for Inactive)
REMARK    1  A    between atoms: C4_4  and  C5_5 
REMARK    2  A    between atoms: C5_5  and  C6_6 
REMARK    3  A    between atoms: C6_6  and  C7_7 
REMARK    4  A    between atoms: C7_7  and  C9_9 
ROOT
HETATM    1  C9  UNL     1      -1.697   5.766  12.082  1.00  0.00    -0.002 C 
HETATM    2  C10 UNL     1      -2.383   4.819  13.114  1.00  0.00     0.006 C 
HETATM    3  C11 UNL     1      -2.848   5.683  14.303  1.00  0.00     0.011 C 
HETATM    4  C12 UNL     1      -2.735   7.132  13.801  1.00  0.00    -0.032 C 
HETATM    5  C13 UNL     1      -4.035   7.377  12.952  1.00  0.00     0.016 C 
HETATM    6  C14 UNL     1      -2.682   8.283  14.861  1.00  0.00     0.004 C 
HETATM    7  C15 UNL     1      -2.399   7.859  16.302  1.00  0.00     0.007 C 
HETATM    8  C16 UNL     1      -2.436   9.027  17.301  1.00  0.00     0.007 C 
HETATM    9  C17 UNL     1      -2.647  10.440  16.693  1.00  0.00     0.010 C 
HETATM   10  C18 UNL     1      -2.391  11.587  17.726  1.00  0.00     0.018 C 
HETATM   11  C19 UNL     1      -3.405  11.500  18.885  1.00  0.00     0.023 C 
HETATM   12  C20 UNL     1      -0.975  11.579  18.329  1.00  0.00     0.023 C 
HETATM   13  C21 UNL     1      -2.583  12.930  17.005  1.00  0.00     0.135 C 
HETATM   14  O1  UNL     1      -3.310  13.824  17.438  1.00  0.00    -0.297 OA
HETATM   15  C22 UNL     1      -1.784  13.142  15.741  1.00  0.00     0.080 C 
HETATM   16  C23 UNL     1      -2.092  12.027  14.762  1.00  0.00     0.018 C 
HETATM   17  C24 UNL     1      -1.870  10.658  15.376  1.00  0.00    -0.026 A 
HETATM   18  C25 UNL     1      -0.556   9.952  15.185  1.00  0.00     0.021 A 
HETATM   19  C26 UNL     1      -1.780   9.455  14.417  1.00  0.00    -0.027 A 
HETATM   20  C27 UNL     1      -1.709   9.636  12.907  1.00  0.00     0.011 C 
HETATM   21  C28 UNL     1      -1.261   8.370  12.146  1.00  0.00     0.011 C 
HETATM   22  C29 UNL     1      -1.424   7.052  12.934  1.00  0.00    -0.032 C 
HETATM   23  C30 UNL     1      -0.133   6.809  13.771  1.00  0.00     0.016 C 
ENDROOT
BRANCH   1  24
HETATM   24  C7  UNL     1      -0.536   5.063  11.313  1.00  0.00    -0.014 C 
HETATM   25  C8  UNL     1       0.064   3.905  12.119  1.00  0.00     0.010 C 
BRANCH  24  26
HETATM   26  C6  UNL     1       0.568   6.099  10.956  1.00  0.00     0.008 C 
BRANCH  26  27
HETATM   27  C5  UNL     1       0.401   6.753   9.577  1.00  0.00     0.028 C 
BRANCH  27  28
HETATM   28  C4  UNL     1       1.558   7.670   9.279  1.00  0.00    -0.025 C 
HETATM   29  C2  UNL     1       2.167   7.890   8.097  1.00  0.00    -0.091 C 
HETATM   30  C1  UNL     1       3.311   8.867   7.998  1.00  0.00     0.042 C 
HETATM   31  C3  UNL     1       1.808   7.234   6.792  1.00  0.00     0.042 C 
ENDBRANCH  27  28
ENDBRANCH  26  27
ENDBRANCH  24  26
ENDBRANCH   1  24
TORSDOF 4
ENDMDL
MODEL 8
REMARK minimizedAffinity -7.10513353
REMARK CNNscore 0.255833685
REMARK CNNaffinity 6.78340101
REMARK  4 active torsions:
REMARK  status: ('A' for Active; 'I' for Inactive)
REMARK    1  A    between atoms: C4_4  and  C5_5 
REMARK    2  A    between atoms: C5_5  and  C6_6 
REMARK    3  A    between atoms: C6_6  and  C7_7 
REMARK    4  A    between atoms: C7_7  and  C9_9 
ROOT
HETATM    1  C9  UNL     1      -5.225   5.513  14.066  1.00  0.00    -0.002 C 
HETATM    2  C10 UNL     1      -4.660   6.596  15.036  1.00  0.00     0.006 C 
HETATM    3  C11 UNL     1      -5.856   7.398  15.587  1.00  0.00     0.011 C 
HETATM    4  C12 UNL     1      -7.092   6.567  15.204  1.00  0.00    -0.032 C 
HETATM    5  C13 UNL     1      -7.185   5.439  16.294  1.00  0.00     0.016 C 
HETATM    6  C14 UNL     1      -8.488   7.277  15.190  1.00  0.00     0.004 C 
HETATM    7  C15 UNL     1      -8.466   8.806  15.218  1.00  0.00     0.007 C 
HETATM    8  C16 UNL     1      -9.868   9.435  15.279  1.00  0.00     0.007 C 
HETATM    9  C17 UNL     1     -11.064   8.449  15.198  1.00  0.00     0.010 C 
HETATM   10  C18 UNL     1     -12.434   9.176  14.983  1.00  0.00     0.018 C 
HETATM   11  C19 UNL     1     -12.752  10.087  16.186  1.00  0.00     0.023 C 
HETATM   12  C20 UNL     1     -12.489  10.033  13.706  1.00  0.00     0.023 C 
HETATM   13  C21 UNL     1     -13.529   8.104  14.872  1.00  0.00     0.135 C 
HETATM   14  O1  UNL     1     -14.561   8.132  15.544  1.00  0.00    -0.297 OA
HETATM   15  C22 UNL     1     -13.317   7.018  13.846  1.00  0.00     0.080 C 
HETATM   16  C23 UNL     1     -11.998   6.324  14.118  1.00  0.00     0.018 C 
HETATM   17  C24 UNL     1     -10.843   7.306  14.183  1.00  0.00    -0.026 A 
HETATM   18  C25 UNL     1     -10.016   7.577  12.957  1.00  0.00     0.021 A 
HETATM   19  C26 UNL     1      -9.416   6.735  14.082  1.00  0.00    -0.027 A 
HETATM   20  C27 UNL     1      -9.160   5.277  13.726  1.00  0.00     0.011 C 
HETATM   21  C28 UNL     1      -7.701   4.980  13.319  1.00  0.00     0.011 C 
HETATM   22  C29 UNL     1      -6.674   6.036  13.783  1.00  0.00    -0.032 C 
HETATM   23  C30 UNL     1      -6.580   7.150  12.699  1.00  0.00     0.016 C 
ENDROOT
BRANCH   1  24
HETATM   24  C7  UNL     1      -4.248   5.207  12.888  1.00  0.00    -0.014 C 
HETATM   25  C8  UNL     1      -4.605   3.897  12.175  1.00  0.00     0.010 C 
BRANCH  24  26
HETATM   26  C6  UNL     1      -2.785   5.152  13.413  1.00  0.00     0.008 C 
BRANCH  26  27
HETATM   27  C5  UNL     1      -1.809   6.074  12.668  1.00  0.00     0.028 C 
BRANCH  27  28
HETATM   28  C4  UNL     1      -1.746   7.426  13.326  1.00  0.00    -0.025 C 
HETATM   29  C2  UNL     1      -1.441   8.615  12.769  1.00  0.00    -0.091 C 
HETATM   30  C1  UNL     1      -1.445   9.872  13.599  1.00  0.00     0.042 C 
HETATM   31  C3  UNL     1      -1.079   8.837  11.325  1.00  0.00     0.042 C 
ENDBRANCH  27  28
ENDBRANCH  26  27
ENDBRANCH  24  26
ENDBRANCH   1  24
TORSDOF 4
ENDMDL
MODEL 9
REMARK minimizedAffinity -7.235425
REMARK CNNscore 0.242312327
REMARK CNNaffinity 6.05165911
REMARK  4 active torsions:
REMARK  status: ('A' for Active; 'I' for Inactive)
REMARK    1  A    between atoms: C4_4  and  C5_5 
REMARK    2  A    between atoms: C5_5  and  C6_6 
REMARK    3  A    between atoms: C6_6  and  C7_7 
REMARK    4  A    between atoms: C7_7  and  C9_9 
ROOT
HETATM    1  C9  UNL     1       1.735  11.512  17.629  1.00  0.00    -0.002 C 
HETATM    2  C10 UNL     1       3.195  12.019  17.413  1.00  0.00     0.006 C 
HETATM    3  C11 UNL     1       3.627  11.604  15.993  1.00  0.00     0.011 C 
HETATM    4  C12 UNL     1       2.325  11.173  15.298  1.00  0.00    -0.032 C 
HETATM    5  C13 UNL     1       1.642  12.511  14.835  1.00  0.00     0.016 C 
HETATM    6  C14 UNL     1       2.427  10.271  14.023  1.00  0.00     0.004 C 
HETATM    7  C15 UNL     1       3.783   9.609  13.774  1.00  0.00     0.007 C 
HETATM    8  C16 UNL     1       3.835   8.800  12.467  1.00  0.00     0.007 C 
HETATM    9  C17 UNL     1       2.506   8.696  11.673  1.00  0.00     0.010 C 
HETATM   10  C18 UNL     1       2.570   7.637  10.522  1.00  0.00     0.018 C 
HETATM   11  C19 UNL     1       3.626   8.047   9.475  1.00  0.00     0.023 C 
HETATM   12  C20 UNL     1       2.902   6.213  11.004  1.00  0.00     0.023 C 
HETATM   13  C21 UNL     1       1.193   7.589   9.841  1.00  0.00     0.135 C 
HETATM   14  O1  UNL     1       1.046   7.688   8.623  1.00  0.00    -0.297 OA
HETATM   15  C22 UNL     1       0.001   7.355  10.736  1.00  0.00     0.080 C 
HETATM   16  C23 UNL     1      -0.036   8.423  11.810  1.00  0.00     0.018 C 
HETATM   17  C24 UNL     1       1.270   8.500  12.578  1.00  0.00    -0.026 A 
HETATM   18  C25 UNL     1       1.430   7.743  13.867  1.00  0.00     0.021 A 
HETATM   19  C26 UNL     1       1.264   9.261  13.918  1.00  0.00    -0.027 A 
HETATM   20  C27 UNL     1      -0.029   9.746  14.559  1.00  0.00     0.011 C 
HETATM   21  C28 UNL     1       0.123  10.152  16.040  1.00  0.00     0.011 C 
HETATM   22  C29 UNL     1       1.571  10.459  16.481  1.00  0.00    -0.032 C 
HETATM   23  C30 UNL     1       2.243   9.133  16.943  1.00  0.00     0.016 C 
ENDROOT
BRANCH   1  24
HETATM   24  C7  UNL     1       1.460  11.115  19.113  1.00  0.00    -0.014 C 
HETATM   25  C8  UNL     1       0.028  11.459  19.541  1.00  0.00     0.010 C 
BRANCH  24  26
HETATM   26  C6  UNL     1       2.485  11.819  20.049  1.00  0.00     0.008 C 
BRANCH  26  27
HETATM   27  C5  UNL     1       3.560  10.888  20.625  1.00  0.00     0.028 C 
BRANCH  27  28
HETATM   28  C4  UNL     1       2.936   9.641  21.193  1.00  0.00    -0.025 C 
HETATM   29  C2  UNL     1       2.750   9.313  22.487  1.00  0.00    -0.091 C 
HETATM   30  C1  UNL     1       2.086   8.012  22.858  1.00  0.00     0.042 C 
HETATM   31  C3  UNL     1       3.152  10.153  23.668  1.00  0.00     0.042 C 
ENDBRANCH  27  28
ENDBRANCH  26  27
ENDBRANCH  24  26
ENDBRANCH   1  24
TORSDOF 4
ENDMDL
