MODEL 1
REMARK minimizedAffinity -9.96264553
REMARK CNNscore 0.730862558
REMARK CNNaffinity 7.35831976
REMARK  8 active torsions:
REMARK  status: ('A' for Active; 'I' for Inactive)
REMARK    1  A    between atoms: C2_2  and  C3_3 
REMARK    2  A    between atoms: C2_2  and  C27_30 
REMARK    3  A    between atoms: C3_3  and  C4_4 
REMARK    4  A    between atoms: C4_4  and  C5_5 
REMARK    5  A    between atoms: C5_5  and  C7_7 
REMARK    6  A    between atoms: C26_28  and  O3_29 
REMARK    7  A    between atoms: C27_30  and  C29_32 
REMARK    8  A    between atoms: C29_32  and  O5_34 
ROOT
HETATM    1  C7  UNL     1      -2.089   5.666  12.276  1.00  0.00    -0.002 C 
HETATM    2  C8  UNL     1      -2.640   4.374  11.614  1.00  0.00     0.006 C 
HETATM    3  C9  UNL     1      -4.107   4.256  12.045  1.00  0.00     0.010 C 
HETATM    4  C10 UNL     1      -4.434   5.616  12.668  1.00  0.00     0.027 C 
HETATM    5  C11 UNL     1      -5.686   5.863  13.491  1.00  0.00    -0.036 C 
HETATM    6  C12 UNL     1      -5.739   6.900  14.368  1.00  0.00     0.002 C 
HETATM    7  C13 UNL     1      -4.475   7.701  14.629  1.00  0.00     0.157 C 
HETATM    8  O1  UNL     1      -4.453   8.588  15.483  1.00  0.00    -0.293 OA
HETATM    9  C14 UNL     1      -3.225   7.436  13.807  1.00  0.00     0.093 C 
HETATM   10  C15 UNL     1      -3.116   5.967  13.410  1.00  0.00    -0.026 C 
HETATM   11  C16 UNL     1      -2.902   5.099  14.671  1.00  0.00     0.016 C 
HETATM   12  C17 UNL     1      -7.023   7.312  15.123  1.00  0.00    -0.008 C 
HETATM   13  C18 UNL     1      -6.874   6.780  16.573  1.00  0.00     0.021 C 
HETATM   14  C19 UNL     1      -7.217   8.865  15.165  1.00  0.00     0.022 C 
HETATM   15  C20 UNL     1      -8.660   9.367  15.136  1.00  0.00     0.080 C 
HETATM   16  C21 UNL     1      -9.613   8.385  15.760  1.00  0.00     0.131 C 
HETATM   17  O2  UNL     1     -10.426   8.731  16.617  1.00  0.00    -0.298 OA
HETATM   18  C22 UNL     1      -9.587   6.964  15.218  1.00  0.00     0.056 C 
HETATM   19  C23 UNL     1     -10.854   6.743  14.389  1.00  0.00     0.018 C 
HETATM   20  C24 UNL     1      -8.289   6.717  14.410  1.00  0.00     0.012 C 
HETATM   21  C25 UNL     1      -8.097   5.233  14.101  1.00  0.00     0.042 C 
HETATM   22  C26 UNL     1      -6.887   4.996  13.197  1.00  0.00     0.148 C 
ENDROOT
BRANCH   1  23
HETATM   23  C5  UNL     1      -0.551   5.625  12.498  1.00  0.00    -0.014 C 
HETATM   24  C6  UNL     1      -0.083   5.630  13.961  1.00  0.00     0.010 C 
BRANCH  23  25
HETATM   25  C4  UNL     1       0.238   6.709  11.732  1.00  0.00     0.009 C 
BRANCH  25  26
HETATM   26  C3  UNL     1       0.919   6.286  10.420  1.00  0.00     0.034 C 
BRANCH  26  27
HETATM   27  C2  UNL     1       1.039   7.381   9.371  1.00  0.00    -0.075 C 
HETATM   28  C1  UNL     1       0.114   8.360   9.339  1.00  0.00     0.015 C 
BRANCH  27  29
HETATM   29  C27 UNL     1       2.200   7.278   8.382  1.00  0.00     0.107 C 
HETATM   30  C28 UNL     1       1.835   7.218   6.895  1.00  0.00     0.026 C 
BRANCH  29  31
HETATM   31  C29 UNL     1       3.103   6.104   8.742  1.00  0.00     0.147 C 
HETATM   32  O4  UNL     1       3.034   4.981   8.260  1.00  0.00    -0.650 OA
BRANCH  31  33
HETATM   33  O5  UNL     1       4.067   6.396   9.637  1.00  0.00    -0.776 OA
HETATM   34  H42 UNL     1       4.573   5.561   9.726  1.00  0.00     0.167 HD
ENDBRANCH  31  33
ENDBRANCH  29  31
ENDBRANCH  27  29
ENDBRANCH  26  27
ENDBRANCH  25  26
ENDBRANCH  23  25
ENDBRANCH   1  23
BRANCH  22  35
HETATM   35  O3  UNL     1      -6.539   3.627  13.358  1.00  0.00    -0.391 OA
HETATM   36  H37 UNL     1      -7.219   3.103  12.900  1.00  0.00     0.210 HD
ENDBRANCH  22  35
TORSDOF 8
ENDMDL
MODEL 2
REMARK minimizedAffinity -8.31639767
REMARK CNNscore 0.691843987
REMARK CNNaffinity 6.96804047
REMARK  8 active torsions:
REMARK  status: ('A' for Active; 'I' for Inactive)
REMARK    1  A    between atoms: C2_2  and  C3_3 
REMARK    2  A    between atoms: C2_2  and  C27_30 
REMARK    3  A    between atoms: C3_3  and  C4_4 
REMARK    4  A    between atoms: C4_4  and  C5_5 
REMARK    5  A    between atoms: C5_5  and  C7_7 
REMARK    6  A    between atoms: C26_28  and  O3_29 
REMARK    7  A    between atoms: C27_30  and  C29_32 
REMARK    8  A    between atoms: C29_32  and  O5_34 
ROOT
HETATM    1  C7  UNL     1      -8.321   7.766  14.624  1.00  0.00    -0.002 C 
HETATM    2  C8  UNL     1      -7.407   8.809  15.320  1.00  0.00     0.006 C 
HETATM    3  C9  UNL     1      -5.962   8.387  15.026  1.00  0.00     0.010 C 
HETATM    4  C10 UNL     1      -6.091   7.322  13.933  1.00  0.00     0.027 C 
HETATM    5  C11 UNL     1      -4.941   6.415  13.532  1.00  0.00    -0.036 C 
HETATM    6  C12 UNL     1      -5.183   5.234  12.905  1.00  0.00     0.002 C 
HETATM    7  C13 UNL     1      -6.621   4.763  12.763  1.00  0.00     0.157 C 
HETATM    8  O1  UNL     1      -6.880   3.658  12.287  1.00  0.00    -0.293 OA
HETATM    9  C14 UNL     1      -7.761   5.675  13.181  1.00  0.00     0.093 C 
HETATM   10  C15 UNL     1      -7.371   6.557  14.363  1.00  0.00    -0.026 C 
HETATM   11  C16 UNL     1      -7.142   5.681  15.615  1.00  0.00     0.016 C 
HETATM   12  C17 UNL     1      -4.069   4.332  12.326  1.00  0.00    -0.008 C 
HETATM   13  C18 UNL     1      -3.882   3.161  13.326  1.00  0.00     0.021 C 
HETATM   14  C19 UNL     1      -4.443   3.752  10.920  1.00  0.00     0.022 C 
HETATM   15  C20 UNL     1      -3.286   3.549   9.943  1.00  0.00     0.080 C 
HETATM   16  C21 UNL     1      -1.990   3.263  10.652  1.00  0.00     0.131 C 
HETATM   17  O2  UNL     1      -1.281   2.308  10.337  1.00  0.00    -0.298 OA
HETATM   18  C22 UNL     1      -1.554   4.261  11.713  1.00  0.00     0.056 C 
HETATM   19  C23 UNL     1      -0.375   5.065  11.161  1.00  0.00     0.018 C 
HETATM   20  C24 UNL     1      -2.745   5.155  12.137  1.00  0.00     0.012 C 
HETATM   21  C25 UNL     1      -2.419   5.963  13.392  1.00  0.00     0.042 C 
HETATM   22  C26 UNL     1      -3.540   6.941  13.742  1.00  0.00     0.148 C 
ENDROOT
BRANCH   1  23
HETATM   23  C5  UNL     1      -9.715   7.633  15.302  1.00  0.00    -0.014 C 
HETATM   24  C6  UNL     1     -10.806   6.948  14.464  1.00  0.00     0.010 C 
BRANCH  23  25
HETATM   25  C4  UNL     1     -10.288   8.955  15.859  1.00  0.00     0.009 C 
BRANCH  25  26
HETATM   26  C3  UNL     1     -10.536   9.029  17.373  1.00  0.00     0.034 C 
BRANCH  26  27
HETATM   27  C2  UNL     1     -11.861   9.653  17.782  1.00  0.00    -0.075 C 
HETATM   28  C1  UNL     1     -12.937   9.483  16.988  1.00  0.00     0.015 C 
BRANCH  27  29
HETATM   29  C27 UNL     1     -11.879  10.476  19.070  1.00  0.00     0.107 C 
HETATM   30  C28 UNL     1     -10.819  11.576  19.199  1.00  0.00     0.026 C 
BRANCH  29  31
HETATM   31  C29 UNL     1     -11.828   9.561  20.287  1.00  0.00     0.147 C 
HETATM   32  O4  UNL     1     -10.881   9.455  21.056  1.00  0.00    -0.650 OA
BRANCH  31  33
HETATM   33  O5  UNL     1     -12.962   8.869  20.513  1.00  0.00    -0.776 OA
HETATM   34  H42 UNL     1     -12.779   8.371  21.338  1.00  0.00     0.167 HD
ENDBRANCH  31  33
ENDBRANCH  29  31
ENDBRANCH  27  29
ENDBRANCH  26  27
ENDBRANCH  25  26
ENDBRANCH  23  25
ENDBRANCH   1  23
BRANCH  22  35
HETATM   35  O3  UNL     1      -3.357   7.274  15.112  1.00  0.00    -0.391 OA
HETATM   36  H37 UNL     1      -2.579   7.858  15.163  1.00  0.00     0.210 HD
ENDBRANCH  22  35
TORSDOF 8
ENDMDL
MODEL 3
REMARK minimizedAffinity -7.63077021
REMARK CNNscore 0.666861176
REMARK CNNaffinity 6.90423441
REMARK  8 active torsions:
REMARK  status: ('A' for Active; 'I' for Inactive)
REMARK    1  A    between atoms: C2_2  and  C3_3 
REMARK    2  A    between atoms: C2_2  and  C27_30 
REMARK    3  A    between atoms: C3_3  and  C4_4 
REMARK    4  A    between atoms: C4_4  and  C5_5 
REMARK    5  A    between atoms: C5_5  and  C7_7 
REMARK    6  A    between atoms: C26_28  and  O3_29 
REMARK    7  A    between atoms: C27_30  and  C29_32 
REMARK    8  A    between atoms: C29_32  and  O5_34 
ROOT
HETATM    1  C7  UNL     1      -9.950   8.837  14.545  1.00  0.00    -0.002 C 
HETATM    2  C8  UNL     1      -8.943   9.709  15.342  1.00  0.00     0.006 C 
HETATM    3  C9  UNL     1      -7.597   8.976  15.292  1.00  0.00     0.010 C 
HETATM    4  C10 UNL     1      -7.792   7.893  14.227  1.00  0.00     0.027 C 
HETATM    5  C11 UNL     1      -6.819   6.741  14.040  1.00  0.00    -0.036 C 
HETATM    6  C12 UNL     1      -7.217   5.599  13.421  1.00  0.00     0.002 C 
HETATM    7  C13 UNL     1      -8.686   5.431  13.071  1.00  0.00     0.157 C 
HETATM    8  O1  UNL     1      -9.106   4.376  12.595  1.00  0.00    -0.293 OA
HETATM    9  C14 UNL     1      -9.651   6.586  13.275  1.00  0.00     0.093 C 
HETATM   10  C15 UNL     1      -9.256   7.442  14.475  1.00  0.00    -0.026 C 
HETATM   11  C16 UNL     1      -9.407   6.620  15.775  1.00  0.00     0.016 C 
HETATM   12  C17 UNL     1      -6.251   4.449  13.053  1.00  0.00    -0.008 C 
HETATM   13  C18 UNL     1      -6.471   3.332  14.107  1.00  0.00     0.021 C 
HETATM   14  C19 UNL     1      -6.533   3.870  11.625  1.00  0.00     0.022 C 
HETATM   15  C20 UNL     1      -5.316   3.367  10.849  1.00  0.00     0.080 C 
HETATM   16  C21 UNL     1      -4.231   2.863  11.761  1.00  0.00     0.131 C 
HETATM   17  O2  UNL     1      -3.707   1.763  11.592  1.00  0.00    -0.298 OA
HETATM   18  C22 UNL     1      -3.749   3.815  12.844  1.00  0.00     0.056 C 
HETATM   19  C23 UNL     1      -2.357   4.317  12.459  1.00  0.00     0.018 C 
HETATM   20  C24 UNL     1      -4.768   4.964  13.048  1.00  0.00     0.012 C 
HETATM   21  C25 UNL     1      -4.462   5.765  14.312  1.00  0.00     0.042 C 
HETATM   22  C26 UNL     1      -5.384   6.976  14.451  1.00  0.00     0.148 C 
ENDROOT
BRANCH   1  23
HETATM   23  C5  UNL     1     -11.423   9.042  15.000  1.00  0.00    -0.014 C 
HETATM   24  C6  UNL     1     -11.633   9.304  16.499  1.00  0.00     0.010 C 
BRANCH  23  25
HETATM   25  C4  UNL     1     -12.393   7.922  14.562  1.00  0.00     0.009 C 
BRANCH  25  26
HETATM   26  C3  UNL     1     -13.738   7.832  15.297  1.00  0.00     0.034 C 
BRANCH  26  27
HETATM   27  C2  UNL     1     -14.884   8.593  14.648  1.00  0.00    -0.075 C 
HETATM   28  C1  UNL     1     -15.190   9.825  15.101  1.00  0.00     0.015 C 
BRANCH  27  29
HETATM   29  C27 UNL     1     -15.648   7.887  13.529  1.00  0.00     0.107 C 
HETATM   30  C28 UNL     1     -15.570   6.356  13.500  1.00  0.00     0.026 C 
BRANCH  29  31
HETATM   31  C29 UNL     1     -15.248   8.451  12.172  1.00  0.00     0.147 C 
HETATM   32  O4  UNL     1     -14.347   9.256  11.975  1.00  0.00    -0.650 OA
BRANCH  31  33
HETATM   33  O5  UNL     1     -15.949   7.955  11.132  1.00  0.00    -0.776 OA
HETATM   34  H42 UNL     1     -15.548   8.383  10.346  1.00  0.00     0.167 HD
ENDBRANCH  31  33
ENDBRANCH  29  31
ENDBRANCH  27  29
ENDBRANCH  26  27
ENDBRANCH  25  26
ENDBRANCH  23  25
ENDBRANCH   1  23
BRANCH  22  35
HETATM   35  O3  UNL     1      -5.335   7.352  15.821  1.00  0.00    -0.391 OA
HETATM   36  H37 UNL     1      -4.466   7.762  15.975  1.00  0.00     0.210 HD
ENDBRANCH  22  35
TORSDOF 8
ENDMDL
MODEL 4
REMARK minimizedAffinity -9.09932232
REMARK CNNscore 0.637927413
REMARK CNNaffinity 6.83388138
REMARK  8 active torsions:
REMARK  status: ('A' for Active; 'I' for Inactive)
REMARK    1  A    between atoms: C2_2  and  C3_3 
REMARK    2  A    between atoms: C2_2  and  C27_30 
REMARK    3  A    between atoms: C3_3  and  C4_4 
REMARK    4  A    between atoms: C4_4  and  C5_5 
REMARK    5  A    between atoms: C5_5  and  C7_7 
REMARK    6  A    between atoms: C26_28  and  O3_29 
REMARK    7  A    between atoms: C27_30  and  C29_32 
REMARK    8  A    between atoms: C29_32  and  O5_34 
ROOT
HETATM    1  C7  UNL     1      -7.779   7.935  14.551  1.00  0.00    -0.002 C 
HETATM    2  C8  UNL     1      -6.803   8.831  15.359  1.00  0.00     0.006 C 
HETATM    3  C9  UNL     1      -5.396   8.270  15.117  1.00  0.00     0.010 C 
HETATM    4  C10 UNL     1      -5.571   7.288  13.955  1.00  0.00     0.027 C 
HETATM    5  C11 UNL     1      -4.502   6.284  13.560  1.00  0.00    -0.036 C 
HETATM    6  C12 UNL     1      -4.830   5.174  12.850  1.00  0.00     0.002 C 
HETATM    7  C13 UNL     1      -6.299   4.873  12.601  1.00  0.00     0.157 C 
HETATM    8  O1  UNL     1      -6.645   3.831  12.044  1.00  0.00    -0.293 OA
HETATM    9  C14 UNL     1      -7.359   5.879  13.013  1.00  0.00     0.093 C 
HETATM   10  C15 UNL     1      -6.949   6.646  14.267  1.00  0.00    -0.026 C 
HETATM   11  C16 UNL     1      -6.890   5.680  15.472  1.00  0.00     0.016 C 
HETATM   12  C17 UNL     1      -3.785   4.189  12.276  1.00  0.00    -0.008 C 
HETATM   13  C18 UNL     1      -3.784   2.950  13.209  1.00  0.00     0.021 C 
HETATM   14  C19 UNL     1      -4.134   3.733  10.819  1.00  0.00     0.022 C 
HETATM   15  C20 UNL     1      -2.948   3.460   9.895  1.00  0.00     0.080 C 
HETATM   16  C21 UNL     1      -1.735   2.994  10.653  1.00  0.00     0.131 C 
HETATM   17  O2  UNL     1      -1.114   1.986  10.318  1.00  0.00    -0.298 OA
HETATM   18  C22 UNL     1      -1.260   3.877  11.796  1.00  0.00     0.056 C 
HETATM   19  C23 UNL     1       0.029   4.576  11.360  1.00  0.00     0.018 C 
HETATM   20  C24 UNL     1      -2.372   4.871  12.210  1.00  0.00     0.012 C 
HETATM   21  C25 UNL     1      -2.039   5.567  13.529  1.00  0.00     0.042 C 
HETATM   22  C26 UNL     1      -3.069   6.641  13.879  1.00  0.00     0.148 C 
ENDROOT
BRANCH   1  23
HETATM   23  C5  UNL     1      -9.217   7.918  15.143  1.00  0.00    -0.014 C 
HETATM   24  C6  UNL     1      -9.312   7.870  16.676  1.00  0.00     0.010 C 
BRANCH  23  25
HETATM   25  C4  UNL     1     -10.137   6.820  14.565  1.00  0.00     0.009 C 
BRANCH  25  26
HETATM   26  C3  UNL     1     -10.832   7.120  13.228  1.00  0.00     0.034 C 
BRANCH  26  27
HETATM   27  C2  UNL     1     -12.203   7.769  13.342  1.00  0.00    -0.075 C 
HETATM   28  C1  UNL     1     -13.303   7.007  13.183  1.00  0.00     0.015 C 
BRANCH  27  29
HETATM   29  C27 UNL     1     -12.245   9.275  13.597  1.00  0.00     0.107 C 
HETATM   30  C28 UNL     1     -12.733   9.727  14.978  1.00  0.00     0.026 C 
BRANCH  29  31
HETATM   31  C29 UNL     1     -13.046   9.978  12.508  1.00  0.00     0.147 C 
HETATM   32  O4  UNL     1     -14.147  10.491  12.656  1.00  0.00    -0.650 OA
BRANCH  31  33
HETATM   33  O5  UNL     1     -12.423  10.050  11.315  1.00  0.00    -0.776 OA
HETATM   34  H42 UNL     1     -13.044  10.555  10.749  1.00  0.00     0.167 HD
ENDBRANCH  31  33
ENDBRANCH  29  31
ENDBRANCH  27  29
ENDBRANCH  26  27
ENDBRANCH  25  26
ENDBRANCH  23  25
ENDBRANCH   1  23
BRANCH  22  35
HETATM   35  O3  UNL     1      -2.933   6.874  15.274  1.00  0.00    -0.391 OA
HETATM   36  H37 UNL     1      -2.103   7.365  15.404  1.00  0.00     0.210 HD
ENDBRANCH  22  35
TORSDOF 8
ENDMDL
MODEL 5
REMARK minimizedAffinity -7.82828617
REMARK CNNscore 0.577571332
REMARK CNNaffinity 6.81525373
REMARK  8 active torsions:
REMARK  status: ('A' for Active; 'I' for Inactive)
REMARK    1  A    between atoms: C2_2  and  C3_3 
REMARK    2  A    between atoms: C2_2  and  C27_30 
REMARK    3  A    between atoms: C3_3  and  C4_4 
REMARK    4  A    between atoms: C4_4  and  C5_5 
REMARK    5  A    between atoms: C5_5  and  C7_7 
REMARK    6  A    between atoms: C26_28  and  O3_29 
REMARK    7  A    between atoms: C27_30  and  C29_32 
REMARK    8  A    between atoms: C29_32  and  O5_34 
ROOT
HETATM    1  C7  UNL     1      -8.337   7.768  14.439  1.00  0.00    -0.002 C 
HETATM    2  C8  UNL     1      -7.475   8.786  15.233  1.00  0.00     0.006 C 
HETATM    3  C9  UNL     1      -6.014   8.366  15.036  1.00  0.00     0.010 C 
HETATM    4  C10 UNL     1      -6.061   7.335  13.905  1.00  0.00     0.027 C 
HETATM    5  C11 UNL     1      -4.886   6.435  13.565  1.00  0.00    -0.036 C 
HETATM    6  C12 UNL     1      -5.082   5.275  12.887  1.00  0.00     0.002 C 
HETATM    7  C13 UNL     1      -6.506   4.815  12.622  1.00  0.00     0.157 C 
HETATM    8  O1  UNL     1      -6.731   3.726  12.095  1.00  0.00    -0.293 OA
HETATM    9  C14 UNL     1      -7.673   5.719  12.979  1.00  0.00     0.093 C 
HETATM   10  C15 UNL     1      -7.372   6.563  14.214  1.00  0.00    -0.026 C 
HETATM   11  C16 UNL     1      -7.240   5.649  15.452  1.00  0.00     0.016 C 
HETATM   12  C17 UNL     1      -3.929   4.386  12.366  1.00  0.00    -0.008 C 
HETATM   13  C18 UNL     1      -3.821   3.184  13.342  1.00  0.00     0.021 C 
HETATM   14  C19 UNL     1      -4.197   3.849  10.920  1.00  0.00     0.022 C 
HETATM   15  C20 UNL     1      -2.970   3.671  10.027  1.00  0.00     0.080 C 
HETATM   16  C21 UNL     1      -1.732   3.358  10.823  1.00  0.00     0.131 C 
HETATM   17  O2  UNL     1      -1.003   2.410  10.534  1.00  0.00    -0.298 OA
HETATM   18  C22 UNL     1      -1.375   4.322  11.944  1.00  0.00     0.056 C 
HETATM   19  C23 UNL     1      -0.156   5.137  11.507  1.00  0.00     0.018 C 
HETATM   20  C24 UNL     1      -2.593   5.208  12.303  1.00  0.00     0.012 C 
HETATM   21  C25 UNL     1      -2.362   5.977  13.603  1.00  0.00     0.042 C 
HETATM   22  C26 UNL     1      -3.504   6.949  13.897  1.00  0.00     0.148 C 
ENDROOT
BRANCH   1  23
HETATM   23  C5  UNL     1      -9.778   7.621  15.005  1.00  0.00    -0.014 C 
HETATM   24  C6  UNL     1     -10.896   7.466  13.962  1.00  0.00     0.010 C 
BRANCH  23  25
HETATM   25  C4  UNL     1     -10.193   8.725  16.002  1.00  0.00     0.009 C 
BRANCH  25  26
HETATM   26  C3  UNL     1     -10.135  10.177  15.505  1.00  0.00     0.034 C 
BRANCH  26  27
HETATM   27  C2  UNL     1     -10.366  11.236  16.571  1.00  0.00    -0.075 C 
HETATM   28  C1  UNL     1     -10.657  10.847  17.828  1.00  0.00     0.015 C 
BRANCH  27  29
HETATM   29  C27 UNL     1     -10.288  12.699  16.133  1.00  0.00     0.107 C 
HETATM   30  C28 UNL     1     -10.491  12.983  14.640  1.00  0.00     0.026 C 
BRANCH  29  31
HETATM   31  C29 UNL     1      -8.984  13.328  16.608  1.00  0.00     0.147 C 
HETATM   32  O4  UNL     1      -7.927  13.320  15.992  1.00  0.00    -0.650 OA
BRANCH  31  33
HETATM   33  O5  UNL     1      -9.073  13.971  17.789  1.00  0.00    -0.776 OA
HETATM   34  H42 UNL     1      -8.177  14.345  17.927  1.00  0.00     0.167 HD
ENDBRANCH  31  33
ENDBRANCH  29  31
ENDBRANCH  27  29
ENDBRANCH  26  27
ENDBRANCH  25  26
ENDBRANCH  23  25
ENDBRANCH   1  23
BRANCH  22  35
HETATM   35  O3  UNL     1      -3.424   7.240  15.286  1.00  0.00    -0.391 OA
HETATM   36  H37 UNL     1      -2.652   7.818  15.414  1.00  0.00     0.210 HD
ENDBRANCH  22  35
TORSDOF 8
ENDMDL
MODEL 6
REMARK minimizedAffinity -9.04488373
REMARK CNNscore 0.434745073
REMARK CNNaffinity 6.74553633
REMARK  8 active torsions:
REMARK  status: ('A' for Active; 'I' for Inactive)
REMARK    1  A    between atoms: C2_2  and  C3_3 
REMARK    2  A    between atoms: C2_2  and  C27_30 
REMARK    3  A    between atoms: C3_3  and  C4_4 
REMARK    4  A    between atoms: C4_4  and  C5_5 
REMARK    5  A    between atoms: C5_5  and  C7_7 
REMARK    6  A    between atoms: C26_28  and  O3_29 
REMARK    7  A    between atoms: C27_30  and  C29_32 
REMARK    8  A    between atoms: C29_32  and  O5_34 
ROOT
HETATM    1  C7  UNL     1      -6.243   6.625  13.574  1.00  0.00    -0.002 C 
HETATM    2  C8  UNL     1      -6.273   8.069  14.144  1.00  0.00     0.006 C 
HETATM    3  C9  UNL     1      -4.828   8.580  14.110  1.00  0.00     0.010 C 
HETATM    4  C10 UNL     1      -4.081   7.558  13.249  1.00  0.00     0.027 C 
HETATM    5  C11 UNL     1      -2.565   7.498  13.175  1.00  0.00    -0.036 C 
HETATM    6  C12 UNL     1      -1.941   6.359  12.778  1.00  0.00     0.002 C 
HETATM    7  C13 UNL     1      -2.772   5.104  12.570  1.00  0.00     0.157 C 
HETATM    8  O1  UNL     1      -2.237   4.029  12.301  1.00  0.00    -0.293 OA
HETATM    9  C14 UNL     1      -4.287   5.175  12.659  1.00  0.00     0.093 C 
HETATM   10  C15 UNL     1      -4.741   6.219  13.674  1.00  0.00    -0.026 C 
HETATM   11  C16 UNL     1      -4.322   5.782  15.096  1.00  0.00     0.016 C 
HETATM   12  C17 UNL     1      -0.418   6.266  12.525  1.00  0.00    -0.008 C 
HETATM   13  C18 UNL     1       0.192   5.546  13.757  1.00  0.00     0.021 C 
HETATM   14  C19 UNL     1      -0.078   5.449  11.233  1.00  0.00     0.022 C 
HETATM   15  C20 UNL     1       1.160   5.897  10.457  1.00  0.00     0.080 C 
HETATM   16  C21 UNL     1       2.195   6.520  11.354  1.00  0.00     0.131 C 
HETATM   17  O2  UNL     1       3.373   6.164  11.323  1.00  0.00    -0.298 OA
HETATM   18  C22 UNL     1       1.736   7.673  12.233  1.00  0.00     0.056 C 
HETATM   19  C23 UNL     1       2.319   8.970  11.669  1.00  0.00     0.018 C 
HETATM   20  C24 UNL     1       0.191   7.700  12.327  1.00  0.00     0.012 C 
HETATM   21  C25 UNL     1      -0.288   8.653  13.421  1.00  0.00     0.042 C 
HETATM   22  C26 UNL     1      -1.811   8.781  13.434  1.00  0.00     0.148 C 
ENDROOT
BRANCH   1  23
HETATM   23  C5  UNL     1      -7.409   5.741  14.099  1.00  0.00    -0.014 C 
HETATM   24  C6  UNL     1      -7.993   4.734  13.097  1.00  0.00     0.010 C 
BRANCH  23  25
HETATM   25  C4  UNL     1      -8.577   6.528  14.734  1.00  0.00     0.009 C 
BRANCH  25  26
HETATM   26  C3  UNL     1      -9.785   6.836  13.836  1.00  0.00     0.034 C 
BRANCH  26  27
HETATM   27  C2  UNL     1     -10.632   8.021  14.274  1.00  0.00    -0.075 C 
HETATM   28  C1  UNL     1     -10.031   9.068  14.873  1.00  0.00     0.015 C 
BRANCH  27  29
HETATM   29  C27 UNL     1     -12.139   7.931  14.035  1.00  0.00     0.107 C 
HETATM   30  C28 UNL     1     -12.764   6.532  14.097  1.00  0.00     0.026 C 
BRANCH  29  31
HETATM   31  C29 UNL     1     -12.511   8.607  12.721  1.00  0.00     0.147 C 
HETATM   32  O4  UNL     1     -11.717   9.035  11.893  1.00  0.00    -0.650 OA
BRANCH  31  33
HETATM   33  O5  UNL     1     -13.836   8.671  12.482  1.00  0.00    -0.776 OA
HETATM   34  H42 UNL     1     -13.901   9.089  11.598  1.00  0.00     0.167 HD
ENDBRANCH  31  33
ENDBRANCH  29  31
ENDBRANCH  27  29
ENDBRANCH  26  27
ENDBRANCH  25  26
ENDBRANCH  23  25
ENDBRANCH   1  23
BRANCH  22  35
HETATM   35  O3  UNL     1      -2.151   9.284  14.720  1.00  0.00    -0.391 OA
HETATM   36  H37 UNL     1      -1.886  10.220  14.740  1.00  0.00     0.210 HD
ENDBRANCH  22  35
TORSDOF 8
ENDMDL
MODEL 7
REMARK minimizedAffinity -9.56935787
REMARK CNNscore 0.396294862
REMARK CNNaffinity 7.07656097
REMARK  8 active torsions:
REMARK  status: ('A' for Active; 'I' for Inactive)
REMARK    1  A    between atoms: C2_2  and  C3_3 
REMARK    2  A    between atoms: C2_2  and  C27_30 
REMARK    3  A    between atoms: C3_3  and  C4_4 
REMARK    4  A    between atoms: C4_4  and  C5_5 
REMARK    5  A    between atoms: C5_5  and  C7_7 
REMARK    6  A    between atoms: C26_28  and  O3_29 
REMARK    7  A    between atoms: C27_30  and  C29_32 
REMARK    8  A    between atoms: C29_32  and  O5_34 
ROOT
HETATM    1  C7  UNL     1       0.009   6.488  12.251  1.00  0.00    -0.002 C 
HETATM    2  C8  UNL     1      -0.128   5.184  11.421  1.00  0.00     0.006 C 
HETATM    3  C9  UNL     1      -1.560   4.680  11.637  1.00  0.00     0.010 C 
HETATM    4  C10 UNL     1      -2.280   5.850  12.313  1.00  0.00     0.027 C 
HETATM    5  C11 UNL     1      -3.639   5.706  12.974  1.00  0.00    -0.036 C 
HETATM    6  C12 UNL     1      -4.045   6.599  13.914  1.00  0.00     0.002 C 
HETATM    7  C13 UNL     1      -3.056   7.641  14.407  1.00  0.00     0.157 C 
HETATM    8  O1  UNL     1      -3.350   8.409  15.323  1.00  0.00    -0.293 OA
HETATM    9  C14 UNL     1      -1.694   7.766  13.747  1.00  0.00     0.093 C 
HETATM   10  C15 UNL     1      -1.183   6.415  13.254  1.00  0.00    -0.026 C 
HETATM   11  C16 UNL     1      -0.907   5.490  14.461  1.00  0.00     0.016 C 
HETATM   12  C17 UNL     1      -5.469   6.615  14.516  1.00  0.00    -0.008 C 
HETATM   13  C18 UNL     1      -5.361   5.978  15.926  1.00  0.00     0.021 C 
HETATM   14  C19 UNL     1      -6.043   8.066  14.652  1.00  0.00     0.022 C 
HETATM   15  C20 UNL     1      -7.552   8.216  14.464  1.00  0.00     0.080 C 
HETATM   16  C21 UNL     1      -8.299   6.976  14.874  1.00  0.00     0.131 C 
HETATM   17  O2  UNL     1      -9.264   7.028  15.635  1.00  0.00    -0.298 OA
HETATM   18  C22 UNL     1      -7.863   5.669  14.231  1.00  0.00     0.056 C 
HETATM   19  C23 UNL     1      -8.933   5.250  13.221  1.00  0.00     0.018 C 
HETATM   20  C24 UNL     1      -6.461   5.822  13.592  1.00  0.00     0.012 C 
HETATM   21  C25 UNL     1      -5.875   4.467  13.197  1.00  0.00     0.042 C 
HETATM   22  C26 UNL     1      -4.550   4.619  12.451  1.00  0.00     0.148 C 
ENDROOT
BRANCH   1  23
HETATM   23  C5  UNL     1       1.475   6.784  12.678  1.00  0.00    -0.014 C 
HETATM   24  C6  UNL     1       1.712   6.965  14.185  1.00  0.00     0.010 C 
BRANCH  23  25
HETATM   25  C4  UNL     1       2.134   7.968  11.937  1.00  0.00     0.009 C 
BRANCH  25  26
HETATM   26  C3  UNL     1       2.893   7.648  10.640  1.00  0.00     0.034 C 
BRANCH  26  27
HETATM   27  C2  UNL     1       2.050   7.666   9.374  1.00  0.00    -0.075 C 
HETATM   28  C1  UNL     1       0.812   8.195   9.421  1.00  0.00     0.015 C 
BRANCH  27  29
HETATM   29  C27 UNL     1       2.659   7.041   8.119  1.00  0.00     0.107 C 
HETATM   30  C28 UNL     1       1.915   7.279   6.800  1.00  0.00     0.026 C 
BRANCH  29  31
HETATM   31  C29 UNL     1       2.885   5.548   8.324  1.00  0.00     0.147 C 
HETATM   32  O4  UNL     1       3.337   4.777   7.488  1.00  0.00    -0.650 OA
BRANCH  31  33
HETATM   33  O5  UNL     1       2.589   5.104   9.561  1.00  0.00    -0.776 OA
HETATM   34  H42 UNL     1       2.823   4.152   9.538  1.00  0.00     0.167 HD
ENDBRANCH  31  33
ENDBRANCH  29  31
ENDBRANCH  27  29
ENDBRANCH  26  27
ENDBRANCH  25  26
ENDBRANCH  23  25
ENDBRANCH   1  23
BRANCH  22  35
HETATM   35  O3  UNL     1      -3.897   3.360  12.551  1.00  0.00    -0.391 OA
HETATM   36  H37 UNL     1      -4.369   2.745  11.964  1.00  0.00     0.210 HD
ENDBRANCH  22  35
TORSDOF 8
ENDMDL
MODEL 8
REMARK minimizedAffinity -7.21302652
REMARK CNNscore 0.388416767
REMARK CNNaffinity 6.59649849
REMARK  8 active torsions:
REMARK  status: ('A' for Active; 'I' for Inactive)
REMARK    1  A    between atoms: C2_2  and  C3_3 
REMARK    2  A    between atoms: C2_2  and  C27_30 
REMARK    3  A    between atoms: C3_3  and  C4_4 
REMARK    4  A    between atoms: C4_4  and  C5_5 
REMARK    5  A    between atoms: C5_5  and  C7_7 
REMARK    6  A    between atoms: C26_28  and  O3_29 
REMARK    7  A    between atoms: C27_30  and  C29_32 
REMARK    8  A    between atoms: C29_32  and  O5_34 
ROOT
HETATM    1  C7  UNL     1      -7.572   7.185  14.088  1.00  0.00    -0.002 C 
HETATM    2  C8  UNL     1      -7.917   8.228  15.184  1.00  0.00     0.006 C 
HETATM    3  C9  UNL     1      -6.588   8.852  15.625  1.00  0.00     0.010 C 
HETATM    4  C10 UNL     1      -5.579   8.387  14.571  1.00  0.00     0.027 C 
HETATM    5  C11 UNL     1      -4.077   8.524  14.755  1.00  0.00    -0.036 C 
HETATM    6  C12 UNL     1      -3.224   7.741  14.046  1.00  0.00     0.002 C 
HETATM    7  C13 UNL     1      -3.796   6.620  13.194  1.00  0.00     0.157 C 
HETATM    8  O1  UNL     1      -3.057   5.829  12.609  1.00  0.00    -0.293 OA
HETATM    9  C14 UNL     1      -5.300   6.486  13.029  1.00  0.00     0.093 C 
HETATM   10  C15 UNL     1      -6.045   6.935  14.283  1.00  0.00    -0.026 C 
HETATM   11  C16 UNL     1      -5.729   5.972  15.450  1.00  0.00     0.016 C 
HETATM   12  C17 UNL     1      -1.689   7.925  14.057  1.00  0.00    -0.008 C 
HETATM   13  C18 UNL     1      -1.116   6.811  14.973  1.00  0.00     0.021 C 
HETATM   14  C19 UNL     1      -1.061   7.788  12.629  1.00  0.00     0.022 C 
HETATM   15  C20 UNL     1       0.165   8.654  12.344  1.00  0.00     0.080 C 
HETATM   16  C21 UNL     1       0.963   8.933  13.588  1.00  0.00     0.131 C 
HETATM   17  O2  UNL     1       2.179   8.750  13.628  1.00  0.00    -0.298 OA
HETATM   18  C22 UNL     1       0.211   9.537  14.764  1.00  0.00     0.056 C 
HETATM   19  C23 UNL     1       0.626  11.003  14.898  1.00  0.00     0.018 C 
HETATM   20  C24 UNL     1      -1.316   9.359  14.579  1.00  0.00     0.012 C 
HETATM   21  C25 UNL     1      -2.078   9.689  15.862  1.00  0.00     0.042 C 
HETATM   22  C26 UNL     1      -3.591   9.639  15.650  1.00  0.00     0.148 C 
ENDROOT
BRANCH   1  23
HETATM   23  C5  UNL     1      -8.623   6.044  13.983  1.00  0.00    -0.014 C 
HETATM   24  C6  UNL     1      -8.454   5.082  12.797  1.00  0.00     0.010 C 
BRANCH  23  25
HETATM   25  C4  UNL     1     -10.092   6.518  14.019  1.00  0.00     0.009 C 
BRANCH  25  26
HETATM   26  C3  UNL     1     -10.342   8.033  13.973  1.00  0.00     0.034 C 
BRANCH  26  27
HETATM   27  C2  UNL     1     -11.624   8.458  13.275  1.00  0.00    -0.075 C 
HETATM   28  C1  UNL     1     -11.550   8.998  12.042  1.00  0.00     0.015 C 
BRANCH  27  29
HETATM   29  C27 UNL     1     -12.933   8.276  14.043  1.00  0.00     0.107 C 
HETATM   30  C28 UNL     1     -12.866   8.435  15.566  1.00  0.00     0.026 C 
BRANCH  29  31
HETATM   31  C29 UNL     1     -13.577   6.941  13.689  1.00  0.00     0.147 C 
HETATM   32  O4  UNL     1     -13.478   5.910  14.341  1.00  0.00    -0.650 OA
BRANCH  31  33
HETATM   33  O5  UNL     1     -14.343   6.968  12.581  1.00  0.00    -0.776 OA
HETATM   34  H42 UNL     1     -14.707   6.060  12.518  1.00  0.00     0.167 HD
ENDBRANCH  31  33
ENDBRANCH  29  31
ENDBRANCH  27  29
ENDBRANCH  26  27
ENDBRANCH  25  26
ENDBRANCH  23  25
ENDBRANCH   1  23
BRANCH  22  35
HETATM   35  O3  UNL     1      -4.163   9.498  16.944  1.00  0.00    -0.391 OA
HETATM   36  H37 UNL     1      -4.067  10.355  17.395  1.00  0.00     0.210 HD
ENDBRANCH  22  35
TORSDOF 8
ENDMDL
MODEL 9
REMARK minimizedAffinity -8.41840935
REMARK CNNscore 0.26930207
REMARK CNNaffinity 6.50639296
REMARK  8 active torsions:
REMARK  status: ('A' for Active; 'I' for Inactive)
REMARK    1  A    between atoms: C2_2  and  C3_3 
REMARK    2  A    between atoms: C2_2  and  C27_30 
REMARK    3  A    between atoms: C3_3  and  C4_4 
REMARK    4  A    between atoms: C4_4  and  C5_5 
REMARK    5  A    between atoms: C5_5  and  C7_7 
REMARK    6  A    between atoms: C26_28  and  O3_29 
REMARK    7  A    between atoms: C27_30  and  C29_32 
REMARK    8  A    between atoms: C29_32  and  O5_34 
ROOT
HETATM    1  C7  UNL     1      -6.385   6.987  13.806  1.00  0.00    -0.002 C 
HETATM    2  C8  UNL     1      -6.319   8.406  14.431  1.00  0.00     0.006 C 
HETATM    3  C9  UNL     1      -4.848   8.835  14.383  1.00  0.00     0.010 C 
HETATM    4  C10 UNL     1      -4.179   7.807  13.466  1.00  0.00     0.027 C 
HETATM    5  C11 UNL     1      -2.671   7.663  13.355  1.00  0.00    -0.036 C 
HETATM    6  C12 UNL     1      -2.122   6.507  12.900  1.00  0.00     0.002 C 
HETATM    7  C13 UNL     1      -3.029   5.311  12.664  1.00  0.00     0.157 C 
HETATM    8  O1  UNL     1      -2.563   4.218  12.343  1.00  0.00    -0.293 OA
HETATM    9  C14 UNL     1      -4.535   5.464  12.792  1.00  0.00     0.093 C 
HETATM   10  C15 UNL     1      -4.906   6.492  13.856  1.00  0.00    -0.026 C 
HETATM   11  C16 UNL     1      -4.483   5.976  15.250  1.00  0.00     0.016 C 
HETATM   12  C17 UNL     1      -0.613   6.336  12.609  1.00  0.00    -0.008 C 
HETATM   13  C18 UNL     1      -0.021   5.535  13.798  1.00  0.00     0.021 C 
HETATM   14  C19 UNL     1      -0.348   5.553  11.280  1.00  0.00     0.022 C 
HETATM   15  C20 UNL     1       0.897   5.959  10.493  1.00  0.00     0.080 C 
HETATM   16  C21 UNL     1       1.985   6.487  11.388  1.00  0.00     0.131 C 
HETATM   17  O2  UNL     1       3.139   6.066  11.316  1.00  0.00    -0.298 OA
HETATM   18  C22 UNL     1       1.612   7.629  12.321  1.00  0.00     0.056 C 
HETATM   19  C23 UNL     1       2.257   8.911  11.793  1.00  0.00     0.018 C 
HETATM   20  C24 UNL     1       0.073   7.740  12.451  1.00  0.00     0.012 C 
HETATM   21  C25 UNL     1      -0.326   8.675  13.591  1.00  0.00     0.042 C 
HETATM   22  C26 UNL     1      -1.838   8.890  13.645  1.00  0.00     0.148 C 
ENDROOT
BRANCH   1  23
HETATM   23  C5  UNL     1      -7.589   6.150  14.325  1.00  0.00    -0.014 C 
HETATM   24  C6  UNL     1      -8.362   5.355  13.261  1.00  0.00     0.010 C 
BRANCH  23  25
HETATM   25  C4  UNL     1      -8.606   6.945  15.172  1.00  0.00     0.009 C 
BRANCH  25  26
HETATM   26  C3  UNL     1     -10.052   7.006  14.658  1.00  0.00     0.034 C 
BRANCH  26  27
HETATM   27  C2  UNL     1     -10.592   8.406  14.407  1.00  0.00    -0.075 C 
HETATM   28  C1  UNL     1     -11.386   8.619  13.339  1.00  0.00     0.015 C 
BRANCH  27  29
HETATM   29  C27 UNL     1     -10.162   9.506  15.377  1.00  0.00     0.107 C 
HETATM   30  C28 UNL     1     -10.505   9.292  16.856  1.00  0.00     0.026 C 
BRANCH  29  31
HETATM   31  C29 UNL     1     -10.687  10.859  14.914  1.00  0.00     0.147 C 
HETATM   32  O4  UNL     1     -11.808  11.299  15.133  1.00  0.00    -0.650 OA
BRANCH  31  33
HETATM   33  O5  UNL     1      -9.784  11.611  14.253  1.00  0.00    -0.776 OA
HETATM   34  H42 UNL     1     -10.260  12.447  14.064  1.00  0.00     0.167 HD
ENDBRANCH  31  33
ENDBRANCH  29  31
ENDBRANCH  27  29
ENDBRANCH  26  27
ENDBRANCH  25  26
ENDBRANCH  23  25
ENDBRANCH   1  23
BRANCH  22  35
HETATM   35  O3  UNL     1      -2.122   9.360  14.956  1.00  0.00    -0.391 OA
HETATM   36  H37 UNL     1      -1.803  10.279  15.006  1.00  0.00     0.210 HD
ENDBRANCH  22  35
TORSDOF 8
ENDMDL
