MODEL 1
REMARK minimizedAffinity -7.20709944
REMARK  4 active torsions:
REMARK  status: ('A' for Active; 'I' for Inactive)
REMARK    1  A    between atoms: O1_2  and  C2_3 
REMARK    2  A    between atoms: C5_10  and  N3_11 
REMARK    3  A    between atoms: N3_11  and  S1_12 
REMARK    4  A    between atoms: S1_12  and  C6_15 
ROOT
HETATM    1  N3  UNL     1      -8.156   5.116  14.534  1.00  0.00    -0.163 NA
HETATM    2  H6  UNL     1      -7.299   5.088  15.085  1.00  0.00     0.147 HD
ENDROOT
BRANCH   1   3
HETATM    3  C5  UNL     1      -8.794   6.374  14.630  1.00  0.00     0.146 A 
HETATM    4  C2  UNL     1      -8.226   7.553  15.134  1.00  0.00     0.182 A 
HETATM    5  N1  UNL     1      -8.915   8.721  15.161  1.00  0.00    -0.343 N 
HETATM    6  C3  UNL     1     -10.175   8.661  14.672  1.00  0.00     0.107 A 
ATOM      7  H1  UNL     1      -8.511   9.584  15.525  1.00  0.00     0.167 HD
HETATM    8  C4  UNL     1     -10.722   7.495  14.157  1.00  0.00     0.106 A 
HETATM    9  N2  UNL     1     -10.041   6.327  14.113  1.00  0.00    -0.351 N 
ATOM     10  H2  UNL     1     -10.440   5.475  13.718  1.00  0.00     0.166 HD
BRANCH   4  11
HETATM   11  O1  UNL     1      -6.910   7.537  15.545  1.00  0.00    -0.338 OA
HETATM   12  C1  UNL     1      -6.167   8.666  15.096  1.00  0.00     0.211 C 
ENDBRANCH   4  11
ENDBRANCH   1   3
BRANCH   1  13
HETATM   13  S1  UNL     1      -7.899   4.497  12.999  1.00  0.00     0.248 S 
HETATM   14  O2  UNL     1      -8.282   5.525  12.054  1.00  0.00    -0.205 OA
HETATM   15  O3  UNL     1      -8.482   3.174  12.912  1.00  0.00    -0.205 OA
BRANCH  13  16
HETATM   16  C6  UNL     1      -6.136   4.336  12.869  1.00  0.00     0.098 A 
HETATM   17  C7  UNL     1      -5.351   5.395  13.362  1.00  0.00     0.027 A 
HETATM   18  C8  UNL     1      -3.963   5.333  13.298  1.00  0.00     0.003 A 
HETATM   19  C9  UNL     1      -3.352   4.211  12.747  1.00  0.00     0.026 A 
HETATM   20  C10 UNL     1      -4.127   3.148  12.267  1.00  0.00     0.057 A 
HETATM   21 CL1  UNL     1      -3.265   1.797  11.606  1.00  0.00    -0.083 Cl
HETATM   22  C11 UNL     1      -5.531   3.194  12.327  1.00  0.00     0.078 A 
HETATM   23 CL2  UNL     1      -6.451   1.843  11.745  1.00  0.00    -0.081 Cl
ENDBRANCH  13  16
ENDBRANCH   1  13
TORSDOF 4
ENDMDL
MODEL 2
REMARK minimizedAffinity -6.7441721
REMARK  4 active torsions:
REMARK  status: ('A' for Active; 'I' for Inactive)
REMARK    1  A    between atoms: O1_2  and  C2_3 
REMARK    2  A    between atoms: C5_10  and  N3_11 
REMARK    3  A    between atoms: N3_11  and  S1_12 
REMARK    4  A    between atoms: S1_12  and  C6_15 
ROOT
HETATM    1  N3  UNL     1      -0.314   5.091  10.664  1.00  0.00    -0.163 NA
HETATM    2  H6  UNL     1      -1.210   5.349  10.254  1.00  0.00     0.147 HD
ENDROOT
BRANCH   1   3
HETATM    3  C5  UNL     1       0.489   6.227  10.916  1.00  0.00     0.146 A 
HETATM    4  C2  UNL     1       1.769   6.467  10.395  1.00  0.00     0.182 A 
HETATM    5  N1  UNL     1       2.451   7.604  10.678  1.00  0.00    -0.343 N 
HETATM    6  C3  UNL     1       1.811   8.477  11.490  1.00  0.00     0.107 A 
ATOM      7  H1  UNL     1       3.383   7.788  10.305  1.00  0.00     0.167 HD
HETATM    8  C4  UNL     1       0.537   8.241  11.985  1.00  0.00     0.106 A 
HETATM    9  N2  UNL     1      -0.160   7.116  11.700  1.00  0.00    -0.351 N 
ATOM     10  H2  UNL     1      -1.103   6.953  12.050  1.00  0.00     0.166 HD
BRANCH   4  11
HETATM   11  O1  UNL     1       2.314   5.553   9.518  1.00  0.00    -0.338 OA
HETATM   12  C1  UNL     1       2.715   6.134   8.280  1.00  0.00     0.211 C 
ENDBRANCH   4  11
ENDBRANCH   1   3
BRANCH   1  13
HETATM   13  S1  UNL     1      -0.523   4.001  11.920  1.00  0.00     0.248 S 
HETATM   14  O2  UNL     1      -0.069   4.652  13.130  1.00  0.00    -0.205 OA
HETATM   15  O3  UNL     1       0.023   2.717  11.535  1.00  0.00    -0.205 OA
BRANCH  13  16
HETATM   16  C6  UNL     1      -2.283   3.832  12.078  1.00  0.00     0.098 A 
HETATM   17  C7  UNL     1      -2.996   4.934  12.586  1.00  0.00     0.027 A 
HETATM   18  C8  UNL     1      -4.379   4.873  12.731  1.00  0.00     0.003 A 
HETATM   19  C9  UNL     1      -5.056   3.714  12.364  1.00  0.00     0.026 A 
HETATM   20  C10 UNL     1      -4.353   2.619  11.846  1.00  0.00     0.057 A 
HETATM   21 CL1  UNL     1      -5.293   1.228  11.416  1.00  0.00    -0.083 Cl
HETATM   22  C11 UNL     1      -2.957   2.666  11.690  1.00  0.00     0.078 A 
HETATM   23 CL2  UNL     1      -2.130   1.296  11.020  1.00  0.00    -0.081 Cl
ENDBRANCH  13  16
ENDBRANCH   1  13
TORSDOF 4
ENDMDL
MODEL 3
REMARK minimizedAffinity -6.66242027
REMARK  4 active torsions:
REMARK  status: ('A' for Active; 'I' for Inactive)
REMARK    1  A    between atoms: O1_2  and  C2_3 
REMARK    2  A    between atoms: C5_10  and  N3_11 
REMARK    3  A    between atoms: N3_11  and  S1_12 
REMARK    4  A    between atoms: S1_12  and  C6_15 
ROOT
HETATM    1  N3  UNL     1      -8.022   5.882  13.260  1.00  0.00    -0.163 NA
HETATM    2  H6  UNL     1      -8.590   5.984  12.420  1.00  0.00     0.147 HD
ENDROOT
BRANCH   1   3
HETATM    3  C5  UNL     1      -8.577   6.591  14.350  1.00  0.00     0.146 A 
HETATM    4  C2  UNL     1      -9.920   6.969  14.493  1.00  0.00     0.182 A 
HETATM    5  N1  UNL     1     -10.361   7.629  15.593  1.00  0.00    -0.343 N 
HETATM    6  C3  UNL     1      -9.419   7.891  16.527  1.00  0.00     0.107 A 
ATOM      7  H1  UNL     1     -11.336   7.908  15.707  1.00  0.00     0.167 HD
HETATM    8  C4  UNL     1      -8.097   7.497  16.387  1.00  0.00     0.106 A 
HETATM    9  N2  UNL     1      -7.647   6.827  15.301  1.00  0.00    -0.351 N 
ATOM     10  H2  UNL     1      -6.677   6.523  15.208  1.00  0.00     0.166 HD
BRANCH   4  11
HETATM   11  O1  UNL     1     -10.825   6.595  13.522  1.00  0.00    -0.338 OA
HETATM   12  C1  UNL     1     -11.380   7.702  12.816  1.00  0.00     0.211 C 
ENDBRANCH   4  11
ENDBRANCH   1   3
BRANCH   1  13
HETATM   13  S1  UNL     1      -7.611   4.278  13.513  1.00  0.00     0.248 S 
HETATM   14  O2  UNL     1      -8.600   3.470  12.830  1.00  0.00    -0.205 OA
HETATM   15  O3  UNL     1      -7.347   4.067  14.921  1.00  0.00    -0.205 OA
BRANCH  13  16
HETATM   16  C6  UNL     1      -6.090   4.059  12.624  1.00  0.00     0.098 A 
HETATM   17  C7  UNL     1      -6.115   3.214  11.498  1.00  0.00     0.027 A 
HETATM   18  C8  UNL     1      -4.960   3.002  10.751  1.00  0.00     0.003 A 
HETATM   19  C9  UNL     1      -3.778   3.637  11.121  1.00  0.00     0.026 A 
HETATM   20  C10 UNL     1      -3.751   4.488  12.232  1.00  0.00     0.057 A 
HETATM   21 CL1  UNL     1      -2.230   5.232  12.602  1.00  0.00    -0.083 Cl
HETATM   22  C11 UNL     1      -4.910   4.716  12.996  1.00  0.00     0.078 A 
HETATM   23 CL2  UNL     1      -4.837   5.799  14.349  1.00  0.00    -0.081 Cl
ENDBRANCH  13  16
ENDBRANCH   1  13
TORSDOF 4
ENDMDL
MODEL 4
REMARK minimizedAffinity -6.65147972
REMARK  4 active torsions:
REMARK  status: ('A' for Active; 'I' for Inactive)
REMARK    1  A    between atoms: O1_2  and  C2_3 
REMARK    2  A    between atoms: C5_10  and  N3_11 
REMARK    3  A    between atoms: N3_11  and  S1_12 
REMARK    4  A    between atoms: S1_12  and  C6_15 
ROOT
HETATM    1  N3  UNL     1       1.190   4.709  11.016  1.00  0.00    -0.163 NA
HETATM    2  H6  UNL     1       0.811   4.426  10.114  1.00  0.00     0.147 HD
ENDROOT
BRANCH   1   3
HETATM    3  C5  UNL     1       2.370   5.474  10.867  1.00  0.00     0.146 A 
HETATM    4  C2  UNL     1       3.402   5.231   9.949  1.00  0.00     0.182 A 
HETATM    5  N1  UNL     1       4.487   6.040   9.867  1.00  0.00    -0.343 N 
HETATM    6  C3  UNL     1       4.496   7.085  10.726  1.00  0.00     0.107 A 
ATOM      7  H1  UNL     1       5.243   5.872   9.203  1.00  0.00     0.167 HD
HETATM    8  C4  UNL     1       3.462   7.329  11.618  1.00  0.00     0.106 A 
HETATM    9  N2  UNL     1       2.368   6.537  11.701  1.00  0.00    -0.351 N 
ATOM     10  H2  UNL     1       1.601   6.728  12.345  1.00  0.00     0.166 HD
BRANCH   4  11
HETATM   11  O1  UNL     1       3.273   4.183   9.062  1.00  0.00    -0.338 OA
HETATM   12  C1  UNL     1       4.460   3.406   8.935  1.00  0.00     0.211 C 
ENDBRANCH   4  11
ENDBRANCH   1   3
BRANCH   1  13
HETATM   13  S1  UNL     1      -0.015   5.334  12.000  1.00  0.00     0.248 S 
HETATM   14  O2  UNL     1      -0.496   6.545  11.369  1.00  0.00    -0.205 OA
HETATM   15  O3  UNL     1       0.453   5.363  13.370  1.00  0.00    -0.205 OA
BRANCH  13  16
HETATM   16  C6  UNL     1      -1.339   4.156  11.890  1.00  0.00     0.098 A 
HETATM   17  C7  UNL     1      -1.033   2.885  11.369  1.00  0.00     0.027 A 
HETATM   18  C8  UNL     1      -2.021   1.912  11.260  1.00  0.00     0.003 A 
HETATM   19  C9  UNL     1      -3.317   2.202  11.674  1.00  0.00     0.026 A 
HETATM   20  C10 UNL     1      -3.625   3.461  12.205  1.00  0.00     0.057 A 
HETATM   21 CL1  UNL     1      -5.268   3.715  12.696  1.00  0.00    -0.083 Cl
HETATM   22  C11 UNL     1      -2.637   4.454  12.325  1.00  0.00     0.078 A 
HETATM   23 CL2  UNL     1      -3.056   5.991  13.013  1.00  0.00    -0.081 Cl
ENDBRANCH  13  16
ENDBRANCH   1  13
TORSDOF 4
ENDMDL
MODEL 5
REMARK minimizedAffinity -6.57248688
REMARK  4 active torsions:
REMARK  status: ('A' for Active; 'I' for Inactive)
REMARK    1  A    between atoms: O1_2  and  C2_3 
REMARK    2  A    between atoms: C5_10  and  N3_11 
REMARK    3  A    between atoms: N3_11  and  S1_12 
REMARK    4  A    between atoms: S1_12  and  C6_15 
ROOT
HETATM    1  N3  UNL     1      -8.810   5.909  15.480  1.00  0.00    -0.163 NA
HETATM    2  H6  UNL     1      -8.951   5.910  16.488  1.00  0.00     0.147 HD
ENDROOT
BRANCH   1   3
HETATM    3  C5  UNL     1      -9.724   6.767  14.827  1.00  0.00     0.146 A 
HETATM    4  C2  UNL     1     -10.272   7.946  15.353  1.00  0.00     0.182 A 
HETATM    5  N1  UNL     1     -11.126   8.717  14.636  1.00  0.00    -0.343 N 
HETATM    6  C3  UNL     1     -11.405   8.268  13.390  1.00  0.00     0.107 A 
ATOM      7  H1  UNL     1     -11.531   9.576  15.009  1.00  0.00     0.167 HD
HETATM    8  C4  UNL     1     -10.843   7.111  12.870  1.00  0.00     0.106 A 
HETATM    9  N2  UNL     1      -9.980   6.340  13.571  1.00  0.00    -0.351 N 
ATOM     10  H2  UNL     1      -9.555   5.499  13.180  1.00  0.00     0.166 HD
BRANCH   4  11
HETATM   11  O1  UNL     1      -9.875   8.364  16.606  1.00  0.00    -0.338 OA
HETATM   12  C1  UNL     1     -10.317   9.681  16.924  1.00  0.00     0.211 C 
ENDBRANCH   4  11
ENDBRANCH   1   3
BRANCH   1  13
HETATM   13  S1  UNL     1      -7.186   6.083  15.103  1.00  0.00     0.248 S 
HETATM   14  O2  UNL     1      -6.435   5.780  16.304  1.00  0.00    -0.205 OA
HETATM   15  O3  UNL     1      -6.986   7.341  14.417  1.00  0.00    -0.205 OA
BRANCH  13  16
HETATM   16  C6  UNL     1      -6.848   4.766  13.961  1.00  0.00     0.098 A 
HETATM   17  C7  UNL     1      -7.777   3.711  13.896  1.00  0.00     0.027 A 
HETATM   18  C8  UNL     1      -7.577   2.649  13.019  1.00  0.00     0.003 A 
HETATM   19  C9  UNL     1      -6.453   2.640  12.199  1.00  0.00     0.026 A 
HETATM   20  C10 UNL     1      -5.532   3.694  12.250  1.00  0.00     0.057 A 
HETATM   21 CL1  UNL     1      -4.170   3.585  11.183  1.00  0.00    -0.083 Cl
HETATM   22  C11 UNL     1      -5.721   4.775  13.129  1.00  0.00     0.078 A 
HETATM   23 CL2  UNL     1      -4.568   6.072  13.140  1.00  0.00    -0.081 Cl
ENDBRANCH  13  16
ENDBRANCH   1  13
TORSDOF 4
ENDMDL
MODEL 6
REMARK minimizedAffinity -6.56599236
REMARK  4 active torsions:
REMARK  status: ('A' for Active; 'I' for Inactive)
REMARK    1  A    between atoms: O1_2  and  C2_3 
REMARK    2  A    between atoms: C5_10  and  N3_11 
REMARK    3  A    between atoms: N3_11  and  S1_12 
REMARK    4  A    between atoms: S1_12  and  C6_15 
ROOT
HETATM    1  N3  UNL     1      -2.755   5.024  14.239  1.00  0.00    -0.163 NA
HETATM    2  H6  UNL     1      -2.630   4.329  13.505  1.00  0.00     0.147 HD
ENDROOT
BRANCH   1   3
HETATM    3  C5  UNL     1      -1.555   5.723  14.502  1.00  0.00     0.146 A 
HETATM    4  C2  UNL     1      -0.314   5.494  13.891  1.00  0.00     0.182 A 
HETATM    5  N1  UNL     1       0.778   6.238  14.196  1.00  0.00    -0.343 N 
HETATM    6  C3  UNL     1       0.580   7.205  15.122  1.00  0.00     0.107 A 
ATOM      7  H1  UNL     1       1.686   6.080  13.758  1.00  0.00     0.167 HD
HETATM    8  C4  UNL     1      -0.655   7.437  15.707  1.00  0.00     0.106 A 
HETATM    9  N2  UNL     1      -1.755   6.711  15.403  1.00  0.00    -0.351 N 
ATOM     10  H2  UNL     1      -2.667   6.895  15.821  1.00  0.00     0.166 HD
BRANCH   4  11
HETATM   11  O1  UNL     1      -0.222   4.535  12.905  1.00  0.00    -0.338 OA
HETATM   12  C1  UNL     1      -0.170   5.083  11.591  1.00  0.00     0.211 C 
ENDBRANCH   4  11
ENDBRANCH   1   3
BRANCH   1  13
HETATM   13  S1  UNL     1      -4.135   5.936  13.969  1.00  0.00     0.248 S 
HETATM   14  O2  UNL     1      -3.877   6.770  12.814  1.00  0.00    -0.205 OA
HETATM   15  O3  UNL     1      -4.566   6.533  15.215  1.00  0.00    -0.205 OA
BRANCH  13  16
HETATM   16  C6  UNL     1      -5.361   4.755  13.464  1.00  0.00     0.098 A 
HETATM   17  C7  UNL     1      -6.613   4.807  14.106  1.00  0.00     0.027 A 
HETATM   18  C8  UNL     1      -7.622   3.915  13.756  1.00  0.00     0.003 A 
HETATM   19  C9  UNL     1      -7.388   2.972  12.761  1.00  0.00     0.026 A 
HETATM   20  C10 UNL     1      -6.149   2.924  12.109  1.00  0.00     0.057 A 
HETATM   21 CL1  UNL     1      -5.965   1.715  10.881  1.00  0.00    -0.083 Cl
HETATM   22  C11 UNL     1      -5.120   3.820  12.449  1.00  0.00     0.078 A 
HETATM   23 CL2  UNL     1      -3.610   3.742  11.598  1.00  0.00    -0.081 Cl
ENDBRANCH  13  16
ENDBRANCH   1  13
TORSDOF 4
ENDMDL
MODEL 7
REMARK minimizedAffinity -6.52436066
REMARK  4 active torsions:
REMARK  status: ('A' for Active; 'I' for Inactive)
REMARK    1  A    between atoms: O1_2  and  C2_3 
REMARK    2  A    between atoms: C5_10  and  N3_11 
REMARK    3  A    between atoms: N3_11  and  S1_12 
REMARK    4  A    between atoms: S1_12  and  C6_15 
ROOT
HETATM    1  N3  UNL     1      -3.512   5.653  14.905  1.00  0.00    -0.163 NA
HETATM    2  H6  UNL     1      -3.169   4.845  14.387  1.00  0.00     0.147 HD
ENDROOT
BRANCH   1   3
HETATM    3  C5  UNL     1      -2.459   6.526  15.261  1.00  0.00     0.146 A 
HETATM    4  C2  UNL     1      -1.191   6.578  14.665  1.00  0.00     0.182 A 
HETATM    5  N1  UNL     1      -0.252   7.472  15.064  1.00  0.00    -0.343 N 
HETATM    6  C3  UNL     1      -0.629   8.298  16.067  1.00  0.00     0.107 A 
ATOM      7  H1  UNL     1       0.673   7.519  14.638  1.00  0.00     0.167 HD
HETATM    8  C4  UNL     1      -1.893   8.253  16.638  1.00  0.00     0.106 A 
HETATM    9  N2  UNL     1      -2.842   7.375  16.241  1.00  0.00    -0.351 N 
ATOM     10  H2  UNL     1      -3.776   7.355  16.650  1.00  0.00     0.166 HD
BRANCH   4  11
HETATM   11  O1  UNL     1      -0.919   5.746  13.600  1.00  0.00    -0.338 OA
HETATM   12  C1  UNL     1       0.475   5.577  13.360  1.00  0.00     0.211 C 
ENDBRANCH   4  11
ENDBRANCH   1   3
BRANCH   1  13
HETATM   13  S1  UNL     1      -4.848   6.325  14.148  1.00  0.00     0.248 S 
HETATM   14  O2  UNL     1      -4.370   7.008  12.964  1.00  0.00    -0.205 OA
HETATM   15  O3  UNL     1      -5.645   7.034  15.126  1.00  0.00    -0.205 OA
BRANCH  13  16
HETATM   16  C6  UNL     1      -5.785   4.931  13.572  1.00  0.00     0.098 A 
HETATM   17  C7  UNL     1      -7.078   4.757  14.101  1.00  0.00     0.027 A 
HETATM   18  C8  UNL     1      -7.869   3.689  13.690  1.00  0.00     0.003 A 
HETATM   19  C9  UNL     1      -7.377   2.795  12.745  1.00  0.00     0.026 A 
HETATM   20  C10 UNL     1      -6.096   2.971  12.206  1.00  0.00     0.057 A 
HETATM   21 CL1  UNL     1      -5.583   1.802  11.032  1.00  0.00    -0.083 Cl
HETATM   22  C11 UNL     1      -5.285   4.046  12.608  1.00  0.00     0.078 A 
HETATM   23 CL2  UNL     1      -3.715   4.240  11.894  1.00  0.00    -0.081 Cl
ENDBRANCH  13  16
ENDBRANCH   1  13
TORSDOF 4
ENDMDL
MODEL 8
REMARK minimizedAffinity -6.52052784
REMARK  4 active torsions:
REMARK  status: ('A' for Active; 'I' for Inactive)
REMARK    1  A    between atoms: O1_2  and  C2_3 
REMARK    2  A    between atoms: C5_10  and  N3_11 
REMARK    3  A    between atoms: N3_11  and  S1_12 
REMARK    4  A    between atoms: S1_12  and  C6_15 
ROOT
HETATM    1  N3  UNL     1      -4.493   6.329  15.262  1.00  0.00    -0.163 NA
HETATM    2  H6  UNL     1      -4.069   5.828  16.041  1.00  0.00     0.147 HD
ENDROOT
BRANCH   1   3
HETATM    3  C5  UNL     1      -4.393   7.729  15.427  1.00  0.00     0.146 A 
HETATM    4  C2  UNL     1      -5.354   8.677  15.050  1.00  0.00     0.182 A 
HETATM    5  N1  UNL     1      -5.174  10.003  15.274  1.00  0.00    -0.343 N 
HETATM    6  C3  UNL     1      -4.012  10.334  15.882  1.00  0.00     0.107 A 
ATOM      7  H1  UNL     1      -5.867  10.701  15.003  1.00  0.00     0.167 HD
HETATM    8  C4  UNL     1      -3.074   9.388  16.270  1.00  0.00     0.106 A 
HETATM    9  N2  UNL     1      -3.248   8.062  16.063  1.00  0.00    -0.351 N 
ATOM     10  H2  UNL     1      -2.566   7.367  16.365  1.00  0.00     0.166 HD
BRANCH   4  11
HETATM   11  O1  UNL     1      -6.541   8.241  14.501  1.00  0.00    -0.338 OA
HETATM   12  C1  UNL     1      -7.690   8.734  15.184  1.00  0.00     0.211 C 
ENDBRANCH   4  11
ENDBRANCH   1   3
BRANCH   1  13
HETATM   13  S1  UNL     1      -3.994   5.687  13.797  1.00  0.00     0.248 S 
HETATM   14  O2  UNL     1      -2.814   4.890  14.060  1.00  0.00    -0.205 OA
HETATM   15  O3  UNL     1      -3.956   6.738  12.802  1.00  0.00    -0.205 OA
BRANCH  13  16
HETATM   16  C6  UNL     1      -5.275   4.543  13.348  1.00  0.00     0.098 A 
HETATM   17  C7  UNL     1      -6.502   4.644  14.032  1.00  0.00     0.027 A 
HETATM   18  C8  UNL     1      -7.551   3.783  13.727  1.00  0.00     0.003 A 
HETATM   19  C9  UNL     1      -7.383   2.822  12.736  1.00  0.00     0.026 A 
HETATM   20  C10 UNL     1      -6.169   2.725  12.043  1.00  0.00     0.057 A 
HETATM   21 CL1  UNL     1      -6.068   1.496  10.825  1.00  0.00    -0.083 Cl
HETATM   22  C11 UNL     1      -5.100   3.589  12.337  1.00  0.00     0.078 A 
HETATM   23 CL2  UNL     1      -3.623   3.451  11.437  1.00  0.00    -0.081 Cl
ENDBRANCH  13  16
ENDBRANCH   1  13
TORSDOF 4
ENDMDL
MODEL 9
REMARK minimizedAffinity -6.45931673
REMARK  4 active torsions:
REMARK  status: ('A' for Active; 'I' for Inactive)
REMARK    1  A    between atoms: O1_2  and  C2_3 
REMARK    2  A    between atoms: C5_10  and  N3_11 
REMARK    3  A    between atoms: N3_11  and  S1_12 
REMARK    4  A    between atoms: S1_12  and  C6_15 
ROOT
HETATM    1  N3  UNL     1       0.025   5.715  10.617  1.00  0.00    -0.163 NA
HETATM    2  H6  UNL     1      -0.665   6.444  10.795  1.00  0.00     0.147 HD
ENDROOT
BRANCH   1   3
HETATM    3  C5  UNL     1       1.301   6.263  10.352  1.00  0.00     0.146 A 
HETATM    4  C2  UNL     1       1.574   7.593  10.002  1.00  0.00     0.182 A 
HETATM    5  N1  UNL     1       2.840   8.029   9.791  1.00  0.00    -0.343 N 
HETATM    6  C3  UNL     1       3.807   7.094   9.942  1.00  0.00     0.107 A 
ATOM      7  H1  UNL     1       3.050   8.994   9.536  1.00  0.00     0.167 HD
HETATM    8  C4  UNL     1       3.530   5.785  10.308  1.00  0.00     0.106 A 
HETATM    9  N2  UNL     1       2.273   5.341  10.533  1.00  0.00    -0.351 N 
ATOM     10  H2  UNL     1       2.073   4.383  10.819  1.00  0.00     0.166 HD
BRANCH   4  11
HETATM   11  O1  UNL     1       0.532   8.494   9.941  1.00  0.00    -0.338 OA
HETATM   12  C1  UNL     1      -0.080   8.559   8.656  1.00  0.00     0.211 C 
ENDBRANCH   4  11
ENDBRANCH   1   3
BRANCH   1  13
HETATM   13  S1  UNL     1      -0.071   4.507  11.774  1.00  0.00     0.248 S 
HETATM   14  O2  UNL     1       0.453   5.054  13.008  1.00  0.00    -0.205 OA
HETATM   15  O3  UNL     1       0.476   3.281  11.231  1.00  0.00    -0.205 OA
BRANCH  13  16
HETATM   16  C6  UNL     1      -1.811   4.272  12.034  1.00  0.00     0.098 A 
HETATM   17  C7  UNL     1      -2.349   3.012  11.713  1.00  0.00     0.027 A 
HETATM   18  C8  UNL     1      -3.705   2.757  11.898  1.00  0.00     0.003 A 
HETATM   19  C9  UNL     1      -4.527   3.756  12.408  1.00  0.00     0.026 A 
HETATM   20  C10 UNL     1      -3.994   5.008  12.742  1.00  0.00     0.057 A 
HETATM   21 CL1  UNL     1      -5.104   6.178  13.375  1.00  0.00    -0.083 Cl
HETATM   22  C11 UNL     1      -2.627   5.280  12.564  1.00  0.00     0.078 A 
HETATM   23 CL2  UNL     1      -2.005   6.836  13.015  1.00  0.00    -0.081 Cl
ENDBRANCH  13  16
ENDBRANCH   1  13
TORSDOF 4
ENDMDL
