MODEL 1
REMARK minimizedAffinity -8.42717361
REMARK  10 active torsions:
REMARK  status: ('A' for Active; 'I' for Inactive)
REMARK    1  A    between atoms: O1_1  and  C1_2 
REMARK    2  A    between atoms: C1_2  and  C2_3 
REMARK    3  A    between atoms: C3_5  and  C4_6 
REMARK    4  A    between atoms: C4_6  and  O2_7 
REMARK    5  A    between atoms: C4_6  and  C5_8 
REMARK    6  A    between atoms: C5_8  and  C6_9 
REMARK    7  A    between atoms: C6_9  and  C7_10 
REMARK    8  A    between atoms: C7_10  and  C8_11 
REMARK    9  A    between atoms: C17_22  and  O5_23 
REMARK   10  A    between atoms: C18_24  and  O6_25 
ROOT
HETATM    1  C4  UNL     1      -2.410  50.260 -26.838  1.00  0.00     0.154 C 
ENDROOT
BRANCH   1   2
HETATM    2  C3  UNL     1      -1.170  50.997 -26.275  1.00  0.00     0.280 C 
HETATM    3  N1  UNL     1       0.090  50.708 -27.021  1.00  0.00     0.102 N 
HETATM    4  C2  UNL     1       0.934  51.935 -26.856  1.00  0.00     0.275 C 
HETATM    5  H5  UNL     1      -0.124  50.632 -28.019  1.00  0.00     0.317 HD
HETATM    6  C18 UNL     1       0.172  52.904 -25.947  1.00  0.00     0.184 C 
HETATM    7  C17 UNL     1      -1.280  52.520 -26.210  1.00  0.00     0.184 C 
BRANCH   4   8
HETATM    8  C1  UNL     1       2.313  51.575 -26.295  1.00  0.00     0.202 C 
BRANCH   8   9
HETATM    9  O1  UNL     1       3.255  51.485 -27.363  1.00  0.00    -0.399 OA
HETATM   10  H1  UNL     1       2.820  50.914 -28.027  1.00  0.00     0.209 HD
ENDBRANCH   8   9
ENDBRANCH   4   8
BRANCH   6  11
HETATM   11  O6  UNL     1       0.405  54.265 -26.292  1.00  0.00    -0.391 OA
HETATM   12  H33 UNL     1       0.102  54.806 -25.542  1.00  0.00     0.210 HD
ENDBRANCH   6  11
BRANCH   7  13
HETATM   13  O5  UNL     1      -2.127  52.960 -25.156  1.00  0.00    -0.391 OA
HETATM   14  H31 UNL     1      -2.276  53.913 -25.288  1.00  0.00     0.210 HD
ENDBRANCH   7  13
ENDBRANCH   1   2
BRANCH   1  15
HETATM   15  O2  UNL     1      -3.561  51.058 -26.520  1.00  0.00    -0.393 OA
HETATM   16  H8  UNL     1      -3.381  51.472 -25.655  1.00  0.00     0.210 HD
ENDBRANCH   1  15
BRANCH   1  17
HETATM   17  C5  UNL     1      -2.642  48.847 -26.278  1.00  0.00     0.034 C 
BRANCH  17  18
HETATM   18  C6  UNL     1      -3.502  48.810 -25.004  1.00  0.00     0.005 C 
BRANCH  18  19
HETATM   19  C7  UNL     1      -2.731  48.458 -23.728  1.00  0.00     0.032 C 
BRANCH  19  20
HETATM   20  C8  UNL     1      -2.941  49.453 -22.575  1.00  0.00     0.125 C 
HETATM   21  C9  UNL     1      -3.785  50.662 -22.980  1.00  0.00     0.032 C 
HETATM   22  C10 UNL     1      -4.036  51.567 -21.775  1.00  0.00     0.008 C 
HETATM   23  C11 UNL     1      -2.930  51.446 -20.725  1.00  0.00     0.068 C 
HETATM   24  C12 UNL     1      -1.583  51.067 -21.361  1.00  0.00     0.164 C 
HETATM   25  C13 UNL     1      -0.496  50.913 -20.273  1.00  0.00     0.068 C 
HETATM   26  O3  UNL     1      -1.252  52.110 -22.293  1.00  0.00    -0.355 OA
HETATM   27  O4  UNL     1      -1.662  49.812 -22.045  1.00  0.00    -0.350 OA
HETATM   28  C14 UNL     1       0.260  52.215 -20.047  1.00  0.00     0.007 C 
HETATM   29  C15 UNL     1       0.888  52.699 -21.353  1.00  0.00     0.026 C 
HETATM   30  C16 UNL     1       0.140  52.180 -22.576  1.00  0.00     0.171 C 
ENDBRANCH  19  20
ENDBRANCH  18  19
ENDBRANCH  17  18
ENDBRANCH   1  17
TORSDOF 10
ENDMDL
MODEL 2
REMARK minimizedAffinity -8.30886555
REMARK  10 active torsions:
REMARK  status: ('A' for Active; 'I' for Inactive)
REMARK    1  A    between atoms: O1_1  and  C1_2 
REMARK    2  A    between atoms: C1_2  and  C2_3 
REMARK    3  A    between atoms: C3_5  and  C4_6 
REMARK    4  A    between atoms: C4_6  and  O2_7 
REMARK    5  A    between atoms: C4_6  and  C5_8 
REMARK    6  A    between atoms: C5_8  and  C6_9 
REMARK    7  A    between atoms: C6_9  and  C7_10 
REMARK    8  A    between atoms: C7_10  and  C8_11 
REMARK    9  A    between atoms: C17_22  and  O5_23 
REMARK   10  A    between atoms: C18_24  and  O6_25 
ROOT
HETATM    1  C4  UNL     1      -2.396  50.199 -26.902  1.00  0.00     0.154 C 
ENDROOT
BRANCH   1   2
HETATM    2  C3  UNL     1      -1.188  50.969 -26.313  1.00  0.00     0.280 C 
HETATM    3  N1  UNL     1       0.102  50.686 -27.008  1.00  0.00     0.102 N 
HETATM    4  C2  UNL     1       0.919  51.930 -26.840  1.00  0.00     0.275 C 
HETATM    5  H5  UNL     1      -0.076  50.585 -28.010  1.00  0.00     0.317 HD
HETATM    6  C18 UNL     1       0.109  52.906 -25.980  1.00  0.00     0.184 C 
HETATM    7  C17 UNL     1      -1.326  52.491 -26.285  1.00  0.00     0.184 C 
BRANCH   4   8
HETATM    8  C1  UNL     1       2.283  51.606 -26.223  1.00  0.00     0.202 C 
BRANCH   8   9
HETATM    9  O1  UNL     1       3.244  51.417 -27.261  1.00  0.00    -0.399 OA
HETATM   10  H1  UNL     1       2.816  50.796 -27.883  1.00  0.00     0.209 HD
ENDBRANCH   8   9
ENDBRANCH   4   8
BRANCH   6  11
HETATM   11  O6  UNL     1       0.332  54.262 -26.347  1.00  0.00    -0.391 OA
HETATM   12  H33 UNL     1      -0.006  54.814 -25.619  1.00  0.00     0.210 HD
ENDBRANCH   6  11
BRANCH   7  13
HETATM   13  O5  UNL     1      -2.217  52.939 -25.272  1.00  0.00    -0.391 OA
HETATM   14  H31 UNL     1      -2.377  53.886 -25.430  1.00  0.00     0.210 HD
ENDBRANCH   7  13
ENDBRANCH   1   2
BRANCH   1  15
HETATM   15  O2  UNL     1      -3.567  50.997 -26.667  1.00  0.00    -0.393 OA
HETATM   16  H8  UNL     1      -3.430  51.446 -25.811  1.00  0.00     0.210 HD
ENDBRANCH   1  15
BRANCH   1  17
HETATM   17  C5  UNL     1      -2.641  48.806 -26.299  1.00  0.00     0.034 C 
BRANCH  17  18
HETATM   18  C6  UNL     1      -3.827  48.745 -25.321  1.00  0.00     0.005 C 
BRANCH  18  19
HETATM   19  C7  UNL     1      -3.641  49.577 -24.048  1.00  0.00     0.032 C 
BRANCH  19  20
HETATM   20  C8  UNL     1      -2.611  48.997 -23.066  1.00  0.00     0.125 C 
HETATM   21  C9  UNL     1      -3.180  47.868 -22.206  1.00  0.00     0.032 C 
HETATM   22  C10 UNL     1      -2.091  47.271 -21.317  1.00  0.00     0.008 C 
HETATM   23  C11 UNL     1      -0.984  48.281 -21.008  1.00  0.00     0.068 C 
HETATM   24  C12 UNL     1      -1.514  49.724 -21.019  1.00  0.00     0.164 C 
HETATM   25  C13 UNL     1      -0.367  50.723 -20.743  1.00  0.00     0.068 C 
HETATM   26  O3  UNL     1      -2.534  49.803 -20.010  1.00  0.00    -0.355 OA
HETATM   27  O4  UNL     1      -2.064  50.070 -22.294  1.00  0.00    -0.350 OA
HETATM   28  C14 UNL     1      -0.246  51.043 -19.260  1.00  0.00     0.007 C 
HETATM   29  C15 UNL     1      -1.565  51.597 -18.725  1.00  0.00     0.026 C 
HETATM   30  C16 UNL     1      -2.759  51.129 -19.550  1.00  0.00     0.171 C 
ENDBRANCH  19  20
ENDBRANCH  18  19
ENDBRANCH  17  18
ENDBRANCH   1  17
TORSDOF 10
ENDMDL
MODEL 3
REMARK minimizedAffinity -7.99397182
REMARK  10 active torsions:
REMARK  status: ('A' for Active; 'I' for Inactive)
REMARK    1  A    between atoms: O1_1  and  C1_2 
REMARK    2  A    between atoms: C1_2  and  C2_3 
REMARK    3  A    between atoms: C3_5  and  C4_6 
REMARK    4  A    between atoms: C4_6  and  O2_7 
REMARK    5  A    between atoms: C4_6  and  C5_8 
REMARK    6  A    between atoms: C5_8  and  C6_9 
REMARK    7  A    between atoms: C6_9  and  C7_10 
REMARK    8  A    between atoms: C7_10  and  C8_11 
REMARK    9  A    between atoms: C17_22  and  O5_23 
REMARK   10  A    between atoms: C18_24  and  O6_25 
ROOT
HETATM    1  C4  UNL     1       3.066  66.612 -37.447  1.00  0.00     0.154 C 
ENDROOT
BRANCH   1   2
HETATM    2  C3  UNL     1       2.290  67.321 -38.583  1.00  0.00     0.280 C 
HETATM    3  N1  UNL     1       3.045  67.399 -39.868  1.00  0.00     0.102 N 
HETATM    4  C2  UNL     1       1.997  67.418 -40.938  1.00  0.00     0.275 C 
HETATM    5  H5  UNL     1       3.576  66.534 -39.995  1.00  0.00     0.317 HD
HETATM    6  C18 UNL     1       0.628  67.421 -40.249  1.00  0.00     0.184 C 
HETATM    7  C17 UNL     1       0.929  66.717 -38.930  1.00  0.00     0.184 C 
BRANCH   4   8
HETATM    8  C1  UNL     1       2.184  68.626 -41.862  1.00  0.00     0.202 C 
BRANCH   8   9
HETATM    9  O1  UNL     1       1.575  68.360 -43.125  1.00  0.00    -0.399 OA
HETATM   10  H1  UNL     1       1.912  67.478 -43.380  1.00  0.00     0.209 HD
ENDBRANCH   8   9
ENDBRANCH   4   8
BRANCH   6  11
HETATM   11  O6  UNL     1      -0.352  66.705 -40.992  1.00  0.00    -0.391 OA
HETATM   12  H33 UNL     1      -1.222  66.956 -40.633  1.00  0.00     0.210 HD
ENDBRANCH   6  11
BRANCH   7  13
HETATM   13  O5  UNL     1      -0.061  67.009 -37.954  1.00  0.00    -0.391 OA
HETATM   14  H31 UNL     1      -0.836  66.456 -38.159  1.00  0.00     0.210 HD
ENDBRANCH   7  13
ENDBRANCH   1   2
BRANCH   1  15
HETATM   15  O2  UNL     1       2.095  66.105 -36.517  1.00  0.00    -0.393 OA
HETATM   16  H8  UNL     1       1.360  66.747 -36.508  1.00  0.00     0.210 HD
ENDBRANCH   1  15
BRANCH   1  17
HETATM   17  C5  UNL     1       4.049  67.503 -36.669  1.00  0.00     0.034 C 
BRANCH  17  18
HETATM   18  C6  UNL     1       5.310  66.770 -36.181  1.00  0.00     0.005 C 
BRANCH  18  19
HETATM   19  C7  UNL     1       5.399  66.606 -34.660  1.00  0.00     0.032 C 
BRANCH  19  20
HETATM   20  C8  UNL     1       4.820  65.281 -34.138  1.00  0.00     0.125 C 
HETATM   21  C9  UNL     1       4.906  65.154 -32.618  1.00  0.00     0.032 C 
HETATM   22  C10 UNL     1       4.237  63.863 -32.150  1.00  0.00     0.008 C 
HETATM   23  C11 UNL     1       4.258  62.780 -33.231  1.00  0.00     0.068 C 
HETATM   24  C12 UNL     1       5.469  62.936 -34.165  1.00  0.00     0.164 C 
HETATM   25  C13 UNL     1       5.443  61.854 -35.269  1.00  0.00     0.068 C 
HETATM   26  O3  UNL     1       6.646  62.824 -33.347  1.00  0.00    -0.355 OA
HETATM   27  O4  UNL     1       5.458  64.204 -34.830  1.00  0.00    -0.350 OA
HETATM   28  C14 UNL     1       6.230  60.617 -34.862  1.00  0.00     0.007 C 
HETATM   29  C15 UNL     1       7.673  60.991 -34.528  1.00  0.00     0.026 C 
HETATM   30  C16 UNL     1       7.800  62.445 -34.085  1.00  0.00     0.171 C 
ENDBRANCH  19  20
ENDBRANCH  18  19
ENDBRANCH  17  18
ENDBRANCH   1  17
TORSDOF 10
ENDMDL
MODEL 4
REMARK minimizedAffinity -7.97833633
REMARK  10 active torsions:
REMARK  status: ('A' for Active; 'I' for Inactive)
REMARK    1  A    between atoms: O1_1  and  C1_2 
REMARK    2  A    between atoms: C1_2  and  C2_3 
REMARK    3  A    between atoms: C3_5  and  C4_6 
REMARK    4  A    between atoms: C4_6  and  O2_7 
REMARK    5  A    between atoms: C4_6  and  C5_8 
REMARK    6  A    between atoms: C5_8  and  C6_9 
REMARK    7  A    between atoms: C6_9  and  C7_10 
REMARK    8  A    between atoms: C7_10  and  C8_11 
REMARK    9  A    between atoms: C17_22  and  O5_23 
REMARK   10  A    between atoms: C18_24  and  O6_25 
ROOT
HETATM    1  C4  UNL     1      -2.494  49.877 -26.567  1.00  0.00     0.154 C 
ENDROOT
BRANCH   1   2
HETATM    2  C3  UNL     1      -1.372  50.924 -26.365  1.00  0.00     0.280 C 
HETATM    3  N1  UNL     1      -0.012  50.426 -26.725  1.00  0.00     0.102 N 
HETATM    4  C2  UNL     1       0.751  51.641 -27.154  1.00  0.00     0.275 C 
HETATM    5  H5  UNL     1      -0.087  49.822 -27.548  1.00  0.00     0.317 HD
HETATM    6  C18 UNL     1      -0.165  52.855 -26.968  1.00  0.00     0.184 C 
HETATM    7  C17 UNL     1      -1.551  52.240 -27.123  1.00  0.00     0.184 C 
BRANCH   4   8
HETATM    8  C1  UNL     1       2.056  51.771 -26.361  1.00  0.00     0.202 C 
BRANCH   8   9
HETATM    9  O1  UNL     1       3.158  51.407 -27.192  1.00  0.00    -0.399 OA
HETATM   10  H1  UNL     1       2.896  50.552 -27.588  1.00  0.00     0.209 HD
ENDBRANCH   8   9
ENDBRANCH   4   8
BRANCH   6  11
HETATM   11  O6  UNL     1       0.057  53.855 -27.956  1.00  0.00    -0.391 OA
HETATM   12  H33 UNL     1      -0.366  54.672 -27.635  1.00  0.00     0.210 HD
ENDBRANCH   6  11
BRANCH   7  13
HETATM   13  O5  UNL     1      -2.550  53.070 -26.544  1.00  0.00    -0.391 OA
HETATM   14  H31 UNL     1      -2.718  53.794 -27.172  1.00  0.00     0.210 HD
ENDBRANCH   7  13
ENDBRANCH   1   2
BRANCH   1  15
HETATM   15  O2  UNL     1      -3.614  50.559 -27.154  1.00  0.00    -0.393 OA
HETATM   16  H8  UNL     1      -3.618  51.460 -26.778  1.00  0.00     0.210 HD
ENDBRANCH   1  15
BRANCH   1  17
HETATM   17  C5  UNL     1      -2.979  49.182 -25.284  1.00  0.00     0.034 C 
BRANCH  17  18
HETATM   18  C6  UNL     1      -2.323  49.710 -23.997  1.00  0.00     0.005 C 
BRANCH  18  19
HETATM   19  C7  UNL     1      -2.863  51.061 -23.518  1.00  0.00     0.032 C 
BRANCH  19  20
HETATM   20  C8  UNL     1      -1.889  51.843 -22.624  1.00  0.00     0.125 C 
HETATM   21  C9  UNL     1      -0.435  51.722 -23.081  1.00  0.00     0.032 C 
HETATM   22  C10 UNL     1       0.473  52.590 -22.212  1.00  0.00     0.008 C 
HETATM   23  C11 UNL     1      -0.103  52.802 -20.811  1.00  0.00     0.068 C 
HETATM   24  C12 UNL     1      -0.984  51.620 -20.376  1.00  0.00     0.164 C 
HETATM   25  C13 UNL     1      -1.584  51.880 -18.974  1.00  0.00     0.068 C 
HETATM   26  O3  UNL     1      -0.149  50.450 -20.382  1.00  0.00    -0.355 OA
HETATM   27  O4  UNL     1      -2.087  51.433 -21.268  1.00  0.00    -0.350 OA
HETATM   28  C14 UNL     1      -0.704  51.308 -17.873  1.00  0.00     0.007 C 
HETATM   29  C15 UNL     1      -0.493  49.809 -18.084  1.00  0.00     0.026 C 
HETATM   30  C16 UNL     1      -0.643  49.410 -19.548  1.00  0.00     0.171 C 
ENDBRANCH  19  20
ENDBRANCH  18  19
ENDBRANCH  17  18
ENDBRANCH   1  17
TORSDOF 10
ENDMDL
MODEL 5
REMARK minimizedAffinity -7.93479347
REMARK  10 active torsions:
REMARK  status: ('A' for Active; 'I' for Inactive)
REMARK    1  A    between atoms: O1_1  and  C1_2 
REMARK    2  A    between atoms: C1_2  and  C2_3 
REMARK    3  A    between atoms: C3_5  and  C4_6 
REMARK    4  A    between atoms: C4_6  and  O2_7 
REMARK    5  A    between atoms: C4_6  and  C5_8 
REMARK    6  A    between atoms: C5_8  and  C6_9 
REMARK    7  A    between atoms: C6_9  and  C7_10 
REMARK    8  A    between atoms: C7_10  and  C8_11 
REMARK    9  A    between atoms: C17_22  and  O5_23 
REMARK   10  A    between atoms: C18_24  and  O6_25 
ROOT
HETATM    1  C4  UNL     1       0.252  52.021 -22.110  1.00  0.00     0.154 C 
ENDROOT
BRANCH   1   2
HETATM    2  C3  UNL     1      -0.104  52.314 -20.632  1.00  0.00     0.280 C 
HETATM    3  N1  UNL     1      -0.569  51.113 -19.877  1.00  0.00     0.102 N 
HETATM    4  C2  UNL     1      -0.184  51.371 -18.453  1.00  0.00     0.275 C 
HETATM    5  H5  UNL     1      -0.032  50.299 -20.184  1.00  0.00     0.317 HD
HETATM    6  C18 UNL     1       0.447  52.766 -18.387  1.00  0.00     0.184 C 
HETATM    7  C17 UNL     1       1.015  52.930 -19.793  1.00  0.00     0.184 C 
BRANCH   4   8
HETATM    8  C1  UNL     1      -1.397  51.238 -17.528  1.00  0.00     0.202 C 
BRANCH   8   9
HETATM    9  O1  UNL     1      -2.571  51.675 -18.214  1.00  0.00    -0.399 OA
HETATM   10  H1  UNL     1      -2.324  52.541 -18.596  1.00  0.00     0.209 HD
ENDBRANCH   8   9
ENDBRANCH   4   8
BRANCH   6  11
HETATM   11  O6  UNL     1       1.480  52.846 -17.412  1.00  0.00    -0.391 OA
HETATM   12  H33 UNL     1       1.653  53.792 -17.256  1.00  0.00     0.210 HD
ENDBRANCH   6  11
BRANCH   7  13
HETATM   13  O5  UNL     1       1.236  54.300 -20.101  1.00  0.00    -0.391 OA
HETATM   14  H31 UNL     1       2.060  54.564 -19.655  1.00  0.00     0.210 HD
ENDBRANCH   7  13
ENDBRANCH   1   2
BRANCH   1  15
HETATM   15  O2  UNL     1       0.600  53.274 -22.722  1.00  0.00    -0.393 OA
HETATM   16  H8  UNL     1       0.034  53.952 -22.305  1.00  0.00     0.210 HD
ENDBRANCH   1  15
BRANCH   1  17
HETATM   17  C5  UNL     1      -0.873  51.382 -22.941  1.00  0.00     0.034 C 
BRANCH  17  18
HETATM   18  C6  UNL     1      -2.136  52.252 -23.061  1.00  0.00     0.005 C 
BRANCH  18  19
HETATM   19  C7  UNL     1      -3.344  51.534 -23.670  1.00  0.00     0.032 C 
BRANCH  19  20
HETATM   20  C8  UNL     1      -3.235  51.300 -25.185  1.00  0.00     0.125 C 
HETATM   21  C9  UNL     1      -3.235  49.818 -25.560  1.00  0.00     0.032 C 
HETATM   22  C10 UNL     1      -3.215  49.650 -27.077  1.00  0.00     0.008 C 
HETATM   23  C11 UNL     1      -2.563  50.842 -27.780  1.00  0.00     0.068 C 
HETATM   24  C12 UNL     1      -1.510  51.518 -26.888  1.00  0.00     0.164 C 
HETATM   25  C13 UNL     1      -0.897  52.742 -27.608  1.00  0.00     0.068 C 
HETATM   26  O3  UNL     1      -0.512  50.527 -26.593  1.00  0.00    -0.355 OA
HETATM   27  O4  UNL     1      -2.087  52.003 -25.671  1.00  0.00    -0.350 OA
HETATM   28  C14 UNL     1       0.359  52.367 -28.381  1.00  0.00     0.007 C 
HETATM   29  C15 UNL     1       1.390  51.736 -27.446  1.00  0.00     0.026 C 
HETATM   30  C16 UNL     1       0.740  51.092 -26.227  1.00  0.00     0.171 C 
ENDBRANCH  19  20
ENDBRANCH  18  19
ENDBRANCH  17  18
ENDBRANCH   1  17
TORSDOF 10
ENDMDL
MODEL 6
REMARK minimizedAffinity -7.91927052
REMARK  10 active torsions:
REMARK  status: ('A' for Active; 'I' for Inactive)
REMARK    1  A    between atoms: O1_1  and  C1_2 
REMARK    2  A    between atoms: C1_2  and  C2_3 
REMARK    3  A    between atoms: C3_5  and  C4_6 
REMARK    4  A    between atoms: C4_6  and  O2_7 
REMARK    5  A    between atoms: C4_6  and  C5_8 
REMARK    6  A    between atoms: C5_8  and  C6_9 
REMARK    7  A    between atoms: C6_9  and  C7_10 
REMARK    8  A    between atoms: C7_10  and  C8_11 
REMARK    9  A    between atoms: C17_22  and  O5_23 
REMARK   10  A    between atoms: C18_24  and  O6_25 
ROOT
HETATM    1  C4  UNL     1      -5.229  47.958 -27.900  1.00  0.00     0.154 C 
ENDROOT
BRANCH   1   2
HETATM    2  C3  UNL     1      -5.736  48.222 -29.338  1.00  0.00     0.280 C 
HETATM    3  N1  UNL     1      -5.028  47.425 -30.382  1.00  0.00     0.102 N 
HETATM    4  C2  UNL     1      -6.027  47.243 -31.483  1.00  0.00     0.275 C 
HETATM    5  H5  UNL     1      -4.828  46.493 -30.010  1.00  0.00     0.317 HD
HETATM    6  C18 UNL     1      -7.296  48.005 -31.089  1.00  0.00     0.184 C 
HETATM    7  C17 UNL     1      -7.229  47.981 -29.566  1.00  0.00     0.184 C 
BRANCH   4   8
HETATM    8  C1  UNL     1      -5.454  47.719 -32.821  1.00  0.00     0.202 C 
BRANCH   8   9
HETATM    9  O1  UNL     1      -4.234  48.424 -32.595  1.00  0.00    -0.399 OA
HETATM   10  H1  UNL     1      -4.446  49.063 -31.885  1.00  0.00     0.209 HD
ENDBRANCH   8   9
ENDBRANCH   4   8
BRANCH   6  11
HETATM   11  O6  UNL     1      -8.478  47.362 -31.553  1.00  0.00    -0.391 OA
HETATM   12  H33 UNL     1      -9.201  48.011 -31.488  1.00  0.00     0.210 HD
ENDBRANCH   6  11
BRANCH   7  13
HETATM   13  O5  UNL     1      -8.039  49.003 -28.999  1.00  0.00    -0.391 OA
HETATM   14  H31 UNL     1      -8.960  48.692 -29.039  1.00  0.00     0.210 HD
ENDBRANCH   7  13
ENDBRANCH   1   2
BRANCH   1  15
HETATM   15  O2  UNL     1      -6.347  48.129 -27.013  1.00  0.00    -0.393 OA
HETATM   16  H8  UNL     1      -6.896  48.840 -27.395  1.00  0.00     0.210 HD
ENDBRANCH   1  15
BRANCH   1  17
HETATM   17  C5  UNL     1      -4.098  48.885 -27.423  1.00  0.00     0.034 C 
BRANCH  17  18
HETATM   18  C6  UNL     1      -3.355  48.378 -26.176  1.00  0.00     0.005 C 
BRANCH  18  19
HETATM   19  C7  UNL     1      -3.649  49.170 -24.897  1.00  0.00     0.032 C 
BRANCH  19  20
HETATM   20  C8  UNL     1      -2.481  50.051 -24.425  1.00  0.00     0.125 C 
HETATM   21  C9  UNL     1      -2.946  51.308 -23.689  1.00  0.00     0.032 C 
HETATM   22  C10 UNL     1      -1.747  52.095 -23.165  1.00  0.00     0.008 C 
HETATM   23  C11 UNL     1      -0.490  51.854 -24.004  1.00  0.00     0.068 C 
HETATM   24  C12 UNL     1      -0.839  51.516 -25.462  1.00  0.00     0.164 C 
HETATM   25  C13 UNL     1       0.447  51.239 -26.275  1.00  0.00     0.068 C 
HETATM   26  O3  UNL     1      -1.563  52.639 -25.991  1.00  0.00    -0.355 OA
HETATM   27  O4  UNL     1      -1.643  50.335 -25.548  1.00  0.00    -0.350 OA
HETATM   28  C14 UNL     1       0.966  52.499 -26.952  1.00  0.00     0.007 C 
HETATM   29  C15 UNL     1      -0.109  53.098 -27.858  1.00  0.00     0.026 C 
HETATM   30  C16 UNL     1      -1.515  52.713 -27.410  1.00  0.00     0.171 C 
ENDBRANCH  19  20
ENDBRANCH  18  19
ENDBRANCH  17  18
ENDBRANCH   1  17
TORSDOF 10
ENDMDL
MODEL 7
REMARK minimizedAffinity -7.90317869
REMARK  10 active torsions:
REMARK  status: ('A' for Active; 'I' for Inactive)
REMARK    1  A    between atoms: O1_1  and  C1_2 
REMARK    2  A    between atoms: C1_2  and  C2_3 
REMARK    3  A    between atoms: C3_5  and  C4_6 
REMARK    4  A    between atoms: C4_6  and  O2_7 
REMARK    5  A    between atoms: C4_6  and  C5_8 
REMARK    6  A    between atoms: C5_8  and  C6_9 
REMARK    7  A    between atoms: C6_9  and  C7_10 
REMARK    8  A    between atoms: C7_10  and  C8_11 
REMARK    9  A    between atoms: C17_22  and  O5_23 
REMARK   10  A    between atoms: C18_24  and  O6_25 
ROOT
HETATM    1  C4  UNL     1      -5.220  48.596 -29.529  1.00  0.00     0.154 C 
ENDROOT
BRANCH   1   2
HETATM    2  C3  UNL     1      -5.367  47.524 -30.636  1.00  0.00     0.280 C 
HETATM    3  N1  UNL     1      -6.641  46.751 -30.559  1.00  0.00     0.102 N 
HETATM    4  C2  UNL     1      -6.939  46.343 -31.969  1.00  0.00     0.275 C 
HETATM    5  H5  UNL     1      -7.395  47.381 -30.272  1.00  0.00     0.317 HD
HETATM    6  C18 UNL     1      -5.783  46.831 -32.849  1.00  0.00     0.184 C 
HETATM    7  C17 UNL     1      -5.275  48.041 -32.072  1.00  0.00     0.184 C 
BRANCH   4   8
HETATM    8  C1  UNL     1      -7.142  44.828 -32.065  1.00  0.00     0.202 C 
BRANCH   8   9
HETATM    9  O1  UNL     1      -6.619  44.353 -33.306  1.00  0.00    -0.399 OA
HETATM   10  H1  UNL     1      -6.999  44.953 -33.978  1.00  0.00     0.209 HD
ENDBRANCH   8   9
ENDBRANCH   4   8
BRANCH   6  11
HETATM   11  O6  UNL     1      -6.217  47.210 -34.149  1.00  0.00    -0.391 OA
HETATM   12  H33 UNL     1      -5.422  47.266 -34.710  1.00  0.00     0.210 HD
ENDBRANCH   6  11
BRANCH   7  13
HETATM   13  O5  UNL     1      -3.945  48.372 -32.448  1.00  0.00    -0.391 OA
HETATM   14  H31 UNL     1      -3.997  48.844 -33.298  1.00  0.00     0.210 HD
ENDBRANCH   7  13
ENDBRANCH   1   2
BRANCH   1  15
HETATM   15  O2  UNL     1      -4.351  49.621 -30.038  1.00  0.00    -0.393 OA
HETATM   16  H8  UNL     1      -3.697  49.171 -30.607  1.00  0.00     0.210 HD
ENDBRANCH   1  15
BRANCH   1  17
HETATM   17  C5  UNL     1      -4.633  48.091 -28.201  1.00  0.00     0.034 C 
BRANCH  17  18
HETATM   18  C6  UNL     1      -3.689  49.090 -27.512  1.00  0.00     0.005 C 
BRANCH  18  19
HETATM   19  C7  UNL     1      -3.214  48.658 -26.121  1.00  0.00     0.032 C 
BRANCH  19  20
HETATM   20  C8  UNL     1      -2.928  49.827 -25.165  1.00  0.00     0.125 C 
HETATM   21  C9  UNL     1      -4.107  50.792 -25.037  1.00  0.00     0.032 C 
HETATM   22  C10 UNL     1      -3.800  51.879 -24.010  1.00  0.00     0.008 C 
HETATM   23  C11 UNL     1      -2.297  52.138 -23.878  1.00  0.00     0.068 C 
HETATM   24  C12 UNL     1      -1.554  51.835 -25.190  1.00  0.00     0.164 C 
HETATM   25  C13 UNL     1      -0.035  52.068 -25.015  1.00  0.00     0.068 C 
HETATM   26  O3  UNL     1      -2.107  52.701 -26.195  1.00  0.00    -0.355 OA
HETATM   27  O4  UNL     1      -1.719  50.468 -25.581  1.00  0.00    -0.350 OA
HETATM   28  C14 UNL     1       0.364  53.483 -25.406  1.00  0.00     0.007 C 
HETATM   29  C15 UNL     1      -0.050  53.774 -26.848  1.00  0.00     0.026 C 
HETATM   30  C16 UNL     1      -1.227  52.912 -27.291  1.00  0.00     0.171 C 
ENDBRANCH  19  20
ENDBRANCH  18  19
ENDBRANCH  17  18
ENDBRANCH   1  17
TORSDOF 10
ENDMDL
MODEL 8
REMARK minimizedAffinity -7.74813604
REMARK  10 active torsions:
REMARK  status: ('A' for Active; 'I' for Inactive)
REMARK    1  A    between atoms: O1_1  and  C1_2 
REMARK    2  A    between atoms: C1_2  and  C2_3 
REMARK    3  A    between atoms: C3_5  and  C4_6 
REMARK    4  A    between atoms: C4_6  and  O2_7 
REMARK    5  A    between atoms: C4_6  and  C5_8 
REMARK    6  A    between atoms: C5_8  and  C6_9 
REMARK    7  A    between atoms: C6_9  and  C7_10 
REMARK    8  A    between atoms: C7_10  and  C8_11 
REMARK    9  A    between atoms: C17_22  and  O5_23 
REMARK   10  A    between atoms: C18_24  and  O6_25 
ROOT
HETATM    1  C4  UNL     1       0.799  53.704 -22.704  1.00  0.00     0.154 C 
ENDROOT
BRANCH   1   2
HETATM    2  C3  UNL     1       0.995  53.535 -24.230  1.00  0.00     0.280 C 
HETATM    3  N1  UNL     1       0.770  52.142 -24.715  1.00  0.00     0.102 N 
HETATM    4  C2  UNL     1       0.301  52.289 -26.130  1.00  0.00     0.275 C 
HETATM    5  H5  UNL     1      -0.005  51.729 -24.191  1.00  0.00     0.317 HD
HETATM    6  C18 UNL     1       0.326  53.782 -26.475  1.00  0.00     0.184 C 
HETATM    7  C17 UNL     1       0.125  54.432 -25.111  1.00  0.00     0.184 C 
BRANCH   4   8
HETATM    8  C1  UNL     1       1.169  51.459 -27.080  1.00  0.00     0.202 C 
BRANCH   8   9
HETATM    9  O1  UNL     1       0.783  51.718 -28.430  1.00  0.00    -0.399 OA
HETATM   10  H1  UNL     1      -0.190  51.624 -28.429  1.00  0.00     0.209 HD
ENDBRANCH   8   9
ENDBRANCH   4   8
BRANCH   6  11
HETATM   11  O6  UNL     1      -0.719  54.147 -27.368  1.00  0.00    -0.391 OA
HETATM   12  H33 UNL     1      -0.494  55.024 -27.728  1.00  0.00     0.210 HD
ENDBRANCH   6  11
BRANCH   7  13
HETATM   13  O5  UNL     1       0.566  55.784 -25.115  1.00  0.00    -0.391 OA
HETATM   14  H31 UNL     1      -0.127  56.309 -25.552  1.00  0.00     0.210 HD
ENDBRANCH   7  13
ENDBRANCH   1   2
BRANCH   1  15
HETATM   15  O2  UNL     1       1.714  54.721 -22.265  1.00  0.00    -0.393 OA
HETATM   16  H8  UNL     1       2.514  54.631 -22.818  1.00  0.00     0.210 HD
ENDBRANCH   1  15
BRANCH   1  17
HETATM   17  C5  UNL     1       1.057  52.439 -21.867  1.00  0.00     0.034 C 
BRANCH  17  18
HETATM   18  C6  UNL     1      -0.179  51.929 -21.106  1.00  0.00     0.005 C 
BRANCH  18  19
HETATM   19  C7  UNL     1      -0.847  50.701 -21.734  1.00  0.00     0.032 C 
BRANCH  19  20
HETATM   20  C8  UNL     1      -1.545  50.985 -23.074  1.00  0.00     0.125 C 
HETATM   21  C9  UNL     1      -2.461  52.207 -23.019  1.00  0.00     0.032 C 
HETATM   22  C10 UNL     1      -3.054  52.494 -24.397  1.00  0.00     0.008 C 
HETATM   23  C11 UNL     1      -3.147  51.231 -25.257  1.00  0.00     0.068 C 
HETATM   24  C12 UNL     1      -3.319  49.971 -24.394  1.00  0.00     0.164 C 
HETATM   25  C13 UNL     1      -3.371  48.708 -25.286  1.00  0.00     0.068 C 
HETATM   26  O3  UNL     1      -4.536  50.137 -23.647  1.00  0.00    -0.355 OA
HETATM   27  O4  UNL     1      -2.218  49.796 -23.496  1.00  0.00    -0.350 OA
HETATM   28  C14 UNL     1      -4.800  48.344 -25.661  1.00  0.00     0.007 C 
HETATM   29  C15 UNL     1      -5.643  48.135 -24.404  1.00  0.00     0.026 C 
HETATM   30  C16 UNL     1      -5.091  48.904 -23.209  1.00  0.00     0.171 C 
ENDBRANCH  19  20
ENDBRANCH  18  19
ENDBRANCH  17  18
ENDBRANCH   1  17
TORSDOF 10
ENDMDL
MODEL 9
REMARK minimizedAffinity -7.73371363
REMARK  10 active torsions:
REMARK  status: ('A' for Active; 'I' for Inactive)
REMARK    1  A    between atoms: O1_1  and  C1_2 
REMARK    2  A    between atoms: C1_2  and  C2_3 
REMARK    3  A    between atoms: C3_5  and  C4_6 
REMARK    4  A    between atoms: C4_6  and  O2_7 
REMARK    5  A    between atoms: C4_6  and  C5_8 
REMARK    6  A    between atoms: C5_8  and  C6_9 
REMARK    7  A    between atoms: C6_9  and  C7_10 
REMARK    8  A    between atoms: C7_10  and  C8_11 
REMARK    9  A    between atoms: C17_22  and  O5_23 
REMARK   10  A    between atoms: C18_24  and  O6_25 
ROOT
HETATM    1  C4  UNL     1      -5.821  47.750 -27.955  1.00  0.00     0.154 C 
ENDROOT
BRANCH   1   2
HETATM    2  C3  UNL     1      -6.119  48.175 -29.414  1.00  0.00     0.280 C 
HETATM    3  N1  UNL     1      -5.420  47.343 -30.437  1.00  0.00     0.102 N 
HETATM    4  C2  UNL     1      -6.304  47.381 -31.645  1.00  0.00     0.275 C 
HETATM    5  H5  UNL     1      -5.401  46.371 -30.119  1.00  0.00     0.317 HD
HETATM    6  C18 UNL     1      -7.486  48.303 -31.328  1.00  0.00     0.184 C 
HETATM    7  C17 UNL     1      -7.595  48.178 -29.812  1.00  0.00     0.184 C 
BRANCH   4   8
HETATM    8  C1  UNL     1      -5.521  47.845 -32.878  1.00  0.00     0.202 C 
BRANCH   8   9
HETATM    9  O1  UNL     1      -4.315  48.487 -32.464  1.00  0.00    -0.399 OA
HETATM   10  H1  UNL     1      -4.599  49.127 -31.781  1.00  0.00     0.209 HD
ENDBRANCH   8   9
ENDBRANCH   4   8
BRANCH   6  11
HETATM   11  O6  UNL     1      -8.688  47.877 -31.958  1.00  0.00    -0.391 OA
HETATM   12  H33 UNL     1      -9.311  48.624 -31.918  1.00  0.00     0.210 HD
ENDBRANCH   6  11
BRANCH   7  13
HETATM   13  O5  UNL     1      -8.307  49.275 -29.255  1.00  0.00    -0.391 OA
HETATM   14  H31 UNL     1      -9.253  49.111 -29.413  1.00  0.00     0.210 HD
ENDBRANCH   7  13
ENDBRANCH   1   2
BRANCH   1  15
HETATM   15  O2  UNL     1      -6.922  48.194 -27.147  1.00  0.00    -0.393 OA
HETATM   16  H8  UNL     1      -7.229  49.036 -27.536  1.00  0.00     0.210 HD
ENDBRANCH   1  15
BRANCH   1  17
HETATM   17  C5  UNL     1      -4.528  48.328 -27.356  1.00  0.00     0.034 C 
BRANCH  17  18
HETATM   18  C6  UNL     1      -4.525  48.398 -25.820  1.00  0.00     0.005 C 
BRANCH  18  19
HETATM   19  C7  UNL     1      -3.180  48.799 -25.206  1.00  0.00     0.032 C 
BRANCH  19  20
HETATM   20  C8  UNL     1      -3.301  49.701 -23.967  1.00  0.00     0.125 C 
HETATM   21  C9  UNL     1      -4.134  50.957 -24.226  1.00  0.00     0.032 C 
HETATM   22  C10 UNL     1      -4.296  51.766 -22.941  1.00  0.00     0.008 C 
HETATM   23  C11 UNL     1      -3.138  51.536 -21.967  1.00  0.00     0.068 C 
HETATM   24  C12 UNL     1      -1.838  51.181 -22.707  1.00  0.00     0.164 C 
HETATM   25  C13 UNL     1      -0.697  50.916 -21.697  1.00  0.00     0.068 C 
HETATM   26  O3  UNL     1      -1.530  52.289 -23.568  1.00  0.00    -0.355 OA
HETATM   27  O4  UNL     1      -1.986  49.988 -23.483  1.00  0.00    -0.350 OA
HETATM   28  C14 UNL     1       0.103  52.178 -21.410  1.00  0.00     0.007 C 
HETATM   29  C15 UNL     1       0.672  52.753 -22.706  1.00  0.00     0.026 C 
HETATM   30  C16 UNL     1      -0.155  52.352 -23.923  1.00  0.00     0.171 C 
ENDBRANCH  19  20
ENDBRANCH  18  19
ENDBRANCH  17  18
ENDBRANCH   1  17
TORSDOF 10
ENDMDL
