MODEL 1
REMARK minimizedAffinity -9.29315853
REMARK CNNscore 0.536364019
REMARK CNNaffinity 8.09280682
REMARK  6 active torsions:
REMARK  status: ('A' for Active; 'I' for Inactive)
REMARK    1  A    between atoms: C4_4  and  C5_5 
REMARK    2  A    between atoms: C5_5  and  C6_6 
REMARK    3  A    between atoms: C6_6  and  C7_7 
REMARK    4  A    between atoms: C19_21  and  C20_22 
REMARK    5  A    between atoms: C26_28  and  C27_29 
REMARK    6  A    between atoms: C30_32  and  O2_33 
ROOT
HETATM    1  C7  UNL     1      -2.798  48.398 -18.078  1.00  0.00     0.082 C 
HETATM    2  C8  UNL     1      -4.062  48.913 -17.378  1.00  0.00     0.051 C 
HETATM    3  C9  UNL     1      -3.022  48.396 -19.577  1.00  0.00     0.012 C 
HETATM    4  C10 UNL     1      -2.411  49.230 -20.424  1.00  0.00     0.015 C 
HETATM    5  C11 UNL     1      -1.491  50.195 -19.859  1.00  0.00     0.025 A 
HETATM    6  C12 UNL     1      -1.185  50.185 -18.494  1.00  0.00     0.088 A 
HETATM    7  O1  UNL     1      -1.725  49.269 -17.632  1.00  0.00    -0.335 OA
HETATM    8  C13 UNL     1      -0.286  51.110 -17.946  1.00  0.00    -0.027 A 
HETATM    9  C14 UNL     1       0.047  51.081 -16.482  1.00  0.00     0.051 C 
HETATM   10  C15 UNL     1       0.312  52.073 -18.779  1.00  0.00     0.024 A 
HETATM   11  C16 UNL     1       0.011  52.106 -20.157  1.00  0.00     0.005 A 
HETATM   12  C17 UNL     1      -0.880  51.165 -20.672  1.00  0.00     0.057 A 
HETATM   13  N1  UNL     1      -0.979  51.420 -22.019  1.00  0.00    -0.354 N 
HETATM   14  C18 UNL     1      -0.206  52.498 -22.399  1.00  0.00     0.053 A 
HETATM   15  C19 UNL     1      -0.041  53.100 -23.674  1.00  0.00     0.011 A 
HETATM   16  C30 UNL     1       0.881  54.169 -23.706  1.00  0.00     0.074 A 
HETATM   17  C31 UNL     1       1.536  54.638 -22.567  1.00  0.00     0.038 A 
HETATM   18  C32 UNL     1       1.315  54.035 -21.329  1.00  0.00     0.017 A 
HETATM   19  C33 UNL     1       0.435  52.939 -21.242  1.00  0.00     0.004 A 
HETATM   20  H21 UNL     1      -1.557  50.888 -22.652  1.00  0.00     0.166 HD
ENDROOT
BRANCH  15  21
HETATM   21  C20 UNL     1      -0.747  52.575 -24.927  1.00  0.00     0.051 C 
HETATM   22  C21 UNL     1      -2.204  52.313 -24.582  1.00  0.00    -0.014 C 
HETATM   23  C22 UNL     1      -2.868  51.185 -24.878  1.00  0.00    -0.087 C 
HETATM   24  C23 UNL     1      -4.284  50.946 -24.441  1.00  0.00     0.043 C 
HETATM   25  C24 UNL     1      -2.213  50.083 -25.655  1.00  0.00     0.034 C 
HETATM   26  C25 UNL     1      -1.033  50.576 -26.491  1.00  0.00     0.010 C 
HETATM   27  C26 UNL     1      -0.012  51.399 -25.672  1.00  0.00     0.001 C 
BRANCH  27  28
HETATM   28  C27 UNL     1       1.161  51.892 -26.596  1.00  0.00    -0.018 C 
HETATM   29  C28 UNL     1       0.846  51.710 -28.089  1.00  0.00     0.010 C 
HETATM   30  C29 UNL     1       2.493  51.190 -26.312  1.00  0.00     0.010 C 
ENDBRANCH  27  28
ENDBRANCH  15  21
BRANCH  16  31
HETATM   31  O2  UNL     1       1.163  54.764 -24.909  1.00  0.00    -0.360 OA
HETATM   32  H39 UNL     1       1.881  55.405 -24.785  1.00  0.00     0.217 HD
ENDBRANCH  16  31
BRANCH   1  33
HETATM   33  C6  UNL     1      -2.381  46.995 -17.560  1.00  0.00     0.046 C 
BRANCH  33  34
HETATM   34  C5  UNL     1      -3.454  45.908 -17.407  1.00  0.00     0.030 C 
BRANCH  34  35
HETATM   35  C4  UNL     1      -3.751  45.464 -16.004  1.00  0.00    -0.025 C 
HETATM   36  C2  UNL     1      -4.912  45.604 -15.336  1.00  0.00    -0.091 C 
HETATM   37  C1  UNL     1      -5.066  45.073 -13.935  1.00  0.00     0.042 C 
HETATM   38  C3  UNL     1      -6.137  46.285 -15.881  1.00  0.00     0.042 C 
ENDBRANCH  34  35
ENDBRANCH  33  34
ENDBRANCH   1  33
TORSDOF 6
ENDMDL
MODEL 2
REMARK minimizedAffinity -10.0616751
REMARK CNNscore 0.502061844
REMARK CNNaffinity 7.81845999
REMARK  6 active torsions:
REMARK  status: ('A' for Active; 'I' for Inactive)
REMARK    1  A    between atoms: C4_4  and  C5_5 
REMARK    2  A    between atoms: C5_5  and  C6_6 
REMARK    3  A    between atoms: C6_6  and  C7_7 
REMARK    4  A    between atoms: C19_21  and  C20_22 
REMARK    5  A    between atoms: C26_28  and  C27_29 
REMARK    6  A    between atoms: C30_32  and  O2_33 
ROOT
HETATM    1  C7  UNL     1      -3.362  47.596 -18.942  1.00  0.00     0.082 C 
HETATM    2  C8  UNL     1      -4.634  48.068 -18.225  1.00  0.00     0.051 C 
HETATM    3  C9  UNL     1      -3.483  47.895 -20.423  1.00  0.00     0.012 C 
HETATM    4  C10 UNL     1      -2.761  48.823 -21.059  1.00  0.00     0.015 C 
HETATM    5  C11 UNL     1      -1.821  49.590 -20.269  1.00  0.00     0.025 A 
HETATM    6  C12 UNL     1      -1.610  49.299 -18.917  1.00  0.00     0.088 A 
HETATM    7  O1  UNL     1      -2.267  48.281 -18.278  1.00  0.00    -0.335 OA
HETATM    8  C13 UNL     1      -0.691  50.031 -18.153  1.00  0.00    -0.027 A 
HETATM    9  C14 UNL     1      -0.461  49.700 -16.706  1.00  0.00     0.051 C 
HETATM   10  C15 UNL     1       0.025  51.083 -18.751  1.00  0.00     0.024 A 
HETATM   11  C16 UNL     1      -0.179  51.399 -20.111  1.00  0.00     0.005 A 
HETATM   12  C17 UNL     1      -1.092  50.645 -20.844  1.00  0.00     0.057 A 
HETATM   13  N1  UNL     1      -1.082  51.156 -22.121  1.00  0.00    -0.354 N 
HETATM   14  C18 UNL     1      -0.216  52.222 -22.243  1.00  0.00     0.053 A 
HETATM   15  C19 UNL     1       0.076  53.039 -23.367  1.00  0.00     0.011 A 
HETATM   16  C30 UNL     1       1.066  54.020 -23.142  1.00  0.00     0.074 A 
HETATM   17  C31 UNL     1       1.671  54.213 -21.900  1.00  0.00     0.038 A 
HETATM   18  C32 UNL     1       1.327  53.407 -20.816  1.00  0.00     0.017 A 
HETATM   19  C33 UNL     1       0.373  52.387 -20.989  1.00  0.00     0.004 A 
HETATM   20  H21 UNL     1      -1.650  50.800 -22.874  1.00  0.00     0.166 HD
ENDROOT
BRANCH  15  21
HETATM   21  C20 UNL     1      -0.576  52.818 -24.734  1.00  0.00     0.051 C 
HETATM   22  C21 UNL     1      -2.085  52.794 -24.548  1.00  0.00    -0.014 C 
HETATM   23  C22 UNL     1      -2.903  51.857 -25.053  1.00  0.00    -0.087 C 
HETATM   24  C23 UNL     1      -4.376  51.837 -24.768  1.00  0.00     0.043 C 
HETATM   25  C24 UNL     1      -2.374  50.757 -25.922  1.00  0.00     0.034 C 
HETATM   26  C25 UNL     1      -1.045  51.118 -26.583  1.00  0.00     0.010 C 
HETATM   27  C26 UNL     1       0.014  51.626 -25.577  1.00  0.00     0.001 C 
BRANCH  27  28
HETATM   28  C27 UNL     1       1.345  52.000 -26.324  1.00  0.00    -0.018 C 
HETATM   29  C28 UNL     1       1.148  52.129 -27.843  1.00  0.00     0.010 C 
HETATM   30  C29 UNL     1       2.478  50.997 -26.086  1.00  0.00     0.010 C 
ENDBRANCH  27  28
ENDBRANCH  15  21
BRANCH  16  31
HETATM   31  O2  UNL     1       1.469  54.808 -24.190  1.00  0.00    -0.360 OA
HETATM   32  H39 UNL     1       2.217  55.355 -23.906  1.00  0.00     0.217 HD
ENDBRANCH  16  31
BRANCH   1  33
HETATM   33  C6  UNL     1      -3.075  46.092 -18.683  1.00  0.00     0.046 C 
BRANCH  33  34
HETATM   34  C5  UNL     1      -3.991  45.038 -19.322  1.00  0.00     0.030 C 
BRANCH  34  35
HETATM   35  C4  UNL     1      -4.694  45.450 -20.583  1.00  0.00    -0.025 C 
HETATM   36  C2  UNL     1      -6.023  45.473 -20.801  1.00  0.00    -0.091 C 
HETATM   37  C1  UNL     1      -6.581  45.946 -22.117  1.00  0.00     0.042 C 
HETATM   38  C3  UNL     1      -7.063  45.041 -19.804  1.00  0.00     0.042 C 
ENDBRANCH  34  35
ENDBRANCH  33  34
ENDBRANCH   1  33
TORSDOF 6
ENDMDL
MODEL 3
REMARK minimizedAffinity -7.82902718
REMARK CNNscore 0.420879543
REMARK CNNaffinity 6.71560287
REMARK  6 active torsions:
REMARK  status: ('A' for Active; 'I' for Inactive)
REMARK    1  A    between atoms: C4_4  and  C5_5 
REMARK    2  A    between atoms: C5_5  and  C6_6 
REMARK    3  A    between atoms: C6_6  and  C7_7 
REMARK    4  A    between atoms: C19_21  and  C20_22 
REMARK    5  A    between atoms: C26_28  and  C27_29 
REMARK    6  A    between atoms: C30_32  and  O2_33 
ROOT
HETATM    1  C7  UNL     1       3.835  55.303  -7.899  1.00  0.00     0.082 C 
HETATM    2  C8  UNL     1       3.902  54.552  -6.562  1.00  0.00     0.051 C 
HETATM    3  C9  UNL     1       4.413  54.428  -8.993  1.00  0.00     0.012 C 
HETATM    4  C10 UNL     1       3.685  53.874  -9.968  1.00  0.00     0.015 C 
HETATM    5  C11 UNL     1       2.258  54.125  -9.957  1.00  0.00     0.025 A 
HETATM    6  C12 UNL     1       1.687  54.991  -9.020  1.00  0.00     0.088 A 
HETATM    7  O1  UNL     1       2.435  55.647  -8.080  1.00  0.00    -0.335 OA
HETATM    8  C13 UNL     1       0.308  55.245  -9.015  1.00  0.00    -0.027 A 
HETATM    9  C14 UNL     1      -0.294  56.189  -8.013  1.00  0.00     0.051 C 
HETATM   10  C15 UNL     1      -0.517  54.611  -9.960  1.00  0.00     0.024 A 
HETATM   11  C16 UNL     1       0.038  53.726 -10.909  1.00  0.00     0.005 A 
HETATM   12  C17 UNL     1       1.413  53.504 -10.893  1.00  0.00     0.057 A 
HETATM   13  N1  UNL     1       1.676  52.623 -11.915  1.00  0.00    -0.354 N 
HETATM   14  C18 UNL     1       0.529  52.248 -12.582  1.00  0.00     0.053 A 
HETATM   15  C19 UNL     1       0.354  51.352 -13.669  1.00  0.00     0.011 A 
HETATM   16  C30 UNL     1      -0.973  51.245 -14.138  1.00  0.00     0.074 A 
HETATM   17  C31 UNL     1      -2.041  51.921 -13.547  1.00  0.00     0.038 A 
HETATM   18  C32 UNL     1      -1.825  52.765 -12.458  1.00  0.00     0.017 A 
HETATM   19  C33 UNL     1      -0.516  52.941 -11.971  1.00  0.00     0.004 A 
HETATM   20  H21 UNL     1       2.598  52.283 -12.142  1.00  0.00     0.166 HD
ENDROOT
BRANCH  15  21
HETATM   21  C20 UNL     1       1.527  50.623 -14.328  1.00  0.00     0.051 C 
HETATM   22  C21 UNL     1       1.661  49.251 -13.687  1.00  0.00    -0.014 C 
HETATM   23  C22 UNL     1       2.811  48.728 -13.234  1.00  0.00    -0.087 C 
HETATM   24  C23 UNL     1       2.871  47.402 -12.534  1.00  0.00     0.043 C 
HETATM   25  C24 UNL     1       4.108  49.463 -13.388  1.00  0.00     0.034 C 
HETATM   26  C25 UNL     1       4.071  50.488 -14.520  1.00  0.00     0.010 C 
HETATM   27  C26 UNL     1       2.864  51.449 -14.428  1.00  0.00     0.001 C 
BRANCH  27  28
HETATM   28  C27 UNL     1       2.875  52.460 -15.632  1.00  0.00    -0.018 C 
HETATM   29  C28 UNL     1       1.897  52.055 -16.746  1.00  0.00     0.010 C 
HETATM   30  C29 UNL     1       4.259  52.633 -16.267  1.00  0.00     0.010 C 
ENDBRANCH  27  28
ENDBRANCH  15  21
BRANCH  16  31
HETATM   31  O2  UNL     1      -1.229  50.461 -15.234  1.00  0.00    -0.360 OA
HETATM   32  H39 UNL     1      -2.156  50.569 -15.493  1.00  0.00     0.217 HD
ENDBRANCH  16  31
BRANCH   1  33
HETATM   33  C6  UNL     1       4.552  56.678  -7.827  1.00  0.00     0.046 C 
BRANCH  33  34
HETATM   34  C5  UNL     1       5.912  56.773  -7.121  1.00  0.00     0.030 C 
BRANCH  34  35
HETATM   35  C4  UNL     1       5.953  57.609  -5.874  1.00  0.00    -0.025 C 
HETATM   36  C2  UNL     1       4.911  58.195  -5.254  1.00  0.00    -0.091 C 
HETATM   37  C1  UNL     1       5.109  58.980  -3.985  1.00  0.00     0.042 C 
HETATM   38  C3  UNL     1       3.488  58.146  -5.738  1.00  0.00     0.042 C 
ENDBRANCH  34  35
ENDBRANCH  33  34
ENDBRANCH   1  33
TORSDOF 6
ENDMDL
MODEL 4
REMARK minimizedAffinity -7.39530039
REMARK CNNscore 0.413688809
REMARK CNNaffinity 5.21855021
REMARK  6 active torsions:
REMARK  status: ('A' for Active; 'I' for Inactive)
REMARK    1  A    between atoms: C4_4  and  C5_5 
REMARK    2  A    between atoms: C5_5  and  C6_6 
REMARK    3  A    between atoms: C6_6  and  C7_7 
REMARK    4  A    between atoms: C19_21  and  C20_22 
REMARK    5  A    between atoms: C26_28  and  C27_29 
REMARK    6  A    between atoms: C30_32  and  O2_33 
ROOT
HETATM    1  C7  UNL     1      -3.749  40.145 -34.591  1.00  0.00     0.082 C 
HETATM    2  C8  UNL     1      -3.520  40.062 -36.106  1.00  0.00     0.051 C 
HETATM    3  C9  UNL     1      -3.446  41.552 -34.116  1.00  0.00     0.012 C 
HETATM    4  C10 UNL     1      -4.375  42.410 -33.685  1.00  0.00     0.015 C 
HETATM    5  C11 UNL     1      -5.751  41.959 -33.691  1.00  0.00     0.025 A 
HETATM    6  C12 UNL     1      -6.076  40.645 -34.041  1.00  0.00     0.088 A 
HETATM    7  O1  UNL     1      -5.123  39.723 -34.384  1.00  0.00    -0.335 OA
HETATM    8  C13 UNL     1      -7.406  40.201 -34.035  1.00  0.00    -0.027 A 
HETATM    9  C14 UNL     1      -7.743  38.783 -34.398  1.00  0.00     0.051 C 
HETATM   10  C15 UNL     1      -8.433  41.094 -33.683  1.00  0.00     0.024 A 
HETATM   11  C16 UNL     1      -8.128  42.428 -33.335  1.00  0.00     0.005 A 
HETATM   12  C17 UNL     1      -6.795  42.833 -33.341  1.00  0.00     0.057 A 
HETATM   13  N1  UNL     1      -6.788  44.154 -32.959  1.00  0.00    -0.354 N 
HETATM   14  C18 UNL     1      -8.062  44.629 -32.723  1.00  0.00     0.053 A 
HETATM   15  C19 UNL     1      -8.497  45.924 -32.338  1.00  0.00     0.011 A 
HETATM   16  C30 UNL     1      -9.890  46.042 -32.134  1.00  0.00     0.074 A 
HETATM   17  C31 UNL     1     -10.777  44.988 -32.351  1.00  0.00     0.038 A 
HETATM   18  C32 UNL     1     -10.305  43.742 -32.763  1.00  0.00     0.017 A 
HETATM   19  C33 UNL     1      -8.922  43.554 -32.945  1.00  0.00     0.004 A 
HETATM   20  H21 UNL     1      -5.952  44.711 -32.871  1.00  0.00     0.166 HD
ENDROOT
BRANCH  15  21
HETATM   21  C20 UNL     1      -7.522  47.076 -32.084  1.00  0.00     0.051 C 
HETATM   22  C21 UNL     1      -7.035  47.596 -33.427  1.00  0.00    -0.014 C 
HETATM   23  C22 UNL     1      -5.749  47.818 -33.739  1.00  0.00    -0.087 C 
HETATM   24  C23 UNL     1      -5.317  48.254 -35.109  1.00  0.00     0.043 C 
HETATM   25  C24 UNL     1      -4.662  47.620 -32.726  1.00  0.00     0.034 C 
HETATM   26  C25 UNL     1      -5.176  47.702 -31.290  1.00  0.00     0.010 C 
HETATM   27  C26 UNL     1      -6.392  46.783 -31.028  1.00  0.00     0.001 C 
BRANCH  27  28
HETATM   28  C27 UNL     1      -6.882  46.932 -29.543  1.00  0.00    -0.018 C 
HETATM   29  C28 UNL     1      -5.855  47.658 -28.658  1.00  0.00     0.010 C 
HETATM   30  C29 UNL     1      -7.210  45.594 -28.873  1.00  0.00     0.010 C 
ENDBRANCH  27  28
ENDBRANCH  15  21
BRANCH  16  31
HETATM   31  O2  UNL     1     -10.396  47.235 -31.687  1.00  0.00    -0.360 OA
HETATM   32  H39 UNL     1     -11.341  47.129 -31.501  1.00  0.00     0.217 HD
ENDBRANCH  16  31
BRANCH   1  33
HETATM   33  C6  UNL     1      -2.913  39.087 -33.821  1.00  0.00     0.046 C 
BRANCH  33  34
HETATM   34  C5  UNL     1      -1.470  39.426 -33.421  1.00  0.00     0.030 C 
BRANCH  34  35
HETATM   35  C4  UNL     1      -0.686  38.321 -32.773  1.00  0.00    -0.025 C 
HETATM   36  C2  UNL     1      -0.612  38.042 -31.457  1.00  0.00    -0.091 C 
HETATM   37  C1  UNL     1       0.195  36.872 -30.961  1.00  0.00     0.042 C 
HETATM   38  C3  UNL     1      -1.290  38.834 -30.373  1.00  0.00     0.042 C 
ENDBRANCH  34  35
ENDBRANCH  33  34
ENDBRANCH   1  33
TORSDOF 6
ENDMDL
MODEL 5
REMARK minimizedAffinity -10.0958767
REMARK CNNscore 0.408658266
REMARK CNNaffinity 7.72111654
REMARK  6 active torsions:
REMARK  status: ('A' for Active; 'I' for Inactive)
REMARK    1  A    between atoms: C4_4  and  C5_5 
REMARK    2  A    between atoms: C5_5  and  C6_6 
REMARK    3  A    between atoms: C6_6  and  C7_7 
REMARK    4  A    between atoms: C19_21  and  C20_22 
REMARK    5  A    between atoms: C26_28  and  C27_29 
REMARK    6  A    between atoms: C30_32  and  O2_33 
ROOT
HETATM    1  C7  UNL     1      -2.961  49.100 -26.341  1.00  0.00     0.082 C 
HETATM    2  C8  UNL     1      -2.141  47.956 -26.953  1.00  0.00     0.051 C 
HETATM    3  C9  UNL     1      -3.272  48.773 -24.894  1.00  0.00     0.012 C 
HETATM    4  C10 UNL     1      -2.737  49.417 -23.852  1.00  0.00     0.015 C 
HETATM    5  C11 UNL     1      -1.796  50.479 -24.139  1.00  0.00     0.025 A 
HETATM    6  C12 UNL     1      -1.537  50.876 -25.455  1.00  0.00     0.088 A 
HETATM    7  O1  UNL     1      -2.157  50.295 -26.528  1.00  0.00    -0.335 OA
HETATM    8  C13 UNL     1      -0.636  51.913 -25.735  1.00  0.00    -0.027 A 
HETATM    9  C14 UNL     1      -0.376  52.342 -27.151  1.00  0.00     0.051 C 
HETATM   10  C15 UNL     1       0.028  52.559 -24.677  1.00  0.00     0.024 A 
HETATM   11  C16 UNL     1      -0.212  52.168 -23.343  1.00  0.00     0.005 A 
HETATM   12  C17 UNL     1      -1.121  51.141 -23.099  1.00  0.00     0.057 A 
HETATM   13  N1  UNL     1      -1.167  50.979 -21.734  1.00  0.00    -0.354 N 
HETATM   14  C18 UNL     1      -0.312  51.843 -21.082  1.00  0.00     0.053 A 
HETATM   15  C19 UNL     1      -0.039  51.988 -19.697  1.00  0.00     0.011 A 
HETATM   16  C30 UNL     1       0.866  53.023 -19.379  1.00  0.00     0.074 A 
HETATM   17  C31 UNL     1       1.492  53.806 -20.350  1.00  0.00     0.038 A 
HETATM   18  C32 UNL     1       1.218  53.603 -21.702  1.00  0.00     0.017 A 
HETATM   19  C33 UNL     1       0.293  52.611 -22.078  1.00  0.00     0.004 A 
HETATM   20  H21 UNL     1      -1.749  50.300 -21.267  1.00  0.00     0.166 HD
ENDROOT
BRANCH  15  21
HETATM   21  C20 UNL     1      -0.737  51.141 -18.630  1.00  0.00     0.051 C 
HETATM   22  C21 UNL     1      -0.270  51.611 -17.262  1.00  0.00    -0.014 C 
HETATM   23  C22 UNL     1       0.161  50.802 -16.282  1.00  0.00    -0.087 C 
HETATM   24  C23 UNL     1       0.689  51.327 -14.979  1.00  0.00     0.043 C 
HETATM   25  C24 UNL     1       0.154  49.313 -16.449  1.00  0.00     0.034 C 
HETATM   26  C25 UNL     1      -0.841  48.846 -17.512  1.00  0.00     0.010 C 
HETATM   27  C26 UNL     1      -0.678  49.584 -18.860  1.00  0.00     0.001 C 
BRANCH  27  28
HETATM   28  C27 UNL     1      -1.743  49.073 -19.897  1.00  0.00    -0.018 C 
HETATM   29  C28 UNL     1      -3.101  48.774 -19.242  1.00  0.00     0.010 C 
HETATM   30  C29 UNL     1      -1.302  47.814 -20.650  1.00  0.00     0.010 C 
ENDBRANCH  27  28
ENDBRANCH  15  21
BRANCH  16  31
HETATM   31  O2  UNL     1       1.134  53.289 -18.060  1.00  0.00    -0.360 OA
HETATM   32  H39 UNL     1       1.687  54.083 -18.002  1.00  0.00     0.217 HD
ENDBRANCH  16  31
BRANCH   1  33
HETATM   33  C6  UNL     1      -4.252  49.386 -27.154  1.00  0.00     0.046 C 
BRANCH  33  34
HETATM   34  C5  UNL     1      -4.634  48.442 -28.303  1.00  0.00     0.030 C 
BRANCH  34  35
HETATM   35  C4  UNL     1      -5.929  47.698 -28.146  1.00  0.00    -0.025 C 
HETATM   36  C2  UNL     1      -6.521  46.898 -29.053  1.00  0.00    -0.091 C 
HETATM   37  C1  UNL     1      -7.811  46.190 -28.733  1.00  0.00     0.042 C 
HETATM   38  C3  UNL     1      -5.995  46.635 -30.437  1.00  0.00     0.042 C 
ENDBRANCH  34  35
ENDBRANCH  33  34
ENDBRANCH   1  33
TORSDOF 6
ENDMDL
MODEL 6
REMARK minimizedAffinity -9.38544846
REMARK CNNscore 0.332860649
REMARK CNNaffinity 7.2161088
REMARK  6 active torsions:
REMARK  status: ('A' for Active; 'I' for Inactive)
REMARK    1  A    between atoms: C4_4  and  C5_5 
REMARK    2  A    between atoms: C5_5  and  C6_6 
REMARK    3  A    between atoms: C6_6  and  C7_7 
REMARK    4  A    between atoms: C19_21  and  C20_22 
REMARK    5  A    between atoms: C26_28  and  C27_29 
REMARK    6  A    between atoms: C30_32  and  O2_33 
ROOT
HETATM    1  C7  UNL     1      -3.723  46.625 -18.953  1.00  0.00     0.082 C 
HETATM    2  C8  UNL     1      -5.079  47.063 -18.385  1.00  0.00     0.051 C 
HETATM    3  C9  UNL     1      -3.740  46.779 -20.460  1.00  0.00     0.012 C 
HETATM    4  C10 UNL     1      -3.032  47.697 -21.125  1.00  0.00     0.015 C 
HETATM    5  C11 UNL     1      -2.214  48.601 -20.342  1.00  0.00     0.025 A 
HETATM    6  C12 UNL     1      -2.098  48.450 -18.957  1.00  0.00     0.088 A 
HETATM    7  O1  UNL     1      -2.736  47.449 -18.275  1.00  0.00    -0.335 OA
HETATM    8  C13 UNL     1      -1.298  49.316 -18.198  1.00  0.00    -0.027 A 
HETATM    9  C14 UNL     1      -1.169  49.136 -16.712  1.00  0.00     0.051 C 
HETATM   10  C15 UNL     1      -0.608  50.361 -18.838  1.00  0.00     0.024 A 
HETATM   11  C16 UNL     1      -0.718  50.536 -20.233  1.00  0.00     0.005 A 
HETATM   12  C17 UNL     1      -1.514  49.652 -20.959  1.00  0.00     0.057 A 
HETATM   13  N1  UNL     1      -1.432  50.045 -22.274  1.00  0.00    -0.354 N 
HETATM   14  C18 UNL     1      -0.632  51.158 -22.432  1.00  0.00     0.053 A 
HETATM   15  C19 UNL     1      -0.304  51.889 -23.603  1.00  0.00     0.011 A 
HETATM   16  C30 UNL     1       0.595  52.958 -23.398  1.00  0.00     0.074 A 
HETATM   17  C31 UNL     1       1.080  53.308 -22.138  1.00  0.00     0.038 A 
HETATM   18  C32 UNL     1       0.702  52.580 -21.010  1.00  0.00     0.017 A 
HETATM   19  C33 UNL     1      -0.163  51.479 -21.158  1.00  0.00     0.004 A 
HETATM   20  H21 UNL     1      -1.908  49.580 -23.032  1.00  0.00     0.166 HD
ENDROOT
BRANCH  15  21
HETATM   21  C20 UNL     1      -0.822  51.496 -24.989  1.00  0.00     0.051 C 
HETATM   22  C21 UNL     1       0.372  51.274 -25.902  1.00  0.00    -0.014 C 
HETATM   23  C22 UNL     1       0.501  51.796 -27.132  1.00  0.00    -0.087 C 
HETATM   24  C23 UNL     1       1.740  51.611 -27.958  1.00  0.00     0.043 C 
HETATM   25  C24 UNL     1      -0.593  52.619 -27.741  1.00  0.00     0.034 C 
HETATM   26  C25 UNL     1      -1.959  52.334 -27.118  1.00  0.00     0.010 C 
HETATM   27  C26 UNL     1      -1.951  52.424 -25.574  1.00  0.00     0.001 C 
BRANCH  27  28
HETATM   28  C27 UNL     1      -3.377  52.099 -24.999  1.00  0.00    -0.018 C 
HETATM   29  C28 UNL     1      -3.567  52.627 -23.568  1.00  0.00     0.010 C 
HETATM   30  C29 UNL     1      -3.702  50.602 -24.990  1.00  0.00     0.010 C 
ENDBRANCH  27  28
ENDBRANCH  15  21
BRANCH  16  31
HETATM   31  O2  UNL     1       1.030  53.676 -24.483  1.00  0.00    -0.360 OA
HETATM   32  H39 UNL     1       1.713  54.302 -24.196  1.00  0.00     0.217 HD
ENDBRANCH  16  31
BRANCH   1  33
HETATM   33  C6  UNL     1      -3.357  45.177 -18.528  1.00  0.00     0.046 C 
BRANCH  33  34
HETATM   34  C5  UNL     1      -3.840  44.004 -19.392  1.00  0.00     0.030 C 
BRANCH  34  35
HETATM   35  C4  UNL     1      -5.255  43.555 -19.169  1.00  0.00    -0.025 C 
HETATM   36  C2  UNL     1      -6.287  43.665 -20.028  1.00  0.00    -0.091 C 
HETATM   37  C1  UNL     1      -7.649  43.134 -19.669  1.00  0.00     0.042 C 
HETATM   38  C3  UNL     1      -6.208  44.309 -21.385  1.00  0.00     0.042 C 
ENDBRANCH  34  35
ENDBRANCH  33  34
ENDBRANCH   1  33
TORSDOF 6
ENDMDL
MODEL 7
REMARK minimizedAffinity -9.96728516
REMARK CNNscore 0.331885278
REMARK CNNaffinity 7.44743586
REMARK  6 active torsions:
REMARK  status: ('A' for Active; 'I' for Inactive)
REMARK    1  A    between atoms: C4_4  and  C5_5 
REMARK    2  A    between atoms: C5_5  and  C6_6 
REMARK    3  A    between atoms: C6_6  and  C7_7 
REMARK    4  A    between atoms: C19_21  and  C20_22 
REMARK    5  A    between atoms: C26_28  and  C27_29 
REMARK    6  A    between atoms: C30_32  and  O2_33 
ROOT
HETATM    1  C7  UNL     1      -1.759  49.630 -17.374  1.00  0.00     0.082 C 
HETATM    2  C8  UNL     1      -2.860  50.296 -16.538  1.00  0.00     0.051 C 
HETATM    3  C9  UNL     1      -2.298  49.326 -18.758  1.00  0.00     0.012 C 
HETATM    4  C10 UNL     1      -1.906  49.961 -19.867  1.00  0.00     0.015 C 
HETATM    5  C11 UNL     1      -0.916  51.007 -19.720  1.00  0.00     0.025 A 
HETATM    6  C12 UNL     1      -0.326  51.271 -18.479  1.00  0.00     0.088 A 
HETATM    7  O1  UNL     1      -0.642  50.558 -17.354  1.00  0.00    -0.335 OA
HETATM    8  C13 UNL     1       0.641  52.275 -18.336  1.00  0.00    -0.027 A 
HETATM    9  C14 UNL     1       1.280  52.540 -17.002  1.00  0.00     0.051 C 
HETATM   10  C15 UNL     1       1.019  53.039 -19.455  1.00  0.00     0.024 A 
HETATM   11  C16 UNL     1       0.430  52.795 -20.713  1.00  0.00     0.005 A 
HETATM   12  C17 UNL     1      -0.521  51.782 -20.823  1.00  0.00     0.057 A 
HETATM   13  N1  UNL     1      -0.913  51.759 -22.141  1.00  0.00    -0.354 N 
HETATM   14  C18 UNL     1      -0.272  52.725 -22.888  1.00  0.00     0.053 A 
HETATM   15  C19 UNL     1      -0.400  53.052 -24.263  1.00  0.00     0.011 A 
HETATM   16  C30 UNL     1       0.461  54.079 -24.708  1.00  0.00     0.074 A 
HETATM   17  C31 UNL     1       1.330  54.760 -23.855  1.00  0.00     0.038 A 
HETATM   18  C32 UNL     1       1.396  54.426 -22.503  1.00  0.00     0.017 A 
HETATM   19  C33 UNL     1       0.589  53.384 -22.010  1.00  0.00     0.004 A 
HETATM   20  H21 UNL     1      -1.597  51.118 -22.514  1.00  0.00     0.166 HD
ENDROOT
BRANCH  15  21
HETATM   21  C20 UNL     1      -1.341  52.294 -25.203  1.00  0.00     0.051 C 
HETATM   22  C21 UNL     1      -2.761  52.440 -24.681  1.00  0.00    -0.014 C 
HETATM   23  C22 UNL     1      -3.625  51.426 -24.520  1.00  0.00    -0.087 C 
HETATM   24  C23 UNL     1      -4.988  51.617 -23.922  1.00  0.00     0.043 C 
HETATM   25  C24 UNL     1      -3.258  50.028 -24.918  1.00  0.00     0.034 C 
HETATM   26  C25 UNL     1      -2.140  49.989 -25.958  1.00  0.00     0.010 C 
HETATM   27  C26 UNL     1      -0.903  50.823 -25.552  1.00  0.00     0.001 C 
BRANCH  27  28
HETATM   28  C27 UNL     1       0.196  50.756 -26.674  1.00  0.00    -0.018 C 
HETATM   29  C28 UNL     1       1.602  51.068 -26.136  1.00  0.00     0.010 C 
HETATM   30  C29 UNL     1      -0.075  51.702 -27.847  1.00  0.00     0.010 C 
ENDBRANCH  27  28
ENDBRANCH  15  21
BRANCH  16  31
HETATM   31  O2  UNL     1       0.463  54.413 -26.038  1.00  0.00    -0.360 OA
HETATM   32  H39 UNL     1       1.171  55.054 -26.203  1.00  0.00     0.217 HD
ENDBRANCH  16  31
BRANCH   1  33
HETATM   33  C6  UNL     1      -1.200  48.355 -16.685  1.00  0.00     0.046 C 
BRANCH  33  34
HETATM   34  C5  UNL     1      -0.483  48.492 -15.335  1.00  0.00     0.030 C 
BRANCH  34  35
HETATM   35  C4  UNL     1      -0.106  49.886 -14.924  1.00  0.00    -0.025 C 
HETATM   36  C2  UNL     1      -0.544  50.562 -13.844  1.00  0.00    -0.091 C 
HETATM   37  C1  UNL     1      -0.045  51.951 -13.547  1.00  0.00     0.042 C 
HETATM   38  C3  UNL     1      -1.547  50.037 -12.854  1.00  0.00     0.042 C 
ENDBRANCH  34  35
ENDBRANCH  33  34
ENDBRANCH   1  33
TORSDOF 6
ENDMDL
MODEL 8
REMARK minimizedAffinity -10.5804005
REMARK CNNscore 0.31858772
REMARK CNNaffinity 7.15756845
REMARK  6 active torsions:
REMARK  status: ('A' for Active; 'I' for Inactive)
REMARK    1  A    between atoms: C4_4  and  C5_5 
REMARK    2  A    between atoms: C5_5  and  C6_6 
REMARK    3  A    between atoms: C6_6  and  C7_7 
REMARK    4  A    between atoms: C19_21  and  C20_22 
REMARK    5  A    between atoms: C26_28  and  C27_29 
REMARK    6  A    between atoms: C30_32  and  O2_33 
ROOT
HETATM    1  C7  UNL     1      -1.220  49.229 -16.600  1.00  0.00     0.082 C 
HETATM    2  C8  UNL     1      -2.436  49.753 -15.824  1.00  0.00     0.051 C 
HETATM    3  C9  UNL     1      -1.651  48.841 -18.000  1.00  0.00     0.012 C 
HETATM    4  C10 UNL     1      -1.295  49.509 -19.102  1.00  0.00     0.015 C 
HETATM    5  C11 UNL     1      -0.460  50.679 -18.929  1.00  0.00     0.025 A 
HETATM    6  C12 UNL     1       0.033  51.033 -17.669  1.00  0.00     0.088 A 
HETATM    7  O1  UNL     1      -0.237  50.297 -16.547  1.00  0.00    -0.335 OA
HETATM    8  C13 UNL     1       0.853  52.157 -17.501  1.00  0.00    -0.027 A 
HETATM    9  C14 UNL     1       1.389  52.520 -16.145  1.00  0.00     0.051 C 
HETATM   10  C15 UNL     1       1.177  52.951 -18.615  1.00  0.00     0.024 A 
HETATM   11  C16 UNL     1       0.684  52.618 -19.894  1.00  0.00     0.005 A 
HETATM   12  C17 UNL     1      -0.120  51.487 -20.028  1.00  0.00     0.057 A 
HETATM   13  N1  UNL     1      -0.445  51.397 -21.361  1.00  0.00    -0.354 N 
HETATM   14  C18 UNL     1       0.097  52.431 -22.096  1.00  0.00     0.053 A 
HETATM   15  C19 UNL     1      -0.010  52.723 -23.481  1.00  0.00     0.011 A 
HETATM   16  C30 UNL     1       0.728  53.849 -23.905  1.00  0.00     0.074 A 
HETATM   17  C31 UNL     1       1.460  54.649 -23.027  1.00  0.00     0.038 A 
HETATM   18  C32 UNL     1       1.507  54.342 -21.667  1.00  0.00     0.017 A 
HETATM   19  C33 UNL     1       0.823  53.208 -21.192  1.00  0.00     0.004 A 
HETATM   20  H21 UNL     1      -1.020  50.667 -21.752  1.00  0.00     0.166 HD
ENDROOT
BRANCH  15  21
HETATM   21  C20 UNL     1      -0.799  51.837 -24.448  1.00  0.00     0.051 C 
HETATM   22  C21 UNL     1       0.073  51.555 -25.661  1.00  0.00    -0.014 C 
HETATM   23  C22 UNL     1      -0.325  51.686 -26.936  1.00  0.00    -0.087 C 
HETATM   24  C23 UNL     1       0.604  51.474 -28.095  1.00  0.00     0.043 C 
HETATM   25  C24 UNL     1      -1.734  52.076 -27.269  1.00  0.00     0.034 C 
HETATM   26  C25 UNL     1      -2.713  51.763 -26.138  1.00  0.00     0.010 C 
HETATM   27  C26 UNL     1      -2.260  52.326 -24.771  1.00  0.00     0.001 C 
BRANCH  27  28
HETATM   28  C27 UNL     1      -3.298  51.950 -23.653  1.00  0.00    -0.018 C 
HETATM   29  C28 UNL     1      -3.145  50.496 -23.177  1.00  0.00     0.010 C 
HETATM   30  C29 UNL     1      -4.755  52.148 -24.084  1.00  0.00     0.010 C 
ENDBRANCH  27  28
ENDBRANCH  15  21
BRANCH  16  31
HETATM   31  O2  UNL     1       0.747  54.166 -25.239  1.00  0.00    -0.360 OA
HETATM   32  H39 UNL     1       1.371  54.893 -25.384  1.00  0.00     0.217 HD
ENDBRANCH  16  31
BRANCH   1  33
HETATM   33  C6  UNL     1      -0.530  48.048 -15.865  1.00  0.00     0.046 C 
BRANCH  33  34
HETATM   34  C5  UNL     1       0.899  48.232 -15.337  1.00  0.00     0.030 C 
BRANCH  34  35
HETATM   35  C4  UNL     1       1.575  46.998 -14.811  1.00  0.00    -0.025 C 
HETATM   36  C2  UNL     1       2.418  46.917 -13.764  1.00  0.00    -0.091 C 
HETATM   37  C1  UNL     1       2.992  45.593 -13.335  1.00  0.00     0.042 C 
HETATM   38  C3  UNL     1       2.875  48.089 -12.939  1.00  0.00     0.042 C 
ENDBRANCH  34  35
ENDBRANCH  33  34
ENDBRANCH   1  33
TORSDOF 6
ENDMDL
MODEL 9
REMARK minimizedAffinity -8.32519054
REMARK CNNscore 0.285616368
REMARK CNNaffinity 7.1563282
REMARK  6 active torsions:
REMARK  status: ('A' for Active; 'I' for Inactive)
REMARK    1  A    between atoms: C4_4  and  C5_5 
REMARK    2  A    between atoms: C5_5  and  C6_6 
REMARK    3  A    between atoms: C6_6  and  C7_7 
REMARK    4  A    between atoms: C19_21  and  C20_22 
REMARK    5  A    between atoms: C26_28  and  C27_29 
REMARK    6  A    between atoms: C30_32  and  O2_33 
ROOT
HETATM    1  C7  UNL     1      -1.507  50.486 -13.635  1.00  0.00     0.082 C 
HETATM    2  C8  UNL     1      -2.214  51.631 -12.898  1.00  0.00     0.051 C 
HETATM    3  C9  UNL     1      -2.402  49.980 -14.748  1.00  0.00     0.012 C 
HETATM    4  C10 UNL     1      -2.149  50.156 -16.049  1.00  0.00     0.015 C 
HETATM    5  C11 UNL     1      -0.949  50.888 -16.399  1.00  0.00     0.025 A 
HETATM    6  C12 UNL     1      -0.047  51.305 -15.415  1.00  0.00     0.088 A 
HETATM    7  O1  UNL     1      -0.242  51.040 -14.086  1.00  0.00    -0.335 OA
HETATM    8  C13 UNL     1       1.122  52.002 -15.752  1.00  0.00    -0.027 A 
HETATM    9  C14 UNL     1       2.092  52.432 -14.689  1.00  0.00     0.051 C 
HETATM   10  C15 UNL     1       1.387  52.299 -17.101  1.00  0.00     0.024 A 
HETATM   11  C16 UNL     1       0.485  51.896 -18.108  1.00  0.00     0.005 A 
HETATM   12  C17 UNL     1      -0.661  51.195 -17.740  1.00  0.00     0.057 A 
HETATM   13  N1  UNL     1      -1.342  50.924 -18.904  1.00  0.00    -0.354 N 
HETATM   14  C18 UNL     1      -0.696  51.435 -20.010  1.00  0.00     0.053 A 
HETATM   15  C19 UNL     1      -1.064  51.400 -21.381  1.00  0.00     0.011 A 
HETATM   16  C30 UNL     1      -0.128  51.988 -22.258  1.00  0.00     0.074 A 
HETATM   17  C31 UNL     1       1.040  52.608 -21.813  1.00  0.00     0.038 A 
HETATM   18  C32 UNL     1       1.342  52.648 -20.453  1.00  0.00     0.017 A 
HETATM   19  C33 UNL     1       0.465  52.043 -19.533  1.00  0.00     0.004 A 
HETATM   20  H21 UNL     1      -2.215  50.420 -18.941  1.00  0.00     0.166 HD
ENDROOT
BRANCH  15  21
HETATM   21  C20 UNL     1      -2.337  50.705 -21.871  1.00  0.00     0.051 C 
HETATM   22  C21 UNL     1      -2.334  49.276 -21.354  1.00  0.00    -0.014 C 
HETATM   23  C22 UNL     1      -2.577  48.191 -22.105  1.00  0.00    -0.087 C 
HETATM   24  C23 UNL     1      -2.478  46.796 -21.560  1.00  0.00     0.043 C 
HETATM   25  C24 UNL     1      -2.944  48.319 -23.553  1.00  0.00     0.034 C 
HETATM   26  C25 UNL     1      -3.527  49.690 -23.891  1.00  0.00     0.010 C 
HETATM   27  C26 UNL     1      -2.641  50.862 -23.408  1.00  0.00     0.001 C 
BRANCH  27  28
HETATM   28  C27 UNL     1      -3.309  52.238 -23.768  1.00  0.00    -0.018 C 
HETATM   29  C28 UNL     1      -4.619  52.473 -22.999  1.00  0.00     0.010 C 
HETATM   30  C29 UNL     1      -3.611  52.395 -25.262  1.00  0.00     0.010 C 
ENDBRANCH  27  28
ENDBRANCH  15  21
BRANCH  16  31
HETATM   31  O2  UNL     1      -0.360  51.935 -23.609  1.00  0.00    -0.360 OA
HETATM   32  H39 UNL     1       0.412  52.286 -24.078  1.00  0.00     0.217 HD
ENDBRANCH  16  31
BRANCH   1  33
HETATM   33  C6  UNL     1      -1.093  49.344 -12.669  1.00  0.00     0.046 C 
BRANCH  33  34
HETATM   34  C5  UNL     1       0.399  49.091 -12.410  1.00  0.00     0.030 C 
BRANCH  34  35
HETATM   35  C4  UNL     1       1.023  47.966 -13.185  1.00  0.00    -0.025 C 
HETATM   36  C2  UNL     1       2.267  47.927 -13.700  1.00  0.00    -0.091 C 
HETATM   37  C1  UNL     1       2.764  46.707 -14.428  1.00  0.00     0.042 C 
HETATM   38  C3  UNL     1       3.264  49.051 -13.619  1.00  0.00     0.042 C 
ENDBRANCH  34  35
ENDBRANCH  33  34
ENDBRANCH   1  33
TORSDOF 6
ENDMDL
