MODEL 1
REMARK minimizedAffinity -9.95312119
REMARK  6 active torsions:
REMARK  status: ('A' for Active; 'I' for Inactive)
REMARK    1  A    between atoms: C2_2  and  C3_3 
REMARK    2  A    between atoms: C2_2  and  C27_30 
REMARK    3  A    between atoms: C3_3  and  C4_4 
REMARK    4  A    between atoms: C4_4  and  C5_5 
REMARK    5  A    between atoms: C5_5  and  C7_7 
REMARK    6  A    between atoms: C26_28  and  O3_29 
ROOT
HETATM    1  C7  UNL     1       1.014   6.563  11.558  1.00  0.00    -0.002 C 
HETATM    2  C8  UNL     1       1.232   5.055  11.283  1.00  0.00     0.006 C 
HETATM    3  C9  UNL     1      -0.130   4.373  11.527  1.00  0.00     0.010 C 
HETATM    4  C10 UNL     1      -1.107   5.530  11.760  1.00  0.00     0.027 C 
HETATM    5  C11 UNL     1      -2.443   5.319  12.428  1.00  0.00    -0.036 C 
HETATM    6  C12 UNL     1      -3.083   6.342  13.051  1.00  0.00     0.002 C 
HETATM    7  C13 UNL     1      -2.387   7.693  13.132  1.00  0.00     0.157 C 
HETATM    8  O1  UNL     1      -2.925   8.648  13.691  1.00  0.00    -0.293 OA
HETATM    9  C14 UNL     1      -1.015   7.879  12.501  1.00  0.00     0.093 C 
HETATM   10  C15 UNL     1      -0.232   6.568  12.492  1.00  0.00    -0.026 C 
HETATM   11  C16 UNL     1       0.128   6.168  13.945  1.00  0.00     0.016 C 
HETATM   12  C17 UNL     1      -4.481   6.198  13.690  1.00  0.00    -0.008 C 
HETATM   13  C18 UNL     1      -4.251   6.136  15.224  1.00  0.00     0.021 C 
HETATM   14  C19 UNL     1      -5.421   7.404  13.363  1.00  0.00     0.022 C 
HETATM   15  C20 UNL     1      -6.913   7.086  13.270  1.00  0.00     0.080 C 
HETATM   16  C21 UNL     1      -7.299   5.911  14.130  1.00  0.00     0.131 C 
HETATM   17  O2  UNL     1      -8.241   5.971  14.920  1.00  0.00    -0.298 OA
HETATM   18  C22 UNL     1      -6.524   4.619  13.917  1.00  0.00     0.056 C 
HETATM   19  C23 UNL     1      -7.429   3.633  13.178  1.00  0.00     0.018 C 
HETATM   20  C24 UNL     1      -5.203   4.906  13.159  1.00  0.00     0.012 C 
HETATM   21  C25 UNL     1      -4.262   3.694  13.176  1.00  0.00     0.042 C 
HETATM   22  C26 UNL     1      -3.044   3.946  12.289  1.00  0.00     0.148 C 
ENDROOT
BRANCH   1  23
HETATM   23  C5  UNL     1       2.236   7.400  12.030  1.00  0.00    -0.014 C 
HETATM   24  C6  UNL     1       2.520   7.371  13.530  1.00  0.00     0.010 C 
BRANCH  23  25
HETATM   25  C4  UNL     1       3.505   7.099  11.189  1.00  0.00     0.009 C 
BRANCH  25  26
HETATM   26  C3  UNL     1       3.639   7.763   9.810  1.00  0.00     0.034 C 
BRANCH  26  27
HETATM   27  C2  UNL     1       2.937   7.098   8.641  1.00  0.00    -0.086 C 
HETATM   28  C1  UNL     1       3.055   5.770   8.454  1.00  0.00     0.014 C 
BRANCH  27  29
HETATM   29  C27 UNL     1       2.007   7.899   7.729  1.00  0.00     0.005 C 
HETATM   30  C28 UNL     1       1.718   7.224   6.387  1.00  0.00     0.014 C 
HETATM   31  C29 UNL     1       0.706   8.301   8.427  1.00  0.00     0.014 C 
ENDBRANCH  27  29
ENDBRANCH  26  27
ENDBRANCH  25  26
ENDBRANCH  23  25
ENDBRANCH   1  23
BRANCH  22  32
HETATM   32  O3  UNL     1      -3.417   3.804  10.922  1.00  0.00    -0.391 OA
HETATM   33  H37 UNL     1      -3.618   2.865  10.771  1.00  0.00     0.210 HD
ENDBRANCH  22  32
TORSDOF 6
ENDMDL
MODEL 2
REMARK minimizedAffinity -9.92899799
REMARK  6 active torsions:
REMARK  status: ('A' for Active; 'I' for Inactive)
REMARK    1  A    between atoms: C2_2  and  C3_3 
REMARK    2  A    between atoms: C2_2  and  C27_30 
REMARK    3  A    between atoms: C3_3  and  C4_4 
REMARK    4  A    between atoms: C4_4  and  C5_5 
REMARK    5  A    between atoms: C5_5  and  C7_7 
REMARK    6  A    between atoms: C26_28  and  O3_29 
ROOT
HETATM    1  C7  UNL     1       1.137   7.056  13.202  1.00  0.00    -0.002 C 
HETATM    2  C8  UNL     1       0.285   8.160  13.875  1.00  0.00     0.006 C 
HETATM    3  C9  UNL     1      -1.160   7.621  13.918  1.00  0.00     0.010 C 
HETATM    4  C10 UNL     1      -1.048   6.172  13.431  1.00  0.00     0.027 C 
HETATM    5  C11 UNL     1      -2.249   5.406  12.933  1.00  0.00    -0.036 C 
HETATM    6  C12 UNL     1      -2.105   4.352  12.090  1.00  0.00     0.002 C 
HETATM    7  C13 UNL     1      -0.710   4.005  11.590  1.00  0.00     0.157 C 
HETATM    8  O1  UNL     1      -0.532   3.062  10.820  1.00  0.00    -0.293 OA
HETATM    9  C14 UNL     1       0.488   4.819  12.056  1.00  0.00     0.093 C 
HETATM   10  C15 UNL     1       0.082   6.255  12.384  1.00  0.00    -0.026 C 
HETATM   11  C16 UNL     1      -0.326   6.989  11.082  1.00  0.00     0.016 C 
HETATM   12  C17 UNL     1      -3.293   3.491  11.605  1.00  0.00    -0.008 C 
HETATM   13  C18 UNL     1      -3.567   3.921  10.138  1.00  0.00     0.021 C 
HETATM   14  C19 UNL     1      -2.980   1.960  11.638  1.00  0.00     0.022 C 
HETATM   15  C20 UNL     1      -4.170   1.039  11.909  1.00  0.00     0.080 C 
HETATM   16  C21 UNL     1      -5.471   1.636  11.440  1.00  0.00     0.131 C 
HETATM   17  O2  UNL     1      -6.250   1.006  10.725  1.00  0.00    -0.298 OA
HETATM   18  C22 UNL     1      -5.817   3.024  11.958  1.00  0.00     0.056 C 
HETATM   19  C23 UNL     1      -6.928   2.885  12.999  1.00  0.00     0.018 C 
HETATM   20  C24 UNL     1      -4.551   3.716  12.521  1.00  0.00     0.012 C 
HETATM   21  C25 UNL     1      -4.788   5.209  12.786  1.00  0.00     0.042 C 
HETATM   22  C26 UNL     1      -3.581   5.829  13.489  1.00  0.00     0.148 C 
ENDROOT
BRANCH   1  23
HETATM   23  C5  UNL     1       2.420   7.491  12.439  1.00  0.00    -0.014 C 
HETATM   24  C6  UNL     1       3.589   7.942  13.313  1.00  0.00     0.010 C 
BRANCH  23  25
HETATM   25  C4  UNL     1       2.852   6.441  11.383  1.00  0.00     0.009 C 
BRANCH  25  26
HETATM   26  C3  UNL     1       3.621   6.927  10.145  1.00  0.00     0.034 C 
BRANCH  26  27
HETATM   27  C2  UNL     1       3.073   6.542   8.783  1.00  0.00    -0.086 C 
HETATM   28  C1  UNL     1       3.027   5.246   8.420  1.00  0.00     0.014 C 
BRANCH  27  29
HETATM   29  C27 UNL     1       2.472   7.598   7.855  1.00  0.00     0.005 C 
HETATM   30  C28 UNL     1       1.938   7.036   6.536  1.00  0.00     0.014 C 
HETATM   31  C29 UNL     1       1.412   8.454   8.551  1.00  0.00     0.014 C 
ENDBRANCH  27  29
ENDBRANCH  26  27
ENDBRANCH  25  26
ENDBRANCH  23  25
ENDBRANCH   1  23
BRANCH  22  32
HETATM   32  O3  UNL     1      -3.587   5.449  14.861  1.00  0.00    -0.391 OA
HETATM   33  H37 UNL     1      -4.346   5.888  15.282  1.00  0.00     0.210 HD
ENDBRANCH  22  32
TORSDOF 6
ENDMDL
MODEL 3
REMARK minimizedAffinity -9.57456303
REMARK  6 active torsions:
REMARK  status: ('A' for Active; 'I' for Inactive)
REMARK    1  A    between atoms: C2_2  and  C3_3 
REMARK    2  A    between atoms: C2_2  and  C27_30 
REMARK    3  A    between atoms: C3_3  and  C4_4 
REMARK    4  A    between atoms: C4_4  and  C5_5 
REMARK    5  A    between atoms: C5_5  and  C7_7 
REMARK    6  A    between atoms: C26_28  and  O3_29 
ROOT
HETATM    1  C7  UNL     1      -5.578   6.851  14.071  1.00  0.00    -0.002 C 
HETATM    2  C8  UNL     1      -5.504   8.236  14.759  1.00  0.00     0.006 C 
HETATM    3  C9  UNL     1      -4.089   8.781  14.476  1.00  0.00     0.010 C 
HETATM    4  C10 UNL     1      -3.473   7.773  13.500  1.00  0.00     0.027 C 
HETATM    5  C11 UNL     1      -1.983   7.691  13.277  1.00  0.00    -0.036 C 
HETATM    6  C12 UNL     1      -1.408   6.551  12.815  1.00  0.00     0.002 C 
HETATM    7  C13 UNL     1      -2.286   5.327  12.600  1.00  0.00     0.157 C 
HETATM    8  O1  UNL     1      -1.808   4.271  12.188  1.00  0.00    -0.293 OA
HETATM    9  C14 UNL     1      -3.780   5.407  12.880  1.00  0.00     0.093 C 
HETATM   10  C15 UNL     1      -4.081   6.436  13.968  1.00  0.00    -0.026 C 
HETATM   11  C16 UNL     1      -3.521   5.935  15.324  1.00  0.00     0.016 C 
HETATM   12  C17 UNL     1       0.101   6.435  12.505  1.00  0.00    -0.008 C 
HETATM   13  C18 UNL     1       0.720   5.620  13.674  1.00  0.00     0.021 C 
HETATM   14  C19 UNL     1       0.385   5.691  11.159  1.00  0.00     0.022 C 
HETATM   15  C20 UNL     1       1.638   6.131  10.402  1.00  0.00     0.080 C 
HETATM   16  C21 UNL     1       2.703   6.664  11.323  1.00  0.00     0.131 C 
HETATM   17  O2  UNL     1       3.863   6.257  11.274  1.00  0.00    -0.298 OA
HETATM   18  C22 UNL     1       2.297   7.789  12.264  1.00  0.00     0.056 C 
HETATM   19  C23 UNL     1       2.912   9.091  11.749  1.00  0.00     0.018 C 
HETATM   20  C24 UNL     1       0.754   7.859  12.382  1.00  0.00     0.012 C 
HETATM   21  C25 UNL     1       0.311   8.778  13.528  1.00  0.00     0.042 C 
HETATM   22  C26 UNL     1      -1.206   8.957  13.519  1.00  0.00     0.148 C 
ENDROOT
BRANCH   1  23
HETATM   23  C5  UNL     1      -6.550   5.794  14.666  1.00  0.00    -0.014 C 
HETATM   24  C6  UNL     1      -7.187   6.160  16.006  1.00  0.00     0.010 C 
BRANCH  23  25
HETATM   25  C4  UNL     1      -7.604   5.325  13.628  1.00  0.00     0.009 C 
BRANCH  25  26
HETATM   26  C3  UNL     1      -7.107   4.643  12.345  1.00  0.00     0.034 C 
BRANCH  26  27
HETATM   27  C2  UNL     1      -6.846   3.149  12.401  1.00  0.00    -0.086 C 
HETATM   28  C1  UNL     1      -7.674   2.349  13.099  1.00  0.00     0.014 C 
BRANCH  27  29
HETATM   29  C27 UNL     1      -5.713   2.522  11.588  1.00  0.00     0.005 C 
HETATM   30  C28 UNL     1      -5.946   1.054  11.224  1.00  0.00     0.014 C 
HETATM   31  C29 UNL     1      -5.362   3.341  10.344  1.00  0.00     0.014 C 
ENDBRANCH  27  29
ENDBRANCH  26  27
ENDBRANCH  25  26
ENDBRANCH  23  25
ENDBRANCH   1  23
BRANCH  22  32
HETATM   32  O3  UNL     1      -1.570   9.859  12.480  1.00  0.00    -0.391 OA
HETATM   33  H37 UNL     1      -1.238  10.739  12.728  1.00  0.00     0.210 HD
ENDBRANCH  22  32
TORSDOF 6
ENDMDL
MODEL 4
REMARK minimizedAffinity -9.20013809
REMARK  6 active torsions:
REMARK  status: ('A' for Active; 'I' for Inactive)
REMARK    1  A    between atoms: C2_2  and  C3_3 
REMARK    2  A    between atoms: C2_2  and  C27_30 
REMARK    3  A    between atoms: C3_3  and  C4_4 
REMARK    4  A    between atoms: C4_4  and  C5_5 
REMARK    5  A    between atoms: C5_5  and  C7_7 
REMARK    6  A    between atoms: C26_28  and  O3_29 
ROOT
HETATM    1  C7  UNL     1       1.575   6.591  12.806  1.00  0.00    -0.002 C 
HETATM    2  C8  UNL     1       0.853   7.823  13.405  1.00  0.00     0.006 C 
HETATM    3  C9  UNL     1      -0.639   7.442  13.502  1.00  0.00     0.010 C 
HETATM    4  C10 UNL     1      -0.686   5.958  13.122  1.00  0.00     0.027 C 
HETATM    5  C11 UNL     1      -1.968   5.288  12.694  1.00  0.00    -0.036 C 
HETATM    6  C12 UNL     1      -1.949   4.166  11.929  1.00  0.00     0.002 C 
HETATM    7  C13 UNL     1      -0.606   3.641  11.441  1.00  0.00     0.157 C 
HETATM    8  O1  UNL     1      -0.541   2.631  10.741  1.00  0.00    -0.293 OA
HETATM    9  C14 UNL     1       0.677   4.358  11.834  1.00  0.00     0.093 C 
HETATM   10  C15 UNL     1       0.427   5.847  12.060  1.00  0.00    -0.026 C 
HETATM   11  C16 UNL     1       0.075   6.524  10.712  1.00  0.00     0.016 C 
HETATM   12  C17 UNL     1      -3.228   3.402  11.522  1.00  0.00    -0.008 C 
HETATM   13  C18 UNL     1      -3.483   3.751  10.030  1.00  0.00     0.021 C 
HETATM   14  C19 UNL     1      -3.075   1.852  11.663  1.00  0.00     0.022 C 
HETATM   15  C20 UNL     1      -4.349   1.083  12.014  1.00  0.00     0.080 C 
HETATM   16  C21 UNL     1      -5.589   1.777  11.516  1.00  0.00     0.131 C 
HETATM   17  O2  UNL     1      -6.441   1.181  10.857  1.00  0.00    -0.298 OA
HETATM   18  C22 UNL     1      -5.780   3.227  11.934  1.00  0.00     0.056 C 
HETATM   19  C23 UNL     1      -6.881   3.280  12.994  1.00  0.00     0.018 C 
HETATM   20  C24 UNL     1      -4.439   3.822  12.431  1.00  0.00     0.012 C 
HETATM   21  C25 UNL     1      -4.516   5.347  12.588  1.00  0.00     0.042 C 
HETATM   22  C26 UNL     1      -3.240   5.887  13.231  1.00  0.00     0.148 C 
ENDROOT
BRANCH   1  23
HETATM   23  C5  UNL     1       2.881   6.834  12.000  1.00  0.00    -0.014 C 
HETATM   24  C6  UNL     1       2.765   6.677  10.485  1.00  0.00     0.010 C 
BRANCH  23  25
HETATM   25  C4  UNL     1       3.569   8.167  12.397  1.00  0.00     0.009 C 
BRANCH  25  26
HETATM   26  C3  UNL     1       5.069   8.327  12.106  1.00  0.00     0.034 C 
BRANCH  26  27
HETATM   27  C2  UNL     1       5.987   7.190  12.513  1.00  0.00    -0.086 C 
HETATM   28  C1  UNL     1       6.321   6.243  11.616  1.00  0.00     0.014 C 
BRANCH  27  29
HETATM   29  C27 UNL     1       6.626   7.159  13.901  1.00  0.00     0.005 C 
HETATM   30  C28 UNL     1       7.995   7.839  13.973  1.00  0.00     0.014 C 
HETATM   31  C29 UNL     1       5.693   7.699  14.988  1.00  0.00     0.014 C 
ENDBRANCH  27  29
ENDBRANCH  26  27
ENDBRANCH  25  26
ENDBRANCH  23  25
ENDBRANCH   1  23
BRANCH  22  32
HETATM   32  O3  UNL     1      -3.260   5.609  14.628  1.00  0.00    -0.391 OA
HETATM   33  H37 UNL     1      -3.962   6.154  15.024  1.00  0.00     0.210 HD
ENDBRANCH  22  32
TORSDOF 6
ENDMDL
MODEL 5
REMARK minimizedAffinity -9.1063633
REMARK  6 active torsions:
REMARK  status: ('A' for Active; 'I' for Inactive)
REMARK    1  A    between atoms: C2_2  and  C3_3 
REMARK    2  A    between atoms: C2_2  and  C27_30 
REMARK    3  A    between atoms: C3_3  and  C4_4 
REMARK    4  A    between atoms: C4_4  and  C5_5 
REMARK    5  A    between atoms: C5_5  and  C7_7 
REMARK    6  A    between atoms: C26_28  and  O3_29 
ROOT
HETATM    1  C7  UNL     1      -6.985   5.129  14.725  1.00  0.00    -0.002 C 
HETATM    2  C8  UNL     1      -7.329   4.292  13.469  1.00  0.00     0.006 C 
HETATM    3  C9  UNL     1      -6.008   4.119  12.691  1.00  0.00     0.010 C 
HETATM    4  C10 UNL     1      -4.936   4.710  13.613  1.00  0.00     0.027 C 
HETATM    5  C11 UNL     1      -3.578   5.116  13.095  1.00  0.00    -0.036 C 
HETATM    6  C12 UNL     1      -2.827   6.038  13.750  1.00  0.00     0.002 C 
HETATM    7  C13 UNL     1      -3.416   6.716  14.980  1.00  0.00     0.157 C 
HETATM    8  O1  UNL     1      -2.774   7.561  15.602  1.00  0.00    -0.293 OA
HETATM    9  C14 UNL     1      -4.808   6.337  15.461  1.00  0.00     0.093 C 
HETATM   10  C15 UNL     1      -5.684   5.871  14.299  1.00  0.00    -0.026 C 
HETATM   11  C16 UNL     1      -5.977   7.067  13.359  1.00  0.00     0.016 C 
HETATM   12  C17 UNL     1      -1.404   6.438  13.302  1.00  0.00    -0.008 C 
HETATM   13  C18 UNL     1      -1.539   7.833  12.632  1.00  0.00     0.021 C 
HETATM   14  C19 UNL     1      -0.402   6.542  14.498  1.00  0.00     0.022 C 
HETATM   15  C20 UNL     1       1.054   6.198  14.185  1.00  0.00     0.080 C 
HETATM   16  C21 UNL     1       1.408   6.475  12.747  1.00  0.00     0.131 C 
HETATM   17  O2  UNL     1       2.400   7.136  12.443  1.00  0.00    -0.298 OA
HETATM   18  C22 UNL     1       0.528   5.831  11.686  1.00  0.00     0.056 C 
HETATM   19  C23 UNL     1       1.309   4.681  11.048  1.00  0.00     0.018 C 
HETATM   20  C24 UNL     1      -0.814   5.373  12.309  1.00  0.00     0.012 C 
HETATM   21  C25 UNL     1      -1.839   4.985  11.234  1.00  0.00     0.042 C 
HETATM   22  C26 UNL     1      -3.090   4.385  11.874  1.00  0.00     0.148 C 
ENDROOT
BRANCH   1  23
HETATM   23  C5  UNL     1      -8.109   6.003  15.348  1.00  0.00    -0.014 C 
HETATM   24  C6  UNL     1      -7.666   6.970  16.444  1.00  0.00     0.010 C 
BRANCH  23  25
HETATM   25  C4  UNL     1      -8.967   6.704  14.262  1.00  0.00     0.009 C 
BRANCH  25  26
HETATM   26  C3  UNL     1     -10.439   7.010  14.583  1.00  0.00     0.034 C 
BRANCH  26  27
HETATM   27  C2  UNL     1     -11.032   8.281  14.006  1.00  0.00    -0.086 C 
HETATM   28  C1  UNL     1     -10.612   9.480  14.451  1.00  0.00     0.014 C 
BRANCH  27  29
HETATM   29  C27 UNL     1     -12.026   8.224  12.846  1.00  0.00     0.005 C 
HETATM   30  C28 UNL     1     -13.148   7.200  13.037  1.00  0.00     0.014 C 
HETATM   31  C29 UNL     1     -12.600   9.599  12.496  1.00  0.00     0.014 C 
ENDBRANCH  27  29
ENDBRANCH  26  27
ENDBRANCH  25  26
ENDBRANCH  23  25
ENDBRANCH   1  23
BRANCH  22  32
HETATM   32  O3  UNL     1      -2.817   3.049  12.284  1.00  0.00    -0.391 OA
HETATM   33  H37 UNL     1      -2.695   2.516  11.480  1.00  0.00     0.210 HD
ENDBRANCH  22  32
TORSDOF 6
ENDMDL
MODEL 6
REMARK minimizedAffinity -8.99927139
REMARK  6 active torsions:
REMARK  status: ('A' for Active; 'I' for Inactive)
REMARK    1  A    between atoms: C2_2  and  C3_3 
REMARK    2  A    between atoms: C2_2  and  C27_30 
REMARK    3  A    between atoms: C3_3  and  C4_4 
REMARK    4  A    between atoms: C4_4  and  C5_5 
REMARK    5  A    between atoms: C5_5  and  C7_7 
REMARK    6  A    between atoms: C26_28  and  O3_29 
ROOT
HETATM    1  C7  UNL     1       1.178   6.519  11.460  1.00  0.00    -0.002 C 
HETATM    2  C8  UNL     1       1.410   5.023  11.135  1.00  0.00     0.006 C 
HETATM    3  C9  UNL     1       0.057   4.318  11.365  1.00  0.00     0.010 C 
HETATM    4  C10 UNL     1      -0.931   5.456  11.642  1.00  0.00     0.027 C 
HETATM    5  C11 UNL     1      -2.261   5.209  12.312  1.00  0.00    -0.036 C 
HETATM    6  C12 UNL     1      -2.907   6.205  12.971  1.00  0.00     0.002 C 
HETATM    7  C13 UNL     1      -2.225   7.561  13.090  1.00  0.00     0.157 C 
HETATM    8  O1  UNL     1      -2.770   8.491  13.683  1.00  0.00    -0.293 OA
HETATM    9  C14 UNL     1      -0.859   7.782  12.457  1.00  0.00     0.093 C 
HETATM   10  C15 UNL     1      -0.063   6.480  12.401  1.00  0.00    -0.026 C 
HETATM   11  C16 UNL     1       0.311   6.038  13.838  1.00  0.00     0.016 C 
HETATM   12  C17 UNL     1      -4.299   6.025  13.614  1.00  0.00    -0.008 C 
HETATM   13  C18 UNL     1      -4.058   5.917  15.144  1.00  0.00     0.021 C 
HETATM   14  C19 UNL     1      -5.254   7.231  13.333  1.00  0.00     0.022 C 
HETATM   15  C20 UNL     1      -6.743   6.899  13.239  1.00  0.00     0.080 C 
HETATM   16  C21 UNL     1      -7.111   5.693  14.063  1.00  0.00     0.131 C 
HETATM   17  O2  UNL     1      -8.048   5.717  14.861  1.00  0.00    -0.298 OA
HETATM   18  C22 UNL     1      -6.323   4.418  13.803  1.00  0.00     0.056 C 
HETATM   19  C23 UNL     1      -7.222   3.445  13.040  1.00  0.00     0.018 C 
HETATM   20  C24 UNL     1      -5.011   4.743  13.047  1.00  0.00     0.012 C 
HETATM   21  C25 UNL     1      -4.056   3.542  13.019  1.00  0.00     0.042 C 
HETATM   22  C26 UNL     1      -2.847   3.835  12.133  1.00  0.00     0.148 C 
ENDROOT
BRANCH   1  23
HETATM   23  C5  UNL     1       2.393   7.354  11.949  1.00  0.00    -0.014 C 
HETATM   24  C6  UNL     1       2.462   7.605  13.455  1.00  0.00     0.010 C 
BRANCH  23  25
HETATM   25  C4  UNL     1       3.734   6.813  11.386  1.00  0.00     0.009 C 
BRANCH  25  26
HETATM   26  C3  UNL     1       4.470   7.651  10.330  1.00  0.00     0.034 C 
BRANCH  26  27
HETATM   27  C2  UNL     1       5.765   8.323  10.747  1.00  0.00    -0.086 C 
HETATM   28  C1  UNL     1       5.955   9.632  10.492  1.00  0.00     0.014 C 
BRANCH  27  29
HETATM   29  C27 UNL     1       6.819   7.561  11.550  1.00  0.00     0.005 C 
HETATM   30  C28 UNL     1       6.551   7.527  13.057  1.00  0.00     0.014 C 
HETATM   31  C29 UNL     1       7.060   6.149  11.010  1.00  0.00     0.014 C 
ENDBRANCH  27  29
ENDBRANCH  26  27
ENDBRANCH  25  26
ENDBRANCH  23  25
ENDBRANCH   1  23
BRANCH  22  32
HETATM   32  O3  UNL     1      -3.228   3.733  10.764  1.00  0.00    -0.391 OA
HETATM   33  H37 UNL     1      -3.420   2.797  10.584  1.00  0.00     0.210 HD
ENDBRANCH  22  32
TORSDOF 6
ENDMDL
MODEL 7
REMARK minimizedAffinity -8.90978336
REMARK  6 active torsions:
REMARK  status: ('A' for Active; 'I' for Inactive)
REMARK    1  A    between atoms: C2_2  and  C3_3 
REMARK    2  A    between atoms: C2_2  and  C27_30 
REMARK    3  A    between atoms: C3_3  and  C4_4 
REMARK    4  A    between atoms: C4_4  and  C5_5 
REMARK    5  A    between atoms: C5_5  and  C7_7 
REMARK    6  A    between atoms: C26_28  and  O3_29 
ROOT
HETATM    1  C7  UNL     1      -2.028   4.784  13.141  1.00  0.00    -0.002 C 
HETATM    2  C8  UNL     1      -2.042   4.385  11.645  1.00  0.00     0.006 C 
HETATM    3  C9  UNL     1      -0.698   4.865  11.060  1.00  0.00     0.010 C 
HETATM    4  C10 UNL     1       0.099   5.359  12.272  1.00  0.00     0.027 C 
HETATM    5  C11 UNL     1       1.289   6.275  12.121  1.00  0.00    -0.036 C 
HETATM    6  C12 UNL     1       1.691   7.072  13.144  1.00  0.00     0.002 C 
HETATM    7  C13 UNL     1       0.868   7.084  14.425  1.00  0.00     0.157 C 
HETATM    8  O1  UNL     1       1.190   7.795  15.375  1.00  0.00    -0.293 OA
HETATM    9  C14 UNL     1      -0.362   6.196  14.544  1.00  0.00     0.093 C 
HETATM   10  C15 UNL     1      -0.999   5.952  13.178  1.00  0.00    -0.026 C 
HETATM   11  C16 UNL     1      -1.602   7.276  12.643  1.00  0.00     0.016 C 
HETATM   12  C17 UNL     1       2.941   7.976  13.067  1.00  0.00    -0.008 C 
HETATM   13  C18 UNL     1       2.415   9.424  12.873  1.00  0.00     0.021 C 
HETATM   14  C19 UNL     1       3.808   7.918  14.367  1.00  0.00     0.022 C 
HETATM   15  C20 UNL     1       5.312   8.116  14.179  1.00  0.00     0.080 C 
HETATM   16  C21 UNL     1       5.628   8.969  12.979  1.00  0.00     0.131 C 
HETATM   17  O2  UNL     1       6.383   9.939  13.056  1.00  0.00    -0.298 OA
HETATM   18  C22 UNL     1       5.037   8.529  11.648  1.00  0.00     0.056 C 
HETATM   19  C23 UNL     1       6.161   7.938  10.795  1.00  0.00     0.018 C 
HETATM   20  C24 UNL     1       3.873   7.534  11.881  1.00  0.00     0.012 C 
HETATM   21  C25 UNL     1       3.067   7.288  10.599  1.00  0.00     0.042 C 
HETATM   22  C26 UNL     1       2.032   6.185  10.816  1.00  0.00     0.148 C 
ENDROOT
BRANCH   1  23
HETATM   23  C5  UNL     1      -3.392   5.040  13.839  1.00  0.00    -0.014 C 
HETATM   24  C6  UNL     1      -3.427   6.211  14.819  1.00  0.00     0.010 C 
BRANCH  23  25
HETATM   25  C4  UNL     1      -4.563   5.096  12.822  1.00  0.00     0.009 C 
BRANCH  25  26
HETATM   26  C3  UNL     1      -5.488   3.874  12.709  1.00  0.00     0.034 C 
BRANCH  26  27
HETATM   27  C2  UNL     1      -6.915   4.029  13.201  1.00  0.00    -0.086 C 
HETATM   28  C1  UNL     1      -7.781   3.005  13.082  1.00  0.00     0.014 C 
BRANCH  27  29
HETATM   29  C27 UNL     1      -7.358   5.298  13.929  1.00  0.00     0.005 C 
HETATM   30  C28 UNL     1      -8.642   5.920  13.373  1.00  0.00     0.014 C 
HETATM   31  C29 UNL     1      -7.462   5.100  15.443  1.00  0.00     0.014 C 
ENDBRANCH  27  29
ENDBRANCH  26  27
ENDBRANCH  25  26
ENDBRANCH  23  25
ENDBRANCH   1  23
BRANCH  22  32
HETATM   32  O3  UNL     1       2.683   4.919  10.807  1.00  0.00    -0.391 OA
HETATM   33  H37 UNL     1       2.998   4.759   9.901  1.00  0.00     0.210 HD
ENDBRANCH  22  32
TORSDOF 6
ENDMDL
MODEL 8
REMARK minimizedAffinity -8.90250778
REMARK  6 active torsions:
REMARK  status: ('A' for Active; 'I' for Inactive)
REMARK    1  A    between atoms: C2_2  and  C3_3 
REMARK    2  A    between atoms: C2_2  and  C27_30 
REMARK    3  A    between atoms: C3_3  and  C4_4 
REMARK    4  A    between atoms: C4_4  and  C5_5 
REMARK    5  A    between atoms: C5_5  and  C7_7 
REMARK    6  A    between atoms: C26_28  and  O3_29 
ROOT
HETATM    1  C7  UNL     1       0.864   6.138  13.298  1.00  0.00    -0.002 C 
HETATM    2  C8  UNL     1       1.192   7.249  14.325  1.00  0.00     0.006 C 
HETATM    3  C9  UNL     1      -0.143   7.609  15.009  1.00  0.00     0.010 C 
HETATM    4  C10 UNL     1      -1.143   6.578  14.476  1.00  0.00     0.027 C 
HETATM    5  C11 UNL     1      -2.634   6.798  14.560  1.00  0.00    -0.036 C 
HETATM    6  C12 UNL     1      -3.482   6.166  13.709  1.00  0.00     0.002 C 
HETATM    7  C13 UNL     1      -2.895   5.289  12.612  1.00  0.00     0.157 C 
HETATM    8  O1  UNL     1      -3.625   4.702  11.815  1.00  0.00    -0.293 OA
HETATM    9  C14 UNL     1      -1.387   5.119  12.503  1.00  0.00     0.093 C 
HETATM   10  C15 UNL     1      -0.655   6.351  13.030  1.00  0.00    -0.026 C 
HETATM   11  C16 UNL     1      -0.917   7.553  12.087  1.00  0.00     0.016 C 
HETATM   12  C17 UNL     1      -5.018   6.301  13.796  1.00  0.00    -0.008 C 
HETATM   13  C18 UNL     1      -5.435   7.245  12.636  1.00  0.00     0.021 C 
HETATM   14  C19 UNL     1      -5.755   4.932  13.629  1.00  0.00     0.022 C 
HETATM   15  C20 UNL     1      -7.075   4.785  14.386  1.00  0.00     0.080 C 
HETATM   16  C21 UNL     1      -7.767   6.107  14.588  1.00  0.00     0.131 C 
HETATM   17  O2  UNL     1      -8.950   6.270  14.290  1.00  0.00    -0.298 OA
HETATM   18  C22 UNL     1      -6.958   7.211  15.254  1.00  0.00     0.056 C 
HETATM   19  C23 UNL     1      -7.471   7.385  16.684  1.00  0.00     0.018 C 
HETATM   20  C24 UNL     1      -5.447   6.878  15.195  1.00  0.00     0.012 C 
HETATM   21  C25 UNL     1      -4.582   8.082  15.590  1.00  0.00     0.042 C 
HETATM   22  C26 UNL     1      -3.110   7.682  15.680  1.00  0.00     0.148 C 
ENDROOT
BRANCH   1  23
HETATM   23  C5  UNL     1       1.777   6.012  12.047  1.00  0.00    -0.014 C 
HETATM   24  C6  UNL     1       1.354   4.962  11.020  1.00  0.00     0.010 C 
BRANCH  23  25
HETATM   25  C4  UNL     1       2.056   7.390  11.391  1.00  0.00     0.009 C 
BRANCH  25  26
HETATM   26  C3  UNL     1       3.143   7.474  10.308  1.00  0.00     0.034 C 
BRANCH  26  27
HETATM   27  C2  UNL     1       2.730   7.982   8.939  1.00  0.00    -0.086 C 
HETATM   28  C1  UNL     1       3.501   8.879   8.295  1.00  0.00     0.014 C 
BRANCH  27  29
HETATM   29  C27 UNL     1       1.502   7.411   8.231  1.00  0.00     0.005 C 
HETATM   30  C28 UNL     1       0.231   8.243   8.417  1.00  0.00     0.014 C 
HETATM   31  C29 UNL     1       1.756   7.134   6.747  1.00  0.00     0.014 C 
ENDBRANCH  27  29
ENDBRANCH  26  27
ENDBRANCH  25  26
ENDBRANCH  23  25
ENDBRANCH   1  23
BRANCH  22  32
HETATM   32  O3  UNL     1      -2.890   6.959  16.888  1.00  0.00    -0.391 OA
HETATM   33  H37 UNL     1      -3.002   7.583  17.625  1.00  0.00     0.210 HD
ENDBRANCH  22  32
TORSDOF 6
ENDMDL
MODEL 9
REMARK minimizedAffinity -8.8388195
REMARK  6 active torsions:
REMARK  status: ('A' for Active; 'I' for Inactive)
REMARK    1  A    between atoms: C2_2  and  C3_3 
REMARK    2  A    between atoms: C2_2  and  C27_30 
REMARK    3  A    between atoms: C3_3  and  C4_4 
REMARK    4  A    between atoms: C4_4  and  C5_5 
REMARK    5  A    between atoms: C5_5  and  C7_7 
REMARK    6  A    between atoms: C26_28  and  O3_29 
ROOT
HETATM    1  C7  UNL     1      -2.126   4.839  13.094  1.00  0.00    -0.002 C 
HETATM    2  C8  UNL     1      -0.631   4.652  12.736  1.00  0.00     0.006 C 
HETATM    3  C9  UNL     1       0.147   5.670  13.595  1.00  0.00     0.010 C 
HETATM    4  C10 UNL     1      -0.906   6.274  14.530  1.00  0.00     0.027 C 
HETATM    5  C11 UNL     1      -0.675   7.581  15.248  1.00  0.00    -0.036 C 
HETATM    6  C12 UNL     1      -1.718   8.338  15.673  1.00  0.00     0.002 C 
HETATM    7  C13 UNL     1      -3.132   7.883  15.340  1.00  0.00     0.157 C 
HETATM    8  O1  UNL     1      -4.108   8.540  15.700  1.00  0.00    -0.293 OA
HETATM    9  C14 UNL     1      -3.350   6.590  14.568  1.00  0.00     0.093 C 
HETATM   10  C15 UNL     1      -2.169   6.295  13.646  1.00  0.00    -0.026 C 
HETATM   11  C16 UNL     1      -2.120   7.349  12.511  1.00  0.00     0.016 C 
HETATM   12  C17 UNL     1      -1.539   9.648  16.472  1.00  0.00    -0.008 C 
HETATM   13  C18 UNL     1      -1.819  10.804  15.474  1.00  0.00     0.021 C 
HETATM   14  C19 UNL     1      -2.531   9.761  17.675  1.00  0.00     0.022 C 
HETATM   15  C20 UNL     1      -2.022  10.532  18.893  1.00  0.00     0.080 C 
HETATM   16  C21 UNL     1      -1.008  11.581  18.520  1.00  0.00     0.131 C 
HETATM   17  O2  UNL     1      -1.113  12.746  18.905  1.00  0.00    -0.298 OA
HETATM   18  C22 UNL     1       0.196  11.119  17.714  1.00  0.00     0.056 C 
HETATM   19  C23 UNL     1       1.415  11.103  18.637  1.00  0.00     0.018 C 
HETATM   20  C24 UNL     1      -0.088   9.738  17.071  1.00  0.00     0.012 C 
HETATM   21  C25 UNL     1       0.972   9.367  16.025  1.00  0.00     0.042 C 
HETATM   22  C26 UNL     1       0.760   7.939  15.527  1.00  0.00     0.148 C 
ENDROOT
BRANCH   1  23
HETATM   23  C5  UNL     1      -3.183   4.476  12.014  1.00  0.00    -0.014 C 
HETATM   24  C6  UNL     1      -2.648   3.755  10.778  1.00  0.00     0.010 C 
BRANCH  23  25
HETATM   25  C4  UNL     1      -4.411   3.752  12.626  1.00  0.00     0.009 C 
BRANCH  25  26
HETATM   26  C3  UNL     1      -5.753   3.840  11.882  1.00  0.00     0.034 C 
BRANCH  26  27
HETATM   27  C2  UNL     1      -7.018   3.871  12.719  1.00  0.00    -0.086 C 
HETATM   28  C1  UNL     1      -7.479   2.737  13.279  1.00  0.00     0.014 C 
BRANCH  27  29
HETATM   29  C27 UNL     1      -7.721   5.193  13.026  1.00  0.00     0.005 C 
HETATM   30  C28 UNL     1      -6.770   6.332  13.402  1.00  0.00     0.014 C 
HETATM   31  C29 UNL     1      -8.671   5.625  11.907  1.00  0.00     0.014 C 
ENDBRANCH  27  29
ENDBRANCH  26  27
ENDBRANCH  25  26
ENDBRANCH  23  25
ENDBRANCH   1  23
BRANCH  22  32
HETATM   32  O3  UNL     1       1.221   7.021  16.513  1.00  0.00    -0.391 OA
HETATM   33  H37 UNL     1       2.189   7.104  16.559  1.00  0.00     0.210 HD
ENDBRANCH  22  32
TORSDOF 6
ENDMDL
