MODEL 1
REMARK minimizedAffinity -10.4926624
REMARK CNNscore 0.601018548
REMARK CNNaffinity 7.59644318
REMARK  13 active torsions:
REMARK  status: ('A' for Active; 'I' for Inactive)
REMARK    1  A    between atoms: O1_2  and  C2_3 
REMARK    2  A    between atoms: C12_14  and  C13_15 
REMARK    3  A    between atoms: C13_15  and  C15_17 
REMARK    4  A    between atoms: C15_17  and  C16_18 
REMARK    5  A    between atoms: C17_19  and  C18_20 
REMARK    6  A    between atoms: C18_20  and  O3_23 
REMARK    7  A    between atoms: C29_32  and  O4_33 
REMARK    8  A    between atoms: O4_33  and  C30_34 
REMARK    9  A    between atoms: C31_36  and  C32_37 
REMARK   10  A    between atoms: C32_37  and  O6_38 
REMARK   11  A    between atoms: C33_39  and  O7_40 
REMARK   12  A    between atoms: C34_41  and  O8_42 
REMARK   13  A    between atoms: C35_43  and  O9_44 
ROOT
HETATM    1  C2  UNL     1      -4.356  46.618 -20.344  1.00  0.00     0.270 C 
HETATM    2  O2  UNL     1      -5.805  46.748 -20.351  1.00  0.00    -0.344 OA
HETATM    3  C3  UNL     1      -6.184  47.524 -21.519  1.00  0.00     0.095 C 
HETATM    4  C4  UNL     1      -6.447  48.961 -21.039  1.00  0.00     0.008 C 
HETATM    5  C5  UNL     1      -5.442  49.739 -20.585  1.00  0.00    -0.021 C 
HETATM    6  C6  UNL     1      -4.093  49.109 -20.334  1.00  0.00     0.030 C 
HETATM    7  C7  UNL     1      -3.837  47.814 -21.226  1.00  0.00     0.024 C 
HETATM    8  C8  UNL     1      -2.404  47.619 -21.795  1.00  0.00     0.016 C 
HETATM    9  C9  UNL     1      -1.277  48.551 -21.327  1.00  0.00     0.011 C 
HETATM   10  C10 UNL     1      -1.742  49.996 -21.102  1.00  0.00    -0.032 C 
HETATM   11  C11 UNL     1      -2.242  50.599 -22.434  1.00  0.00     0.016 C 
HETATM   12  C12 UNL     1      -0.688  50.980 -20.493  1.00  0.00    -0.002 C 
HETATM   13  C22 UNL     1      -1.594  52.040 -19.786  1.00  0.00     0.006 C 
HETATM   14  C23 UNL     1      -3.017  51.453 -19.687  1.00  0.00     0.011 C 
HETATM   15  C24 UNL     1      -2.830  49.958 -19.973  1.00  0.00    -0.029 C 
HETATM   16  C25 UNL     1      -2.291  49.332 -18.622  1.00  0.00     0.016 C 
HETATM   17  C26 UNL     1      -4.900  47.601 -22.351  1.00  0.00     0.039 C 
HETATM   18  C27 UNL     1      -5.070  48.541 -23.551  1.00  0.00     0.011 C 
HETATM   19  C28 UNL     1      -6.446  48.373 -24.219  1.00  0.00     0.033 C 
HETATM   20  C29 UNL     1      -7.106  47.029 -23.890  1.00  0.00     0.136 C 
HETATM   21  C36 UNL     1      -7.334  46.827 -22.344  1.00  0.00     0.014 C 
HETATM   22  C37 UNL     1      -8.743  47.303 -21.911  1.00  0.00     0.021 C 
HETATM   23  C38 UNL     1      -7.334  45.294 -22.096  1.00  0.00     0.021 C 
ENDROOT
BRANCH  20  24
HETATM   24  O4  UNL     1      -8.352  46.869 -24.577  1.00  0.00    -0.352 OA
BRANCH  24  25
HETATM   25  C30 UNL     1      -9.141  48.053 -24.662  1.00  0.00     0.292 C 
HETATM   26  O5  UNL     1     -10.521  47.791 -24.398  1.00  0.00    -0.348 OA
HETATM   27  C31 UNL     1     -11.219  47.053 -25.407  1.00  0.00     0.179 C 
HETATM   28  C33 UNL     1     -11.082  47.708 -26.796  1.00  0.00     0.180 C 
HETATM   29  C34 UNL     1      -9.619  47.985 -27.172  1.00  0.00     0.183 C 
HETATM   30  C35 UNL     1      -8.912  48.733 -26.031  1.00  0.00     0.204 C 
BRANCH  27  31
HETATM   31  C32 UNL     1     -10.890  45.553 -25.381  1.00  0.00     0.198 C 
BRANCH  31  32
HETATM   32  O6  UNL     1     -11.189  44.949 -26.639  1.00  0.00    -0.398 OA
HETATM   33  H50 UNL     1     -12.157  44.847 -26.684  1.00  0.00     0.209 HD
ENDBRANCH  31  32
ENDBRANCH  27  31
BRANCH  28  34
HETATM   34  O7  UNL     1     -11.765  48.982 -26.765  1.00  0.00    -0.390 OA
HETATM   35  H52 UNL     1     -12.720  48.787 -26.708  1.00  0.00     0.210 HD
ENDBRANCH  28  34
BRANCH  29  36
HETATM   36  O8  UNL     1      -8.958  46.774 -27.539  1.00  0.00    -0.390 OA
HETATM   37  H54 UNL     1      -7.998  46.926 -27.502  1.00  0.00     0.210 HD
ENDBRANCH  29  36
BRANCH  30  38
HETATM   38  O9  UNL     1      -9.361  50.099 -25.987  1.00  0.00    -0.388 OA
HETATM   39  H56 UNL     1     -10.343  50.070 -26.027  1.00  0.00     0.210 HD
ENDBRANCH  30  38
ENDBRANCH  24  25
ENDBRANCH  20  24
BRANCH   1  40
HETATM   40  O1  UNL     1      -3.963  45.353 -20.881  1.00  0.00    -0.365 OA
HETATM   41  C1  UNL     1      -4.237  44.289 -19.981  1.00  0.00     0.204 C 
ENDBRANCH   1  40
BRANCH  12  42
HETATM   42  C13 UNL     1       0.412  51.648 -21.383  1.00  0.00    -0.010 C 
HETATM   43  C14 UNL     1       1.246  52.671 -20.602  1.00  0.00     0.010 C 
BRANCH  42  44
HETATM   44  C15 UNL     1      -0.273  52.334 -22.602  1.00  0.00     0.031 C 
BRANCH  44  45
HETATM   45  C16 UNL     1       0.522  52.339 -23.882  1.00  0.00    -0.027 C 
HETATM   46  C17 UNL     1      -0.002  52.092 -25.095  1.00  0.00     0.006 C 
BRANCH  46  47
HETATM   47  C18 UNL     1       0.700  52.144 -26.444  1.00  0.00     0.070 C 
HETATM   48  C19 UNL     1       2.121  51.565 -26.316  1.00  0.00     0.050 C 
HETATM   49  C20 UNL     1      -0.031  51.353 -27.543  1.00  0.00     0.050 C 
BRANCH  47  50
HETATM   50  O3  UNL     1       0.685  53.501 -26.916  1.00  0.00    -0.382 OA
HETATM   51  C21 UNL     1      -0.398  53.889 -27.742  1.00  0.00     0.202 C 
ENDBRANCH  47  50
ENDBRANCH  46  47
ENDBRANCH  44  45
ENDBRANCH  42  44
ENDBRANCH  12  42
TORSDOF 13
ENDMDL
MODEL 2
REMARK minimizedAffinity -7.52222967
REMARK CNNscore 0.411196083
REMARK CNNaffinity 6.94941521
REMARK  13 active torsions:
REMARK  status: ('A' for Active; 'I' for Inactive)
REMARK    1  A    between atoms: O1_2  and  C2_3 
REMARK    2  A    between atoms: C12_14  and  C13_15 
REMARK    3  A    between atoms: C13_15  and  C15_17 
REMARK    4  A    between atoms: C15_17  and  C16_18 
REMARK    5  A    between atoms: C17_19  and  C18_20 
REMARK    6  A    between atoms: C18_20  and  O3_23 
REMARK    7  A    between atoms: C29_32  and  O4_33 
REMARK    8  A    between atoms: O4_33  and  C30_34 
REMARK    9  A    between atoms: C31_36  and  C32_37 
REMARK   10  A    between atoms: C32_37  and  O6_38 
REMARK   11  A    between atoms: C33_39  and  O7_40 
REMARK   12  A    between atoms: C34_41  and  O8_42 
REMARK   13  A    between atoms: C35_43  and  O9_44 
ROOT
HETATM    1  C2  UNL     1       0.311  51.574  -9.026  1.00  0.00     0.270 C 
HETATM    2  O2  UNL     1      -0.833  51.871  -9.874  1.00  0.00    -0.344 OA
HETATM    3  C3  UNL     1      -0.339  52.239 -11.189  1.00  0.00     0.095 C 
HETATM    4  C4  UNL     1      -0.373  53.773 -11.270  1.00  0.00     0.008 C 
HETATM    5  C5  UNL     1       0.450  54.530 -10.515  1.00  0.00    -0.021 C 
HETATM    6  C6  UNL     1       1.246  53.864  -9.419  1.00  0.00     0.030 C 
HETATM    7  C7  UNL     1       1.521  52.320  -9.701  1.00  0.00     0.024 C 
HETATM    8  C8  UNL     1       2.919  51.766  -9.308  1.00  0.00     0.016 C 
HETATM    9  C9  UNL     1       3.881  52.656  -8.507  1.00  0.00     0.011 C 
HETATM   10  C10 UNL     1       3.809  54.136  -8.906  1.00  0.00    -0.032 C 
HETATM   11  C11 UNL     1       4.235  54.301 -10.383  1.00  0.00     0.016 C 
HETATM   12  C12 UNL     1       4.656  55.132  -8.047  1.00  0.00    -0.002 C 
HETATM   13  C22 UNL     1       3.873  56.473  -8.224  1.00  0.00     0.006 C 
HETATM   14  C23 UNL     1       2.489  56.136  -8.815  1.00  0.00     0.011 C 
HETATM   15  C24 UNL     1       2.348  54.623  -8.609  1.00  0.00    -0.029 C 
HETATM   16  C25 UNL     1       1.937  54.438  -7.090  1.00  0.00     0.016 C 
HETATM   17  C26 UNL     1       1.146  51.866 -11.149  1.00  0.00     0.039 C 
HETATM   18  C27 UNL     1       1.876  52.350 -12.409  1.00  0.00     0.011 C 
HETATM   19  C28 UNL     1       1.032  52.133 -13.677  1.00  0.00     0.033 C 
HETATM   20  C29 UNL     1      -0.063  51.077 -13.489  1.00  0.00     0.136 C 
HETATM   21  C36 UNL     1      -1.075  51.448 -12.339  1.00  0.00     0.014 C 
HETATM   22  C37 UNL     1      -2.303  52.213 -12.889  1.00  0.00     0.021 C 
HETATM   23  C38 UNL     1      -1.643  50.106 -11.804  1.00  0.00     0.021 C 
ENDROOT
BRANCH  20  24
HETATM   24  O4  UNL     1      -0.788  50.844 -14.701  1.00  0.00    -0.352 OA
BRANCH  24  25
HETATM   25  C30 UNL     1      -0.579  49.559 -15.283  1.00  0.00     0.292 C 
HETATM   26  O5  UNL     1       0.456  49.584 -16.266  1.00  0.00    -0.348 OA
HETATM   27  C31 UNL     1       0.144  50.269 -17.484  1.00  0.00     0.179 C 
HETATM   28  C33 UNL     1      -1.155  49.737 -18.125  1.00  0.00     0.180 C 
HETATM   29  C34 UNL     1      -2.331  49.718 -17.138  1.00  0.00     0.183 C 
HETATM   30  C35 UNL     1      -1.917  49.016 -15.835  1.00  0.00     0.204 C 
BRANCH  27  31
HETATM   31  C32 UNL     1       0.194  51.798 -17.336  1.00  0.00     0.198 C 
BRANCH  31  32
HETATM   32  O6  UNL     1       1.544  52.251 -17.242  1.00  0.00    -0.398 OA
HETATM   33  H50 UNL     1       1.853  52.045 -16.341  1.00  0.00     0.209 HD
ENDBRANCH  31  32
ENDBRANCH  27  31
BRANCH  28  34
HETATM   34  O7  UNL     1      -0.925  48.373 -18.546  1.00  0.00    -0.390 OA
HETATM   35  H52 UNL     1      -0.308  48.412 -19.300  1.00  0.00     0.210 HD
ENDBRANCH  28  34
BRANCH  29  36
HETATM   36  O8  UNL     1      -2.829  51.038 -16.926  1.00  0.00    -0.390 OA
HETATM   37  H54 UNL     1      -3.367  51.037 -16.115  1.00  0.00     0.210 HD
ENDBRANCH  29  36
BRANCH  30  38
HETATM   38  O9  UNL     1      -1.824  47.596 -16.051  1.00  0.00    -0.388 OA
HETATM   39  H56 UNL     1      -1.293  47.474 -16.870  1.00  0.00     0.210 HD
ENDBRANCH  30  38
ENDBRANCH  24  25
ENDBRANCH  20  24
BRANCH   1  40
HETATM   40  O1  UNL     1       0.530  50.163  -8.956  1.00  0.00    -0.365 OA
HETATM   41  C1  UNL     1       1.747  49.786  -9.586  1.00  0.00     0.204 C 
ENDBRANCH   1  40
BRANCH  12  42
HETATM   42  C13 UNL     1       6.192  55.313  -8.286  1.00  0.00    -0.010 C 
HETATM   43  C14 UNL     1       6.717  54.399  -9.399  1.00  0.00     0.010 C 
BRANCH  42  44
HETATM   44  C15 UNL     1       6.947  55.025  -6.955  1.00  0.00     0.031 C 
BRANCH  44  45
HETATM   45  C16 UNL     1       7.230  56.225  -6.089  1.00  0.00    -0.027 C 
HETATM   46  C17 UNL     1       8.459  56.584  -5.678  1.00  0.00     0.006 C 
BRANCH  46  47
HETATM   47  C18 UNL     1       8.850  57.810  -4.865  1.00  0.00     0.070 C 
HETATM   48  C19 UNL     1       7.745  58.877  -4.962  1.00  0.00     0.050 C 
HETATM   49  C20 UNL     1       9.079  57.505  -3.374  1.00  0.00     0.050 C 
BRANCH  47  50
HETATM   50  O3  UNL     1      10.127  58.277  -5.330  1.00  0.00    -0.382 OA
HETATM   51  C21 UNL     1      11.220  58.183  -4.433  1.00  0.00     0.202 C 
ENDBRANCH  47  50
ENDBRANCH  46  47
ENDBRANCH  44  45
ENDBRANCH  42  44
ENDBRANCH  12  42
TORSDOF 13
ENDMDL
MODEL 3
REMARK minimizedAffinity -7.39347076
REMARK CNNscore 0.328534693
REMARK CNNaffinity 5.99740982
REMARK  13 active torsions:
REMARK  status: ('A' for Active; 'I' for Inactive)
REMARK    1  A    between atoms: O1_2  and  C2_3 
REMARK    2  A    between atoms: C12_14  and  C13_15 
REMARK    3  A    between atoms: C13_15  and  C15_17 
REMARK    4  A    between atoms: C15_17  and  C16_18 
REMARK    5  A    between atoms: C17_19  and  C18_20 
REMARK    6  A    between atoms: C18_20  and  O3_23 
REMARK    7  A    between atoms: C29_32  and  O4_33 
REMARK    8  A    between atoms: O4_33  and  C30_34 
REMARK    9  A    between atoms: C31_36  and  C32_37 
REMARK   10  A    between atoms: C32_37  and  O6_38 
REMARK   11  A    between atoms: C33_39  and  O7_40 
REMARK   12  A    between atoms: C34_41  and  O8_42 
REMARK   13  A    between atoms: C35_43  and  O9_44 
ROOT
HETATM    1  C2  UNL     1     -10.633  45.618 -26.331  1.00  0.00     0.270 C 
HETATM    2  O2  UNL     1     -11.763  46.338 -25.764  1.00  0.00    -0.344 OA
HETATM    3  C3  UNL     1     -12.875  46.239 -26.693  1.00  0.00     0.095 C 
HETATM    4  C4  UNL     1     -12.925  47.561 -27.477  1.00  0.00     0.008 C 
HETATM    5  C5  UNL     1     -11.949  47.892 -28.349  1.00  0.00    -0.021 C 
HETATM    6  C6  UNL     1     -10.689  47.062 -28.377  1.00  0.00     0.030 C 
HETATM    7  C7  UNL     1     -10.919  45.567 -27.878  1.00  0.00     0.024 C 
HETATM    8  C8  UNL     1     -10.159  44.443 -28.636  1.00  0.00     0.016 C 
HETATM    9  C9  UNL     1      -9.097  44.825 -29.677  1.00  0.00     0.011 C 
HETATM   10  C10 UNL     1      -9.464  46.078 -30.483  1.00  0.00    -0.032 C 
HETATM   11  C11 UNL     1     -10.755  45.820 -31.294  1.00  0.00     0.016 C 
HETATM   12  C12 UNL     1      -8.376  46.616 -31.470  1.00  0.00    -0.002 C 
HETATM   13  C22 UNL     1      -8.736  48.135 -31.566  1.00  0.00     0.006 C 
HETATM   14  C23 UNL     1      -9.703  48.463 -30.410  1.00  0.00     0.011 C 
HETATM   15  C24 UNL     1      -9.581  47.263 -29.463  1.00  0.00    -0.029 C 
HETATM   16  C25 UNL     1      -8.247  47.503 -28.644  1.00  0.00     0.016 C 
HETATM   17  C26 UNL     1     -12.424  45.182 -27.706  1.00  0.00     0.039 C 
HETATM   18  C27 UNL     1     -13.413  45.072 -28.874  1.00  0.00     0.011 C 
HETATM   19  C28 UNL     1     -14.874  45.149 -28.395  1.00  0.00     0.033 C 
HETATM   20  C29 UNL     1     -15.029  44.814 -26.907  1.00  0.00     0.136 C 
HETATM   21  C36 UNL     1     -14.205  45.784 -25.977  1.00  0.00     0.014 C 
HETATM   22  C37 UNL     1     -15.062  46.984 -25.507  1.00  0.00     0.021 C 
HETATM   23  C38 UNL     1     -13.885  44.986 -24.684  1.00  0.00     0.021 C 
ENDROOT
BRANCH  20  24
HETATM   24  O4  UNL     1     -16.403  44.825 -26.503  1.00  0.00    -0.352 OA
BRANCH  24  25
HETATM   25  C30 UNL     1     -17.250  43.957 -27.252  1.00  0.00     0.292 C 
HETATM   26  O5  UNL     1     -18.550  44.518 -27.441  1.00  0.00    -0.348 OA
HETATM   27  C31 UNL     1     -19.375  44.588 -26.272  1.00  0.00     0.179 C 
HETATM   28  C33 UNL     1     -19.507  43.216 -25.580  1.00  0.00     0.180 C 
HETATM   29  C34 UNL     1     -18.144  42.563 -25.305  1.00  0.00     0.183 C 
HETATM   30  C35 UNL     1     -17.290  42.565 -26.582  1.00  0.00     0.204 C 
BRANCH  27  31
HETATM   31  C32 UNL     1     -18.975  45.733 -25.330  1.00  0.00     0.198 C 
BRANCH  31  32
HETATM   32  O6  UNL     1     -20.077  46.613 -25.110  1.00  0.00    -0.398 OA
HETATM   33  H50 UNL     1     -20.171  47.160 -25.911  1.00  0.00     0.209 HD
ENDBRANCH  31  32
ENDBRANCH  27  31
BRANCH  28  34
HETATM   34  O7  UNL     1     -20.235  42.333 -26.464  1.00  0.00    -0.390 OA
HETATM   35  H52 UNL     1     -21.155  42.655 -26.489  1.00  0.00     0.210 HD
ENDBRANCH  28  34
BRANCH  29  36
HETATM   36  O8  UNL     1     -17.499  43.198 -24.202  1.00  0.00    -0.390 OA
HETATM   37  H54 UNL     1     -16.555  42.964 -24.223  1.00  0.00     0.210 HD
ENDBRANCH  29  36
BRANCH  30  38
HETATM   38  O9  UNL     1     -17.789  41.583 -27.508  1.00  0.00    -0.388 OA
HETATM   39  H56 UNL     1     -18.761  41.722 -27.562  1.00  0.00     0.210 HD
ENDBRANCH  30  38
ENDBRANCH  24  25
ENDBRANCH  20  24
BRANCH   1  40
HETATM   40  O1  UNL     1     -10.537  44.309 -25.766  1.00  0.00    -0.365 OA
HETATM   41  C1  UNL     1     -11.175  43.334 -26.579  1.00  0.00     0.204 C 
ENDBRANCH   1  40
BRANCH  12  42
HETATM   42  C13 UNL     1      -8.165  45.973 -32.881  1.00  0.00    -0.010 C 
HETATM   43  C14 UNL     1      -6.987  44.992 -32.900  1.00  0.00     0.010 C 
BRANCH  42  44
HETATM   44  C15 UNL     1      -7.936  47.106 -33.923  1.00  0.00     0.031 C 
BRANCH  44  45
HETATM   45  C16 UNL     1      -8.548  46.881 -35.282  1.00  0.00    -0.027 C 
HETATM   46  C17 UNL     1      -8.334  47.675 -36.345  1.00  0.00     0.006 C 
BRANCH  46  47
HETATM   47  C18 UNL     1      -8.848  47.491 -37.766  1.00  0.00     0.070 C 
HETATM   48  C19 UNL     1      -9.712  46.220 -37.850  1.00  0.00     0.050 C 
HETATM   49  C20 UNL     1      -9.699  48.672 -38.264  1.00  0.00     0.050 C 
BRANCH  47  50
HETATM   50  O3  UNL     1      -7.721  47.466 -38.659  1.00  0.00    -0.382 OA
HETATM   51  C21 UNL     1      -7.885  46.786 -39.891  1.00  0.00     0.202 C 
ENDBRANCH  47  50
ENDBRANCH  46  47
ENDBRANCH  44  45
ENDBRANCH  42  44
ENDBRANCH  12  42
TORSDOF 13
ENDMDL
MODEL 4
REMARK minimizedAffinity -8.6162262
REMARK CNNscore 0.29345566
REMARK CNNaffinity 6.9589982
REMARK  13 active torsions:
REMARK  status: ('A' for Active; 'I' for Inactive)
REMARK    1  A    between atoms: O1_2  and  C2_3 
REMARK    2  A    between atoms: C12_14  and  C13_15 
REMARK    3  A    between atoms: C13_15  and  C15_17 
REMARK    4  A    between atoms: C15_17  and  C16_18 
REMARK    5  A    between atoms: C17_19  and  C18_20 
REMARK    6  A    between atoms: C18_20  and  O3_23 
REMARK    7  A    between atoms: C29_32  and  O4_33 
REMARK    8  A    between atoms: O4_33  and  C30_34 
REMARK    9  A    between atoms: C31_36  and  C32_37 
REMARK   10  A    between atoms: C32_37  and  O6_38 
REMARK   11  A    between atoms: C33_39  and  O7_40 
REMARK   12  A    between atoms: C34_41  and  O8_42 
REMARK   13  A    between atoms: C35_43  and  O9_44 
ROOT
HETATM    1  C2  UNL     1      -3.833  46.546 -19.262  1.00  0.00     0.270 C 
HETATM    2  O2  UNL     1      -5.284  46.588 -19.176  1.00  0.00    -0.344 OA
HETATM    3  C3  UNL     1      -5.798  47.125 -20.424  1.00  0.00     0.095 C 
HETATM    4  C4  UNL     1      -6.129  48.605 -20.175  1.00  0.00     0.008 C 
HETATM    5  C5  UNL     1      -5.154  49.508 -19.941  1.00  0.00    -0.021 C 
HETATM    6  C6  UNL     1      -3.749  49.012 -19.695  1.00  0.00     0.030 C 
HETATM    7  C7  UNL     1      -3.462  47.598 -20.372  1.00  0.00     0.024 C 
HETATM    8  C8  UNL     1      -2.062  47.391 -21.013  1.00  0.00     0.016 C 
HETATM    9  C9  UNL     1      -0.975  48.455 -20.801  1.00  0.00     0.011 C 
HETATM   10  C10 UNL     1      -1.525  49.887 -20.788  1.00  0.00    -0.032 C 
HETATM   11  C11 UNL     1      -2.158  50.219 -22.159  1.00  0.00     0.016 C 
HETATM   12  C12 UNL     1      -0.506  51.023 -20.441  1.00  0.00    -0.002 C 
HETATM   13  C22 UNL     1      -1.435  52.135 -19.853  1.00  0.00     0.006 C 
HETATM   14  C23 UNL     1      -2.802  51.492 -19.543  1.00  0.00     0.011 C 
HETATM   15  C24 UNL     1      -2.528  49.983 -19.586  1.00  0.00    -0.029 C 
HETATM   16  C25 UNL     1      -1.855  49.635 -18.195  1.00  0.00     0.016 C 
HETATM   17  C26 UNL     1      -4.582  47.130 -21.356  1.00  0.00     0.039 C 
HETATM   18  C27 UNL     1      -4.901  47.835 -22.682  1.00  0.00     0.011 C 
HETATM   19  C28 UNL     1      -6.304  47.472 -23.199  1.00  0.00     0.033 C 
HETATM   20  C29 UNL     1      -6.841  46.170 -22.595  1.00  0.00     0.136 C 
HETATM   21  C36 UNL     1      -6.949  46.227 -21.024  1.00  0.00     0.014 C 
HETATM   22  C37 UNL     1      -8.355  46.688 -20.567  1.00  0.00     0.021 C 
HETATM   23  C38 UNL     1      -6.821  44.764 -20.521  1.00  0.00     0.021 C 
ENDROOT
BRANCH  20  24
HETATM   24  O4  UNL     1      -8.117  45.819 -23.144  1.00  0.00    -0.352 OA
BRANCH  24  25
HETATM   25  C30 UNL     1      -8.058  45.021 -24.324  1.00  0.00     0.292 C 
HETATM   26  O5  UNL     1      -9.130  45.319 -25.220  1.00  0.00    -0.348 OA
HETATM   27  C31 UNL     1     -10.431  44.895 -24.798  1.00  0.00     0.179 C 
HETATM   28  C33 UNL     1     -10.461  43.393 -24.449  1.00  0.00     0.180 C 
HETATM   29  C34 UNL     1      -9.358  43.000 -23.454  1.00  0.00     0.183 C 
HETATM   30  C35 UNL     1      -7.998  43.526 -23.937  1.00  0.00     0.204 C 
BRANCH  27  31
HETATM   31  C32 UNL     1     -11.031  45.806 -23.716  1.00  0.00     0.198 C 
BRANCH  31  32
HETATM   32  O6  UNL     1     -10.749  47.177 -23.998  1.00  0.00    -0.398 OA
HETATM   33  H50 UNL     1      -9.816  47.331 -23.764  1.00  0.00     0.209 HD
ENDBRANCH  31  32
ENDBRANCH  27  31
BRANCH  28  34
HETATM   34  O7  UNL     1     -10.230  42.643 -25.663  1.00  0.00    -0.390 OA
HETATM   35  H52 UNL     1     -11.025  42.755 -26.218  1.00  0.00     0.210 HD
ENDBRANCH  28  34
BRANCH  29  36
HETATM   36  O8  UNL     1      -9.691  43.441 -22.138  1.00  0.00    -0.390 OA
HETATM   37  H54 UNL     1      -8.882  43.430 -21.598  1.00  0.00     0.210 HD
ENDBRANCH  29  36
BRANCH  30  38
HETATM   38  O9  UNL     1      -7.537  42.743 -25.053  1.00  0.00    -0.388 OA
HETATM   39  H56 UNL     1      -8.294  42.679 -25.678  1.00  0.00     0.210 HD
ENDBRANCH  30  38
ENDBRANCH  24  25
ENDBRANCH  20  24
BRANCH   1  40
HETATM   40  O1  UNL     1      -3.389  45.232 -19.607  1.00  0.00    -0.365 OA
HETATM   41  C1  UNL     1      -3.744  44.277 -18.616  1.00  0.00     0.204 C 
ENDBRANCH   1  40
BRANCH  12  42
HETATM   42  C13 UNL     1       0.480  51.589 -21.515  1.00  0.00    -0.010 C 
HETATM   43  C14 UNL     1       1.529  52.525 -20.903  1.00  0.00     0.010 C 
BRANCH  42  44
HETATM   44  C15 UNL     1      -0.339  52.343 -22.605  1.00  0.00     0.031 C 
BRANCH  44  45
HETATM   45  C16 UNL     1      -0.065  51.936 -24.029  1.00  0.00    -0.027 C 
HETATM   46  C17 UNL     1       0.076  52.803 -25.047  1.00  0.00     0.006 C 
BRANCH  46  47
HETATM   47  C18 UNL     1       0.422  52.495 -26.496  1.00  0.00     0.070 C 
HETATM   48  C19 UNL     1      -0.101  51.096 -26.872  1.00  0.00     0.050 C 
HETATM   49  C20 UNL     1      -0.175  53.503 -27.493  1.00  0.00     0.050 C 
BRANCH  47  50
HETATM   50  O3  UNL     1       1.842  52.629 -26.666  1.00  0.00    -0.382 OA
HETATM   51  C21 UNL     1       2.612  51.440 -26.659  1.00  0.00     0.202 C 
ENDBRANCH  47  50
ENDBRANCH  46  47
ENDBRANCH  44  45
ENDBRANCH  42  44
ENDBRANCH  12  42
TORSDOF 13
ENDMDL
MODEL 5
REMARK minimizedAffinity -9.89239025
REMARK CNNscore 0.29071039
REMARK CNNaffinity 7.06322718
REMARK  13 active torsions:
REMARK  status: ('A' for Active; 'I' for Inactive)
REMARK    1  A    between atoms: O1_2  and  C2_3 
REMARK    2  A    between atoms: C12_14  and  C13_15 
REMARK    3  A    between atoms: C13_15  and  C15_17 
REMARK    4  A    between atoms: C15_17  and  C16_18 
REMARK    5  A    between atoms: C17_19  and  C18_20 
REMARK    6  A    between atoms: C18_20  and  O3_23 
REMARK    7  A    between atoms: C29_32  and  O4_33 
REMARK    8  A    between atoms: O4_33  and  C30_34 
REMARK    9  A    between atoms: C31_36  and  C32_37 
REMARK   10  A    between atoms: C32_37  and  O6_38 
REMARK   11  A    between atoms: C33_39  and  O7_40 
REMARK   12  A    between atoms: C34_41  and  O8_42 
REMARK   13  A    between atoms: C35_43  and  O9_44 
ROOT
HETATM    1  C2  UNL     1      -4.372  46.773 -20.458  1.00  0.00     0.270 C 
HETATM    2  O2  UNL     1      -5.815  46.922 -20.568  1.00  0.00    -0.344 OA
HETATM    3  C3  UNL     1      -6.103  47.665 -21.782  1.00  0.00     0.095 C 
HETATM    4  C4  UNL     1      -6.375  49.120 -21.366  1.00  0.00     0.008 C 
HETATM    5  C5  UNL     1      -5.391  49.899 -20.868  1.00  0.00    -0.021 C 
HETATM    6  C6  UNL     1      -4.072  49.259 -20.506  1.00  0.00     0.030 C 
HETATM    7  C7  UNL     1      -3.776  47.933 -21.338  1.00  0.00     0.024 C 
HETATM    8  C8  UNL     1      -2.311  47.701 -21.803  1.00  0.00     0.016 C 
HETATM    9  C9  UNL     1      -1.204  48.633 -21.288  1.00  0.00     0.011 C 
HETATM   10  C10 UNL     1      -1.661  50.090 -21.140  1.00  0.00    -0.032 C 
HETATM   11  C11 UNL     1      -2.061  50.657 -22.521  1.00  0.00     0.016 C 
HETATM   12  C12 UNL     1      -0.636  51.079 -20.491  1.00  0.00    -0.002 C 
HETATM   13  C22 UNL     1      -1.572  52.173 -19.880  1.00  0.00     0.006 C 
HETATM   14  C23 UNL     1      -3.007  51.608 -19.860  1.00  0.00     0.011 C 
HETATM   15  C24 UNL     1      -2.824  50.102 -20.087  1.00  0.00    -0.029 C 
HETATM   16  C25 UNL     1      -2.387  49.512 -18.683  1.00  0.00     0.016 C 
HETATM   17  C26 UNL     1      -4.764  47.698 -22.526  1.00  0.00     0.039 C 
HETATM   18  C27 UNL     1      -4.838  48.602 -23.764  1.00  0.00     0.011 C 
HETATM   19  C28 UNL     1      -6.168  48.431 -24.519  1.00  0.00     0.033 C 
HETATM   20  C29 UNL     1      -6.869  47.107 -24.194  1.00  0.00     0.136 C 
HETATM   21  C36 UNL     1      -7.205  46.957 -22.661  1.00  0.00     0.014 C 
HETATM   22  C37 UNL     1      -8.632  47.465 -22.340  1.00  0.00     0.021 C 
HETATM   23  C38 UNL     1      -7.245  45.433 -22.367  1.00  0.00     0.021 C 
ENDROOT
BRANCH  20  24
HETATM   24  O4  UNL     1      -8.068  46.942 -24.959  1.00  0.00    -0.352 OA
BRANCH  24  25
HETATM   25  C30 UNL     1      -7.858  46.589 -26.324  1.00  0.00     0.292 C 
HETATM   26  O5  UNL     1      -8.195  47.661 -27.207  1.00  0.00    -0.348 OA
HETATM   27  C31 UNL     1      -9.592  47.956 -27.324  1.00  0.00     0.179 C 
HETATM   28  C33 UNL     1     -10.413  46.707 -27.703  1.00  0.00     0.180 C 
HETATM   29  C34 UNL     1     -10.136  45.518 -26.771  1.00  0.00     0.183 C 
HETATM   30  C35 UNL     1      -8.622  45.285 -26.647  1.00  0.00     0.204 C 
BRANCH  27  31
HETATM   31  C32 UNL     1     -10.139  48.729 -26.114  1.00  0.00     0.198 C 
BRANCH  31  32
HETATM   32  O6  UNL     1      -9.615  50.056 -26.084  1.00  0.00    -0.398 OA
HETATM   33  H50 UNL     1      -8.696  49.993 -25.765  1.00  0.00     0.209 HD
ENDBRANCH  31  32
ENDBRANCH  27  31
BRANCH  28  34
HETATM   34  O7  UNL     1     -10.033  46.304 -29.038  1.00  0.00    -0.390 OA
HETATM   35  H52 UNL     1     -10.376  46.985 -29.646  1.00  0.00     0.210 HD
ENDBRANCH  28  34
BRANCH  29  36
HETATM   36  O8  UNL     1     -10.775  45.710 -25.510  1.00  0.00    -0.390 OA
HETATM   37  H54 UNL     1     -10.370  45.104 -24.865  1.00  0.00     0.210 HD
ENDBRANCH  29  36
BRANCH  30  38
HETATM   38  O9  UNL     1      -8.115  44.701 -27.860  1.00  0.00    -0.388 OA
HETATM   39  H56 UNL     1      -8.474  45.240 -28.600  1.00  0.00     0.210 HD
ENDBRANCH  30  38
ENDBRANCH  24  25
ENDBRANCH  20  24
BRANCH   1  40
HETATM   40  O1  UNL     1      -3.964  45.487 -20.928  1.00  0.00    -0.365 OA
HETATM   41  C1  UNL     1      -4.312  44.455 -20.014  1.00  0.00     0.204 C 
ENDBRANCH   1  40
BRANCH  12  42
HETATM   42  C13 UNL     1       0.531  51.704 -21.324  1.00  0.00    -0.010 C 
HETATM   43  C14 UNL     1       1.414  52.630 -20.479  1.00  0.00     0.010 C 
BRANCH  42  44
HETATM   44  C15 UNL     1      -0.070  52.488 -22.528  1.00  0.00     0.031 C 
BRANCH  44  45
HETATM   45  C16 UNL     1       0.693  52.387 -23.822  1.00  0.00    -0.027 C 
HETATM   46  C17 UNL     1       0.123  52.149 -25.017  1.00  0.00     0.006 C 
BRANCH  46  47
HETATM   47  C18 UNL     1       0.798  52.099 -26.380  1.00  0.00     0.070 C 
HETATM   48  C19 UNL     1       2.215  51.515 -26.242  1.00  0.00     0.050 C 
HETATM   49  C20 UNL     1       0.035  51.243 -27.406  1.00  0.00     0.050 C 
BRANCH  47  50
HETATM   50  O3  UNL     1       0.786  53.421 -26.944  1.00  0.00    -0.382 OA
HETATM   51  C21 UNL     1      -0.343  53.786 -27.718  1.00  0.00     0.202 C 
ENDBRANCH  47  50
ENDBRANCH  46  47
ENDBRANCH  44  45
ENDBRANCH  42  44
ENDBRANCH  12  42
TORSDOF 13
ENDMDL
MODEL 6
REMARK minimizedAffinity -7.78426075
REMARK CNNscore 0.287531078
REMARK CNNaffinity 7.08047819
REMARK  13 active torsions:
REMARK  status: ('A' for Active; 'I' for Inactive)
REMARK    1  A    between atoms: O1_2  and  C2_3 
REMARK    2  A    between atoms: C12_14  and  C13_15 
REMARK    3  A    between atoms: C13_15  and  C15_17 
REMARK    4  A    between atoms: C15_17  and  C16_18 
REMARK    5  A    between atoms: C17_19  and  C18_20 
REMARK    6  A    between atoms: C18_20  and  O3_23 
REMARK    7  A    between atoms: C29_32  and  O4_33 
REMARK    8  A    between atoms: O4_33  and  C30_34 
REMARK    9  A    between atoms: C31_36  and  C32_37 
REMARK   10  A    between atoms: C32_37  and  O6_38 
REMARK   11  A    between atoms: C33_39  and  O7_40 
REMARK   12  A    between atoms: C34_41  and  O8_42 
REMARK   13  A    between atoms: C35_43  and  O9_44 
ROOT
HETATM    1  C2  UNL     1      -2.102  51.326 -22.434  1.00  0.00     0.270 C 
HETATM    2  O2  UNL     1      -2.170  50.367 -23.525  1.00  0.00    -0.344 OA
HETATM    3  C3  UNL     1      -3.323  49.511 -23.305  1.00  0.00     0.095 C 
HETATM    4  C4  UNL     1      -2.800  48.199 -22.700  1.00  0.00     0.008 C 
HETATM    5  C5  UNL     1      -2.271  48.165 -21.459  1.00  0.00    -0.021 C 
HETATM    6  C6  UNL     1      -1.984  49.470 -20.757  1.00  0.00     0.030 C 
HETATM    7  C7  UNL     1      -2.913  50.663 -21.259  1.00  0.00     0.024 C 
HETATM    8  C8  UNL     1      -3.424  51.663 -20.185  1.00  0.00     0.016 C 
HETATM    9  C9  UNL     1      -2.870  51.577 -18.755  1.00  0.00     0.011 C 
HETATM   10  C10 UNL     1      -2.610  50.137 -18.293  1.00  0.00    -0.032 C 
HETATM   11  C11 UNL     1      -3.939  49.348 -18.263  1.00  0.00     0.016 C 
HETATM   12  C12 UNL     1      -1.917  49.966 -16.901  1.00  0.00    -0.002 C 
HETATM   13  C22 UNL     1      -1.211  48.579 -17.049  1.00  0.00     0.006 C 
HETATM   14  C23 UNL     1      -1.199  48.214 -18.548  1.00  0.00     0.011 C 
HETATM   15  C24 UNL     1      -1.534  49.531 -19.260  1.00  0.00    -0.029 C 
HETATM   16  C25 UNL     1      -0.185  50.360 -19.274  1.00  0.00     0.016 C 
HETATM   17  C26 UNL     1      -4.092  50.203 -22.175  1.00  0.00     0.039 C 
HETATM   18  C27 UNL     1      -5.262  49.338 -21.688  1.00  0.00     0.011 C 
HETATM   19  C28 UNL     1      -5.997  48.659 -22.857  1.00  0.00     0.033 C 
HETATM   20  C29 UNL     1      -5.750  49.357 -24.199  1.00  0.00     0.136 C 
HETATM   21  C36 UNL     1      -4.225  49.393 -24.594  1.00  0.00     0.014 C 
HETATM   22  C37 UNL     1      -3.838  48.180 -25.475  1.00  0.00     0.021 C 
HETATM   23  C38 UNL     1      -4.037  50.632 -25.510  1.00  0.00     0.021 C 
ENDROOT
BRANCH  20  24
HETATM   24  O4  UNL     1      -6.499  48.748 -25.258  1.00  0.00    -0.352 OA
BRANCH  24  25
HETATM   25  C30 UNL     1      -7.374  47.703 -24.842  1.00  0.00     0.292 C 
HETATM   26  O5  UNL     1      -7.472  46.670 -25.825  1.00  0.00    -0.348 OA
HETATM   27  C31 UNL     1      -8.179  47.013 -27.021  1.00  0.00     0.179 C 
HETATM   28  C33 UNL     1      -9.588  47.563 -26.719  1.00  0.00     0.180 C 
HETATM   29  C34 UNL     1      -9.563  48.709 -25.696  1.00  0.00     0.183 C 
HETATM   30  C35 UNL     1      -8.749  48.297 -24.460  1.00  0.00     0.204 C 
BRANCH  27  31
HETATM   31  C32 UNL     1      -7.350  47.892 -27.971  1.00  0.00     0.198 C 
BRANCH  31  32
HETATM   32  O6  UNL     1      -8.192  48.794 -28.688  1.00  0.00    -0.398 OA
HETATM   33  H50 UNL     1      -8.639  48.276 -29.383  1.00  0.00     0.209 HD
ENDBRANCH  31  32
ENDBRANCH  27  31
BRANCH  28  34
HETATM   34  O7  UNL     1     -10.376  46.494 -26.146  1.00  0.00    -0.390 OA
HETATM   35  H52 UNL     1     -10.540  45.852 -26.862  1.00  0.00     0.210 HD
ENDBRANCH  28  34
BRANCH  29  36
HETATM   36  O8  UNL     1      -9.088  49.910 -26.302  1.00  0.00    -0.390 OA
HETATM   37  H54 UNL     1      -8.824  50.526 -25.597  1.00  0.00     0.210 HD
ENDBRANCH  29  36
BRANCH  30  38
HETATM   38  O9  UNL     1      -9.496  47.353 -23.672  1.00  0.00    -0.388 OA
HETATM   39  H56 UNL     1      -9.826  46.670 -24.297  1.00  0.00     0.210 HD
ENDBRANCH  30  38
ENDBRANCH  24  25
ENDBRANCH  20  24
BRANCH   1  40
HETATM   40  O1  UNL     1      -2.670  52.577 -22.830  1.00  0.00    -0.365 OA
HETATM   41  C1  UNL     1      -2.097  53.058 -24.038  1.00  0.00     0.204 C 
ENDBRANCH   1  40
BRANCH  12  42
HETATM   42  C13 UNL     1      -2.729  50.071 -15.568  1.00  0.00    -0.010 C 
HETATM   43  C14 UNL     1      -3.509  51.387 -15.466  1.00  0.00     0.010 C 
BRANCH  42  44
HETATM   44  C15 UNL     1      -1.748  49.935 -14.367  1.00  0.00     0.031 C 
BRANCH  44  45
HETATM   45  C16 UNL     1      -2.195  50.576 -13.079  1.00  0.00    -0.027 C 
HETATM   46  C17 UNL     1      -1.710  51.737 -12.606  1.00  0.00     0.006 C 
BRANCH  46  47
HETATM   47  C18 UNL     1      -2.146  52.494 -11.360  1.00  0.00     0.070 C 
HETATM   48  C19 UNL     1      -3.570  53.044 -11.553  1.00  0.00     0.050 C 
HETATM   49  C20 UNL     1      -2.146  51.626 -10.089  1.00  0.00     0.050 C 
BRANCH  47  50
HETATM   50  O3  UNL     1      -1.177  53.520 -11.087  1.00  0.00    -0.382 OA
HETATM   51  C21 UNL     1      -1.584  54.591 -10.253  1.00  0.00     0.202 C 
ENDBRANCH  47  50
ENDBRANCH  46  47
ENDBRANCH  44  45
ENDBRANCH  42  44
ENDBRANCH  12  42
TORSDOF 13
ENDMDL
MODEL 7
REMARK minimizedAffinity -8.67347431
REMARK CNNscore 0.225298211
REMARK CNNaffinity 7.08664465
REMARK  13 active torsions:
REMARK  status: ('A' for Active; 'I' for Inactive)
REMARK    1  A    between atoms: O1_2  and  C2_3 
REMARK    2  A    between atoms: C12_14  and  C13_15 
REMARK    3  A    between atoms: C13_15  and  C15_17 
REMARK    4  A    between atoms: C15_17  and  C16_18 
REMARK    5  A    between atoms: C17_19  and  C18_20 
REMARK    6  A    between atoms: C18_20  and  O3_23 
REMARK    7  A    between atoms: C29_32  and  O4_33 
REMARK    8  A    between atoms: O4_33  and  C30_34 
REMARK    9  A    between atoms: C31_36  and  C32_37 
REMARK   10  A    between atoms: C32_37  and  O6_38 
REMARK   11  A    between atoms: C33_39  and  O7_40 
REMARK   12  A    between atoms: C34_41  and  O8_42 
REMARK   13  A    between atoms: C35_43  and  O9_44 
ROOT
HETATM    1  C2  UNL     1      -3.770  48.530 -20.850  1.00  0.00     0.270 C 
HETATM    2  O2  UNL     1      -4.208  49.629 -21.697  1.00  0.00    -0.344 OA
HETATM    3  C3  UNL     1      -3.094  50.546 -21.861  1.00  0.00     0.095 C 
HETATM    4  C4  UNL     1      -3.326  51.715 -20.890  1.00  0.00     0.008 C 
HETATM    5  C5  UNL     1      -3.258  51.536 -19.554  1.00  0.00    -0.021 C 
HETATM    6  C6  UNL     1      -3.181  50.128 -19.014  1.00  0.00     0.030 C 
HETATM    7  C7  UNL     1      -2.542  49.099 -20.049  1.00  0.00     0.024 C 
HETATM    8  C8  UNL     1      -1.591  48.014 -19.472  1.00  0.00     0.016 C 
HETATM    9  C9  UNL     1      -1.464  47.860 -17.949  1.00  0.00     0.011 C 
HETATM   10  C10 UNL     1      -1.526  49.196 -17.199  1.00  0.00    -0.032 C 
HETATM   11  C11 UNL     1      -0.334  50.088 -17.618  1.00  0.00     0.016 C 
HETATM   12  C12 UNL     1      -1.542  49.118 -15.636  1.00  0.00    -0.002 C 
HETATM   13  C22 UNL     1      -2.271  50.445 -15.245  1.00  0.00     0.006 C 
HETATM   14  C23 UNL     1      -2.946  51.003 -16.514  1.00  0.00     0.011 C 
HETATM   15  C24 UNL     1      -2.929  49.828 -17.500  1.00  0.00    -0.029 C 
HETATM   16  C25 UNL     1      -4.130  48.893 -17.064  1.00  0.00     0.016 C 
HETATM   17  C26 UNL     1      -1.893  49.780 -21.297  1.00  0.00     0.039 C 
HETATM   18  C27 UNL     1      -0.646  50.672 -21.229  1.00  0.00     0.011 C 
HETATM   19  C28 UNL     1      -0.512  51.564 -22.476  1.00  0.00     0.033 C 
HETATM   20  C29 UNL     1      -1.307  51.032 -23.674  1.00  0.00     0.136 C 
HETATM   21  C36 UNL     1      -2.850  50.915 -23.376  1.00  0.00     0.014 C 
HETATM   22  C37 UNL     1      -3.609  52.195 -23.800  1.00  0.00     0.021 C 
HETATM   23  C38 UNL     1      -3.394  49.797 -24.306  1.00  0.00     0.021 C 
ENDROOT
BRANCH  20  24
HETATM   24  O4  UNL     1      -1.111  51.840 -24.840  1.00  0.00    -0.352 OA
BRANCH  24  25
HETATM   25  C30 UNL     1      -1.403  51.186 -26.073  1.00  0.00     0.292 C 
HETATM   26  O5  UNL     1      -0.293  50.420 -26.543  1.00  0.00    -0.348 OA
HETATM   27  C31 UNL     1       0.829  51.173 -27.016  1.00  0.00     0.179 C 
HETATM   28  C33 UNL     1       0.421  52.194 -28.098  1.00  0.00     0.180 C 
HETATM   29  C34 UNL     1      -0.746  53.087 -27.650  1.00  0.00     0.183 C 
HETATM   30  C35 UNL     1      -1.895  52.223 -27.107  1.00  0.00     0.204 C 
BRANCH  27  31
HETATM   31  C32 UNL     1       1.671  51.765 -25.876  1.00  0.00     0.198 C 
BRANCH  31  32
HETATM   32  O6  UNL     1       2.896  52.298 -26.378  1.00  0.00    -0.398 OA
HETATM   33  H50 UNL     1       3.483  51.542 -26.564  1.00  0.00     0.209 HD
ENDBRANCH  31  32
ENDBRANCH  27  31
BRANCH  28  34
HETATM   34  O7  UNL     1      -0.022  51.463 -29.264  1.00  0.00    -0.390 OA
HETATM   35  H52 UNL     1       0.770  51.042 -29.649  1.00  0.00     0.210 HD
ENDBRANCH  28  34
BRANCH  29  36
HETATM   36  O8  UNL     1      -0.296  54.068 -26.716  1.00  0.00    -0.390 OA
HETATM   37  H54 UNL     1      -1.071  54.427 -26.251  1.00  0.00     0.210 HD
ENDBRANCH  29  36
BRANCH  30  38
HETATM   38  O9  UNL     1      -2.567  51.561 -28.193  1.00  0.00    -0.388 OA
HETATM   39  H56 UNL     1      -1.863  51.157 -28.749  1.00  0.00     0.210 HD
ENDBRANCH  30  38
ENDBRANCH  24  25
ENDBRANCH  20  24
BRANCH   1  40
HETATM   40  O1  UNL     1      -3.407  47.398 -21.644  1.00  0.00    -0.365 OA
HETATM   41  C1  UNL     1      -4.097  46.224 -21.237  1.00  0.00     0.204 C 
ENDBRANCH   1  40
BRANCH  12  42
HETATM   42  C13 UNL     1      -0.226  48.908 -14.816  1.00  0.00    -0.010 C 
HETATM   43  C14 UNL     1      -0.044  47.451 -14.375  1.00  0.00     0.010 C 
BRANCH  42  44
HETATM   44  C15 UNL     1      -0.250  49.846 -13.574  1.00  0.00     0.031 C 
BRANCH  44  45
HETATM   45  C16 UNL     1      -1.508  49.805 -12.746  1.00  0.00    -0.027 C 
HETATM   46  C17 UNL     1      -1.941  50.823 -11.982  1.00  0.00     0.006 C 
BRANCH  46  47
HETATM   47  C18 UNL     1      -3.226  50.901 -11.171  1.00  0.00     0.070 C 
HETATM   48  C19 UNL     1      -4.025  49.594 -11.328  1.00  0.00     0.050 C 
HETATM   49  C20 UNL     1      -2.986  51.128  -9.668  1.00  0.00     0.050 C 
BRANCH  47  50
HETATM   50  O3  UNL     1      -3.961  52.063 -11.590  1.00  0.00    -0.382 OA
HETATM   51  C21 UNL     1      -4.103  53.115 -10.652  1.00  0.00     0.202 C 
ENDBRANCH  47  50
ENDBRANCH  46  47
ENDBRANCH  44  45
ENDBRANCH  42  44
ENDBRANCH  12  42
TORSDOF 13
ENDMDL
MODEL 8
REMARK minimizedAffinity -7.37839556
REMARK CNNscore 0.219793797
REMARK CNNaffinity 6.71272326
REMARK  13 active torsions:
REMARK  status: ('A' for Active; 'I' for Inactive)
REMARK    1  A    between atoms: O1_2  and  C2_3 
REMARK    2  A    between atoms: C12_14  and  C13_15 
REMARK    3  A    between atoms: C13_15  and  C15_17 
REMARK    4  A    between atoms: C15_17  and  C16_18 
REMARK    5  A    between atoms: C17_19  and  C18_20 
REMARK    6  A    between atoms: C18_20  and  O3_23 
REMARK    7  A    between atoms: C29_32  and  O4_33 
REMARK    8  A    between atoms: O4_33  and  C30_34 
REMARK    9  A    between atoms: C31_36  and  C32_37 
REMARK   10  A    between atoms: C32_37  and  O6_38 
REMARK   11  A    between atoms: C33_39  and  O7_40 
REMARK   12  A    between atoms: C34_41  and  O8_42 
REMARK   13  A    between atoms: C35_43  and  O9_44 
ROOT
HETATM    1  C2  UNL     1       1.889  52.499 -11.639  1.00  0.00     0.270 C 
HETATM    2  O2  UNL     1       2.467  53.823 -11.466  1.00  0.00    -0.344 OA
HETATM    3  C3  UNL     1       2.198  54.260 -10.107  1.00  0.00     0.095 C 
HETATM    4  C4  UNL     1       0.998  55.218 -10.172  1.00  0.00     0.008 C 
HETATM    5  C5  UNL     1      -0.234  54.772 -10.498  1.00  0.00    -0.021 C 
HETATM    6  C6  UNL     1      -0.379  53.365 -11.027  1.00  0.00     0.030 C 
HETATM    7  C7  UNL     1       0.779  52.392 -10.529  1.00  0.00     0.024 C 
HETATM    8  C8  UNL     1       0.374  50.937 -10.163  1.00  0.00     0.016 C 
HETATM    9  C9  UNL     1      -1.051  50.455 -10.474  1.00  0.00     0.011 C 
HETATM   10  C10 UNL     1      -2.115  51.542 -10.273  1.00  0.00    -0.032 C 
HETATM   11  C11 UNL     1      -2.147  51.976  -8.790  1.00  0.00     0.016 C 
HETATM   12  C12 UNL     1      -3.576  51.175 -10.699  1.00  0.00    -0.002 C 
HETATM   13  C22 UNL     1      -4.189  52.577 -11.021  1.00  0.00     0.006 C 
HETATM   14  C23 UNL     1      -3.027  53.584 -11.138  1.00  0.00     0.011 C 
HETATM   15  C24 UNL     1      -1.776  52.706 -11.269  1.00  0.00    -0.029 C 
HETATM   16  C25 UNL     1      -1.747  52.232 -12.780  1.00  0.00     0.016 C 
HETATM   17  C26 UNL     1       1.678  53.002  -9.405  1.00  0.00     0.039 C 
HETATM   18  C27 UNL     1       1.175  53.321  -7.991  1.00  0.00     0.011 C 
HETATM   19  C28 UNL     1       2.098  54.317  -7.267  1.00  0.00     0.033 C 
HETATM   20  C29 UNL     1       3.505  54.370  -7.872  1.00  0.00     0.136 C 
HETATM   21  C36 UNL     1       3.499  54.794  -9.390  1.00  0.00     0.014 C 
HETATM   22  C37 UNL     1       3.677  56.323  -9.554  1.00  0.00     0.021 C 
HETATM   23  C38 UNL     1       4.770  54.170 -10.026  1.00  0.00     0.021 C 
ENDROOT
BRANCH  20  24
HETATM   24  O4  UNL     1       4.363  55.252  -7.139  1.00  0.00    -0.352 OA
BRANCH  24  25
HETATM   25  C30 UNL     1       5.123  54.622  -6.110  1.00  0.00     0.292 C 
HETATM   26  O5  UNL     1       5.492  55.544  -5.083  1.00  0.00    -0.348 OA
HETATM   27  C31 UNL     1       6.477  56.519  -5.445  1.00  0.00     0.179 C 
HETATM   28  C33 UNL     1       7.749  55.863  -6.022  1.00  0.00     0.180 C 
HETATM   29  C34 UNL     1       7.438  54.884  -7.164  1.00  0.00     0.183 C 
HETATM   30  C35 UNL     1       6.340  53.899  -6.731  1.00  0.00     0.204 C 
BRANCH  27  31
HETATM   31  C32 UNL     1       5.904  57.651  -6.310  1.00  0.00     0.198 C 
BRANCH  31  32
HETATM   32  O6  UNL     1       4.561  57.947  -5.927  1.00  0.00    -0.398 OA
HETATM   33  H50 UNL     1       3.997  57.239  -6.289  1.00  0.00     0.209 HD
ENDBRANCH  31  32
ENDBRANCH  27  31
BRANCH  28  34
HETATM   34  O7  UNL     1       8.384  55.105  -4.968  1.00  0.00    -0.390 OA
HETATM   35  H52 UNL     1       8.741  55.753  -4.332  1.00  0.00     0.210 HD
ENDBRANCH  28  34
BRANCH  29  36
HETATM   36  O8  UNL     1       7.110  55.594  -8.357  1.00  0.00    -0.390 OA
HETATM   37  H54 UNL     1       6.660  54.982  -8.965  1.00  0.00     0.210 HD
ENDBRANCH  29  36
BRANCH  30  38
HETATM   38  O9  UNL     1       6.877  52.943  -5.800  1.00  0.00    -0.388 OA
HETATM   39  H56 UNL     1       7.372  53.461  -5.126  1.00  0.00     0.210 HD
ENDBRANCH  30  38
ENDBRANCH  24  25
ENDBRANCH  20  24
BRANCH   1  40
HETATM   40  O1  UNL     1       2.891  51.491 -11.487  1.00  0.00    -0.365 OA
HETATM   41  C1  UNL     1       3.136  50.801 -12.705  1.00  0.00     0.204 C 
ENDBRANCH   1  40
BRANCH  12  42
HETATM   42  C13 UNL     1      -4.506  50.327  -9.771  1.00  0.00    -0.010 C 
HETATM   43  C14 UNL     1      -3.848  49.011  -9.337  1.00  0.00     0.010 C 
BRANCH  42  44
HETATM   44  C15 UNL     1      -5.839  50.037 -10.522  1.00  0.00     0.031 C 
BRANCH  44  45
HETATM   45  C16 UNL     1      -6.816  49.144  -9.803  1.00  0.00    -0.027 C 
HETATM   46  C17 UNL     1      -7.812  49.594  -9.019  1.00  0.00     0.006 C 
BRANCH  46  47
HETATM   47  C18 UNL     1      -8.884  48.778  -8.312  1.00  0.00     0.070 C 
HETATM   48  C19 UNL     1      -8.359  47.360  -8.024  1.00  0.00     0.050 C 
HETATM   49  C20 UNL     1      -9.334  49.393  -6.975  1.00  0.00     0.050 C 
BRANCH  47  50
HETATM   50  O3  UNL     1     -10.072  48.786  -9.121  1.00  0.00    -0.382 OA
HETATM   51  C21 UNL     1     -11.060  47.812  -8.833  1.00  0.00     0.202 C 
ENDBRANCH  47  50
ENDBRANCH  46  47
ENDBRANCH  44  45
ENDBRANCH  42  44
ENDBRANCH  12  42
TORSDOF 13
ENDMDL
MODEL 9
REMARK minimizedAffinity -7.84727383
REMARK CNNscore 0.205161765
REMARK CNNaffinity 6.68041945
REMARK  13 active torsions:
REMARK  status: ('A' for Active; 'I' for Inactive)
REMARK    1  A    between atoms: O1_2  and  C2_3 
REMARK    2  A    between atoms: C12_14  and  C13_15 
REMARK    3  A    between atoms: C13_15  and  C15_17 
REMARK    4  A    between atoms: C15_17  and  C16_18 
REMARK    5  A    between atoms: C17_19  and  C18_20 
REMARK    6  A    between atoms: C18_20  and  O3_23 
REMARK    7  A    between atoms: C29_32  and  O4_33 
REMARK    8  A    between atoms: O4_33  and  C30_34 
REMARK    9  A    between atoms: C31_36  and  C32_37 
REMARK   10  A    between atoms: C32_37  and  O6_38 
REMARK   11  A    between atoms: C33_39  and  O7_40 
REMARK   12  A    between atoms: C34_41  and  O8_42 
REMARK   13  A    between atoms: C35_43  and  O9_44 
ROOT
HETATM    1  C2  UNL     1      -6.767  49.974 -22.140  1.00  0.00     0.270 C 
HETATM    2  O2  UNL     1      -5.767  51.031 -22.146  1.00  0.00    -0.344 OA
HETATM    3  C3  UNL     1      -4.458  50.416 -22.276  1.00  0.00     0.095 C 
HETATM    4  C4  UNL     1      -3.839  50.371 -20.870  1.00  0.00     0.008 C 
HETATM    5  C5  UNL     1      -4.352  49.576 -19.907  1.00  0.00    -0.021 C 
HETATM    6  C6  UNL     1      -5.681  48.903 -20.153  1.00  0.00     0.030 C 
HETATM    7  C7  UNL     1      -5.987  48.680 -21.701  1.00  0.00     0.024 C 
HETATM    8  C8  UNL     1      -6.676  47.346 -22.101  1.00  0.00     0.016 C 
HETATM    9  C9  UNL     1      -7.197  46.411 -21.000  1.00  0.00     0.011 C 
HETATM   10  C10 UNL     1      -6.298  46.380 -19.757  1.00  0.00    -0.032 C 
HETATM   11  C11 UNL     1      -4.903  45.829 -20.133  1.00  0.00     0.016 C 
HETATM   12  C12 UNL     1      -6.826  45.559 -18.534  1.00  0.00    -0.002 C 
HETATM   13  C22 UNL     1      -6.116  46.262 -17.331  1.00  0.00     0.006 C 
HETATM   14  C23 UNL     1      -5.558  47.608 -17.834  1.00  0.00     0.011 C 
HETATM   15  C24 UNL     1      -6.270  47.836 -19.174  1.00  0.00    -0.029 C 
HETATM   16  C25 UNL     1      -7.711  48.376 -18.801  1.00  0.00     0.016 C 
HETATM   17  C26 UNL     1      -4.764  48.958 -22.633  1.00  0.00     0.039 C 
HETATM   18  C27 UNL     1      -3.487  48.107 -22.640  1.00  0.00     0.011 C 
HETATM   19  C28 UNL     1      -2.304  48.855 -23.279  1.00  0.00     0.033 C 
HETATM   20  C29 UNL     1      -2.751  50.010 -24.183  1.00  0.00     0.136 C 
HETATM   21  C36 UNL     1      -3.598  51.093 -23.413  1.00  0.00     0.014 C 
HETATM   22  C37 UNL     1      -2.703  52.236 -22.873  1.00  0.00     0.021 C 
HETATM   23  C38 UNL     1      -4.516  51.765 -24.468  1.00  0.00     0.021 C 
ENDROOT
BRANCH  20  24
HETATM   24  O4  UNL     1      -1.636  50.646 -24.819  1.00  0.00    -0.352 OA
BRANCH  24  25
HETATM   25  C30 UNL     1      -1.458  50.300 -26.191  1.00  0.00     0.292 C 
HETATM   26  O5  UNL     1      -0.077  50.261 -26.553  1.00  0.00    -0.348 OA
HETATM   27  C31 UNL     1       0.589  51.527 -26.612  1.00  0.00     0.179 C 
HETATM   28  C33 UNL     1      -0.150  52.522 -27.531  1.00  0.00     0.180 C 
HETATM   29  C34 UNL     1      -1.639  52.652 -27.178  1.00  0.00     0.183 C 
HETATM   30  C35 UNL     1      -2.283  51.259 -27.079  1.00  0.00     0.204 C 
BRANCH  27  31
HETATM   31  C32 UNL     1       0.929  52.086 -25.222  1.00  0.00     0.198 C 
BRANCH  31  32
HETATM   32  O6  UNL     1       1.062  53.506 -25.268  1.00  0.00    -0.398 OA
HETATM   33  H50 UNL     1       1.926  53.699 -25.676  1.00  0.00     0.209 HD
ENDBRANCH  31  32
ENDBRANCH  27  31
BRANCH  28  34
HETATM   34  O7  UNL     1      -0.072  52.027 -28.887  1.00  0.00    -0.390 OA
HETATM   35  H52 UNL     1       0.858  52.120 -29.167  1.00  0.00     0.210 HD
ENDBRANCH  28  34
BRANCH  29  36
HETATM   36  O8  UNL     1      -1.807  53.428 -25.992  1.00  0.00    -0.390 OA
HETATM   37  H54 UNL     1      -2.701  53.267 -25.644  1.00  0.00     0.210 HD
ENDBRANCH  29  36
BRANCH  30  38
HETATM   38  O9  UNL     1      -2.445  50.700 -28.395  1.00  0.00    -0.388 OA
HETATM   39  H56 UNL     1      -1.584  50.816 -28.854  1.00  0.00     0.210 HD
ENDBRANCH  30  38
ENDBRANCH  24  25
ENDBRANCH  20  24
BRANCH   1  40
HETATM   40  O1  UNL     1      -7.349  49.828 -23.437  1.00  0.00    -0.365 OA
HETATM   41  C1  UNL     1      -6.736  48.781 -24.177  1.00  0.00     0.204 C 
ENDBRANCH   1  40
BRANCH  12  42
HETATM   42  C13 UNL     1      -6.681  44.003 -18.474  1.00  0.00    -0.010 C 
HETATM   43  C14 UNL     1      -6.495  43.383 -19.864  1.00  0.00     0.010 C 
BRANCH  42  44
HETATM   44  C15 UNL     1      -7.943  43.405 -17.785  1.00  0.00     0.031 C 
BRANCH  44  45
HETATM   45  C16 UNL     1      -9.221  44.179 -17.973  1.00  0.00    -0.027 C 
HETATM   46  C17 UNL     1      -9.689  45.086 -17.097  1.00  0.00     0.006 C 
BRANCH  46  47
HETATM   47  C18 UNL     1     -10.925  45.964 -17.231  1.00  0.00     0.070 C 
HETATM   48  C19 UNL     1     -10.627  47.374 -16.690  1.00  0.00     0.050 C 
HETATM   49  C20 UNL     1     -11.412  46.112 -18.683  1.00  0.00     0.050 C 
BRANCH  47  50
HETATM   50  O3  UNL     1     -12.018  45.320 -16.555  1.00  0.00    -0.382 OA
HETATM   51  C21 UNL     1     -11.868  45.072 -15.169  1.00  0.00     0.202 C 
ENDBRANCH  47  50
ENDBRANCH  46  47
ENDBRANCH  44  45
ENDBRANCH  42  44
ENDBRANCH  12  42
TORSDOF 13
ENDMDL
