MODEL 1
REMARK minimizedAffinity -9.40997982
REMARK CNNscore 0.445707023
REMARK CNNaffinity 7.54480171
REMARK  13 active torsions:
REMARK  status: ('A' for Active; 'I' for Inactive)
REMARK    1  A    between atoms: O1_2  and  C2_3 
REMARK    2  A    between atoms: C8_9  and  O2_10 
REMARK    3  A    between atoms: O2_10  and  C9_11 
REMARK    4  A    between atoms: C10_13  and  C11_14 
REMARK    5  A    between atoms: C11_14  and  O4_15 
REMARK    6  A    between atoms: C12_16  and  O5_17 
REMARK    7  A    between atoms: C13_18  and  O6_19 
REMARK    8  A    between atoms: C14_20  and  O7_21 
REMARK    9  A    between atoms: C24_31  and  C25_32 
REMARK   10  A    between atoms: C25_32  and  C27_34 
REMARK   11  A    between atoms: C27_34  and  C28_35 
REMARK   12  A    between atoms: C29_36  and  C30_37 
REMARK   13  A    between atoms: C30_37  and  O8_40 
ROOT
HETATM    1  C2  UNL     1       0.256  52.266 -19.059  1.00  0.00     0.149 C 
HETATM    2  C3  UNL     1       0.233  52.279 -17.557  1.00  0.00     0.009 C 
HETATM    3  C4  UNL     1      -0.050  51.172 -16.842  1.00  0.00    -0.066 C 
HETATM    4  C5  UNL     1      -0.392  49.918 -17.641  1.00  0.00     0.024 C 
HETATM    5  C6  UNL     1      -0.763  48.711 -16.759  1.00  0.00     0.012 C 
HETATM    6  C7  UNL     1       0.170  48.482 -15.573  1.00  0.00     0.034 C 
HETATM    7  C8  UNL     1       0.787  49.744 -14.952  1.00  0.00     0.136 C 
HETATM    8  C15 UNL     1       0.047  51.070 -15.311  1.00  0.00     0.002 C 
HETATM    9  C16 UNL     1       0.864  52.236 -14.687  1.00  0.00     0.022 C 
HETATM   10  C17 UNL     1      -1.356  51.152 -14.671  1.00  0.00     0.022 C 
HETATM   11  C18 UNL     1      -1.449  50.245 -18.785  1.00  0.00    -0.030 C 
HETATM   12  C19 UNL     1      -2.800  50.658 -18.120  1.00  0.00     0.016 C 
HETATM   13  C20 UNL     1      -1.727  48.952 -19.618  1.00  0.00     0.011 C 
HETATM   14  C21 UNL     1      -2.287  49.086 -21.048  1.00  0.00     0.011 C 
HETATM   15  C22 UNL     1      -2.014  50.422 -21.757  1.00  0.00    -0.032 C 
HETATM   16  C23 UNL     1      -3.289  51.320 -21.631  1.00  0.00     0.016 C 
HETATM   17  C24 UNL     1      -1.666  50.337 -23.285  1.00  0.00    -0.002 C 
HETATM   18  C33 UNL     1      -0.903  51.674 -23.529  1.00  0.00     0.006 C 
HETATM   19  C34 UNL     1      -0.516  52.247 -22.154  1.00  0.00     0.011 C 
HETATM   20  C35 UNL     1      -0.707  51.080 -21.170  1.00  0.00    -0.029 C 
HETATM   21  C36 UNL     1       0.584  50.201 -21.290  1.00  0.00     0.016 C 
HETATM   22  C37 UNL     1      -0.941  51.476 -19.672  1.00  0.00     0.036 C 
ENDROOT
BRANCH   7  23
HETATM   23  O2  UNL     1       0.827  49.594 -13.525  1.00  0.00    -0.352 OA
BRANCH  23  24
HETATM   24  C9  UNL     1      -0.430  49.780 -12.871  1.00  0.00     0.292 C 
HETATM   25  O3  UNL     1      -0.365  50.903 -12.000  1.00  0.00    -0.348 OA
HETATM   26  C10 UNL     1      -1.579  51.159 -11.286  1.00  0.00     0.179 C 
HETATM   27  C12 UNL     1      -1.975  49.965 -10.403  1.00  0.00     0.180 C 
HETATM   28  C13 UNL     1      -1.988  48.661 -11.206  1.00  0.00     0.183 C 
HETATM   29  C14 UNL     1      -0.748  48.487 -12.086  1.00  0.00     0.204 C 
BRANCH  26  30
HETATM   30  C11 UNL     1      -1.390  52.437 -10.450  1.00  0.00     0.198 C 
BRANCH  30  31
HETATM   31  O4  UNL     1      -1.460  53.605 -11.267  1.00  0.00    -0.398 OA
HETATM   32  H16 UNL     1      -1.333  54.371 -10.681  1.00  0.00     0.209 HD
ENDBRANCH  30  31
ENDBRANCH  26  30
BRANCH  27  33
HETATM   33  O5  UNL     1      -3.277  50.189  -9.842  1.00  0.00    -0.390 OA
HETATM   34  H18 UNL     1      -3.873  49.501 -10.204  1.00  0.00     0.210 HD
ENDBRANCH  27  33
BRANCH  28  35
HETATM   35  O6  UNL     1      -3.189  48.582 -12.010  1.00  0.00    -0.390 OA
HETATM   36  H20 UNL     1      -3.225  49.340 -12.618  1.00  0.00     0.210 HD
ENDBRANCH  28  35
BRANCH  29  37
HETATM   37  O7  UNL     1      -0.962  47.377 -12.976  1.00  0.00    -0.388 OA
HETATM   38  H22 UNL     1      -1.926  47.222 -13.017  1.00  0.00     0.210 HD
ENDBRANCH  29  37
ENDBRANCH  23  24
ENDBRANCH   7  23
BRANCH   1  39
HETATM   39  O1  UNL     1       0.177  53.620 -19.525  1.00  0.00    -0.386 OA
HETATM   40  C1  UNL     1       1.349  54.049 -20.208  1.00  0.00     0.202 C 
ENDBRANCH   1  39
BRANCH  17  41
HETATM   41  C25 UNL     1      -2.807  50.106 -24.326  1.00  0.00    -0.010 C 
HETATM   42  C26 UNL     1      -3.687  48.906 -23.948  1.00  0.00     0.010 C 
BRANCH  41  43
HETATM   43  C27 UNL     1      -2.221  49.895 -25.750  1.00  0.00     0.031 C 
BRANCH  43  44
HETATM   44  C28 UNL     1      -1.220  50.951 -26.134  1.00  0.00    -0.027 C 
HETATM   45  C29 UNL     1       0.037  50.699 -26.542  1.00  0.00     0.006 C 
BRANCH  45  46
HETATM   46  C30 UNL     1       1.072  51.731 -26.931  1.00  0.00     0.068 C 
HETATM   47  C31 UNL     1       2.442  51.328 -26.382  1.00  0.00     0.050 C 
HETATM   48  C32 UNL     1       1.119  51.879 -28.451  1.00  0.00     0.050 C 
BRANCH  46  49
HETATM   49  O8  UNL     1       0.725  52.998 -26.373  1.00  0.00    -0.387 OA
HETATM   50  H54 UNL     1       1.427  53.627 -26.613  1.00  0.00     0.211 HD
ENDBRANCH  46  49
ENDBRANCH  45  46
ENDBRANCH  43  44
ENDBRANCH  41  43
ENDBRANCH  17  41
TORSDOF 13
ENDMDL
MODEL 2
REMARK minimizedAffinity -7.70455265
REMARK CNNscore 0.438553274
REMARK CNNaffinity 7.15521002
REMARK  13 active torsions:
REMARK  status: ('A' for Active; 'I' for Inactive)
REMARK    1  A    between atoms: O1_2  and  C2_3 
REMARK    2  A    between atoms: C8_9  and  O2_10 
REMARK    3  A    between atoms: O2_10  and  C9_11 
REMARK    4  A    between atoms: C10_13  and  C11_14 
REMARK    5  A    between atoms: C11_14  and  O4_15 
REMARK    6  A    between atoms: C12_16  and  O5_17 
REMARK    7  A    between atoms: C13_18  and  O6_19 
REMARK    8  A    between atoms: C14_20  and  O7_21 
REMARK    9  A    between atoms: C24_31  and  C25_32 
REMARK   10  A    between atoms: C25_32  and  C27_34 
REMARK   11  A    between atoms: C27_34  and  C28_35 
REMARK   12  A    between atoms: C29_36  and  C30_37 
REMARK   13  A    between atoms: C30_37  and  O8_40 
ROOT
HETATM    1  C2  UNL     1      -4.932  47.334 -18.955  1.00  0.00     0.149 C 
HETATM    2  C3  UNL     1      -6.401  47.238 -18.652  1.00  0.00     0.009 C 
HETATM    3  C4  UNL     1      -7.336  47.481 -19.592  1.00  0.00    -0.066 C 
HETATM    4  C5  UNL     1      -6.825  47.904 -20.965  1.00  0.00     0.024 C 
HETATM    5  C6  UNL     1      -7.949  48.223 -21.968  1.00  0.00     0.012 C 
HETATM    6  C7  UNL     1      -9.085  47.203 -21.992  1.00  0.00     0.034 C 
HETATM    7  C8  UNL     1      -9.401  46.521 -20.653  1.00  0.00     0.136 C 
HETATM    8  C15 UNL     1      -8.846  47.266 -19.399  1.00  0.00     0.002 C 
HETATM    9  C16 UNL     1      -9.170  46.385 -18.160  1.00  0.00     0.022 C 
HETATM   10  C17 UNL     1      -9.561  48.613 -19.153  1.00  0.00     0.022 C 
HETATM   11  C18 UNL     1      -5.720  49.042 -20.833  1.00  0.00    -0.030 C 
HETATM   12  C19 UNL     1      -6.390  50.330 -20.259  1.00  0.00     0.016 C 
HETATM   13  C20 UNL     1      -5.177  49.404 -22.253  1.00  0.00     0.011 C 
HETATM   14  C21 UNL     1      -3.794  50.072 -22.380  1.00  0.00     0.011 C 
HETATM   15  C22 UNL     1      -2.821  49.836 -21.214  1.00  0.00    -0.032 C 
HETATM   16  C23 UNL     1      -2.863  51.083 -20.271  1.00  0.00     0.016 C 
HETATM   17  C24 UNL     1      -1.316  49.611 -21.603  1.00  0.00    -0.002 C 
HETATM   18  C33 UNL     1      -0.762  48.848 -20.361  1.00  0.00     0.006 C 
HETATM   19  C34 UNL     1      -1.966  48.346 -19.546  1.00  0.00     0.011 C 
HETATM   20  C35 UNL     1      -3.170  48.477 -20.496  1.00  0.00    -0.029 C 
HETATM   21  C36 UNL     1      -3.128  47.213 -21.420  1.00  0.00     0.016 C 
HETATM   22  C37 UNL     1      -4.576  48.586 -19.812  1.00  0.00     0.036 C 
ENDROOT
BRANCH   7  23
HETATM   23  O2  UNL     1     -10.823  46.370 -20.526  1.00  0.00    -0.352 OA
BRANCH  23  24
HETATM   24  C9  UNL     1     -11.446  45.672 -21.607  1.00  0.00     0.292 C 
HETATM   25  O3  UNL     1     -12.373  46.525 -22.268  1.00  0.00    -0.348 OA
HETATM   26  C10 UNL     1     -13.060  45.906 -23.360  1.00  0.00     0.179 C 
HETATM   27  C12 UNL     1     -13.870  44.685 -22.895  1.00  0.00     0.180 C 
HETATM   28  C13 UNL     1     -13.004  43.722 -22.078  1.00  0.00     0.183 C 
HETATM   29  C14 UNL     1     -12.156  44.431 -21.019  1.00  0.00     0.204 C 
BRANCH  26  30
HETATM   30  C11 UNL     1     -13.964  46.958 -24.025  1.00  0.00     0.198 C 
BRANCH  30  31
HETATM   31  O4  UNL     1     -14.972  47.419 -23.125  1.00  0.00    -0.398 OA
HETATM   32  H16 UNL     1     -15.504  48.076 -23.606  1.00  0.00     0.209 HD
ENDBRANCH  30  31
ENDBRANCH  26  30
BRANCH  27  33
HETATM   33  O5  UNL     1     -14.401  43.993 -24.035  1.00  0.00    -0.390 OA
HETATM   34  H18 UNL     1     -13.988  43.106 -24.056  1.00  0.00     0.210 HD
ENDBRANCH  27  33
BRANCH  28  35
HETATM   35  O6  UNL     1     -12.160  42.942 -22.957  1.00  0.00    -0.390 OA
HETATM   36  H20 UNL     1     -11.589  43.535 -23.474  1.00  0.00     0.210 HD
ENDBRANCH  28  35
BRANCH  29  37
HETATM   37  O7  UNL     1     -11.205  43.494 -20.481  1.00  0.00    -0.388 OA
HETATM   38  H22 UNL     1     -11.126  42.763 -21.124  1.00  0.00     0.210 HD
ENDBRANCH  29  37
ENDBRANCH  23  24
ENDBRANCH   7  23
BRANCH   1  39
HETATM   39  O1  UNL     1      -4.219  47.428 -17.714  1.00  0.00    -0.386 OA
HETATM   40  C1  UNL     1      -3.961  46.163 -17.115  1.00  0.00     0.202 C 
ENDBRANCH   1  39
BRANCH  17  41
HETATM   41  C25 UNL     1      -0.428  50.833 -21.995  1.00  0.00    -0.010 C 
HETATM   42  C26 UNL     1       0.112  51.565 -20.758  1.00  0.00     0.010 C 
BRANCH  41  43
HETATM   43  C27 UNL     1      -1.222  51.830 -22.884  1.00  0.00     0.031 C 
BRANCH  43  44
HETATM   44  C28 UNL     1      -0.826  51.765 -24.335  1.00  0.00    -0.027 C 
HETATM   45  C29 UNL     1       0.413  52.006 -24.799  1.00  0.00     0.006 C 
BRANCH  45  46
HETATM   46  C30 UNL     1       0.849  51.956 -26.247  1.00  0.00     0.068 C 
HETATM   47  C31 UNL     1       2.284  51.434 -26.342  1.00  0.00     0.050 C 
HETATM   48  C32 UNL     1      -0.104  51.072 -27.051  1.00  0.00     0.050 C 
BRANCH  46  49
HETATM   49  O8  UNL     1       0.814  53.268 -26.808  1.00  0.00    -0.387 OA
HETATM   50  H54 UNL     1       1.131  53.205 -27.724  1.00  0.00     0.211 HD
ENDBRANCH  46  49
ENDBRANCH  45  46
ENDBRANCH  43  44
ENDBRANCH  41  43
ENDBRANCH  17  41
TORSDOF 13
ENDMDL
MODEL 3
REMARK minimizedAffinity -10.0911894
REMARK CNNscore 0.36339578
REMARK CNNaffinity 6.50184202
REMARK  13 active torsions:
REMARK  status: ('A' for Active; 'I' for Inactive)
REMARK    1  A    between atoms: O1_2  and  C2_3 
REMARK    2  A    between atoms: C8_9  and  O2_10 
REMARK    3  A    between atoms: O2_10  and  C9_11 
REMARK    4  A    between atoms: C10_13  and  C11_14 
REMARK    5  A    between atoms: C11_14  and  O4_15 
REMARK    6  A    between atoms: C12_16  and  O5_17 
REMARK    7  A    between atoms: C13_18  and  O6_19 
REMARK    8  A    between atoms: C14_20  and  O7_21 
REMARK    9  A    between atoms: C24_31  and  C25_32 
REMARK   10  A    between atoms: C25_32  and  C27_34 
REMARK   11  A    between atoms: C27_34  and  C28_35 
REMARK   12  A    between atoms: C29_36  and  C30_37 
REMARK   13  A    between atoms: C30_37  and  O8_40 
ROOT
HETATM    1  C2  UNL     1      -3.764  49.336 -24.579  1.00  0.00     0.149 C 
HETATM    2  C3  UNL     1      -4.814  48.263 -24.634  1.00  0.00     0.009 C 
HETATM    3  C4  UNL     1      -5.811  48.198 -23.729  1.00  0.00    -0.066 C 
HETATM    4  C5  UNL     1      -5.786  49.242 -22.617  1.00  0.00     0.024 C 
HETATM    5  C6  UNL     1      -6.917  49.068 -21.586  1.00  0.00     0.012 C 
HETATM    6  C7  UNL     1      -8.294  48.809 -22.193  1.00  0.00     0.034 C 
HETATM    7  C8  UNL     1      -8.307  48.018 -23.510  1.00  0.00     0.136 C 
HETATM    8  C15 UNL     1      -6.996  47.222 -23.801  1.00  0.00     0.002 C 
HETATM    9  C16 UNL     1      -7.153  46.577 -25.206  1.00  0.00     0.022 C 
HETATM   10  C17 UNL     1      -6.795  46.046 -22.820  1.00  0.00     0.022 C 
HETATM   11  C18 UNL     1      -4.332  49.361 -21.982  1.00  0.00    -0.030 C 
HETATM   12  C19 UNL     1      -3.987  48.021 -21.258  1.00  0.00     0.016 C 
HETATM   13  C20 UNL     1      -4.332  50.482 -20.892  1.00  0.00     0.011 C 
HETATM   14  C21 UNL     1      -2.998  51.143 -20.495  1.00  0.00     0.011 C 
HETATM   15  C22 UNL     1      -1.875  51.081 -21.543  1.00  0.00    -0.032 C 
HETATM   16  C23 UNL     1      -0.913  49.905 -21.171  1.00  0.00     0.016 C 
HETATM   17  C24 UNL     1      -0.987  52.368 -21.685  1.00  0.00    -0.002 C 
HETATM   18  C33 UNL     1      -0.410  52.217 -23.125  1.00  0.00     0.006 C 
HETATM   19  C34 UNL     1      -1.239  51.143 -23.851  1.00  0.00     0.011 C 
HETATM   20  C35 UNL     1      -2.500  50.964 -22.986  1.00  0.00    -0.029 C 
HETATM   21  C36 UNL     1      -3.463  52.134 -23.384  1.00  0.00     0.016 C 
HETATM   22  C37 UNL     1      -3.243  49.593 -23.132  1.00  0.00     0.036 C 
ENDROOT
BRANCH   7  23
HETATM   23  O2  UNL     1      -9.422  47.114 -23.504  1.00  0.00    -0.352 OA
BRANCH  23  24
HETATM   24  C9  UNL     1     -10.345  47.300 -24.580  1.00  0.00     0.292 C 
HETATM   25  O3  UNL     1     -10.712  46.041 -25.129  1.00  0.00    -0.348 OA
HETATM   26  C10 UNL     1     -11.626  46.127 -26.227  1.00  0.00     0.179 C 
HETATM   27  C12 UNL     1     -11.032  46.935 -27.391  1.00  0.00     0.180 C 
HETATM   28  C13 UNL     1     -10.503  48.291 -26.913  1.00  0.00     0.183 C 
HETATM   29  C14 UNL     1      -9.657  48.188 -25.641  1.00  0.00     0.204 C 
BRANCH  26  30
HETATM   30  C11 UNL     1     -11.995  44.699 -26.667  1.00  0.00     0.198 C 
BRANCH  30  31
HETATM   31  O4  UNL     1     -13.388  44.446 -26.488  1.00  0.00    -0.398 OA
HETATM   32  H16 UNL     1     -13.552  43.533 -26.781  1.00  0.00     0.209 HD
ENDBRANCH  30  31
ENDBRANCH  26  30
BRANCH  27  33
HETATM   33  O5  UNL     1     -12.035  47.146 -28.397  1.00  0.00    -0.390 OA
HETATM   34  H18 UNL     1     -12.200  48.111 -28.445  1.00  0.00     0.210 HD
ENDBRANCH  27  33
BRANCH  28  35
HETATM   35  O6  UNL     1     -11.601  49.213 -26.713  1.00  0.00    -0.390 OA
HETATM   36  H20 UNL     1     -12.215  48.851 -26.052  1.00  0.00     0.210 HD
ENDBRANCH  28  35
BRANCH  29  37
HETATM   37  O7  UNL     1      -9.418  49.514 -25.135  1.00  0.00    -0.388 OA
HETATM   38  H22 UNL     1     -10.094  50.099 -25.529  1.00  0.00     0.210 HD
ENDBRANCH  29  37
ENDBRANCH  23  24
ENDBRANCH   7  23
BRANCH   1  39
HETATM   39  O1  UNL     1      -2.651  48.922 -25.383  1.00  0.00    -0.386 OA
HETATM   40  C1  UNL     1      -2.998  48.679 -26.742  1.00  0.00     0.202 C 
ENDBRANCH   1  39
BRANCH  17  41
HETATM   41  C25 UNL     1       0.122  52.662 -20.627  1.00  0.00    -0.010 C 
HETATM   42  C26 UNL     1       1.526  52.376 -21.180  1.00  0.00     0.010 C 
BRANCH  41  43
HETATM   43  C27 UNL     1      -0.110  51.827 -19.338  1.00  0.00     0.031 C 
BRANCH  43  44
HETATM   44  C28 UNL     1       0.704  52.315 -18.169  1.00  0.00    -0.027 C 
HETATM   45  C29 UNL     1       1.010  51.574 -17.089  1.00  0.00     0.006 C 
BRANCH  45  46
HETATM   46  C30 UNL     1       1.819  52.029 -15.895  1.00  0.00     0.068 C 
HETATM   47  C31 UNL     1       1.997  50.869 -14.913  1.00  0.00     0.050 C 
HETATM   48  C32 UNL     1       3.175  52.564 -16.354  1.00  0.00     0.050 C 
BRANCH  46  49
HETATM   49  O8  UNL     1       1.133  53.082 -15.219  1.00  0.00    -0.387 OA
HETATM   50  H54 UNL     1       1.662  53.326 -14.441  1.00  0.00     0.211 HD
ENDBRANCH  46  49
ENDBRANCH  45  46
ENDBRANCH  43  44
ENDBRANCH  41  43
ENDBRANCH  17  41
TORSDOF 13
ENDMDL
MODEL 4
REMARK minimizedAffinity -9.98711109
REMARK CNNscore 0.356831223
REMARK CNNaffinity 7.51429892
REMARK  13 active torsions:
REMARK  status: ('A' for Active; 'I' for Inactive)
REMARK    1  A    between atoms: O1_2  and  C2_3 
REMARK    2  A    between atoms: C8_9  and  O2_10 
REMARK    3  A    between atoms: O2_10  and  C9_11 
REMARK    4  A    between atoms: C10_13  and  C11_14 
REMARK    5  A    between atoms: C11_14  and  O4_15 
REMARK    6  A    between atoms: C12_16  and  O5_17 
REMARK    7  A    between atoms: C13_18  and  O6_19 
REMARK    8  A    between atoms: C14_20  and  O7_21 
REMARK    9  A    between atoms: C24_31  and  C25_32 
REMARK   10  A    between atoms: C25_32  and  C27_34 
REMARK   11  A    between atoms: C27_34  and  C28_35 
REMARK   12  A    between atoms: C29_36  and  C30_37 
REMARK   13  A    between atoms: C30_37  and  O8_40 
ROOT
HETATM    1  C2  UNL     1      -4.477  49.654 -19.443  1.00  0.00     0.149 C 
HETATM    2  C3  UNL     1      -3.857  49.352 -18.108  1.00  0.00     0.009 C 
HETATM    3  C4  UNL     1      -2.609  49.757 -17.797  1.00  0.00    -0.066 C 
HETATM    4  C5  UNL     1      -1.844  50.496 -18.890  1.00  0.00     0.024 C 
HETATM    5  C6  UNL     1      -0.407  50.874 -18.484  1.00  0.00     0.012 C 
HETATM    6  C7  UNL     1      -0.280  51.480 -17.089  1.00  0.00     0.034 C 
HETATM    7  C8  UNL     1      -1.278  50.965 -16.042  1.00  0.00     0.136 C 
HETATM    8  C15 UNL     1      -1.963  49.612 -16.410  1.00  0.00     0.002 C 
HETATM    9  C16 UNL     1      -3.003  49.304 -15.296  1.00  0.00     0.022 C 
HETATM   10  C17 UNL     1      -0.970  48.429 -16.393  1.00  0.00     0.022 C 
HETATM   11  C18 UNL     1      -1.954  49.728 -20.279  1.00  0.00    -0.030 C 
HETATM   12  C19 UNL     1      -1.219  48.356 -20.156  1.00  0.00     0.016 C 
HETATM   13  C20 UNL     1      -1.211  50.547 -21.384  1.00  0.00     0.011 C 
HETATM   14  C21 UNL     1      -1.580  50.318 -22.863  1.00  0.00     0.011 C 
HETATM   15  C22 UNL     1      -2.984  49.751 -23.129  1.00  0.00    -0.032 C 
HETATM   16  C23 UNL     1      -2.860  48.209 -23.363  1.00  0.00     0.016 C 
HETATM   17  C24 UNL     1      -3.745  50.340 -24.369  1.00  0.00    -0.002 C 
HETATM   18  C33 UNL     1      -5.235  50.040 -24.019  1.00  0.00     0.006 C 
HETATM   19  C34 UNL     1      -5.299  49.682 -22.524  1.00  0.00     0.011 C 
HETATM   20  C35 UNL     1      -3.949  50.144 -21.947  1.00  0.00    -0.029 C 
HETATM   21  C36 UNL     1      -4.093  51.683 -21.697  1.00  0.00     0.016 C 
HETATM   22  C37 UNL     1      -3.488  49.434 -20.628  1.00  0.00     0.036 C 
ENDROOT
BRANCH   7  23
HETATM   23  O2  UNL     1      -0.608  50.832 -14.780  1.00  0.00    -0.352 OA
BRANCH  23  24
HETATM   24  C9  UNL     1      -1.479  50.766 -13.647  1.00  0.00     0.292 C 
HETATM   25  O3  UNL     1      -2.190  51.990 -13.509  1.00  0.00    -0.348 OA
HETATM   26  C10 UNL     1      -3.080  52.024 -12.388  1.00  0.00     0.179 C 
HETATM   27  C12 UNL     1      -2.325  51.825 -11.064  1.00  0.00     0.180 C 
HETATM   28  C13 UNL     1      -1.433  50.580 -11.115  1.00  0.00     0.183 C 
HETATM   29  C14 UNL     1      -0.609  50.486 -12.401  1.00  0.00     0.204 C 
BRANCH  26  30
HETATM   30  C11 UNL     1      -3.834  53.365 -12.407  1.00  0.00     0.198 C 
BRANCH  30  31
HETATM   31  O4  UNL     1      -4.283  53.688 -13.723  1.00  0.00    -0.398 OA
HETATM   32  H16 UNL     1      -4.747  54.540 -13.665  1.00  0.00     0.209 HD
ENDBRANCH  30  31
ENDBRANCH  26  30
BRANCH  27  33
HETATM   33  O5  UNL     1      -3.263  51.693  -9.986  1.00  0.00    -0.390 OA
HETATM   34  H18 UNL     1      -3.162  50.789  -9.622  1.00  0.00     0.210 HD
ENDBRANCH  27  33
BRANCH  28  35
HETATM   35  O6  UNL     1      -2.234  49.386 -10.943  1.00  0.00    -0.390 OA
HETATM   36  H20 UNL     1      -2.903  49.338 -11.647  1.00  0.00     0.210 HD
ENDBRANCH  28  35
BRANCH  29  37
HETATM   37  O7  UNL     1      -0.004  49.182 -12.470  1.00  0.00    -0.388 OA
HETATM   38  H22 UNL     1      -0.508  48.598 -11.870  1.00  0.00     0.210 HD
ENDBRANCH  29  37
ENDBRANCH  23  24
ENDBRANCH   7  23
BRANCH   1  39
HETATM   39  O1  UNL     1      -5.596  48.776 -19.631  1.00  0.00    -0.386 OA
HETATM   40  C1  UNL     1      -5.741  47.819 -18.589  1.00  0.00     0.202 C 
ENDBRANCH   1  39
BRANCH  17  41
HETATM   41  C25 UNL     1      -3.365  49.865 -25.807  1.00  0.00    -0.010 C 
HETATM   42  C26 UNL     1      -4.201  48.654 -26.245  1.00  0.00     0.010 C 
BRANCH  41  43
HETATM   43  C27 UNL     1      -1.854  49.512 -25.890  1.00  0.00     0.031 C 
BRANCH  43  44
HETATM   44  C28 UNL     1      -1.032  50.600 -26.528  1.00  0.00    -0.027 C 
HETATM   45  C29 UNL     1       0.214  50.936 -26.151  1.00  0.00     0.006 C 
BRANCH  45  46
HETATM   46  C30 UNL     1       1.068  52.025 -26.762  1.00  0.00     0.068 C 
HETATM   47  C31 UNL     1       2.526  51.565 -26.834  1.00  0.00     0.050 C 
HETATM   48  C32 UNL     1       0.544  52.383 -28.152  1.00  0.00     0.050 C 
BRANCH  46  49
HETATM   49  O8  UNL     1       1.011  53.198 -25.951  1.00  0.00    -0.387 OA
HETATM   50  H54 UNL     1       1.595  53.862 -26.353  1.00  0.00     0.211 HD
ENDBRANCH  46  49
ENDBRANCH  45  46
ENDBRANCH  43  44
ENDBRANCH  41  43
ENDBRANCH  17  41
TORSDOF 13
ENDMDL
MODEL 5
REMARK minimizedAffinity -7.82584429
REMARK CNNscore 0.330719709
REMARK CNNaffinity 6.62094355
REMARK  13 active torsions:
REMARK  status: ('A' for Active; 'I' for Inactive)
REMARK    1  A    between atoms: O1_2  and  C2_3 
REMARK    2  A    between atoms: C8_9  and  O2_10 
REMARK    3  A    between atoms: O2_10  and  C9_11 
REMARK    4  A    between atoms: C10_13  and  C11_14 
REMARK    5  A    between atoms: C11_14  and  O4_15 
REMARK    6  A    between atoms: C12_16  and  O5_17 
REMARK    7  A    between atoms: C13_18  and  O6_19 
REMARK    8  A    between atoms: C14_20  and  O7_21 
REMARK    9  A    between atoms: C24_31  and  C25_32 
REMARK   10  A    between atoms: C25_32  and  C27_34 
REMARK   11  A    between atoms: C27_34  and  C28_35 
REMARK   12  A    between atoms: C29_36  and  C30_37 
REMARK   13  A    between atoms: C30_37  and  O8_40 
ROOT
HETATM    1  C2  UNL     1      -6.001  46.246 -21.326  1.00  0.00     0.149 C 
HETATM    2  C3  UNL     1      -4.624  46.615 -20.853  1.00  0.00     0.009 C 
HETATM    3  C4  UNL     1      -4.190  47.891 -20.857  1.00  0.00    -0.066 C 
HETATM    4  C5  UNL     1      -5.156  48.934 -21.412  1.00  0.00     0.024 C 
HETATM    5  C6  UNL     1      -4.570  50.358 -21.441  1.00  0.00     0.012 C 
HETATM    6  C7  UNL     1      -3.843  50.771 -20.164  1.00  0.00     0.034 C 
HETATM    7  C8  UNL     1      -3.122  49.644 -19.409  1.00  0.00     0.136 C 
HETATM    8  C15 UNL     1      -2.855  48.363 -20.260  1.00  0.00     0.002 C 
HETATM    9  C16 UNL     1      -2.219  47.307 -19.312  1.00  0.00     0.022 C 
HETATM   10  C17 UNL     1      -1.814  48.605 -21.375  1.00  0.00     0.022 C 
HETATM   11  C18 UNL     1      -5.779  48.451 -22.794  1.00  0.00    -0.030 C 
HETATM   12  C19 UNL     1      -4.642  48.375 -23.861  1.00  0.00     0.016 C 
HETATM   13  C20 UNL     1      -6.807  49.515 -23.297  1.00  0.00     0.011 C 
HETATM   14  C21 UNL     1      -7.898  49.089 -24.300  1.00  0.00     0.011 C 
HETATM   15  C22 UNL     1      -8.260  47.596 -24.310  1.00  0.00    -0.032 C 
HETATM   16  C23 UNL     1      -7.503  46.909 -25.494  1.00  0.00     0.016 C 
HETATM   17  C24 UNL     1      -9.782  47.253 -24.483  1.00  0.00    -0.002 C 
HETATM   18  C33 UNL     1      -9.872  45.820 -23.875  1.00  0.00     0.006 C 
HETATM   19  C34 UNL     1      -8.583  45.571 -23.072  1.00  0.00     0.011 C 
HETATM   20  C35 UNL     1      -7.950  46.964 -22.899  1.00  0.00    -0.029 C 
HETATM   21  C36 UNL     1      -8.701  47.631 -21.698  1.00  0.00     0.016 C 
HETATM   22  C37 UNL     1      -6.405  46.987 -22.637  1.00  0.00     0.036 C 
ENDROOT
BRANCH   7  23
HETATM   23  O2  UNL     1      -1.877  50.143 -18.898  1.00  0.00    -0.352 OA
BRANCH  23  24
HETATM   24  C9  UNL     1      -1.944  50.655 -17.564  1.00  0.00     0.292 C 
HETATM   25  O3  UNL     1      -0.637  50.948 -17.089  1.00  0.00    -0.348 OA
HETATM   26  C10 UNL     1      -0.602  51.454 -15.750  1.00  0.00     0.179 C 
HETATM   27  C12 UNL     1      -1.196  50.447 -14.753  1.00  0.00     0.180 C 
HETATM   28  C13 UNL     1      -2.580  49.970 -15.203  1.00  0.00     0.183 C 
HETATM   29  C14 UNL     1      -2.628  49.585 -16.684  1.00  0.00     0.204 C 
BRANCH  26  30
HETATM   30  C11 UNL     1       0.856  51.799 -15.398  1.00  0.00     0.198 C 
BRANCH  30  31
HETATM   31  O4  UNL     1       0.921  52.802 -14.385  1.00  0.00    -0.398 OA
HETATM   32  H16 UNL     1       1.862  52.973 -14.212  1.00  0.00     0.209 HD
ENDBRANCH  30  31
ENDBRANCH  26  30
BRANCH  27  33
HETATM   33  O5  UNL     1      -1.302  51.054 -13.456  1.00  0.00    -0.390 OA
HETATM   34  H18 UNL     1      -2.255  51.103 -13.235  1.00  0.00     0.210 HD
ENDBRANCH  27  33
BRANCH  28  35
HETATM   35  O6  UNL     1      -3.575  50.982 -14.914  1.00  0.00    -0.390 OA
HETATM   36  H20 UNL     1      -3.347  51.805 -15.377  1.00  0.00     0.210 HD
ENDBRANCH  28  35
BRANCH  29  37
HETATM   37  O7  UNL     1      -4.001  49.394 -17.069  1.00  0.00    -0.388 OA
HETATM   38  H22 UNL     1      -4.554  49.851 -16.405  1.00  0.00     0.210 HD
ENDBRANCH  29  37
ENDBRANCH  23  24
ENDBRANCH   7  23
BRANCH   1  39
HETATM   39  O1  UNL     1      -6.028  44.836 -21.588  1.00  0.00    -0.386 OA
HETATM   40  C1  UNL     1      -6.277  44.052 -20.426  1.00  0.00     0.202 C 
ENDBRANCH   1  39
BRANCH  17  41
HETATM   41  C25 UNL     1     -10.439  47.342 -25.896  1.00  0.00    -0.010 C 
HETATM   42  C26 UNL     1     -10.539  45.963 -26.565  1.00  0.00     0.010 C 
BRANCH  41  43
HETATM   43  C27 UNL     1      -9.642  48.309 -26.815  1.00  0.00     0.031 C 
BRANCH  43  44
HETATM   44  C28 UNL     1      -9.297  47.701 -28.148  1.00  0.00    -0.027 C 
HETATM   45  C29 UNL     1      -9.530  48.284 -29.336  1.00  0.00     0.006 C 
BRANCH  45  46
HETATM   46  C30 UNL     1      -9.203  47.704 -30.695  1.00  0.00     0.068 C 
HETATM   47  C31 UNL     1     -10.486  47.239 -31.386  1.00  0.00     0.050 C 
HETATM   48  C32 UNL     1      -8.473  48.742 -31.546  1.00  0.00     0.050 C 
BRANCH  46  49
HETATM   49  O8  UNL     1      -8.345  46.573 -30.543  1.00  0.00    -0.387 OA
HETATM   50  H54 UNL     1      -8.183  46.206 -31.429  1.00  0.00     0.211 HD
ENDBRANCH  46  49
ENDBRANCH  45  46
ENDBRANCH  43  44
ENDBRANCH  41  43
ENDBRANCH  17  41
TORSDOF 13
ENDMDL
MODEL 6
REMARK minimizedAffinity -8.97972012
REMARK CNNscore 0.326623499
REMARK CNNaffinity 7.21218443
REMARK  13 active torsions:
REMARK  status: ('A' for Active; 'I' for Inactive)
REMARK    1  A    between atoms: O1_2  and  C2_3 
REMARK    2  A    between atoms: C8_9  and  O2_10 
REMARK    3  A    between atoms: O2_10  and  C9_11 
REMARK    4  A    between atoms: C10_13  and  C11_14 
REMARK    5  A    between atoms: C11_14  and  O4_15 
REMARK    6  A    between atoms: C12_16  and  O5_17 
REMARK    7  A    between atoms: C13_18  and  O6_19 
REMARK    8  A    between atoms: C14_20  and  O7_21 
REMARK    9  A    between atoms: C24_31  and  C25_32 
REMARK   10  A    between atoms: C25_32  and  C27_34 
REMARK   11  A    between atoms: C27_34  and  C28_35 
REMARK   12  A    between atoms: C29_36  and  C30_37 
REMARK   13  A    between atoms: C30_37  and  O8_40 
ROOT
HETATM    1  C2  UNL     1       0.048  52.335 -18.986  1.00  0.00     0.149 C 
HETATM    2  C3  UNL     1       0.034  52.349 -17.484  1.00  0.00     0.009 C 
HETATM    3  C4  UNL     1      -0.192  51.231 -16.766  1.00  0.00    -0.066 C 
HETATM    4  C5  UNL     1      -0.482  49.961 -17.560  1.00  0.00     0.024 C 
HETATM    5  C6  UNL     1      -0.791  48.740 -16.674  1.00  0.00     0.012 C 
HETATM    6  C7  UNL     1       0.160  48.556 -15.494  1.00  0.00     0.034 C 
HETATM    7  C8  UNL     1       0.721  49.847 -14.879  1.00  0.00     0.136 C 
HETATM    8  C15 UNL     1      -0.081  51.137 -15.236  1.00  0.00     0.002 C 
HETATM    9  C16 UNL     1       0.685  52.340 -14.618  1.00  0.00     0.022 C 
HETATM   10  C17 UNL     1      -1.482  51.155 -14.586  1.00  0.00     0.022 C 
HETATM   11  C18 UNL     1      -1.560  50.238 -18.698  1.00  0.00    -0.030 C 
HETATM   12  C19 UNL     1      -2.924  50.589 -18.025  1.00  0.00     0.016 C 
HETATM   13  C20 UNL     1      -1.783  48.932 -19.527  1.00  0.00     0.011 C 
HETATM   14  C21 UNL     1      -2.358  49.038 -20.954  1.00  0.00     0.011 C 
HETATM   15  C22 UNL     1      -2.153  50.384 -21.666  1.00  0.00    -0.032 C 
HETATM   16  C23 UNL     1      -3.466  51.223 -21.533  1.00  0.00     0.016 C 
HETATM   17  C24 UNL     1      -1.811  50.313 -23.197  1.00  0.00    -0.002 C 
HETATM   18  C33 UNL     1      -1.112  51.683 -23.447  1.00  0.00     0.006 C 
HETATM   19  C34 UNL     1      -0.743  52.276 -22.076  1.00  0.00     0.011 C 
HETATM   20  C35 UNL     1      -0.873  51.102 -21.089  1.00  0.00    -0.029 C 
HETATM   21  C36 UNL     1       0.456  50.283 -21.216  1.00  0.00     0.016 C 
HETATM   22  C37 UNL     1      -1.115  51.490 -19.590  1.00  0.00     0.036 C 
ENDROOT
BRANCH   7  23
HETATM   23  O2  UNL     1       0.779  49.701 -13.452  1.00  0.00    -0.352 OA
BRANCH  23  24
HETATM   24  C9  UNL     1       2.027  49.216 -12.953  1.00  0.00     0.292 C 
HETATM   25  O3  UNL     1       1.802  48.236 -11.947  1.00  0.00    -0.348 OA
HETATM   26  C10 UNL     1       3.000  47.701 -11.374  1.00  0.00     0.179 C 
HETATM   27  C12 UNL     1       3.845  48.799 -10.710  1.00  0.00     0.180 C 
HETATM   28  C13 UNL     1       4.081  49.973 -11.666  1.00  0.00     0.183 C 
HETATM   29  C14 UNL     1       2.809  50.423 -12.388  1.00  0.00     0.204 C 
BRANCH  26  30
HETATM   30  C11 UNL     1       2.610  46.606 -10.366  1.00  0.00     0.198 C 
BRANCH  30  31
HETATM   31  O4  UNL     1       3.678  45.681 -10.167  1.00  0.00    -0.398 OA
HETATM   32  H16 UNL     1       3.368  45.020  -9.525  1.00  0.00     0.209 HD
ENDBRANCH  30  31
ENDBRANCH  26  30
BRANCH  27  33
HETATM   33  O5  UNL     1       5.111  48.257 -10.303  1.00  0.00    -0.390 OA
HETATM   34  H18 UNL     1       5.804  48.711 -10.825  1.00  0.00     0.210 HD
ENDBRANCH  27  33
BRANCH  28  35
HETATM   35  O6  UNL     1       5.110  49.634 -12.627  1.00  0.00    -0.390 OA
HETATM   36  H20 UNL     1       4.839  48.850 -13.133  1.00  0.00     0.210 HD
ENDBRANCH  28  35
BRANCH  29  37
HETATM   37  O7  UNL     1       3.169  51.345 -13.431  1.00  0.00    -0.388 OA
HETATM   38  H22 UNL     1       4.118  51.212 -13.620  1.00  0.00     0.210 HD
ENDBRANCH  29  37
ENDBRANCH  23  24
ENDBRANCH   7  23
BRANCH   1  39
HETATM   39  O1  UNL     1      -0.097  53.683 -19.454  1.00  0.00    -0.386 OA
HETATM   40  C1  UNL     1       1.054  54.169 -20.135  1.00  0.00     0.202 C 
ENDBRANCH   1  39
BRANCH  17  41
HETATM   41  C25 UNL     1      -2.947  50.028 -24.230  1.00  0.00    -0.010 C 
HETATM   42  C26 UNL     1      -2.943  48.563 -24.689  1.00  0.00     0.010 C 
BRANCH  41  43
HETATM   43  C27 UNL     1      -2.817  50.962 -25.465  1.00  0.00     0.031 C 
BRANCH  43  44
HETATM   44  C28 UNL     1      -1.419  51.487 -25.658  1.00  0.00    -0.027 C 
HETATM   45  C29 UNL     1      -0.721  51.395 -26.804  1.00  0.00     0.006 C 
BRANCH  45  46
HETATM   46  C30 UNL     1       0.684  51.905 -27.035  1.00  0.00     0.068 C 
HETATM   47  C31 UNL     1       1.682  51.062 -26.239  1.00  0.00     0.050 C 
HETATM   48  C32 UNL     1       1.015  51.871 -28.527  1.00  0.00     0.050 C 
BRANCH  46  49
HETATM   49  O8  UNL     1       0.788  53.257 -26.589  1.00  0.00    -0.387 OA
HETATM   50  H54 UNL     1       1.708  53.540 -26.721  1.00  0.00     0.211 HD
ENDBRANCH  46  49
ENDBRANCH  45  46
ENDBRANCH  43  44
ENDBRANCH  41  43
ENDBRANCH  17  41
TORSDOF 13
ENDMDL
MODEL 7
REMARK minimizedAffinity -8.59264183
REMARK CNNscore 0.322523803
REMARK CNNaffinity 6.95266771
REMARK  13 active torsions:
REMARK  status: ('A' for Active; 'I' for Inactive)
REMARK    1  A    between atoms: O1_2  and  C2_3 
REMARK    2  A    between atoms: C8_9  and  O2_10 
REMARK    3  A    between atoms: O2_10  and  C9_11 
REMARK    4  A    between atoms: C10_13  and  C11_14 
REMARK    5  A    between atoms: C11_14  and  O4_15 
REMARK    6  A    between atoms: C12_16  and  O5_17 
REMARK    7  A    between atoms: C13_18  and  O6_19 
REMARK    8  A    between atoms: C14_20  and  O7_21 
REMARK    9  A    between atoms: C24_31  and  C25_32 
REMARK   10  A    between atoms: C25_32  and  C27_34 
REMARK   11  A    between atoms: C27_34  and  C28_35 
REMARK   12  A    between atoms: C29_36  and  C30_37 
REMARK   13  A    between atoms: C30_37  and  O8_40 
ROOT
HETATM    1  C2  UNL     1      -0.025  51.386 -19.365  1.00  0.00     0.149 C 
HETATM    2  C3  UNL     1       0.387  51.731 -17.962  1.00  0.00     0.009 C 
HETATM    3  C4  UNL     1       0.215  50.870 -16.940  1.00  0.00    -0.066 C 
HETATM    4  C5  UNL     1      -0.465  49.546 -17.275  1.00  0.00     0.024 C 
HETATM    5  C6  UNL     1      -0.683  48.640 -16.049  1.00  0.00     0.012 C 
HETATM    6  C7  UNL     1       0.525  48.525 -15.123  1.00  0.00     0.034 C 
HETATM    7  C8  UNL     1       1.415  49.772 -15.025  1.00  0.00     0.136 C 
HETATM    8  C15 UNL     1       0.738  51.092 -15.511  1.00  0.00     0.002 C 
HETATM    9  C16 UNL     1       1.810  52.214 -15.436  1.00  0.00     0.022 C 
HETATM   10  C17 UNL     1      -0.406  51.543 -14.577  1.00  0.00     0.022 C 
HETATM   11  C18 UNL     1      -1.769  49.785 -18.156  1.00  0.00    -0.030 C 
HETATM   12  C19 UNL     1      -2.823  50.552 -17.297  1.00  0.00     0.016 C 
HETATM   13  C20 UNL     1      -2.400  48.405 -18.531  1.00  0.00     0.011 C 
HETATM   14  C21 UNL     1      -3.332  48.315 -19.755  1.00  0.00     0.011 C 
HETATM   15  C22 UNL     1      -3.145  49.399 -20.828  1.00  0.00    -0.032 C 
HETATM   16  C23 UNL     1      -4.235  50.501 -20.616  1.00  0.00     0.016 C 
HETATM   17  C24 UNL     1      -3.263  48.925 -22.320  1.00  0.00    -0.002 C 
HETATM   18  C33 UNL     1      -2.473  50.031 -23.085  1.00  0.00     0.006 C 
HETATM   19  C34 UNL     1      -1.652  50.819 -22.049  1.00  0.00     0.011 C 
HETATM   20  C35 UNL     1      -1.666  49.943 -20.783  1.00  0.00    -0.029 C 
HETATM   21  C36 UNL     1      -0.558  48.858 -20.999  1.00  0.00     0.016 C 
HETATM   22  C37 UNL     1      -1.419  50.691 -19.428  1.00  0.00     0.036 C 
ENDROOT
BRANCH   7  23
HETATM   23  O2  UNL     1       1.850  49.934 -13.667  1.00  0.00    -0.352 OA
BRANCH  23  24
HETATM   24  C9  UNL     1       1.340  48.954 -12.758  1.00  0.00     0.292 C 
HETATM   25  O3  UNL     1       0.503  49.577 -11.791  1.00  0.00    -0.348 OA
HETATM   26  C10 UNL     1      -0.044  48.673 -10.825  1.00  0.00     0.179 C 
HETATM   27  C12 UNL     1       1.062  47.963 -10.029  1.00  0.00     0.180 C 
HETATM   28  C13 UNL     1       2.097  47.326 -10.962  1.00  0.00     0.183 C 
HETATM   29  C14 UNL     1       2.547  48.263 -12.085  1.00  0.00     0.204 C 
BRANCH  26  30
HETATM   30  C11 UNL     1      -0.983  49.464  -9.897  1.00  0.00     0.198 C 
BRANCH  30  31
HETATM   31  O4  UNL     1      -1.144  50.809 -10.347  1.00  0.00    -0.398 OA
HETATM   32  H16 UNL     1      -1.743  51.250  -9.721  1.00  0.00     0.209 HD
ENDBRANCH  30  31
ENDBRANCH  26  30
BRANCH  27  33
HETATM   33  O5  UNL     1       0.484  46.946  -9.197  1.00  0.00    -0.390 OA
HETATM   34  H18 UNL     1       0.825  46.084  -9.512  1.00  0.00     0.210 HD
ENDBRANCH  27  33
BRANCH  28  35
HETATM   35  O6  UNL     1       1.577  46.093 -11.515  1.00  0.00    -0.390 OA
HETATM   36  H20 UNL     1       0.760  46.276 -12.009  1.00  0.00     0.210 HD
ENDBRANCH  28  35
BRANCH  29  37
HETATM   37  O7  UNL     1       3.314  47.508 -13.040  1.00  0.00    -0.388 OA
HETATM   38  H22 UNL     1       3.093  46.566 -12.907  1.00  0.00     0.210 HD
ENDBRANCH  29  37
ENDBRANCH  23  24
ENDBRANCH   7  23
BRANCH   1  39
HETATM   39  O1  UNL     1      -0.101  52.600 -20.126  1.00  0.00    -0.386 OA
HETATM   40  C1  UNL     1       1.001  53.473 -19.904  1.00  0.00     0.202 C 
ENDBRANCH   1  39
BRANCH  17  41
HETATM   41  C25 UNL     1      -4.672  48.664 -22.940  1.00  0.00    -0.010 C 
HETATM   42  C26 UNL     1      -5.346  47.431 -22.321  1.00  0.00     0.010 C 
BRANCH  41  43
HETATM   43  C27 UNL     1      -4.573  48.486 -24.480  1.00  0.00     0.031 C 
BRANCH  43  44
HETATM   44  C28 UNL     1      -3.632  49.468 -25.125  1.00  0.00    -0.027 C 
HETATM   45  C29 UNL     1      -3.590  49.732 -26.443  1.00  0.00     0.006 C 
BRANCH  45  46
HETATM   46  C30 UNL     1      -2.657  50.707 -27.128  1.00  0.00     0.068 C 
HETATM   47  C31 UNL     1      -2.967  52.134 -26.671  1.00  0.00     0.050 C 
HETATM   48  C32 UNL     1      -1.204  50.344 -26.824  1.00  0.00     0.050 C 
BRANCH  46  49
HETATM   49  O8  UNL     1      -2.844  50.643 -28.542  1.00  0.00    -0.387 OA
HETATM   50  H54 UNL     1      -2.257  51.303 -28.946  1.00  0.00     0.211 HD
ENDBRANCH  46  49
ENDBRANCH  45  46
ENDBRANCH  43  44
ENDBRANCH  41  43
ENDBRANCH  17  41
TORSDOF 13
ENDMDL
MODEL 8
REMARK minimizedAffinity -9.36987782
REMARK CNNscore 0.305627972
REMARK CNNaffinity 7.08120775
REMARK  13 active torsions:
REMARK  status: ('A' for Active; 'I' for Inactive)
REMARK    1  A    between atoms: O1_2  and  C2_3 
REMARK    2  A    between atoms: C8_9  and  O2_10 
REMARK    3  A    between atoms: O2_10  and  C9_11 
REMARK    4  A    between atoms: C10_13  and  C11_14 
REMARK    5  A    between atoms: C11_14  and  O4_15 
REMARK    6  A    between atoms: C12_16  and  O5_17 
REMARK    7  A    between atoms: C13_18  and  O6_19 
REMARK    8  A    between atoms: C14_20  and  O7_21 
REMARK    9  A    between atoms: C24_31  and  C25_32 
REMARK   10  A    between atoms: C25_32  and  C27_34 
REMARK   11  A    between atoms: C27_34  and  C28_35 
REMARK   12  A    between atoms: C29_36  and  C30_37 
REMARK   13  A    between atoms: C30_37  and  O8_40 
ROOT
HETATM    1  C2  UNL     1       0.219  52.218 -19.175  1.00  0.00     0.149 C 
HETATM    2  C3  UNL     1       0.265  52.244 -17.673  1.00  0.00     0.009 C 
HETATM    3  C4  UNL     1      -0.037  51.158 -16.935  1.00  0.00    -0.066 C 
HETATM    4  C5  UNL     1      -0.475  49.915 -17.704  1.00  0.00     0.024 C 
HETATM    5  C6  UNL     1      -0.862  48.735 -16.793  1.00  0.00     0.012 C 
HETATM    6  C7  UNL     1       0.112  48.471 -15.648  1.00  0.00     0.034 C 
HETATM    7  C8  UNL     1       0.815  49.707 -15.069  1.00  0.00     0.136 C 
HETATM    8  C15 UNL     1       0.124  51.065 -15.409  1.00  0.00     0.002 C 
HETATM    9  C16 UNL     1       1.023  52.195 -14.834  1.00  0.00     0.022 C 
HETATM   10  C17 UNL     1      -1.243  51.219 -14.706  1.00  0.00     0.022 C 
HETATM   11  C18 UNL     1      -1.566  50.283 -18.802  1.00  0.00    -0.030 C 
HETATM   12  C19 UNL     1      -2.864  50.766 -18.082  1.00  0.00     0.016 C 
HETATM   13  C20 UNL     1      -1.942  48.998 -19.609  1.00  0.00     0.011 C 
HETATM   14  C21 UNL     1      -2.560  49.147 -21.013  1.00  0.00     0.011 C 
HETATM   15  C22 UNL     1      -2.256  50.463 -21.748  1.00  0.00    -0.032 C 
HETATM   16  C23 UNL     1      -3.480  51.422 -21.574  1.00  0.00     0.016 C 
HETATM   17  C24 UNL     1      -1.983  50.349 -23.289  1.00  0.00    -0.002 C 
HETATM   18  C33 UNL     1      -1.168  51.645 -23.581  1.00  0.00     0.006 C 
HETATM   19  C34 UNL     1      -0.692  52.211 -22.231  1.00  0.00     0.011 C 
HETATM   20  C35 UNL     1      -0.894  51.061 -21.227  1.00  0.00    -0.029 C 
HETATM   21  C36 UNL     1       0.347  50.121 -21.396  1.00  0.00     0.016 C 
HETATM   22  C37 UNL     1      -1.040  51.481 -19.724  1.00  0.00     0.036 C 
ENDROOT
BRANCH   7  23
HETATM   23  O2  UNL     1       0.914  49.567 -13.644  1.00  0.00    -0.352 OA
BRANCH  23  24
HETATM   24  C9  UNL     1       0.681  50.772 -12.910  1.00  0.00     0.292 C 
HETATM   25  O3  UNL     1       1.915  51.312 -12.455  1.00  0.00    -0.348 OA
HETATM   26  C10 UNL     1       1.780  52.517 -11.693  1.00  0.00     0.179 C 
HETATM   27  C12 UNL     1       0.930  52.293 -10.433  1.00  0.00     0.180 C 
HETATM   28  C13 UNL     1      -0.402  51.619 -10.774  1.00  0.00     0.183 C 
HETATM   29  C14 UNL     1      -0.245  50.427 -11.722  1.00  0.00     0.204 C 
BRANCH  26  30
HETATM   30  C11 UNL     1       3.188  53.027 -11.337  1.00  0.00     0.198 C 
BRANCH  30  31
HETATM   31  O4  UNL     1       3.213  54.451 -11.242  1.00  0.00    -0.398 OA
HETATM   32  H16 UNL     1       4.125  54.705 -11.017  1.00  0.00     0.209 HD
ENDBRANCH  30  31
ENDBRANCH  26  30
BRANCH  27  33
HETATM   33  O5  UNL     1       0.674  53.552  -9.792  1.00  0.00    -0.390 OA
HETATM   34  H18 UNL     1      -0.292  53.707  -9.831  1.00  0.00     0.210 HD
ENDBRANCH  27  33
BRANCH  28  35
HETATM   35  O6  UNL     1      -1.322  52.587 -11.334  1.00  0.00    -0.390 OA
HETATM   36  H20 UNL     1      -0.937  52.976 -12.138  1.00  0.00     0.210 HD
ENDBRANCH  28  35
BRANCH  29  37
HETATM   37  O7  UNL     1      -1.548  50.021 -12.178  1.00  0.00    -0.388 OA
HETATM   38  H22 UNL     1      -2.153  50.775 -12.031  1.00  0.00     0.210 HD
ENDBRANCH  29  37
ENDBRANCH  23  24
ENDBRANCH   7  23
BRANCH   1  39
HETATM   39  O1  UNL     1       0.183  53.571 -19.651  1.00  0.00    -0.386 OA
HETATM   40  C1  UNL     1       1.403  53.987 -20.254  1.00  0.00     0.202 C 
ENDBRANCH   1  39
BRANCH  17  41
HETATM   41  C25 UNL     1      -3.180  50.164 -24.275  1.00  0.00    -0.010 C 
HETATM   42  C26 UNL     1      -2.905  49.056 -25.302  1.00  0.00     0.010 C 
BRANCH  41  43
HETATM   43  C27 UNL     1      -3.495  51.494 -25.015  1.00  0.00     0.031 C 
BRANCH  43  44
HETATM   44  C28 UNL     1      -2.270  52.139 -25.608  1.00  0.00    -0.027 C 
HETATM   45  C29 UNL     1      -2.016  52.228 -26.925  1.00  0.00     0.006 C 
BRANCH  45  46
HETATM   46  C30 UNL     1      -0.797  52.863 -27.558  1.00  0.00     0.068 C 
HETATM   47  C31 UNL     1      -0.016  53.652 -26.506  1.00  0.00     0.050 C 
HETATM   48  C32 UNL     1       0.083  51.788 -28.194  1.00  0.00     0.050 C 
BRANCH  46  49
HETATM   49  O8  UNL     1      -1.202  53.769 -28.584  1.00  0.00    -0.387 OA
HETATM   50  H54 UNL     1      -0.399  54.182 -28.944  1.00  0.00     0.211 HD
ENDBRANCH  46  49
ENDBRANCH  45  46
ENDBRANCH  43  44
ENDBRANCH  41  43
ENDBRANCH  17  41
TORSDOF 13
ENDMDL
MODEL 9
REMARK minimizedAffinity -8.1126833
REMARK CNNscore 0.300709009
REMARK CNNaffinity 6.59472227
REMARK  13 active torsions:
REMARK  status: ('A' for Active; 'I' for Inactive)
REMARK    1  A    between atoms: O1_2  and  C2_3 
REMARK    2  A    between atoms: C8_9  and  O2_10 
REMARK    3  A    between atoms: O2_10  and  C9_11 
REMARK    4  A    between atoms: C10_13  and  C11_14 
REMARK    5  A    between atoms: C11_14  and  O4_15 
REMARK    6  A    between atoms: C12_16  and  O5_17 
REMARK    7  A    between atoms: C13_18  and  O6_19 
REMARK    8  A    between atoms: C14_20  and  O7_21 
REMARK    9  A    between atoms: C24_31  and  C25_32 
REMARK   10  A    between atoms: C25_32  and  C27_34 
REMARK   11  A    between atoms: C27_34  and  C28_35 
REMARK   12  A    between atoms: C29_36  and  C30_37 
REMARK   13  A    between atoms: C30_37  and  O8_40 
ROOT
HETATM    1  C2  UNL     1      -4.158  47.586 -19.654  1.00  0.00     0.149 C 
HETATM    2  C3  UNL     1      -5.603  47.192 -19.772  1.00  0.00     0.009 C 
HETATM    3  C4  UNL     1      -6.234  47.157 -20.963  1.00  0.00    -0.066 C 
HETATM    4  C5  UNL     1      -5.416  47.584 -22.177  1.00  0.00     0.024 C 
HETATM    5  C6  UNL     1      -6.218  47.578 -23.491  1.00  0.00     0.012 C 
HETATM    6  C7  UNL     1      -7.079  46.334 -23.702  1.00  0.00     0.034 C 
HETATM    7  C8  UNL     1      -7.656  45.695 -22.431  1.00  0.00     0.136 C 
HETATM    8  C15 UNL     1      -7.662  46.631 -21.181  1.00  0.00     0.002 C 
HETATM    9  C16 UNL     1      -8.178  45.790 -19.980  1.00  0.00     0.022 C 
HETATM   10  C17 UNL     1      -8.658  47.802 -21.330  1.00  0.00     0.022 C 
HETATM   11  C18 UNL     1      -4.640  48.943 -21.888  1.00  0.00    -0.030 C 
HETATM   12  C19 UNL     1      -5.683  50.090 -21.705  1.00  0.00     0.016 C 
HETATM   13  C20 UNL     1      -3.766  49.314 -23.130  1.00  0.00     0.011 C 
HETATM   14  C21 UNL     1      -2.562  50.259 -22.945  1.00  0.00     0.011 C 
HETATM   15  C22 UNL     1      -1.966  50.325 -21.530  1.00  0.00    -0.032 C 
HETATM   16  C23 UNL     1      -2.530  51.595 -20.812  1.00  0.00     0.016 C 
HETATM   17  C24 UNL     1      -0.401  50.408 -21.440  1.00  0.00    -0.002 C 
HETATM   18  C33 UNL     1      -0.121  49.875 -20.002  1.00  0.00     0.006 C 
HETATM   19  C34 UNL     1      -1.400  49.179 -19.504  1.00  0.00     0.011 C 
HETATM   20  C35 UNL     1      -2.257  48.976 -20.767  1.00  0.00    -0.029 C 
HETATM   21  C36 UNL     1      -1.697  47.690 -21.464  1.00  0.00     0.016 C 
HETATM   22  C37 UNL     1      -3.799  48.823 -20.532  1.00  0.00     0.036 C 
ENDROOT
BRANCH   7  23
HETATM   23  O2  UNL     1      -8.993  45.246 -22.695  1.00  0.00    -0.352 OA
BRANCH  23  24
HETATM   24  C9  UNL     1      -9.118  43.837 -22.902  1.00  0.00     0.292 C 
HETATM   25  O3  UNL     1      -8.244  43.137 -22.024  1.00  0.00    -0.348 OA
HETATM   26  C10 UNL     1      -8.287  41.714 -22.169  1.00  0.00     0.179 C 
HETATM   27  C12 UNL     1      -7.892  41.281 -23.589  1.00  0.00     0.180 C 
HETATM   28  C13 UNL     1      -8.699  42.039 -24.647  1.00  0.00     0.183 C 
HETATM   29  C14 UNL     1      -8.771  43.545 -24.379  1.00  0.00     0.204 C 
BRANCH  26  30
HETATM   30  C11 UNL     1      -7.359  41.089 -21.113  1.00  0.00     0.198 C 
BRANCH  30  31
HETATM   31  O4  UNL     1      -6.031  40.939 -21.614  1.00  0.00    -0.398 OA
HETATM   32  H16 UNL     1      -5.501  40.541 -20.903  1.00  0.00     0.209 HD
ENDBRANCH  30  31
ENDBRANCH  26  30
BRANCH  27  33
HETATM   33  O5  UNL     1      -8.114  39.871 -23.745  1.00  0.00    -0.390 OA
HETATM   34  H18 UNL     1      -8.811  39.759 -24.425  1.00  0.00     0.210 HD
ENDBRANCH  27  33
BRANCH  28  35
HETATM   35  O6  UNL     1     -10.033  41.484 -24.750  1.00  0.00    -0.390 OA
HETATM   36  H20 UNL     1     -10.480  41.548 -23.889  1.00  0.00     0.210 HD
ENDBRANCH  28  35
BRANCH  29  37
HETATM   37  O7  UNL     1      -9.741  44.129 -25.267  1.00  0.00    -0.388 OA
HETATM   38  H22 UNL     1     -10.318  43.405 -25.580  1.00  0.00     0.210 HD
ENDBRANCH  29  37
ENDBRANCH  23  24
ENDBRANCH   7  23
BRANCH   1  39
HETATM   39  O1  UNL     1      -3.891  47.922 -18.285  1.00  0.00    -0.386 OA
HETATM   40  C1  UNL     1      -4.781  47.295 -17.368  1.00  0.00     0.202 C 
ENDBRANCH   1  39
BRANCH  17  41
HETATM   41  C25 UNL     1       0.318  51.764 -21.722  1.00  0.00    -0.010 C 
HETATM   42  C26 UNL     1       0.607  52.535 -20.425  1.00  0.00     0.010 C 
BRANCH  41  43
HETATM   43  C27 UNL     1      -0.529  52.650 -22.677  1.00  0.00     0.031 C 
BRANCH  43  44
HETATM   44  C28 UNL     1       0.144  52.897 -24.000  1.00  0.00    -0.027 C 
HETATM   45  C29 UNL     1      -0.099  52.198 -25.122  1.00  0.00     0.006 C 
BRANCH  45  46
HETATM   46  C30 UNL     1       0.560  52.412 -26.468  1.00  0.00     0.068 C 
HETATM   47  C31 UNL     1       0.308  51.202 -27.369  1.00  0.00     0.050 C 
HETATM   48  C32 UNL     1       0.027  53.690 -27.114  1.00  0.00     0.050 C 
BRANCH  46  49
HETATM   49  O8  UNL     1       1.969  52.555 -26.298  1.00  0.00    -0.387 OA
HETATM   50  H54 UNL     1       2.363  52.656 -27.181  1.00  0.00     0.211 HD
ENDBRANCH  46  49
ENDBRANCH  45  46
ENDBRANCH  43  44
ENDBRANCH  41  43
ENDBRANCH  17  41
TORSDOF 13
ENDMDL
