MODEL 1
REMARK minimizedAffinity -8.13654423
REMARK CNNscore 0.572208822
REMARK CNNaffinity 7.37817907
REMARK  19 active torsions:
REMARK  status: ('A' for Active; 'I' for Inactive)
REMARK    1  A    between atoms: C2_2  and  C3_3 
REMARK    2  A    between atoms: C3_3  and  C5_5 
REMARK    3  A    between atoms: C5_5  and  N1_6 
REMARK    4  A    between atoms: C5_5  and  C37_46 
REMARK       I    between atoms: N1_6  and  C6_7 
REMARK    5  A    between atoms: C6_7  and  C7_9 
REMARK    6  A    between atoms: C7_9  and  C8_10 
REMARK    7  A    between atoms: C8_10  and  C9_11 
REMARK    8  A    between atoms: C9_11  and  C10_12 
REMARK    9  A    between atoms: C10_12  and  C11_13 
REMARK   10  A    between atoms: C11_13  and  N2_14 
REMARK       I    between atoms: N2_14  and  C12_15 
REMARK   11  A    between atoms: C12_15  and  C13_17 
REMARK   12  A    between atoms: C13_17  and  C14_18 
REMARK   13  A    between atoms: C14_18  and  C15_19 
REMARK   14  A    between atoms: C15_19  and  O4_21 
REMARK   15  A    between atoms: O4_21  and  C16_22 
REMARK   16  A    between atoms: C16_22  and  C17_23 
REMARK   17  A    between atoms: C17_23  and  C18_25 
REMARK   18  A    between atoms: C18_25  and  O6_26 
REMARK   19  A    between atoms: C37_46  and  O9_48 
ROOT
HETATM    1  C15 UNL     1      -9.361   7.840  15.317  1.00  0.00     0.259 C 
HETATM    2  O3  UNL     1      -9.233   9.046  15.152  1.00  0.00    -0.265 OA
ENDROOT
BRANCH   1   3
HETATM    3  C14 UNL     1     -10.192   6.953  14.420  1.00  0.00     0.120 C 
BRANCH   3   4
HETATM    4  C13 UNL     1     -11.063   7.708  13.418  1.00  0.00     0.112 C 
BRANCH   4   5
HETATM    5  C12 UNL     1     -12.543   7.495  13.670  1.00  0.00     0.217 C 
HETATM    6  N2  UNL     1     -12.806   6.567  14.658  1.00  0.00    -0.361 N 
HETATM    7  H22 UNL     1     -12.060   6.355  15.310  1.00  0.00     0.162 HD
HETATM    8  O2  UNL     1     -13.420   8.069  13.034  1.00  0.00    -0.274 OA
BRANCH   6   9
HETATM    9  C11 UNL     1     -14.167   6.383  15.125  1.00  0.00     0.122 C 
BRANCH   9  10
HETATM   10  C10 UNL     1     -14.938   5.324  14.339  1.00  0.00     0.020 C 
BRANCH  10  11
HETATM   11  C9  UNL     1     -15.697   4.311  15.203  1.00  0.00     0.002 C 
BRANCH  11  12
HETATM   12  C8  UNL     1     -16.036   2.998  14.488  1.00  0.00     0.009 C 
BRANCH  12  13
HETATM   13  C7  UNL     1     -15.061   1.877  14.858  1.00  0.00     0.103 C 
BRANCH  13  14
HETATM   14  C6  UNL     1     -15.738   0.540  15.111  1.00  0.00     0.218 C 
HETATM   15  N1  UNL     1     -15.338  -0.438  14.225  1.00  0.00    -0.346 N 
HETATM   16  H11 UNL     1     -14.435  -0.294  13.786  1.00  0.00     0.163 HD
HETATM   17  O1  UNL     1     -16.540   0.346  16.017  1.00  0.00    -0.274 OA
BRANCH  15  18
HETATM   18  C5  UNL     1     -15.740  -1.838  14.426  1.00  0.00     0.186 C 
BRANCH  18  19
HETATM   19  C3  UNL     1     -15.643  -2.632  13.097  1.00  0.00     0.014 C 
HETATM   20  C4  UNL     1     -16.772  -3.667  13.005  1.00  0.00     0.012 C 
BRANCH  19  21
HETATM   21  C2  UNL     1     -14.256  -3.276  12.870  1.00  0.00     0.002 C 
HETATM   22  C1  UNL     1     -13.710  -3.061  11.463  1.00  0.00     0.005 C 
ENDBRANCH  19  21
ENDBRANCH  18  19
BRANCH  18  23
HETATM   23  C37 UNL     1     -14.869  -2.424  15.541  1.00  0.00     0.163 C 
HETATM   24  O8  UNL     1     -13.659  -2.594  15.495  1.00  0.00    -0.648 OA
BRANCH  23  25
HETATM   25  O9  UNL     1     -15.571  -2.796  16.630  1.00  0.00    -0.775 OA
HETATM   26  H56 UNL     1     -14.892  -3.124  17.257  1.00  0.00     0.167 HD
ENDBRANCH  23  25
ENDBRANCH  18  23
ENDBRANCH  15  18
ENDBRANCH  13  14
ENDBRANCH  12  13
ENDBRANCH  11  12
ENDBRANCH  10  11
ENDBRANCH   9  10
ENDBRANCH   6   9
ENDBRANCH   4   5
ENDBRANCH   3   4
ENDBRANCH   1   3
BRANCH   1  27
HETATM   27  O4  UNL     1      -8.882   7.151  16.383  1.00  0.00    -0.314 OA
BRANCH  27  28
HETATM   28  C16 UNL     1      -7.468   6.995  16.407  1.00  0.00     0.260 C 
BRANCH  28  29
HETATM   29  C17 UNL     1      -6.736   6.265  15.273  1.00  0.00     0.185 C 
HETATM   30  O5  UNL     1      -6.809   5.033  15.193  1.00  0.00    -0.292 OA
BRANCH  29  31
HETATM   31  C18 UNL     1      -5.807   7.087  14.347  1.00  0.00     0.128 C 
HETATM   32  C19 UNL     1      -5.730   8.555  14.849  1.00  0.00     0.047 C 
HETATM   33  C20 UNL     1      -4.325   9.070  14.487  1.00  0.00     0.009 C 
HETATM   34  C21 UNL     1      -3.651   7.915  13.739  1.00  0.00     0.002 C 
HETATM   35  C22 UNL     1      -2.107   7.899  13.733  1.00  0.00    -0.004 C 
HETATM   36  C35 UNL     1      -4.297   6.649  14.347  1.00  0.00    -0.002 C 
HETATM   37  C23 UNL     1      -1.562   9.079  12.896  1.00  0.00     0.010 C 
HETATM   38  C32 UNL     1      -1.561   6.489  13.281  1.00  0.00     0.002 C 
HETATM   39  C24 UNL     1      -1.301   8.702  11.445  1.00  0.00     0.035 C 
HETATM   40  C25 UNL     1      -0.313   7.571  11.320  1.00  0.00    -0.068 C 
HETATM   41  C26 UNL     1       0.432   7.458  10.204  1.00  0.00     0.053 C 
HETATM   42  C30 UNL     1      -0.208   6.583  12.480  1.00  0.00    -0.016 C 
HETATM   43  C27 UNL     1       1.403   6.350  10.012  1.00  0.00     0.149 C 
HETATM   44  O7  UNL     1       2.120   6.348   9.013  1.00  0.00    -0.293 OA
HETATM   45  C28 UNL     1       1.499   5.276  11.069  1.00  0.00     0.084 C 
HETATM   46  C29 UNL     1       0.220   5.202  11.899  1.00  0.00     0.022 C 
HETATM   47  C31 UNL     1       0.911   7.040  13.458  1.00  0.00     0.020 C 
HETATM   48  C33 UNL     1      -2.673   5.653  12.593  1.00  0.00     0.007 C 
HETATM   49  C34 UNL     1      -3.924   5.436  13.468  1.00  0.00     0.013 C 
HETATM   50  C36 UNL     1      -3.786   6.375  15.790  1.00  0.00     0.019 C 
BRANCH  31  51
HETATM   51  O6  UNL     1      -6.357   7.190  13.030  1.00  0.00    -0.381 OA
HETATM   52  H29 UNL     1      -5.787   6.741  12.383  1.00  0.00     0.211 HD
ENDBRANCH  31  51
ENDBRANCH  29  31
ENDBRANCH  28  29
ENDBRANCH  27  28
ENDBRANCH   1  27
TORSDOF 19
ENDMDL
MODEL 2
REMARK minimizedAffinity -7.3495574
REMARK CNNscore 0.448574364
REMARK CNNaffinity 7.26305532
REMARK  19 active torsions:
REMARK  status: ('A' for Active; 'I' for Inactive)
REMARK    1  A    between atoms: C2_2  and  C3_3 
REMARK    2  A    between atoms: C3_3  and  C5_5 
REMARK    3  A    between atoms: C5_5  and  N1_6 
REMARK    4  A    between atoms: C5_5  and  C37_46 
REMARK       I    between atoms: N1_6  and  C6_7 
REMARK    5  A    between atoms: C6_7  and  C7_9 
REMARK    6  A    between atoms: C7_9  and  C8_10 
REMARK    7  A    between atoms: C8_10  and  C9_11 
REMARK    8  A    between atoms: C9_11  and  C10_12 
REMARK    9  A    between atoms: C10_12  and  C11_13 
REMARK   10  A    between atoms: C11_13  and  N2_14 
REMARK       I    between atoms: N2_14  and  C12_15 
REMARK   11  A    between atoms: C12_15  and  C13_17 
REMARK   12  A    between atoms: C13_17  and  C14_18 
REMARK   13  A    between atoms: C14_18  and  C15_19 
REMARK   14  A    between atoms: C15_19  and  O4_21 
REMARK   15  A    between atoms: O4_21  and  C16_22 
REMARK   16  A    between atoms: C16_22  and  C17_23 
REMARK   17  A    between atoms: C17_23  and  C18_25 
REMARK   18  A    between atoms: C18_25  and  O6_26 
REMARK   19  A    between atoms: C37_46  and  O9_48 
ROOT
HETATM    1  C15 UNL     1     -10.800   9.012  14.250  1.00  0.00     0.259 C 
HETATM    2  O3  UNL     1     -10.982  10.206  14.054  1.00  0.00    -0.265 OA
ENDROOT
BRANCH   1   3
HETATM    3  C14 UNL     1     -11.466   7.918  13.450  1.00  0.00     0.120 C 
BRANCH   3   4
HETATM    4  C13 UNL     1     -11.965   6.740  14.285  1.00  0.00     0.112 C 
BRANCH   4   5
HETATM    5  C12 UNL     1     -13.429   6.881  14.658  1.00  0.00     0.217 C 
HETATM    6  N2  UNL     1     -14.195   5.787  14.307  1.00  0.00    -0.361 N 
HETATM    7  H22 UNL     1     -13.711   4.914  14.136  1.00  0.00     0.162 HD
HETATM    8  O2  UNL     1     -13.890   7.884  15.190  1.00  0.00    -0.274 OA
BRANCH   6   9
HETATM    9  C11 UNL     1     -15.574   5.707  14.750  1.00  0.00     0.122 C 
BRANCH   9  10
HETATM   10  C10 UNL     1     -16.016   4.286  15.094  1.00  0.00     0.020 C 
BRANCH  10  11
HETATM   11  C9  UNL     1     -14.981   3.200  14.782  1.00  0.00     0.002 C 
BRANCH  11  12
HETATM   12  C8  UNL     1     -15.514   1.767  14.891  1.00  0.00     0.009 C 
BRANCH  12  13
HETATM   13  C7  UNL     1     -15.897   1.407  16.330  1.00  0.00     0.103 C 
BRANCH  13  14
HETATM   14  C6  UNL     1     -16.817   0.202  16.431  1.00  0.00     0.218 C 
HETATM   15  N1  UNL     1     -16.182  -0.983  16.121  1.00  0.00    -0.346 N 
HETATM   16  H11 UNL     1     -15.174  -0.984  16.227  1.00  0.00     0.163 HD
HETATM   17  O1  UNL     1     -17.993   0.271  16.771  1.00  0.00    -0.274 OA
BRANCH  15  18
HETATM   18  C5  UNL     1     -16.856  -2.272  16.342  1.00  0.00     0.186 C 
BRANCH  18  19
HETATM   19  C3  UNL     1     -16.422  -3.306  15.271  1.00  0.00     0.014 C 
HETATM   20  C4  UNL     1     -17.649  -4.007  14.673  1.00  0.00     0.012 C 
BRANCH  19  21
HETATM   21  C2  UNL     1     -15.378  -4.322  15.790  1.00  0.00     0.002 C 
HETATM   22  C1  UNL     1     -14.308  -4.671  14.762  1.00  0.00     0.005 C 
ENDBRANCH  19  21
ENDBRANCH  18  19
BRANCH  18  23
HETATM   23  C37 UNL     1     -16.550  -2.724  17.774  1.00  0.00     0.163 C 
HETATM   24  O8  UNL     1     -16.467  -3.881  18.160  1.00  0.00    -0.648 OA
BRANCH  23  25
HETATM   25  O9  UNL     1     -16.405  -1.701  18.639  1.00  0.00    -0.775 OA
HETATM   26  H56 UNL     1     -16.192  -2.133  19.493  1.00  0.00     0.167 HD
ENDBRANCH  23  25
ENDBRANCH  18  23
ENDBRANCH  15  18
ENDBRANCH  13  14
ENDBRANCH  12  13
ENDBRANCH  11  12
ENDBRANCH  10  11
ENDBRANCH   9  10
ENDBRANCH   6   9
ENDBRANCH   4   5
ENDBRANCH   3   4
ENDBRANCH   1   3
BRANCH   1  27
HETATM   27  O4  UNL     1     -10.077   8.500  15.278  1.00  0.00    -0.314 OA
BRANCH  27  28
HETATM   28  C16 UNL     1      -8.667   8.569  15.109  1.00  0.00     0.260 C 
BRANCH  28  29
HETATM   29  C17 UNL     1      -7.851   7.314  14.771  1.00  0.00     0.185 C 
HETATM   30  O5  UNL     1      -8.413   6.339  14.258  1.00  0.00    -0.292 OA
BRANCH  29  31
HETATM   31  C18 UNL     1      -6.369   7.256  15.218  1.00  0.00     0.128 C 
HETATM   32  C19 UNL     1      -6.137   5.999  16.101  1.00  0.00     0.047 C 
HETATM   33  C20 UNL     1      -4.685   5.551  15.850  1.00  0.00     0.009 C 
HETATM   34  C21 UNL     1      -4.103   6.585  14.882  1.00  0.00     0.002 C 
HETATM   35  C22 UNL     1      -2.899   6.135  14.025  1.00  0.00    -0.004 C 
HETATM   36  C35 UNL     1      -5.325   7.057  14.061  1.00  0.00    -0.002 C 
HETATM   37  C23 UNL     1      -1.657   5.916  14.921  1.00  0.00     0.010 C 
HETATM   38  C32 UNL     1      -2.655   7.133  12.828  1.00  0.00     0.002 C 
HETATM   39  C24 UNL     1      -0.777   7.154  15.020  1.00  0.00     0.035 C 
HETATM   40  C25 UNL     1      -0.282   7.610  13.671  1.00  0.00    -0.068 C 
HETATM   41  C26 UNL     1       0.874   8.294  13.584  1.00  0.00     0.053 C 
HETATM   42  C30 UNL     1      -1.134   7.277  12.448  1.00  0.00    -0.016 C 
HETATM   43  C27 UNL     1       1.399   8.793  12.286  1.00  0.00     0.149 C 
HETATM   44  O7  UNL     1       2.503   9.333  12.254  1.00  0.00    -0.293 OA
HETATM   45  C28 UNL     1       0.570   8.591  11.040  1.00  0.00     0.084 C 
HETATM   46  C29 UNL     1      -0.904   8.391  11.384  1.00  0.00     0.022 C 
HETATM   47  C31 UNL     1      -0.654   5.935  11.825  1.00  0.00     0.020 C 
HETATM   48  C33 UNL     1      -3.404   8.474  13.057  1.00  0.00     0.007 C 
HETATM   49  C34 UNL     1      -4.924   8.315  13.261  1.00  0.00     0.013 C 
HETATM   50  C36 UNL     1      -5.796   5.973  13.050  1.00  0.00     0.019 C 
BRANCH  31  51
HETATM   51  O6  UNL     1      -6.050   8.357  16.075  1.00  0.00    -0.381 OA
HETATM   52  H29 UNL     1      -5.388   8.936  15.659  1.00  0.00     0.211 HD
ENDBRANCH  31  51
ENDBRANCH  29  31
ENDBRANCH  28  29
ENDBRANCH  27  28
ENDBRANCH   1  27
TORSDOF 19
ENDMDL
MODEL 3
REMARK minimizedAffinity -7.34834146
REMARK CNNscore 0.428009748
REMARK CNNaffinity 7.31636667
REMARK  19 active torsions:
REMARK  status: ('A' for Active; 'I' for Inactive)
REMARK    1  A    between atoms: C2_2  and  C3_3 
REMARK    2  A    between atoms: C3_3  and  C5_5 
REMARK    3  A    between atoms: C5_5  and  N1_6 
REMARK    4  A    between atoms: C5_5  and  C37_46 
REMARK       I    between atoms: N1_6  and  C6_7 
REMARK    5  A    between atoms: C6_7  and  C7_9 
REMARK    6  A    between atoms: C7_9  and  C8_10 
REMARK    7  A    between atoms: C8_10  and  C9_11 
REMARK    8  A    between atoms: C9_11  and  C10_12 
REMARK    9  A    between atoms: C10_12  and  C11_13 
REMARK   10  A    between atoms: C11_13  and  N2_14 
REMARK       I    between atoms: N2_14  and  C12_15 
REMARK   11  A    between atoms: C12_15  and  C13_17 
REMARK   12  A    between atoms: C13_17  and  C14_18 
REMARK   13  A    between atoms: C14_18  and  C15_19 
REMARK   14  A    between atoms: C15_19  and  O4_21 
REMARK   15  A    between atoms: O4_21  and  C16_22 
REMARK   16  A    between atoms: C16_22  and  C17_23 
REMARK   17  A    between atoms: C17_23  and  C18_25 
REMARK   18  A    between atoms: C18_25  and  O6_26 
REMARK   19  A    between atoms: C37_46  and  O9_48 
ROOT
HETATM    1  C15 UNL     1      -5.113   3.394  12.045  1.00  0.00     0.259 C 
HETATM    2  O3  UNL     1      -4.684   2.279  11.778  1.00  0.00    -0.265 OA
ENDROOT
BRANCH   1   3
HETATM    3  C14 UNL     1      -6.584   3.728  12.138  1.00  0.00     0.120 C 
BRANCH   3   4
HETATM    4  C13 UNL     1      -7.158   3.658  13.551  1.00  0.00     0.112 C 
BRANCH   4   5
HETATM    5  C12 UNL     1      -7.338   5.033  14.165  1.00  0.00     0.217 C 
HETATM    6  N2  UNL     1      -8.185   5.043  15.256  1.00  0.00    -0.361 N 
HETATM    7  H22 UNL     1      -8.352   4.162  15.725  1.00  0.00     0.162 HD
HETATM    8  O2  UNL     1      -6.807   6.042  13.715  1.00  0.00    -0.274 OA
BRANCH   6   9
HETATM    9  C11 UNL     1      -8.319   6.252  16.048  1.00  0.00     0.122 C 
BRANCH   9  10
HETATM   10  C10 UNL     1      -9.075   7.366  15.326  1.00  0.00     0.020 C 
BRANCH  10  11
HETATM   11  C9  UNL     1     -10.395   6.930  14.680  1.00  0.00     0.002 C 
BRANCH  11  12
HETATM   12  C8  UNL     1     -10.352   6.843  13.150  1.00  0.00     0.009 C 
BRANCH  12  13
HETATM   13  C7  UNL     1     -11.403   7.748  12.497  1.00  0.00     0.103 C 
BRANCH  13  14
HETATM   14  C6  UNL     1     -12.426   8.297  13.477  1.00  0.00     0.218 C 
HETATM   15  N1  UNL     1     -13.598   7.569  13.490  1.00  0.00    -0.346 N 
HETATM   16  H11 UNL     1     -13.525   6.610  13.169  1.00  0.00     0.163 HD
HETATM   17  O1  UNL     1     -12.225   9.271  14.194  1.00  0.00    -0.274 OA
BRANCH  15  18
HETATM   18  C5  UNL     1     -14.630   7.833  14.504  1.00  0.00     0.186 C 
BRANCH  18  19
HETATM   19  C3  UNL     1     -15.996   8.124  13.831  1.00  0.00     0.014 C 
HETATM   20  C4  UNL     1     -17.148   7.826  14.800  1.00  0.00     0.012 C 
BRANCH  19  21
HETATM   21  C2  UNL     1     -16.180   7.394  12.481  1.00  0.00     0.002 C 
HETATM   22  C1  UNL     1     -17.034   6.135  12.582  1.00  0.00     0.005 C 
ENDBRANCH  19  21
ENDBRANCH  18  19
BRANCH  18  23
HETATM   23  C37 UNL     1     -14.673   6.635  15.458  1.00  0.00     0.163 C 
HETATM   24  O8  UNL     1     -14.807   5.463  15.135  1.00  0.00    -0.648 OA
BRANCH  23  25
HETATM   25  O9  UNL     1     -14.584   6.981  16.757  1.00  0.00    -0.775 OA
HETATM   26  H56 UNL     1     -14.600   6.127  17.238  1.00  0.00     0.167 HD
ENDBRANCH  23  25
ENDBRANCH  18  23
ENDBRANCH  15  18
ENDBRANCH  13  14
ENDBRANCH  12  13
ENDBRANCH  11  12
ENDBRANCH  10  11
ENDBRANCH   9  10
ENDBRANCH   6   9
ENDBRANCH   4   5
ENDBRANCH   3   4
ENDBRANCH   1   3
BRANCH   1  27
HETATM   27  O4  UNL     1      -4.347   4.506  12.176  1.00  0.00    -0.314 OA
BRANCH  27  28
HETATM   28  C16 UNL     1      -3.401   4.457  13.237  1.00  0.00     0.260 C 
BRANCH  28  29
HETATM   29  C17 UNL     1      -2.187   5.396  13.256  1.00  0.00     0.185 C 
HETATM   30  O5  UNL     1      -1.046   4.918  13.285  1.00  0.00    -0.292 OA
BRANCH  29  31
HETATM   31  C18 UNL     1      -2.435   6.919  13.382  1.00  0.00     0.128 C 
HETATM   32  C19 UNL     1      -3.875   7.257  12.907  1.00  0.00     0.047 C 
HETATM   33  C20 UNL     1      -4.337   8.468  13.738  1.00  0.00     0.009 C 
HETATM   34  C21 UNL     1      -3.141   8.832  14.624  1.00  0.00     0.002 C 
HETATM   35  C22 UNL     1      -3.449   9.610  15.921  1.00  0.00    -0.004 C 
HETATM   36  C35 UNL     1      -2.419   7.483  14.849  1.00  0.00    -0.002 C 
HETATM   37  C23 UNL     1      -3.944  11.036  15.585  1.00  0.00     0.010 C 
HETATM   38  C32 UNL     1      -2.214   9.577  16.904  1.00  0.00     0.002 C 
HETATM   39  C24 UNL     1      -2.818  12.060  15.560  1.00  0.00     0.035 C 
HETATM   40  C25 UNL     1      -2.089  12.138  16.877  1.00  0.00    -0.068 C 
HETATM   41  C26 UNL     1      -1.472  13.282  17.230  1.00  0.00     0.053 C 
HETATM   42  C30 UNL     1      -2.076  10.891  17.760  1.00  0.00    -0.016 C 
HETATM   43  C27 UNL     1      -0.716  13.410  18.502  1.00  0.00     0.149 C 
HETATM   44  O7  UNL     1      -0.249  14.504  18.814  1.00  0.00    -0.293 OA
HETATM   45  C28 UNL     1      -0.572  12.196  19.389  1.00  0.00     0.084 C 
HETATM   46  C29 UNL     1      -0.759  10.906  18.592  1.00  0.00     0.022 C 
HETATM   47  C31 UNL     1      -3.260  10.950  18.766  1.00  0.00     0.020 C 
HETATM   48  C33 UNL     1      -0.922   9.138  16.164  1.00  0.00     0.007 C 
HETATM   49  C34 UNL     1      -1.035   7.765  15.471  1.00  0.00     0.013 C 
HETATM   50  C36 UNL     1      -3.207   6.561  15.821  1.00  0.00     0.019 C 
BRANCH  31  51
HETATM   51  O6  UNL     1      -1.586   7.651  12.493  1.00  0.00    -0.381 OA
HETATM   52  H29 UNL     1      -0.966   8.210  12.992  1.00  0.00     0.211 HD
ENDBRANCH  31  51
ENDBRANCH  29  31
ENDBRANCH  28  29
ENDBRANCH  27  28
ENDBRANCH   1  27
TORSDOF 19
ENDMDL
MODEL 4
REMARK minimizedAffinity -7.89912701
REMARK CNNscore 0.336461425
REMARK CNNaffinity 6.93909311
REMARK  19 active torsions:
REMARK  status: ('A' for Active; 'I' for Inactive)
REMARK    1  A    between atoms: C2_2  and  C3_3 
REMARK    2  A    between atoms: C3_3  and  C5_5 
REMARK    3  A    between atoms: C5_5  and  N1_6 
REMARK    4  A    between atoms: C5_5  and  C37_46 
REMARK       I    between atoms: N1_6  and  C6_7 
REMARK    5  A    between atoms: C6_7  and  C7_9 
REMARK    6  A    between atoms: C7_9  and  C8_10 
REMARK    7  A    between atoms: C8_10  and  C9_11 
REMARK    8  A    between atoms: C9_11  and  C10_12 
REMARK    9  A    between atoms: C10_12  and  C11_13 
REMARK   10  A    between atoms: C11_13  and  N2_14 
REMARK       I    between atoms: N2_14  and  C12_15 
REMARK   11  A    between atoms: C12_15  and  C13_17 
REMARK   12  A    between atoms: C13_17  and  C14_18 
REMARK   13  A    between atoms: C14_18  and  C15_19 
REMARK   14  A    between atoms: C15_19  and  O4_21 
REMARK   15  A    between atoms: O4_21  and  C16_22 
REMARK   16  A    between atoms: C16_22  and  C17_23 
REMARK   17  A    between atoms: C17_23  and  C18_25 
REMARK   18  A    between atoms: C18_25  and  O6_26 
REMARK   19  A    between atoms: C37_46  and  O9_48 
ROOT
HETATM    1  C15 UNL     1       2.811   8.983  14.003  1.00  0.00     0.259 C 
HETATM    2  O3  UNL     1       2.632   9.613  15.037  1.00  0.00    -0.265 OA
ENDROOT
BRANCH   1   3
HETATM    3  C14 UNL     1       4.040   9.122  13.136  1.00  0.00     0.120 C 
BRANCH   3   4
HETATM    4  C13 UNL     1       4.768   7.808  12.860  1.00  0.00     0.112 C 
BRANCH   4   5
HETATM    5  C12 UNL     1       6.189   7.817  13.391  1.00  0.00     0.217 C 
HETATM    6  N2  UNL     1       6.303   8.369  14.651  1.00  0.00    -0.361 N 
HETATM    7  H22 UNL     1       5.463   8.426  15.214  1.00  0.00     0.162 HD
HETATM    8  O2  UNL     1       7.147   7.402  12.748  1.00  0.00    -0.274 OA
BRANCH   6   9
HETATM    9  C11 UNL     1       7.569   8.293  15.355  1.00  0.00     0.122 C 
BRANCH   9  10
HETATM   10  C10 UNL     1       7.823   9.486  16.273  1.00  0.00     0.020 C 
BRANCH  10  11
HETATM   11  C9  UNL     1       9.060   9.353  17.170  1.00  0.00     0.002 C 
BRANCH  11  12
HETATM   12  C8  UNL     1       9.391  10.611  17.982  1.00  0.00     0.009 C 
BRANCH  12  13
HETATM   13  C7  UNL     1       8.168  11.143  18.736  1.00  0.00     0.103 C 
BRANCH  13  14
HETATM   14  C6  UNL     1       8.514  11.836  20.043  1.00  0.00     0.218 C 
HETATM   15  N1  UNL     1       7.691  12.910  20.312  1.00  0.00    -0.346 N 
HETATM   16  H11 UNL     1       6.784  12.895  19.860  1.00  0.00     0.163 HD
HETATM   17  O1  UNL     1       9.416  11.471  20.788  1.00  0.00    -0.274 OA
BRANCH  15  18
HETATM   18  C5  UNL     1       7.751  13.589  21.616  1.00  0.00     0.186 C 
BRANCH  18  19
HETATM   19  C3  UNL     1       6.922  12.815  22.674  1.00  0.00     0.014 C 
HETATM   20  C4  UNL     1       7.748  11.667  23.270  1.00  0.00     0.012 C 
BRANCH  19  21
HETATM   21  C2  UNL     1       5.558  12.321  22.140  1.00  0.00     0.002 C 
HETATM   22  C1  UNL     1       4.981  11.155  22.935  1.00  0.00     0.005 C 
ENDBRANCH  19  21
ENDBRANCH  18  19
BRANCH  18  23
HETATM   23  C37 UNL     1       9.226  13.741  22.001  1.00  0.00     0.163 C 
HETATM   24  O8  UNL     1      10.066  14.385  21.391  1.00  0.00    -0.648 OA
BRANCH  23  25
HETATM   25  O9  UNL     1       9.565  13.045  23.105  1.00  0.00    -0.775 OA
HETATM   26  H56 UNL     1      10.513  13.254  23.242  1.00  0.00     0.167 HD
ENDBRANCH  23  25
ENDBRANCH  18  23
ENDBRANCH  15  18
ENDBRANCH  13  14
ENDBRANCH  12  13
ENDBRANCH  11  12
ENDBRANCH  10  11
ENDBRANCH   9  10
ENDBRANCH   6   9
ENDBRANCH   4   5
ENDBRANCH   3   4
ENDBRANCH   1   3
BRANCH   1  27
HETATM   27  O4  UNL     1       1.891   8.169  13.425  1.00  0.00    -0.314 OA
BRANCH  27  28
HETATM   28  C16 UNL     1       0.689   8.005  14.168  1.00  0.00     0.260 C 
BRANCH  28  29
HETATM   29  C17 UNL     1      -0.593   8.746  13.767  1.00  0.00     0.185 C 
HETATM   30  O5  UNL     1      -0.703   9.953  14.012  1.00  0.00    -0.292 OA
BRANCH  29  31
HETATM   31  C18 UNL     1      -1.772   7.922  13.193  1.00  0.00     0.128 C 
HETATM   32  C19 UNL     1      -1.299   6.473  12.889  1.00  0.00     0.047 C 
HETATM   33  C20 UNL     1      -2.520   5.560  13.109  1.00  0.00     0.009 C 
HETATM   34  C21 UNL     1      -3.671   6.503  13.475  1.00  0.00     0.002 C 
HETATM   35  C22 UNL     1      -4.842   5.891  14.274  1.00  0.00    -0.004 C 
HETATM   36  C35 UNL     1      -2.972   7.689  14.180  1.00  0.00    -0.002 C 
HETATM   37  C23 UNL     1      -5.623   4.886  13.395  1.00  0.00     0.010 C 
HETATM   38  C32 UNL     1      -5.744   7.022  14.906  1.00  0.00     0.002 C 
HETATM   39  C24 UNL     1      -6.803   5.525  12.676  1.00  0.00     0.035 C 
HETATM   40  C25 UNL     1      -7.789   6.140  13.636  1.00  0.00    -0.068 C 
HETATM   41  C26 UNL     1      -9.082   6.256  13.278  1.00  0.00     0.053 C 
HETATM   42  C30 UNL     1      -7.264   6.621  14.988  1.00  0.00    -0.016 C 
HETATM   43  C27 UNL     1     -10.094   6.878  14.170  1.00  0.00     0.149 C 
HETATM   44  O7  UNL     1     -11.276   6.876  13.830  1.00  0.00    -0.293 OA
HETATM   45  C28 UNL     1      -9.642   7.467  15.486  1.00  0.00     0.084 C 
HETATM   46  C29 UNL     1      -8.154   7.812  15.453  1.00  0.00     0.022 C 
HETATM   47  C31 UNL     1      -7.418   5.488  16.042  1.00  0.00     0.020 C 
HETATM   48  C33 UNL     1      -5.463   8.397  14.242  1.00  0.00     0.007 C 
HETATM   49  C34 UNL     1      -3.988   8.842  14.324  1.00  0.00     0.013 C 
HETATM   50  C36 UNL     1      -2.473   7.304  15.601  1.00  0.00     0.019 C 
BRANCH  31  51
HETATM   51  O6  UNL     1      -2.185   8.436  11.922  1.00  0.00    -0.381 OA
HETATM   52  H29 UNL     1      -3.093   8.779  11.970  1.00  0.00     0.211 HD
ENDBRANCH  31  51
ENDBRANCH  29  31
ENDBRANCH  28  29
ENDBRANCH  27  28
ENDBRANCH   1  27
TORSDOF 19
ENDMDL
MODEL 5
REMARK minimizedAffinity -8.52396202
REMARK CNNscore 0.309874773
REMARK CNNaffinity 7.33735418
REMARK  19 active torsions:
REMARK  status: ('A' for Active; 'I' for Inactive)
REMARK    1  A    between atoms: C2_2  and  C3_3 
REMARK    2  A    between atoms: C3_3  and  C5_5 
REMARK    3  A    between atoms: C5_5  and  N1_6 
REMARK    4  A    between atoms: C5_5  and  C37_46 
REMARK       I    between atoms: N1_6  and  C6_7 
REMARK    5  A    between atoms: C6_7  and  C7_9 
REMARK    6  A    between atoms: C7_9  and  C8_10 
REMARK    7  A    between atoms: C8_10  and  C9_11 
REMARK    8  A    between atoms: C9_11  and  C10_12 
REMARK    9  A    between atoms: C10_12  and  C11_13 
REMARK   10  A    between atoms: C11_13  and  N2_14 
REMARK       I    between atoms: N2_14  and  C12_15 
REMARK   11  A    between atoms: C12_15  and  C13_17 
REMARK   12  A    between atoms: C13_17  and  C14_18 
REMARK   13  A    between atoms: C14_18  and  C15_19 
REMARK   14  A    between atoms: C15_19  and  O4_21 
REMARK   15  A    between atoms: O4_21  and  C16_22 
REMARK   16  A    between atoms: C16_22  and  C17_23 
REMARK   17  A    between atoms: C17_23  and  C18_25 
REMARK   18  A    between atoms: C18_25  and  O6_26 
REMARK   19  A    between atoms: C37_46  and  O9_48 
ROOT
HETATM    1  C15 UNL     1       2.152   8.596  16.334  1.00  0.00     0.259 C 
HETATM    2  O3  UNL     1       3.051   7.815  16.053  1.00  0.00    -0.265 OA
ENDROOT
BRANCH   1   3
HETATM    3  C14 UNL     1       2.379   9.939  16.988  1.00  0.00     0.120 C 
BRANCH   3   4
HETATM    4  C13 UNL     1       1.098  10.687  17.354  1.00  0.00     0.112 C 
BRANCH   4   5
HETATM    5  C12 UNL     1       0.887  10.762  18.854  1.00  0.00     0.217 C 
HETATM    6  N2  UNL     1       1.911  10.191  19.584  1.00  0.00    -0.361 N 
HETATM    7  H22 UNL     1       2.802  10.065  19.120  1.00  0.00     0.162 HD
HETATM    8  O2  UNL     1      -0.112  11.255  19.365  1.00  0.00    -0.274 OA
BRANCH   6   9
HETATM    9  C11 UNL     1       1.929  10.337  21.028  1.00  0.00     0.122 C 
BRANCH   9  10
HETATM   10  C10 UNL     1       1.894   9.004  21.771  1.00  0.00     0.020 C 
BRANCH  10  11
HETATM   11  C9  UNL     1       2.741   8.960  23.048  1.00  0.00     0.002 C 
BRANCH  11  12
HETATM   12  C8  UNL     1       4.170   9.487  22.878  1.00  0.00     0.009 C 
BRANCH  12  13
HETATM   13  C7  UNL     1       4.250  11.002  23.087  1.00  0.00     0.103 C 
BRANCH  13  14
HETATM   14  C6  UNL     1       5.320  11.677  22.246  1.00  0.00     0.218 C 
HETATM   15  N1  UNL     1       6.202  12.423  23.001  1.00  0.00    -0.346 N 
HETATM   16  H11 UNL     1       6.279  12.159  23.977  1.00  0.00     0.163 HD
HETATM   17  O1  UNL     1       5.404  11.557  21.029  1.00  0.00    -0.274 OA
BRANCH  15  18
HETATM   18  C5  UNL     1       7.411  12.994  22.389  1.00  0.00     0.186 C 
BRANCH  18  19
HETATM   19  C3  UNL     1       7.279  14.533  22.251  1.00  0.00     0.014 C 
HETATM   20  C4  UNL     1       8.661  15.179  22.084  1.00  0.00     0.012 C 
BRANCH  19  21
HETATM   21  C2  UNL     1       6.479  15.184  23.403  1.00  0.00     0.002 C 
HETATM   22  C1  UNL     1       5.860  16.526  23.030  1.00  0.00     0.005 C 
ENDBRANCH  19  21
ENDBRANCH  18  19
BRANCH  18  23
HETATM   23  C37 UNL     1       8.615  12.568  23.235  1.00  0.00     0.163 C 
HETATM   24  O8  UNL     1       9.342  13.311  23.879  1.00  0.00    -0.648 OA
BRANCH  23  25
HETATM   25  O9  UNL     1       8.857  11.243  23.192  1.00  0.00    -0.775 OA
HETATM   26  H56 UNL     1       9.625  11.116  23.788  1.00  0.00     0.167 HD
ENDBRANCH  23  25
ENDBRANCH  18  23
ENDBRANCH  15  18
ENDBRANCH  13  14
ENDBRANCH  12  13
ENDBRANCH  11  12
ENDBRANCH  10  11
ENDBRANCH   9  10
ENDBRANCH   6   9
ENDBRANCH   4   5
ENDBRANCH   3   4
ENDBRANCH   1   3
BRANCH   1  27
HETATM   27  O4  UNL     1       0.827   8.325  16.214  1.00  0.00    -0.314 OA
BRANCH  27  28
HETATM   28  C16 UNL     1       0.405   7.985  14.899  1.00  0.00     0.260 C 
BRANCH  28  29
HETATM   29  C17 UNL     1      -0.765   8.720  14.232  1.00  0.00     0.185 C 
HETATM   30  O5  UNL     1      -0.842   9.952  14.319  1.00  0.00    -0.292 OA
BRANCH  29  31
HETATM   31  C18 UNL     1      -1.895   7.877  13.590  1.00  0.00     0.128 C 
HETATM   32  C19 UNL     1      -1.409   6.415  13.391  1.00  0.00     0.047 C 
HETATM   33  C20 UNL     1      -2.652   5.517  13.538  1.00  0.00     0.009 C 
HETATM   34  C21 UNL     1      -3.823   6.480  13.760  1.00  0.00     0.002 C 
HETATM   35  C22 UNL     1      -5.066   5.907  14.476  1.00  0.00    -0.004 C 
HETATM   36  C35 UNL     1      -3.181   7.691  14.474  1.00  0.00    -0.002 C 
HETATM   37  C23 UNL     1      -5.773   4.870  13.573  1.00  0.00     0.010 C 
HETATM   38  C32 UNL     1      -6.011   7.068  14.977  1.00  0.00     0.002 C 
HETATM   39  C24 UNL     1      -6.879   5.482  12.726  1.00  0.00     0.035 C 
HETATM   40  C25 UNL     1      -7.942   6.142  13.567  1.00  0.00    -0.068 C 
HETATM   41  C26 UNL     1      -9.196   6.248  13.091  1.00  0.00     0.053 C 
HETATM   42  C30 UNL     1      -7.536   6.677  14.939  1.00  0.00    -0.016 C 
HETATM   43  C27 UNL     1     -10.279   6.911  13.862  1.00  0.00     0.149 C 
HETATM   44  O7  UNL     1     -11.426   6.899  13.417  1.00  0.00    -0.293 OA
HETATM   45  C28 UNL     1      -9.941   7.553  15.187  1.00  0.00     0.084 C 
HETATM   46  C29 UNL     1      -8.454   7.890  15.272  1.00  0.00     0.022 C 
HETATM   47  C31 UNL     1      -7.792   5.590  16.022  1.00  0.00     0.020 C 
HETATM   48  C33 UNL     1      -5.661   8.412  14.284  1.00  0.00     0.007 C 
HETATM   49  C34 UNL     1      -4.196   8.853  14.479  1.00  0.00     0.013 C 
HETATM   50  C36 UNL     1      -2.813   7.364  15.950  1.00  0.00     0.019 C 
BRANCH  31  51
HETATM   51  O6  UNL     1      -2.189   8.339  12.267  1.00  0.00    -0.381 OA
HETATM   52  H29 UNL     1      -3.095   8.688  12.219  1.00  0.00     0.211 HD
ENDBRANCH  31  51
ENDBRANCH  29  31
ENDBRANCH  28  29
ENDBRANCH  27  28
ENDBRANCH   1  27
TORSDOF 19
ENDMDL
MODEL 6
REMARK minimizedAffinity -8.61278725
REMARK CNNscore 0.304138064
REMARK CNNaffinity 7.08061409
REMARK  19 active torsions:
REMARK  status: ('A' for Active; 'I' for Inactive)
REMARK    1  A    between atoms: C2_2  and  C3_3 
REMARK    2  A    between atoms: C3_3  and  C5_5 
REMARK    3  A    between atoms: C5_5  and  N1_6 
REMARK    4  A    between atoms: C5_5  and  C37_46 
REMARK       I    between atoms: N1_6  and  C6_7 
REMARK    5  A    between atoms: C6_7  and  C7_9 
REMARK    6  A    between atoms: C7_9  and  C8_10 
REMARK    7  A    between atoms: C8_10  and  C9_11 
REMARK    8  A    between atoms: C9_11  and  C10_12 
REMARK    9  A    between atoms: C10_12  and  C11_13 
REMARK   10  A    between atoms: C11_13  and  N2_14 
REMARK       I    between atoms: N2_14  and  C12_15 
REMARK   11  A    between atoms: C12_15  and  C13_17 
REMARK   12  A    between atoms: C13_17  and  C14_18 
REMARK   13  A    between atoms: C14_18  and  C15_19 
REMARK   14  A    between atoms: C15_19  and  O4_21 
REMARK   15  A    between atoms: O4_21  and  C16_22 
REMARK   16  A    between atoms: C16_22  and  C17_23 
REMARK   17  A    between atoms: C17_23  and  C18_25 
REMARK   18  A    between atoms: C18_25  and  O6_26 
REMARK   19  A    between atoms: C37_46  and  O9_48 
ROOT
HETATM    1  C15 UNL     1       2.249   5.928   9.744  1.00  0.00     0.259 C 
HETATM    2  O3  UNL     1       2.449   5.762   8.548  1.00  0.00    -0.265 OA
ENDROOT
BRANCH   1   3
HETATM    3  C14 UNL     1       3.342   6.202  10.749  1.00  0.00     0.120 C 
BRANCH   3   4
HETATM    4  C13 UNL     1       4.741   5.802  10.284  1.00  0.00     0.112 C 
BRANCH   4   5
HETATM    5  C12 UNL     1       5.830   6.509  11.068  1.00  0.00     0.217 C 
HETATM    6  N2  UNL     1       5.493   6.751  12.385  1.00  0.00    -0.361 N 
HETATM    7  H22 UNL     1       4.742   6.200  12.784  1.00  0.00     0.162 HD
HETATM    8  O2  UNL     1       6.893   6.860  10.570  1.00  0.00    -0.274 OA
BRANCH   6   9
HETATM    9  C11 UNL     1       6.495   7.267  13.298  1.00  0.00     0.122 C 
BRANCH   9  10
HETATM   10  C10 UNL     1       5.909   8.127  14.416  1.00  0.00     0.020 C 
BRANCH  10  11
HETATM   11  C9  UNL     1       6.917   8.559  15.487  1.00  0.00     0.002 C 
BRANCH  11  12
HETATM   12  C8  UNL     1       8.344   8.047  15.256  1.00  0.00     0.009 C 
BRANCH  12  13
HETATM   13  C7  UNL     1       9.222   8.223  16.499  1.00  0.00     0.103 C 
BRANCH  13  14
HETATM   14  C6  UNL     1       9.824   9.612  16.626  1.00  0.00     0.218 C 
HETATM   15  N1  UNL     1       9.882  10.052  17.933  1.00  0.00    -0.346 N 
HETATM   16  H11 UNL     1       9.882   9.328  18.642  1.00  0.00     0.163 HD
HETATM   17  O1  UNL     1      10.232  10.266  15.673  1.00  0.00    -0.274 OA
BRANCH  15  18
HETATM   18  C5  UNL     1      10.600  11.289  18.274  1.00  0.00     0.186 C 
BRANCH  18  19
HETATM   19  C3  UNL     1       9.641  12.316  18.929  1.00  0.00     0.014 C 
HETATM   20  C4  UNL     1      10.432  13.492  19.517  1.00  0.00     0.012 C 
BRANCH  19  21
HETATM   21  C2  UNL     1       8.692  11.686  19.974  1.00  0.00     0.002 C 
HETATM   22  C1  UNL     1       8.903  12.219  21.386  1.00  0.00     0.005 C 
ENDBRANCH  19  21
ENDBRANCH  18  19
BRANCH  18  23
HETATM   23  C37 UNL     1      11.785  10.915  19.171  1.00  0.00     0.163 C 
HETATM   24  O8  UNL     1      11.841  11.056  20.384  1.00  0.00    -0.648 OA
BRANCH  23  25
HETATM   25  O9  UNL     1      12.838  10.424  18.489  1.00  0.00    -0.775 OA
HETATM   26  H56 UNL     1      13.498  10.210  19.182  1.00  0.00     0.167 HD
ENDBRANCH  23  25
ENDBRANCH  18  23
ENDBRANCH  15  18
ENDBRANCH  13  14
ENDBRANCH  12  13
ENDBRANCH  11  12
ENDBRANCH  10  11
ENDBRANCH   9  10
ENDBRANCH   6   9
ENDBRANCH   4   5
ENDBRANCH   3   4
ENDBRANCH   1   3
BRANCH   1  27
HETATM   27  O4  UNL     1       1.046   5.774  10.354  1.00  0.00    -0.314 OA
BRANCH  27  28
HETATM   28  C16 UNL     1       1.112   5.579  11.761  1.00  0.00     0.260 C 
BRANCH  28  29
HETATM   29  C17 UNL     1      -0.105   5.858  12.654  1.00  0.00     0.185 C 
HETATM   30  O5  UNL     1       0.059   6.371  13.767  1.00  0.00    -0.292 OA
BRANCH  29  31
HETATM   31  C18 UNL     1      -1.492   5.353  12.187  1.00  0.00     0.128 C 
HETATM   32  C19 UNL     1      -1.451   3.812  11.991  1.00  0.00     0.047 C 
HETATM   33  C20 UNL     1      -2.862   3.291  12.323  1.00  0.00     0.009 C 
HETATM   34  C21 UNL     1      -3.690   4.540  12.643  1.00  0.00     0.002 C 
HETATM   35  C22 UNL     1      -4.941   4.335  13.525  1.00  0.00    -0.004 C 
HETATM   36  C35 UNL     1      -2.658   5.533  13.225  1.00  0.00    -0.002 C 
HETATM   37  C23 UNL     1      -6.011   3.525  12.758  1.00  0.00     0.010 C 
HETATM   38  C32 UNL     1      -5.465   5.714  14.087  1.00  0.00     0.002 C 
HETATM   39  C24 UNL     1      -7.007   4.412  12.024  1.00  0.00     0.035 C 
HETATM   40  C25 UNL     1      -7.736   5.344  12.958  1.00  0.00    -0.068 C 
HETATM   41  C26 UNL     1      -8.965   5.787  12.631  1.00  0.00     0.053 C 
HETATM   42  C30 UNL     1      -7.030   5.757  14.248  1.00  0.00    -0.016 C 
HETATM   43  C27 UNL     1      -9.720   6.727  13.498  1.00  0.00     0.149 C 
HETATM   44  O7  UNL     1     -10.874   7.028  13.194  1.00  0.00    -0.293 OA
HETATM   45  C28 UNL     1      -9.056   7.261  14.745  1.00  0.00     0.084 C 
HETATM   46  C29 UNL     1      -7.535   7.178  14.639  1.00  0.00     0.022 C 
HETATM   47  C31 UNL     1      -7.433   4.790  15.398  1.00  0.00     0.020 C 
HETATM   48  C33 UNL     1      -4.853   6.906  13.303  1.00  0.00     0.007 C 
HETATM   49  C34 UNL     1      -3.311   6.930  13.303  1.00  0.00     0.013 C 
HETATM   50  C36 UNL     1      -2.210   5.128  14.658  1.00  0.00     0.019 C 
BRANCH  31  51
HETATM   51  O6  UNL     1      -1.815   5.868  10.891  1.00  0.00    -0.381 OA
HETATM   52  H29 UNL     1      -2.591   6.452  10.936  1.00  0.00     0.211 HD
ENDBRANCH  31  51
ENDBRANCH  29  31
ENDBRANCH  28  29
ENDBRANCH  27  28
ENDBRANCH   1  27
TORSDOF 19
ENDMDL
MODEL 7
REMARK minimizedAffinity -7.87487555
REMARK CNNscore 0.290097088
REMARK CNNaffinity 6.4225831
REMARK  19 active torsions:
REMARK  status: ('A' for Active; 'I' for Inactive)
REMARK    1  A    between atoms: C2_2  and  C3_3 
REMARK    2  A    between atoms: C3_3  and  C5_5 
REMARK    3  A    between atoms: C5_5  and  N1_6 
REMARK    4  A    between atoms: C5_5  and  C37_46 
REMARK       I    between atoms: N1_6  and  C6_7 
REMARK    5  A    between atoms: C6_7  and  C7_9 
REMARK    6  A    between atoms: C7_9  and  C8_10 
REMARK    7  A    between atoms: C8_10  and  C9_11 
REMARK    8  A    between atoms: C9_11  and  C10_12 
REMARK    9  A    between atoms: C10_12  and  C11_13 
REMARK   10  A    between atoms: C11_13  and  N2_14 
REMARK       I    between atoms: N2_14  and  C12_15 
REMARK   11  A    between atoms: C12_15  and  C13_17 
REMARK   12  A    between atoms: C13_17  and  C14_18 
REMARK   13  A    between atoms: C14_18  and  C15_19 
REMARK   14  A    between atoms: C15_19  and  O4_21 
REMARK   15  A    between atoms: O4_21  and  C16_22 
REMARK   16  A    between atoms: C16_22  and  C17_23 
REMARK   17  A    between atoms: C17_23  and  C18_25 
REMARK   18  A    between atoms: C18_25  and  O6_26 
REMARK   19  A    between atoms: C37_46  and  O9_48 
ROOT
HETATM    1  C15 UNL     1       2.816   8.199   8.115  1.00  0.00     0.259 C 
HETATM    2  O3  UNL     1       3.256   9.151   7.484  1.00  0.00    -0.265 OA
ENDROOT
BRANCH   1   3
HETATM    3  C14 UNL     1       1.377   7.744   8.054  1.00  0.00     0.120 C 
BRANCH   3   4
HETATM    4  C13 UNL     1       0.550   8.100   9.287  1.00  0.00     0.112 C 
BRANCH   4   5
HETATM    5  C12 UNL     1       0.556   6.991  10.322  1.00  0.00     0.217 C 
HETATM    6  N2  UNL     1       0.232   7.421  11.593  1.00  0.00    -0.361 N 
HETATM    7  H22 UNL     1      -0.259   8.302  11.677  1.00  0.00     0.162 HD
HETATM    8  O2  UNL     1       0.852   5.831  10.057  1.00  0.00    -0.274 OA
BRANCH   6   9
HETATM    9  C11 UNL     1       0.032   6.447  12.650  1.00  0.00     0.122 C 
BRANCH   9  10
HETATM   10  C10 UNL     1      -1.172   6.756  13.537  1.00  0.00     0.020 C 
BRANCH  10  11
HETATM   11  C9  UNL     1      -2.341   7.437  12.816  1.00  0.00     0.002 C 
BRANCH  11  12
HETATM   12  C8  UNL     1      -3.307   8.184  13.742  1.00  0.00     0.009 C 
BRANCH  12  13
HETATM   13  C7  UNL     1      -4.762   8.041  13.285  1.00  0.00     0.103 C 
BRANCH  13  14
HETATM   14  C6  UNL     1      -5.604   7.167  14.200  1.00  0.00     0.218 C 
HETATM   15  N1  UNL     1      -6.676   6.590  13.550  1.00  0.00    -0.346 N 
HETATM   16  H11 UNL     1      -6.584   6.497  12.545  1.00  0.00     0.163 HD
HETATM   17  O1  UNL     1      -5.348   6.979  15.384  1.00  0.00    -0.274 OA
BRANCH  15  18
HETATM   18  C5  UNL     1      -7.493   5.568  14.221  1.00  0.00     0.186 C 
BRANCH  18  19
HETATM   19  C3  UNL     1      -8.987   5.985  14.236  1.00  0.00     0.014 C 
HETATM   20  C4  UNL     1      -9.410   6.518  12.860  1.00  0.00     0.012 C 
BRANCH  19  21
HETATM   21  C2  UNL     1      -9.332   6.981  15.367  1.00  0.00     0.002 C 
HETATM   22  C1  UNL     1      -9.904   8.300  14.861  1.00  0.00     0.005 C 
ENDBRANCH  19  21
ENDBRANCH  18  19
BRANCH  18  23
HETATM   23  C37 UNL     1      -7.250   4.230  13.514  1.00  0.00     0.163 C 
HETATM   24  O8  UNL     1      -6.253   3.926  12.875  1.00  0.00    -0.648 OA
BRANCH  23  25
HETATM   25  O9  UNL     1      -8.284   3.374  13.619  1.00  0.00    -0.775 OA
HETATM   26  H56 UNL     1      -7.982   2.568  13.149  1.00  0.00     0.167 HD
ENDBRANCH  23  25
ENDBRANCH  18  23
ENDBRANCH  15  18
ENDBRANCH  13  14
ENDBRANCH  12  13
ENDBRANCH  11  12
ENDBRANCH  10  11
ENDBRANCH   9  10
ENDBRANCH   6   9
ENDBRANCH   4   5
ENDBRANCH   3   4
ENDBRANCH   1   3
BRANCH   1  27
HETATM   27  O4  UNL     1       3.516   7.495   9.040  1.00  0.00    -0.314 OA
BRANCH  27  28
HETATM   28  C16 UNL     1       4.312   8.285   9.914  1.00  0.00     0.260 C 
BRANCH  28  29
HETATM   29  C17 UNL     1       3.964   8.407  11.404  1.00  0.00     0.185 C 
HETATM   30  O5  UNL     1       2.894   8.929  11.739  1.00  0.00    -0.292 OA
BRANCH  29  31
HETATM   31  C18 UNL     1       5.034   8.001  12.447  1.00  0.00     0.128 C 
HETATM   32  C19 UNL     1       5.990   6.942  11.832  1.00  0.00     0.047 C 
HETATM   33  C20 UNL     1       7.366   7.163  12.485  1.00  0.00     0.009 C 
HETATM   34  C21 UNL     1       7.159   8.297  13.494  1.00  0.00     0.002 C 
HETATM   35  C22 UNL     1       8.410   9.108  13.894  1.00  0.00    -0.004 C 
HETATM   36  C35 UNL     1       6.023   9.144  12.875  1.00  0.00    -0.002 C 
HETATM   37  C23 UNL     1       9.379   8.227  14.716  1.00  0.00     0.010 C 
HETATM   38  C32 UNL     1       8.003  10.453  14.613  1.00  0.00     0.002 C 
HETATM   39  C24 UNL     1       9.156   8.348  16.217  1.00  0.00     0.035 C 
HETATM   40  C25 UNL     1       9.315   9.765  16.705  1.00  0.00    -0.068 C 
HETATM   41  C26 UNL     1       9.686   9.992  17.979  1.00  0.00     0.053 C 
HETATM   42  C30 UNL     1       9.034  10.896  15.717  1.00  0.00    -0.016 C 
HETATM   43  C27 UNL     1       9.834  11.366  18.524  1.00  0.00     0.149 C 
HETATM   44  O7  UNL     1      10.262  11.515  19.668  1.00  0.00    -0.293 OA
HETATM   45  C28 UNL     1       9.482  12.541  17.643  1.00  0.00     0.084 C 
HETATM   46  C29 UNL     1       8.527  12.126  16.527  1.00  0.00     0.022 C 
HETATM   47  C31 UNL     1      10.356  11.317  15.014  1.00  0.00     0.020 C 
HETATM   48  C33 UNL     1       6.522  10.413  15.077  1.00  0.00     0.007 C 
HETATM   49  C34 UNL     1       5.517  10.140  13.940  1.00  0.00     0.013 C 
HETATM   50  C36 UNL     1       6.516   9.960  11.646  1.00  0.00     0.019 C 
BRANCH  31  51
HETATM   51  O6  UNL     1       4.434   7.335  13.563  1.00  0.00    -0.381 OA
HETATM   52  H29 UNL     1       4.549   7.855  14.376  1.00  0.00     0.211 HD
ENDBRANCH  31  51
ENDBRANCH  29  31
ENDBRANCH  28  29
ENDBRANCH  27  28
ENDBRANCH   1  27
TORSDOF 19
ENDMDL
MODEL 8
REMARK minimizedAffinity -8.25792599
REMARK CNNscore 0.280779332
REMARK CNNaffinity 6.79933119
REMARK  19 active torsions:
REMARK  status: ('A' for Active; 'I' for Inactive)
REMARK    1  A    between atoms: C2_2  and  C3_3 
REMARK    2  A    between atoms: C3_3  and  C5_5 
REMARK    3  A    between atoms: C5_5  and  N1_6 
REMARK    4  A    between atoms: C5_5  and  C37_46 
REMARK       I    between atoms: N1_6  and  C6_7 
REMARK    5  A    between atoms: C6_7  and  C7_9 
REMARK    6  A    between atoms: C7_9  and  C8_10 
REMARK    7  A    between atoms: C8_10  and  C9_11 
REMARK    8  A    between atoms: C9_11  and  C10_12 
REMARK    9  A    between atoms: C10_12  and  C11_13 
REMARK   10  A    between atoms: C11_13  and  N2_14 
REMARK       I    between atoms: N2_14  and  C12_15 
REMARK   11  A    between atoms: C12_15  and  C13_17 
REMARK   12  A    between atoms: C13_17  and  C14_18 
REMARK   13  A    between atoms: C14_18  and  C15_19 
REMARK   14  A    between atoms: C15_19  and  O4_21 
REMARK   15  A    between atoms: O4_21  and  C16_22 
REMARK   16  A    between atoms: C16_22  and  C17_23 
REMARK   17  A    between atoms: C17_23  and  C18_25 
REMARK   18  A    between atoms: C18_25  and  O6_26 
REMARK   19  A    between atoms: C37_46  and  O9_48 
ROOT
HETATM    1  C15 UNL     1       4.936   7.065  11.155  1.00  0.00     0.259 C 
HETATM    2  O3  UNL     1       5.805   6.861  10.317  1.00  0.00    -0.265 OA
ENDROOT
BRANCH   1   3
HETATM    3  C14 UNL     1       5.159   7.860  12.420  1.00  0.00     0.120 C 
BRANCH   3   4
HETATM    4  C13 UNL     1       6.578   7.771  12.979  1.00  0.00     0.112 C 
BRANCH   4   5
HETATM    5  C12 UNL     1       6.612   7.944  14.486  1.00  0.00     0.217 C 
HETATM    6  N2  UNL     1       7.837   8.363  14.965  1.00  0.00    -0.361 N 
HETATM    7  H22 UNL     1       8.472   8.799  14.307  1.00  0.00     0.162 HD
HETATM    8  O2  UNL     1       5.652   7.703  15.209  1.00  0.00    -0.274 OA
BRANCH   6   9
HETATM    9  C11 UNL     1       7.972   8.732  16.361  1.00  0.00     0.122 C 
BRANCH   9  10
HETATM   10  C10 UNL     1       8.445  10.170  16.563  1.00  0.00     0.020 C 
BRANCH  10  11
HETATM   11  C9  UNL     1       9.489  10.352  17.671  1.00  0.00     0.002 C 
BRANCH  11  12
HETATM   12  C8  UNL     1       8.933  10.936  18.975  1.00  0.00     0.009 C 
BRANCH  12  13
HETATM   13  C7  UNL     1       8.243  12.285  18.748  1.00  0.00     0.103 C 
BRANCH  13  14
HETATM   14  C6  UNL     1       8.051  13.091  20.022  1.00  0.00     0.218 C 
HETATM   15  N1  UNL     1       7.444  12.365  21.027  1.00  0.00    -0.346 N 
HETATM   16  H11 UNL     1       7.533  11.358  20.959  1.00  0.00     0.163 HD
HETATM   17  O1  UNL     1       8.413  14.254  20.151  1.00  0.00    -0.274 OA
BRANCH  15  18
HETATM   18  C5  UNL     1       7.344  12.914  22.388  1.00  0.00     0.186 C 
BRANCH  18  19
HETATM   19  C3  UNL     1       5.967  12.574  23.014  1.00  0.00     0.014 C 
HETATM   20  C4  UNL     1       5.321  11.389  22.284  1.00  0.00     0.012 C 
BRANCH  19  21
HETATM   21  C2  UNL     1       5.013  13.789  23.090  1.00  0.00     0.002 C 
HETATM   22  C1  UNL     1       5.737  15.130  23.092  1.00  0.00     0.005 C 
ENDBRANCH  19  21
ENDBRANCH  18  19
BRANCH  18  23
HETATM   23  C37 UNL     1       8.524  12.374  23.202  1.00  0.00     0.163 C 
HETATM   24  O8  UNL     1       8.767  11.196  23.424  1.00  0.00    -0.648 OA
BRANCH  23  25
HETATM   25  O9  UNL     1       9.304  13.343  23.720  1.00  0.00    -0.775 OA
HETATM   26  H56 UNL     1      10.018  12.857  24.186  1.00  0.00     0.167 HD
ENDBRANCH  23  25
ENDBRANCH  18  23
ENDBRANCH  15  18
ENDBRANCH  13  14
ENDBRANCH  12  13
ENDBRANCH  11  12
ENDBRANCH  10  11
ENDBRANCH   9  10
ENDBRANCH   6   9
ENDBRANCH   4   5
ENDBRANCH   3   4
ENDBRANCH   1   3
BRANCH   1  27
HETATM   27  O4  UNL     1       3.696   6.515  11.132  1.00  0.00    -0.314 OA
BRANCH  27  28
HETATM   28  C16 UNL     1       2.812   6.992  12.138  1.00  0.00     0.260 C 
BRANCH  28  29
HETATM   29  C17 UNL     1       1.470   7.637  11.768  1.00  0.00     0.185 C 
HETATM   30  O5  UNL     1       1.391   8.867  11.663  1.00  0.00    -0.292 OA
BRANCH  29  31
HETATM   31  C18 UNL     1       0.217   6.731  11.679  1.00  0.00     0.128 C 
HETATM   32  C19 UNL     1       0.626   5.248  11.897  1.00  0.00     0.047 C 
HETATM   33  C20 UNL     1      -0.573   4.559  12.575  1.00  0.00     0.009 C 
HETATM   34  C21 UNL     1      -1.656   5.638  12.678  1.00  0.00     0.002 C 
HETATM   35  C22 UNL     1      -2.730   5.442  13.769  1.00  0.00    -0.004 C 
HETATM   36  C35 UNL     1      -0.858   6.956  12.803  1.00  0.00    -0.002 C 
HETATM   37  C23 UNL     1      -3.628   4.230  13.425  1.00  0.00     0.010 C 
HETATM   38  C32 UNL     1      -3.530   6.779  14.019  1.00  0.00     0.002 C 
HETATM   39  C24 UNL     1      -4.877   4.624  12.649  1.00  0.00     0.035 C 
HETATM   40  C25 UNL     1      -5.729   5.612  13.404  1.00  0.00    -0.068 C 
HETATM   41  C26 UNL     1      -7.053   5.664  13.169  1.00  0.00     0.053 C 
HETATM   42  C30 UNL     1      -5.035   6.531  14.409  1.00  0.00    -0.016 C 
HETATM   43  C27 UNL     1      -7.939   6.634  13.863  1.00  0.00     0.149 C 
HETATM   44  O7  UNL     1      -9.154   6.576  13.677  1.00  0.00    -0.293 OA
HETATM   45  C28 UNL     1      -7.321   7.643  14.801  1.00  0.00     0.084 C 
HETATM   46  C29 UNL     1      -5.843   7.860  14.481  1.00  0.00     0.022 C 
HETATM   47  C31 UNL     1      -5.077   5.886  15.823  1.00  0.00     0.020 C 
HETATM   48  C33 UNL     1      -3.311   7.786  12.858  1.00  0.00     0.007 C 
HETATM   49  C34 UNL     1      -1.831   8.139  12.608  1.00  0.00     0.013 C 
HETATM   50  C36 UNL     1      -0.195   7.101  14.202  1.00  0.00     0.019 C 
BRANCH  31  51
HETATM   51  O6  UNL     1      -0.340   6.756  10.360  1.00  0.00    -0.381 OA
HETATM   52  H29 UNL     1      -1.231   7.147  10.371  1.00  0.00     0.211 HD
ENDBRANCH  31  51
ENDBRANCH  29  31
ENDBRANCH  28  29
ENDBRANCH  27  28
ENDBRANCH   1  27
TORSDOF 19
ENDMDL
MODEL 9
REMARK minimizedAffinity -7.53035927
REMARK CNNscore 0.232740447
REMARK CNNaffinity 6.9803853
REMARK  19 active torsions:
REMARK  status: ('A' for Active; 'I' for Inactive)
REMARK    1  A    between atoms: C2_2  and  C3_3 
REMARK    2  A    between atoms: C3_3  and  C5_5 
REMARK    3  A    between atoms: C5_5  and  N1_6 
REMARK    4  A    between atoms: C5_5  and  C37_46 
REMARK       I    between atoms: N1_6  and  C6_7 
REMARK    5  A    between atoms: C6_7  and  C7_9 
REMARK    6  A    between atoms: C7_9  and  C8_10 
REMARK    7  A    between atoms: C8_10  and  C9_11 
REMARK    8  A    between atoms: C9_11  and  C10_12 
REMARK    9  A    between atoms: C10_12  and  C11_13 
REMARK   10  A    between atoms: C11_13  and  N2_14 
REMARK       I    between atoms: N2_14  and  C12_15 
REMARK   11  A    between atoms: C12_15  and  C13_17 
REMARK   12  A    between atoms: C13_17  and  C14_18 
REMARK   13  A    between atoms: C14_18  and  C15_19 
REMARK   14  A    between atoms: C15_19  and  O4_21 
REMARK   15  A    between atoms: O4_21  and  C16_22 
REMARK   16  A    between atoms: C16_22  and  C17_23 
REMARK   17  A    between atoms: C17_23  and  C18_25 
REMARK   18  A    between atoms: C18_25  and  O6_26 
REMARK   19  A    between atoms: C37_46  and  O9_48 
ROOT
HETATM    1  C15 UNL     1      -8.711   8.306  15.056  1.00  0.00     0.259 C 
HETATM    2  O3  UNL     1      -8.467   9.495  15.211  1.00  0.00    -0.265 OA
ENDROOT
BRANCH   1   3
HETATM    3  C14 UNL     1     -10.087   7.703  15.213  1.00  0.00     0.120 C 
BRANCH   3   4
HETATM    4  C13 UNL     1     -11.190   8.444  14.460  1.00  0.00     0.112 C 
BRANCH   4   5
HETATM    5  C12 UNL     1     -12.218   7.497  13.870  1.00  0.00     0.217 C 
HETATM    6  N2  UNL     1     -12.663   6.541  14.762  1.00  0.00    -0.361 N 
HETATM    7  H22 UNL     1     -12.528   6.725  15.749  1.00  0.00     0.162 HD
HETATM    8  O2  UNL     1     -12.592   7.557  12.704  1.00  0.00    -0.274 OA
BRANCH   6   9
HETATM    9  C11 UNL     1     -13.767   5.676  14.393  1.00  0.00     0.122 C 
BRANCH   9  10
HETATM   10  C10 UNL     1     -15.130   6.360  14.487  1.00  0.00     0.020 C 
BRANCH  10  11
HETATM   11  C9  UNL     1     -15.930   6.375  13.180  1.00  0.00     0.002 C 
BRANCH  11  12
HETATM   12  C8  UNL     1     -17.265   5.624  13.248  1.00  0.00     0.009 C 
BRANCH  12  13
HETATM   13  C7  UNL     1     -17.559   5.105  14.659  1.00  0.00     0.103 C 
BRANCH  13  14
HETATM   14  C6  UNL     1     -17.660   3.591  14.741  1.00  0.00     0.218 C 
HETATM   15  N1  UNL     1     -16.827   2.951  13.846  1.00  0.00    -0.346 N 
HETATM   16  H11 UNL     1     -16.026   3.485  13.528  1.00  0.00     0.163 HD
HETATM   17  O1  UNL     1     -18.388   3.001  15.530  1.00  0.00    -0.274 OA
BRANCH  15  18
HETATM   18  C5  UNL     1     -16.648   1.492  13.905  1.00  0.00     0.186 C 
BRANCH  18  19
HETATM   19  C3  UNL     1     -16.428   0.910  12.484  1.00  0.00     0.014 C 
HETATM   20  C4  UNL     1     -17.773   0.693  11.778  1.00  0.00     0.012 C 
BRANCH  19  21
HETATM   21  C2  UNL     1     -15.563  -0.371  12.476  1.00  0.00     0.002 C 
HETATM   22  C1  UNL     1     -16.379  -1.655  12.376  1.00  0.00     0.005 C 
ENDBRANCH  19  21
ENDBRANCH  18  19
BRANCH  18  23
HETATM   23  C37 UNL     1     -15.488   1.198  14.861  1.00  0.00     0.163 C 
HETATM   24  O8  UNL     1     -14.419   1.790  14.899  1.00  0.00    -0.648 OA
BRANCH  23  25
HETATM   25  O9  UNL     1     -15.724   0.156  15.683  1.00  0.00    -0.775 OA
HETATM   26  H56 UNL     1     -14.920   0.102  16.243  1.00  0.00     0.167 HD
ENDBRANCH  23  25
ENDBRANCH  18  23
ENDBRANCH  15  18
ENDBRANCH  13  14
ENDBRANCH  12  13
ENDBRANCH  11  12
ENDBRANCH  10  11
ENDBRANCH   9  10
ENDBRANCH   6   9
ENDBRANCH   4   5
ENDBRANCH   3   4
ENDBRANCH   1   3
BRANCH   1  27
HETATM   27  O4  UNL     1      -7.775   7.347  14.840  1.00  0.00    -0.314 OA
BRANCH  27  28
HETATM   28  C16 UNL     1      -6.777   7.249  15.849  1.00  0.00     0.260 C 
BRANCH  28  29
HETATM   29  C17 UNL     1      -5.365   7.803  15.618  1.00  0.00     0.185 C 
HETATM   30  O5  UNL     1      -5.149   9.010  15.777  1.00  0.00    -0.292 OA
BRANCH  29  31
HETATM   31  C18 UNL     1      -4.284   6.851  15.050  1.00  0.00     0.128 C 
HETATM   32  C19 UNL     1      -4.964   5.674  14.297  1.00  0.00     0.047 C 
HETATM   33  C20 UNL     1      -4.007   5.270  13.161  1.00  0.00     0.009 C 
HETATM   34  C21 UNL     1      -2.783   6.177  13.321  1.00  0.00     0.002 C 
HETATM   35  C22 UNL     1      -1.921   6.408  12.060  1.00  0.00    -0.004 C 
HETATM   36  C35 UNL     1      -3.355   7.470  13.945  1.00  0.00    -0.002 C 
HETATM   37  C23 UNL     1      -1.202   5.100  11.656  1.00  0.00     0.010 C 
HETATM   38  C32 UNL     1      -0.950   7.636  12.260  1.00  0.00     0.002 C 
HETATM   39  C24 UNL     1       0.192   4.984  12.256  1.00  0.00     0.035 C 
HETATM   40  C25 UNL     1       1.084   6.129  11.850  1.00  0.00    -0.068 C 
HETATM   41  C26 UNL     1       2.418   5.952  11.811  1.00  0.00     0.053 C 
HETATM   42  C30 UNL     1       0.422   7.463  11.506  1.00  0.00    -0.016 C 
HETATM   43  C27 UNL     1       3.349   7.050  11.444  1.00  0.00     0.149 C 
HETATM   44  O7  UNL     1       4.550   6.807  11.338  1.00  0.00    -0.293 OA
HETATM   45  C28 UNL     1       2.784   8.427  11.184  1.00  0.00     0.084 C 
HETATM   46  C29 UNL     1       1.425   8.601  11.857  1.00  0.00     0.022 C 
HETATM   47  C31 UNL     1       0.155   7.535   9.976  1.00  0.00     0.020 C 
HETATM   48  C33 UNL     1      -0.830   8.016  13.761  1.00  0.00     0.007 C 
HETATM   49  C34 UNL     1      -2.179   8.343  14.432  1.00  0.00     0.013 C 
HETATM   50  C36 UNL     1      -4.174   8.296  12.912  1.00  0.00     0.019 C 
BRANCH  31  51
HETATM   51  O6  UNL     1      -3.551   6.221  16.107  1.00  0.00    -0.381 OA
HETATM   52  H29 UNL     1      -2.618   6.494  16.087  1.00  0.00     0.211 HD
ENDBRANCH  31  51
ENDBRANCH  29  31
ENDBRANCH  28  29
ENDBRANCH  27  28
ENDBRANCH   1  27
TORSDOF 19
ENDMDL
