MODEL 1
REMARK minimizedAffinity -8.71918964
REMARK CNNscore 0.701365232
REMARK CNNaffinity 7.11115694
REMARK  8 active torsions:
REMARK  status: ('A' for Active; 'I' for Inactive)
REMARK    1  A    between atoms: C4_4  and  C5_5 
REMARK    2  A    between atoms: C5_5  and  C6_6 
REMARK    3  A    between atoms: C6_6  and  C7_7 
REMARK    4  A    between atoms: C7_7  and  C9_9 
REMARK    5  A    between atoms: C22_22  and  O1_23 
REMARK    6  A    between atoms: C24_25  and  O2_26 
REMARK    7  A    between atoms: C25_27  and  C27_29 
REMARK    8  A    between atoms: C27_29  and  O4_31 
ROOT
HETATM    1  C9  UNL     1      -6.198   6.848  14.758  1.00  0.00    -0.002 C 
HETATM    2  C10 UNL     1      -6.025   8.174  15.538  1.00  0.00     0.007 C 
HETATM    3  C11 UNL     1      -4.600   8.687  15.225  1.00  0.00     0.015 C 
HETATM    4  C12 UNL     1      -4.110   7.840  14.027  1.00  0.00    -0.005 C 
HETATM    5  C13 UNL     1      -4.678   8.513  12.739  1.00  0.00     0.021 C 
HETATM    6  C14 UNL     1      -2.625   7.660  13.736  1.00  0.00    -0.000 C 
HETATM    7  C15 UNL     1      -2.159   6.544  13.110  1.00  0.00    -0.058 C 
HETATM    8  C16 UNL     1      -3.123   5.399  12.749  1.00  0.00     0.036 C 
HETATM    9  C17 UNL     1      -4.596   5.518  13.198  1.00  0.00     0.015 C 
HETATM   10  C18 UNL     1      -4.738   6.446  14.405  1.00  0.00    -0.028 C 
HETATM   11  C19 UNL     1      -4.043   5.765  15.621  1.00  0.00     0.016 C 
HETATM   12  C20 UNL     1      -0.647   6.315  12.769  1.00  0.00     0.011 C 
HETATM   13  C21 UNL     1      -0.080   5.425  13.902  1.00  0.00     0.023 C 
HETATM   14  C22 UNL     1      -0.449   5.597  11.382  1.00  0.00     0.133 C 
HETATM   15  C23 UNL     1       0.998   5.589  10.894  1.00  0.00     0.065 C 
HETATM   16  C24 UNL     1       1.594   6.986  10.838  1.00  0.00     0.139 C 
HETATM   17  C25 UNL     1       1.552   7.726  12.201  1.00  0.00     0.072 C 
HETATM   18  C26 UNL     1       2.070   9.166  11.970  1.00  0.00     0.030 C 
HETATM   19  C28 UNL     1       0.054   7.727  12.682  1.00  0.00     0.029 C 
HETATM   20  C29 UNL     1      -0.213   8.546  13.950  1.00  0.00     0.090 C 
HETATM   21  C30 UNL     1      -1.693   8.768  14.116  1.00  0.00     0.157 C 
HETATM   22  O5  UNL     1      -2.112   9.830  14.570  1.00  0.00    -0.293 OA
ENDROOT
BRANCH   1  23
HETATM   23  C7  UNL     1      -7.145   5.784  15.392  1.00  0.00    -0.014 C 
HETATM   24  C8  UNL     1      -7.438   4.714  14.323  1.00  0.00     0.010 C 
BRANCH  23  25
HETATM   25  C6  UNL     1      -8.477   6.329  15.963  1.00  0.00     0.008 C 
BRANCH  25  26
HETATM   26  C5  UNL     1      -9.133   7.427  15.108  1.00  0.00     0.028 C 
BRANCH  26  27
HETATM   27  C4  UNL     1     -10.404   7.003  14.427  1.00  0.00    -0.025 C 
HETATM   28  C2  UNL     1     -11.327   7.779  13.825  1.00  0.00    -0.091 C 
HETATM   29  C1  UNL     1     -12.540   7.160  13.180  1.00  0.00     0.042 C 
HETATM   30  C3  UNL     1     -11.283   9.280  13.737  1.00  0.00     0.042 C 
ENDBRANCH  26  27
ENDBRANCH  25  26
ENDBRANCH  23  25
ENDBRANCH   1  23
BRANCH  14  31
HETATM   31  O1  UNL     1      -0.859   4.227  11.440  1.00  0.00    -0.394 OA
HETATM   32  H35 UNL     1      -0.813   3.864  10.537  1.00  0.00     0.210 HD
ENDBRANCH  14  31
BRANCH  17  33
HETATM   33  C27 UNL     1       2.494   7.140  13.253  1.00  0.00     0.151 C 
HETATM   34  O3  UNL     1       3.710   7.236  13.263  1.00  0.00    -0.649 OA
BRANCH  33  35
HETATM   35  O4  UNL     1       1.892   6.412  14.214  1.00  0.00    -0.776 OA
HETATM   36  H43 UNL     1       2.645   6.092  14.760  1.00  0.00     0.167 HD
ENDBRANCH  33  35
ENDBRANCH  17  33
BRANCH  16  37
HETATM   37  O2  UNL     1       2.902   6.918  10.275  1.00  0.00    -0.394 OA
HETATM   38  H39 UNL     1       3.468   6.452  10.924  1.00  0.00     0.210 HD
ENDBRANCH  16  37
TORSDOF 8
ENDMDL
MODEL 2
REMARK minimizedAffinity -7.75448084
REMARK CNNscore 0.55333811
REMARK CNNaffinity 6.37218428
REMARK  8 active torsions:
REMARK  status: ('A' for Active; 'I' for Inactive)
REMARK    1  A    between atoms: C4_4  and  C5_5 
REMARK    2  A    between atoms: C5_5  and  C6_6 
REMARK    3  A    between atoms: C6_6  and  C7_7 
REMARK    4  A    between atoms: C7_7  and  C9_9 
REMARK    5  A    between atoms: C22_22  and  O1_23 
REMARK    6  A    between atoms: C24_25  and  O2_26 
REMARK    7  A    between atoms: C25_27  and  C27_29 
REMARK    8  A    between atoms: C27_29  and  O4_31 
ROOT
HETATM    1  C9  UNL     1     -10.473   7.902  14.898  1.00  0.00    -0.002 C 
HETATM    2  C10 UNL     1     -10.163   9.380  14.556  1.00  0.00     0.007 C 
HETATM    3  C11 UNL     1     -11.492  10.011  14.080  1.00  0.00     0.015 C 
HETATM    4  C12 UNL     1     -12.594   8.999  14.471  1.00  0.00    -0.005 C 
HETATM    5  C13 UNL     1     -12.950   9.278  15.965  1.00  0.00     0.021 C 
HETATM    6  C14 UNL     1     -13.940   8.977  13.758  1.00  0.00    -0.000 C 
HETATM    7  C15 UNL     1     -14.667   7.830  13.659  1.00  0.00    -0.058 C 
HETATM    8  C16 UNL     1     -14.101   6.505  14.204  1.00  0.00     0.036 C 
HETATM    9  C17 UNL     1     -12.665   6.506  14.773  1.00  0.00     0.015 C 
HETATM   10  C18 UNL     1     -11.834   7.649  14.189  1.00  0.00    -0.028 C 
HETATM   11  C19 UNL     1     -11.622   7.365  12.672  1.00  0.00     0.016 C 
HETATM   12  C20 UNL     1     -16.065   7.753  12.956  1.00  0.00     0.011 C 
HETATM   13  C21 UNL     1     -15.798   7.230  11.523  1.00  0.00     0.023 C 
HETATM   14  C22 UNL     1     -17.055   6.780  13.698  1.00  0.00     0.133 C 
HETATM   15  C23 UNL     1     -18.497   6.875  13.204  1.00  0.00     0.065 C 
HETATM   16  C24 UNL     1     -19.033   8.295  13.261  1.00  0.00     0.139 C 
HETATM   17  C25 UNL     1     -18.182   9.306  12.450  1.00  0.00     0.072 C 
HETATM   18  C26 UNL     1     -18.764  10.718  12.699  1.00  0.00     0.030 C 
HETATM   19  C28 UNL     1     -16.704   9.197  12.978  1.00  0.00     0.029 C 
HETATM   20  C29 UNL     1     -15.734  10.230  12.394  1.00  0.00     0.090 C 
HETATM   21  C30 UNL     1     -14.468  10.265  13.209  1.00  0.00     0.157 C 
HETATM   22  O5  UNL     1     -13.883  11.329  13.397  1.00  0.00    -0.293 OA
ENDROOT
BRANCH   1  23
HETATM   23  C7  UNL     1      -9.313   6.881  14.699  1.00  0.00    -0.014 C 
HETATM   24  C8  UNL     1      -7.994   7.583  15.076  1.00  0.00     0.010 C 
BRANCH  23  25
HETATM   25  C6  UNL     1      -9.192   6.272  13.280  1.00  0.00     0.008 C 
BRANCH  25  26
HETATM   26  C5  UNL     1      -7.823   5.639  12.976  1.00  0.00     0.028 C 
BRANCH  26  27
HETATM   27  C4  UNL     1      -7.866   4.155  12.744  1.00  0.00    -0.025 C 
HETATM   28  C2  UNL     1      -6.835   3.313  12.532  1.00  0.00    -0.091 C 
HETATM   29  C1  UNL     1      -7.083   1.840  12.333  1.00  0.00     0.042 C 
HETATM   30  C3  UNL     1      -5.386   3.709  12.454  1.00  0.00     0.042 C 
ENDBRANCH  26  27
ENDBRANCH  25  26
ENDBRANCH  23  25
ENDBRANCH   1  23
BRANCH  14  31
HETATM   31  O1  UNL     1     -16.665   5.413  13.535  1.00  0.00    -0.394 OA
HETATM   32  H35 UNL     1     -17.247   4.869  14.096  1.00  0.00     0.210 HD
ENDBRANCH  14  31
BRANCH  17  33
HETATM   33  C27 UNL     1     -18.267   9.113  10.936  1.00  0.00     0.151 C 
HETATM   34  O3  UNL     1     -18.989   8.323  10.351  1.00  0.00    -0.649 OA
BRANCH  33  35
HETATM   35  O4  UNL     1     -17.412   9.867  10.217  1.00  0.00    -0.776 OA
HETATM   36  H43 UNL     1     -17.582   9.581   9.291  1.00  0.00     0.167 HD
ENDBRANCH  33  35
ENDBRANCH  17  33
BRANCH  16  37
HETATM   37  O2  UNL     1     -20.411   8.295  12.891  1.00  0.00    -0.394 OA
HETATM   38  H39 UNL     1     -20.448   8.072  11.938  1.00  0.00     0.210 HD
ENDBRANCH  16  37
TORSDOF 8
ENDMDL
MODEL 3
REMARK minimizedAffinity -9.1556673
REMARK CNNscore 0.532260001
REMARK CNNaffinity 6.70800066
REMARK  8 active torsions:
REMARK  status: ('A' for Active; 'I' for Inactive)
REMARK    1  A    between atoms: C4_4  and  C5_5 
REMARK    2  A    between atoms: C5_5  and  C6_6 
REMARK    3  A    between atoms: C6_6  and  C7_7 
REMARK    4  A    between atoms: C7_7  and  C9_9 
REMARK    5  A    between atoms: C22_22  and  O1_23 
REMARK    6  A    between atoms: C24_25  and  O2_26 
REMARK    7  A    between atoms: C25_27  and  C27_29 
REMARK    8  A    between atoms: C27_29  and  O4_31 
ROOT
HETATM    1  C9  UNL     1      -5.361   6.594  14.898  1.00  0.00    -0.002 C 
HETATM    2  C10 UNL     1      -5.665   5.280  14.139  1.00  0.00     0.007 C 
HETATM    3  C11 UNL     1      -4.416   4.966  13.283  1.00  0.00     0.015 C 
HETATM    4  C12 UNL     1      -3.306   5.904  13.811  1.00  0.00    -0.005 C 
HETATM    5  C13 UNL     1      -2.679   5.201  15.055  1.00  0.00     0.021 C 
HETATM    6  C14 UNL     1      -2.109   6.284  12.947  1.00  0.00    -0.000 C 
HETATM    7  C15 UNL     1      -1.462   7.468  13.122  1.00  0.00    -0.058 C 
HETATM    8  C16 UNL     1      -1.977   8.488  14.154  1.00  0.00     0.036 C 
HETATM    9  C17 UNL     1      -3.287   8.166  14.905  1.00  0.00     0.015 C 
HETATM   10  C18 UNL     1      -4.160   7.192  14.112  1.00  0.00    -0.028 C 
HETATM   11  C19 UNL     1      -4.650   7.922  12.826  1.00  0.00     0.016 C 
HETATM   12  C20 UNL     1      -0.215   7.902  12.277  1.00  0.00     0.011 C 
HETATM   13  C21 UNL     1      -0.755   8.825  11.157  1.00  0.00     0.023 C 
HETATM   14  C22 UNL     1       0.849   8.680  13.137  1.00  0.00     0.133 C 
HETATM   15  C23 UNL     1       2.183   8.890  12.424  1.00  0.00     0.065 C 
HETATM   16  C24 UNL     1       2.780   7.585  11.926  1.00  0.00     0.139 C 
HETATM   17  C25 UNL     1       1.842   6.806  10.967  1.00  0.00     0.072 C 
HETATM   18  C26 UNL     1       2.519   5.453  10.643  1.00  0.00     0.030 C 
HETATM   19  C28 UNL     1       0.478   6.596  11.723  1.00  0.00     0.029 C 
HETATM   20  C29 UNL     1      -0.535   5.712  10.987  1.00  0.00     0.090 C 
HETATM   21  C30 UNL     1      -1.633   5.296  11.930  1.00  0.00     0.157 C 
HETATM   22  O5  UNL     1      -2.130   4.175  11.843  1.00  0.00    -0.293 OA
ENDROOT
BRANCH   1  23
HETATM   23  C7  UNL     1      -6.580   7.507  15.229  1.00  0.00    -0.014 C 
HETATM   24  C8  UNL     1      -6.050   8.933  15.480  1.00  0.00     0.010 C 
BRANCH  23  25
HETATM   25  C6  UNL     1      -7.449   7.056  16.429  1.00  0.00     0.008 C 
BRANCH  25  26
HETATM   26  C5  UNL     1      -8.951   7.352  16.273  1.00  0.00     0.028 C 
BRANCH  26  27
HETATM   27  C4  UNL     1      -9.491   7.094  14.895  1.00  0.00    -0.025 C 
HETATM   28  C2  UNL     1     -10.605   7.597  14.328  1.00  0.00    -0.091 C 
HETATM   29  C1  UNL     1     -10.975   7.227  12.915  1.00  0.00     0.042 C 
HETATM   30  C3  UNL     1     -11.582   8.525  14.995  1.00  0.00     0.042 C 
ENDBRANCH  26  27
ENDBRANCH  25  26
ENDBRANCH  23  25
ENDBRANCH   1  23
BRANCH  14  31
HETATM   31  O1  UNL     1       0.379   9.982  13.497  1.00  0.00    -0.394 OA
HETATM   32  H35 UNL     1       1.027  10.375  14.109  1.00  0.00     0.210 HD
ENDBRANCH  14  31
BRANCH  17  33
HETATM   33  C27 UNL     1       1.649   7.478   9.608  1.00  0.00     0.151 C 
HETATM   34  O3  UNL     1       1.342   8.643   9.418  1.00  0.00    -0.649 OA
BRANCH  33  35
HETATM   35  O4  UNL     1       1.789   6.662   8.544  1.00  0.00    -0.776 OA
HETATM   36  H43 UNL     1       1.592   7.250   7.780  1.00  0.00     0.167 HD
ENDBRANCH  33  35
ENDBRANCH  17  33
BRANCH  16  37
HETATM   37  O2  UNL     1       4.069   7.838  11.368  1.00  0.00    -0.394 OA
HETATM   38  H39 UNL     1       3.927   8.355  10.549  1.00  0.00     0.210 HD
ENDBRANCH  16  37
TORSDOF 8
ENDMDL
MODEL 4
REMARK minimizedAffinity -9.14976215
REMARK CNNscore 0.506174862
REMARK CNNaffinity 6.92803049
REMARK  8 active torsions:
REMARK  status: ('A' for Active; 'I' for Inactive)
REMARK    1  A    between atoms: C4_4  and  C5_5 
REMARK    2  A    between atoms: C5_5  and  C6_6 
REMARK    3  A    between atoms: C6_6  and  C7_7 
REMARK    4  A    between atoms: C7_7  and  C9_9 
REMARK    5  A    between atoms: C22_22  and  O1_23 
REMARK    6  A    between atoms: C24_25  and  O2_26 
REMARK    7  A    between atoms: C25_27  and  C27_29 
REMARK    8  A    between atoms: C27_29  and  O4_31 
ROOT
HETATM    1  C9  UNL     1      -6.669   6.967  13.969  1.00  0.00    -0.002 C 
HETATM    2  C10 UNL     1      -6.835   8.232  14.845  1.00  0.00     0.007 C 
HETATM    3  C11 UNL     1      -5.414   8.793  15.085  1.00  0.00     0.015 C 
HETATM    4  C12 UNL     1      -4.501   8.049  14.082  1.00  0.00    -0.005 C 
HETATM    5  C13 UNL     1      -4.615   8.809  12.724  1.00  0.00     0.021 C 
HETATM    6  C14 UNL     1      -3.002   7.918  14.319  1.00  0.00    -0.000 C 
HETATM    7  C15 UNL     1      -2.299   6.863  13.824  1.00  0.00    -0.058 C 
HETATM    8  C16 UNL     1      -3.027   5.732  13.072  1.00  0.00     0.036 C 
HETATM    9  C17 UNL     1      -4.567   5.790  12.984  1.00  0.00     0.015 C 
HETATM   10  C18 UNL     1      -5.161   6.620  14.123  1.00  0.00    -0.028 C 
HETATM   11  C19 UNL     1      -4.903   5.860  15.458  1.00  0.00     0.016 C 
HETATM   12  C20 UNL     1      -0.754   6.687  14.019  1.00  0.00     0.011 C 
HETATM   13  C21 UNL     1      -0.579   5.722  15.218  1.00  0.00     0.023 C 
HETATM   14  C22 UNL     1      -0.055   6.081  12.746  1.00  0.00     0.133 C 
HETATM   15  C23 UNL     1       1.470   6.137  12.796  1.00  0.00     0.065 C 
HETATM   16  C24 UNL     1       1.987   7.544  13.045  1.00  0.00     0.139 C 
HETATM   17  C25 UNL     1       1.441   8.176  14.352  1.00  0.00     0.072 C 
HETATM   18  C26 UNL     1       1.944   9.638  14.413  1.00  0.00     0.030 C 
HETATM   19  C28 UNL     1      -0.129   8.114  14.277  1.00  0.00     0.029 C 
HETATM   20  C29 UNL     1      -0.856   8.828  15.422  1.00  0.00     0.090 C 
HETATM   21  C30 UNL     1      -2.310   9.010  15.073  1.00  0.00     0.157 C 
HETATM   22  O5  UNL     1      -2.906  10.026  15.421  1.00  0.00    -0.293 OA
ENDROOT
BRANCH   1  23
HETATM   23  C7  UNL     1      -7.729   5.842  14.159  1.00  0.00    -0.014 C 
HETATM   24  C8  UNL     1      -7.313   5.002  15.383  1.00  0.00     0.010 C 
BRANCH  23  25
HETATM   25  C6  UNL     1      -7.947   4.912  12.939  1.00  0.00     0.008 C 
BRANCH  25  26
HETATM   26  C5  UNL     1      -7.398   3.486  13.122  1.00  0.00     0.028 C 
BRANCH  26  27
HETATM   27  C4  UNL     1      -5.976   3.309  12.669  1.00  0.00    -0.025 C 
HETATM   28  C2  UNL     1      -5.470   2.359  11.858  1.00  0.00    -0.091 C 
HETATM   29  C1  UNL     1      -4.005   2.359  11.506  1.00  0.00     0.042 C 
HETATM   30  C3  UNL     1      -6.250   1.228  11.246  1.00  0.00     0.042 C 
ENDBRANCH  26  27
ENDBRANCH  25  26
ENDBRANCH  23  25
ENDBRANCH   1  23
BRANCH  14  31
HETATM   31  O1  UNL     1      -0.399   4.704  12.566  1.00  0.00    -0.394 OA
HETATM   32  H35 UNL     1      -0.027   4.413  11.715  1.00  0.00     0.210 HD
ENDBRANCH  14  31
BRANCH  17  33
HETATM   33  C27 UNL     1       1.983   7.528  15.626  1.00  0.00     0.151 C 
HETATM   34  O3  UNL     1       1.726   7.865  16.770  1.00  0.00    -0.649 OA
BRANCH  33  35
HETATM   35  O4  UNL     1       2.864   6.527  15.426  1.00  0.00    -0.776 OA
HETATM   36  H43 UNL     1       3.125   6.270  16.339  1.00  0.00     0.167 HD
ENDBRANCH  33  35
ENDBRANCH  17  33
BRANCH  16  37
HETATM   37  O2  UNL     1       3.412   7.543  12.972  1.00  0.00    -0.394 OA
HETATM   38  H39 UNL     1       3.735   7.038  13.746  1.00  0.00     0.210 HD
ENDBRANCH  16  37
TORSDOF 8
ENDMDL
MODEL 5
REMARK minimizedAffinity -6.89113808
REMARK CNNscore 0.4906165
REMARK CNNaffinity 5.52212715
REMARK  8 active torsions:
REMARK  status: ('A' for Active; 'I' for Inactive)
REMARK    1  A    between atoms: C4_4  and  C5_5 
REMARK    2  A    between atoms: C5_5  and  C6_6 
REMARK    3  A    between atoms: C6_6  and  C7_7 
REMARK    4  A    between atoms: C7_7  and  C9_9 
REMARK    5  A    between atoms: C22_22  and  O1_23 
REMARK    6  A    between atoms: C24_25  and  O2_26 
REMARK    7  A    between atoms: C25_27  and  C27_29 
REMARK    8  A    between atoms: C27_29  and  O4_31 
ROOT
HETATM    1  C9  UNL     1     -17.447   3.990  14.297  1.00  0.00    -0.002 C 
HETATM    2  C10 UNL     1     -17.533   3.765  12.768  1.00  0.00     0.007 C 
HETATM    3  C11 UNL     1     -17.482   2.236  12.542  1.00  0.00     0.015 C 
HETATM    4  C12 UNL     1     -17.705   1.605  13.937  1.00  0.00    -0.005 C 
HETATM    5  C13 UNL     1     -19.248   1.560  14.167  1.00  0.00     0.021 C 
HETATM    6  C14 UNL     1     -17.233   0.191  14.253  1.00  0.00    -0.000 C 
HETATM    7  C15 UNL     1     -16.897  -0.172  15.522  1.00  0.00    -0.058 C 
HETATM    8  C16 UNL     1     -16.916   0.869  16.657  1.00  0.00     0.036 C 
HETATM    9  C17 UNL     1     -17.232   2.336  16.294  1.00  0.00     0.015 C 
HETATM   10  C18 UNL     1     -16.910   2.631  14.829  1.00  0.00    -0.028 C 
HETATM   11  C19 UNL     1     -15.365   2.538  14.648  1.00  0.00     0.016 C 
HETATM   12  C20 UNL     1     -16.426  -1.616  15.908  1.00  0.00     0.011 C 
HETATM   13  C21 UNL     1     -14.878  -1.567  15.945  1.00  0.00     0.023 C 
HETATM   14  C22 UNL     1     -16.974  -2.068  17.313  1.00  0.00     0.133 C 
HETATM   15  C23 UNL     1     -16.758  -3.550  17.610  1.00  0.00     0.065 C 
HETATM   16  C24 UNL     1     -17.329  -4.444  16.523  1.00  0.00     0.139 C 
HETATM   17  C25 UNL     1     -16.749  -4.148  15.115  1.00  0.00     0.072 C 
HETATM   18  C26 UNL     1     -17.505  -5.036  14.098  1.00  0.00     0.030 C 
HETATM   19  C28 UNL     1     -16.987  -2.620  14.827  1.00  0.00     0.029 C 
HETATM   20  C29 UNL     1     -16.610  -2.165  13.413  1.00  0.00     0.090 C 
HETATM   21  C30 UNL     1     -17.194  -0.805  13.138  1.00  0.00     0.157 C 
HETATM   22  O5  UNL     1     -17.608  -0.526  12.015  1.00  0.00    -0.293 OA
ENDROOT
BRANCH   1  23
HETATM   23  C7  UNL     1     -16.770   5.311  14.771  1.00  0.00    -0.014 C 
HETATM   24  C8  UNL     1     -17.876   6.246  15.301  1.00  0.00     0.010 C 
BRANCH  23  25
HETATM   25  C6  UNL     1     -15.927   6.053  13.705  1.00  0.00     0.008 C 
BRANCH  25  26
HETATM   26  C5  UNL     1     -14.416   6.079  13.995  1.00  0.00     0.028 C 
BRANCH  26  27
HETATM   27  C4  UNL     1     -13.661   7.140  13.245  1.00  0.00    -0.025 C 
HETATM   28  C2  UNL     1     -12.366   7.489  13.370  1.00  0.00    -0.091 C 
HETATM   29  C1  UNL     1     -11.784   8.580  12.509  1.00  0.00     0.042 C 
HETATM   30  C3  UNL     1     -11.389   6.886  14.342  1.00  0.00     0.042 C 
ENDBRANCH  26  27
ENDBRANCH  25  26
ENDBRANCH  23  25
ENDBRANCH   1  23
BRANCH  14  31
HETATM   31  O1  UNL     1     -16.341  -1.351  18.377  1.00  0.00    -0.394 OA
HETATM   32  H35 UNL     1     -16.788  -1.594  19.207  1.00  0.00     0.210 HD
ENDBRANCH  14  31
BRANCH  17  33
HETATM   33  C27 UNL     1     -15.281  -4.542  14.955  1.00  0.00     0.151 C 
HETATM   34  O3  UNL     1     -14.532  -4.904  15.847  1.00  0.00    -0.649 OA
BRANCH  33  35
HETATM   35  O4  UNL     1     -14.789  -4.413  13.707  1.00  0.00    -0.776 OA
HETATM   36  H43 UNL     1     -13.844  -4.666  13.809  1.00  0.00     0.167 HD
ENDBRANCH  33  35
ENDBRANCH  17  33
BRANCH  16  37
HETATM   37  O2  UNL     1     -17.190  -5.810  16.912  1.00  0.00    -0.394 OA
HETATM   38  H39 UNL     1     -16.233  -6.013  16.898  1.00  0.00     0.210 HD
ENDBRANCH  16  37
TORSDOF 8
ENDMDL
MODEL 6
REMARK minimizedAffinity -7.04124546
REMARK CNNscore 0.483763635
REMARK CNNaffinity 5.9311614
REMARK  8 active torsions:
REMARK  status: ('A' for Active; 'I' for Inactive)
REMARK    1  A    between atoms: C4_4  and  C5_5 
REMARK    2  A    between atoms: C5_5  and  C6_6 
REMARK    3  A    between atoms: C6_6  and  C7_7 
REMARK    4  A    between atoms: C7_7  and  C9_9 
REMARK    5  A    between atoms: C22_22  and  O1_23 
REMARK    6  A    between atoms: C24_25  and  O2_26 
REMARK    7  A    between atoms: C25_27  and  C27_29 
REMARK    8  A    between atoms: C27_29  and  O4_31 
ROOT
HETATM    1  C9  UNL     1       5.352   8.521  12.715  1.00  0.00    -0.002 C 
HETATM    2  C10 UNL     1       4.073   8.896  13.501  1.00  0.00     0.007 C 
HETATM    3  C11 UNL     1       4.530   9.749  14.707  1.00  0.00     0.015 C 
HETATM    4  C12 UNL     1       6.000  10.128  14.413  1.00  0.00    -0.005 C 
HETATM    5  C13 UNL     1       5.964  11.383  13.487  1.00  0.00     0.021 C 
HETATM    6  C14 UNL     1       6.961  10.509  15.532  1.00  0.00    -0.000 C 
HETATM    7  C15 UNL     1       8.300  10.295  15.414  1.00  0.00    -0.058 C 
HETATM    8  C16 UNL     1       8.866   9.587  14.169  1.00  0.00     0.036 C 
HETATM    9  C17 UNL     1       7.867   9.054  13.119  1.00  0.00     0.015 C 
HETATM   10  C18 UNL     1       6.493   8.794  13.736  1.00  0.00    -0.028 C 
HETATM   11  C19 UNL     1       6.632   7.608  14.738  1.00  0.00     0.016 C 
HETATM   12  C20 UNL     1       9.337  10.685  16.523  1.00  0.00     0.011 C 
HETATM   13  C21 UNL     1       9.610   9.392  17.331  1.00  0.00     0.023 C 
HETATM   14  C22 UNL     1      10.686  11.226  15.918  1.00  0.00     0.133 C 
HETATM   15  C23 UNL     1      11.615  11.857  16.953  1.00  0.00     0.065 C 
HETATM   16  C24 UNL     1      10.930  12.957  17.746  1.00  0.00     0.139 C 
HETATM   17  C25 UNL     1       9.650  12.479  18.480  1.00  0.00     0.072 C 
HETATM   18  C26 UNL     1       8.995  13.718  19.136  1.00  0.00     0.030 C 
HETATM   19  C28 UNL     1       8.706  11.839  17.397  1.00  0.00     0.029 C 
HETATM   20  C29 UNL     1       7.319  11.437  17.910  1.00  0.00     0.090 C 
HETATM   21  C30 UNL     1       6.398  11.173  16.749  1.00  0.00     0.157 C 
HETATM   22  O5  UNL     1       5.211  11.483  16.818  1.00  0.00    -0.293 OA
ENDROOT
BRANCH   1  23
HETATM   23  C7  UNL     1       5.328   7.164  11.949  1.00  0.00    -0.014 C 
HETATM   24  C8  UNL     1       6.417   7.217  10.859  1.00  0.00     0.010 C 
BRANCH  23  25
HETATM   25  C6  UNL     1       3.971   6.778  11.311  1.00  0.00     0.008 C 
BRANCH  25  26
HETATM   26  C5  UNL     1       3.712   7.415   9.934  1.00  0.00     0.028 C 
BRANCH  26  27
HETATM   27  C4  UNL     1       2.301   7.888   9.727  1.00  0.00    -0.025 C 
HETATM   28  C2  UNL     1       1.559   7.833   8.604  1.00  0.00    -0.091 C 
HETATM   29  C1  UNL     1       0.144   8.351   8.600  1.00  0.00     0.042 C 
HETATM   30  C3  UNL     1       2.021   7.296   7.277  1.00  0.00     0.042 C 
ENDBRANCH  26  27
ENDBRANCH  25  26
ENDBRANCH  23  25
ENDBRANCH   1  23
BRANCH  14  31
HETATM   31  O1  UNL     1      11.434  10.179  15.294  1.00  0.00    -0.394 OA
HETATM   32  H35 UNL     1      12.201  10.585  14.850  1.00  0.00     0.210 HD
ENDBRANCH  14  31
BRANCH  17  33
HETATM   33  C27 UNL     1       9.923  11.525  19.643  1.00  0.00     0.151 C 
HETATM   34  O3  UNL     1       9.138  11.225  20.526  1.00  0.00    -0.649 OA
BRANCH  33  35
HETATM   35  O4  UNL     1      11.176  11.030  19.691  1.00  0.00    -0.776 OA
HETATM   36  H43 UNL     1      11.172  10.484  20.509  1.00  0.00     0.167 HD
ENDBRANCH  33  35
ENDBRANCH  17  33
BRANCH  16  37
HETATM   37  O2  UNL     1      11.880  13.574  18.614  1.00  0.00    -0.394 OA
HETATM   38  H39 UNL     1      12.115  12.911  19.295  1.00  0.00     0.210 HD
ENDBRANCH  16  37
TORSDOF 8
ENDMDL
MODEL 7
REMARK minimizedAffinity -7.08119678
REMARK CNNscore 0.478696465
REMARK CNNaffinity 6.30577612
REMARK  8 active torsions:
REMARK  status: ('A' for Active; 'I' for Inactive)
REMARK    1  A    between atoms: C4_4  and  C5_5 
REMARK    2  A    between atoms: C5_5  and  C6_6 
REMARK    3  A    between atoms: C6_6  and  C7_7 
REMARK    4  A    between atoms: C7_7  and  C9_9 
REMARK    5  A    between atoms: C22_22  and  O1_23 
REMARK    6  A    between atoms: C24_25  and  O2_26 
REMARK    7  A    between atoms: C25_27  and  C27_29 
REMARK    8  A    between atoms: C27_29  and  O4_31 
ROOT
HETATM    1  C9  UNL     1       0.326   7.119  12.940  1.00  0.00    -0.002 C 
HETATM    2  C10 UNL     1       1.538   6.473  13.654  1.00  0.00     0.007 C 
HETATM    3  C11 UNL     1       1.810   7.323  14.917  1.00  0.00     0.015 C 
HETATM    4  C12 UNL     1       0.564   8.224  15.086  1.00  0.00    -0.005 C 
HETATM    5  C13 UNL     1      -0.507   7.374  15.839  1.00  0.00     0.021 C 
HETATM    6  C14 UNL     1       0.629   9.530  15.867  1.00  0.00    -0.000 C 
HETATM    7  C15 UNL     1      -0.204  10.567  15.576  1.00  0.00    -0.058 C 
HETATM    8  C16 UNL     1      -1.184  10.466  14.392  1.00  0.00     0.036 C 
HETATM    9  C17 UNL     1      -1.124   9.204  13.504  1.00  0.00     0.015 C 
HETATM   10  C18 UNL     1       0.250   8.536  13.575  1.00  0.00    -0.028 C 
HETATM   11  C19 UNL     1       1.286   9.494  12.914  1.00  0.00     0.016 C 
HETATM   12  C20 UNL     1      -0.195  11.925  16.358  1.00  0.00     0.011 C 
HETATM   13  C21 UNL     1       0.659  12.902  15.514  1.00  0.00     0.023 C 
HETATM   14  C22 UNL     1      -1.642  12.516  16.548  1.00  0.00     0.133 C 
HETATM   15  C23 UNL     1      -1.705  13.690  17.522  1.00  0.00     0.065 C 
HETATM   16  C24 UNL     1      -1.108  13.348  18.876  1.00  0.00     0.139 C 
HETATM   17  C25 UNL     1       0.366  12.871  18.795  1.00  0.00     0.072 C 
HETATM   18  C26 UNL     1       0.800  12.441  20.217  1.00  0.00     0.030 C 
HETATM   19  C28 UNL     1       0.407  11.659  17.794  1.00  0.00     0.029 C 
HETATM   20  C29 UNL     1       1.764  10.954  17.693  1.00  0.00     0.090 C 
HETATM   21  C30 UNL     1       1.603   9.627  16.998  1.00  0.00     0.157 C 
HETATM   22  O5  UNL     1       2.275   8.660  17.350  1.00  0.00    -0.293 OA
ENDROOT
BRANCH   1  23
HETATM   23  C7  UNL     1       0.274   6.979  11.388  1.00  0.00    -0.014 C 
HETATM   24  C8  UNL     1       0.956   5.649  11.010  1.00  0.00     0.010 C 
BRANCH  23  25
HETATM   25  C6  UNL     1       0.917   8.139  10.589  1.00  0.00     0.008 C 
BRANCH  25  26
HETATM   26  C5  UNL     1       0.105   8.592   9.364  1.00  0.00     0.028 C 
BRANCH  26  27
HETATM   27  C4  UNL     1       0.473   7.893   8.085  1.00  0.00    -0.025 C 
HETATM   28  C2  UNL     1       1.682   7.815   7.495  1.00  0.00    -0.091 C 
HETATM   29  C1  UNL     1       1.854   7.047   6.210  1.00  0.00     0.042 C 
HETATM   30  C3  UNL     1       2.943   8.461   7.999  1.00  0.00     0.042 C 
ENDBRANCH  26  27
ENDBRANCH  25  26
ENDBRANCH  23  25
ENDBRANCH   1  23
BRANCH  14  31
HETATM   31  O1  UNL     1      -2.178  12.992  15.311  1.00  0.00    -0.394 OA
HETATM   32  H35 UNL     1      -3.105  13.247  15.466  1.00  0.00     0.210 HD
ENDBRANCH  14  31
BRANCH  17  33
HETATM   33  C27 UNL     1       1.352  13.972  18.406  1.00  0.00     0.151 C 
HETATM   34  O3  UNL     1       1.069  15.052  17.915  1.00  0.00    -0.649 OA
BRANCH  33  35
HETATM   35  O4  UNL     1       2.652  13.664  18.590  1.00  0.00    -0.776 OA
HETATM   36  H43 UNL     1       3.123  14.459  18.252  1.00  0.00     0.167 HD
ENDBRANCH  33  35
ENDBRANCH  17  33
BRANCH  16  37
HETATM   37  O2  UNL     1      -1.296  14.447  19.766  1.00  0.00    -0.394 OA
HETATM   38  H39 UNL     1      -0.728  15.176  19.441  1.00  0.00     0.210 HD
ENDBRANCH  16  37
TORSDOF 8
ENDMDL
MODEL 8
REMARK minimizedAffinity -9.29022217
REMARK CNNscore 0.4549523
REMARK CNNaffinity 6.8195281
REMARK  8 active torsions:
REMARK  status: ('A' for Active; 'I' for Inactive)
REMARK    1  A    between atoms: C4_4  and  C5_5 
REMARK    2  A    between atoms: C5_5  and  C6_6 
REMARK    3  A    between atoms: C6_6  and  C7_7 
REMARK    4  A    between atoms: C7_7  and  C9_9 
REMARK    5  A    between atoms: C22_22  and  O1_23 
REMARK    6  A    between atoms: C24_25  and  O2_26 
REMARK    7  A    between atoms: C25_27  and  C27_29 
REMARK    8  A    between atoms: C27_29  and  O4_31 
ROOT
HETATM    1  C9  UNL     1      -3.669   7.172  14.696  1.00  0.00    -0.002 C 
HETATM    2  C10 UNL     1      -4.146   5.820  14.113  1.00  0.00     0.007 C 
HETATM    3  C11 UNL     1      -3.006   5.304  13.204  1.00  0.00     0.015 C 
HETATM    4  C12 UNL     1      -1.779   6.184  13.539  1.00  0.00    -0.005 C 
HETATM    5  C13 UNL     1      -1.110   5.559  14.802  1.00  0.00     0.021 C 
HETATM    6  C14 UNL     1      -0.634   6.360  12.550  1.00  0.00    -0.000 C 
HETATM    7  C15 UNL     1       0.124   7.490  12.542  1.00  0.00    -0.058 C 
HETATM    8  C16 UNL     1      -0.213   8.656  13.491  1.00  0.00     0.036 C 
HETATM    9  C17 UNL     1      -1.477   8.536  14.370  1.00  0.00     0.015 C 
HETATM   10  C18 UNL     1      -2.493   7.571  13.759  1.00  0.00    -0.028 C 
HETATM   11  C19 UNL     1      -3.028   8.206  12.441  1.00  0.00     0.016 C 
HETATM   12  C20 UNL     1       1.326   7.716  11.563  1.00  0.00     0.011 C 
HETATM   13  C21 UNL     1       0.772   8.564  10.391  1.00  0.00     0.023 C 
HETATM   14  C22 UNL     1       2.522   8.477  12.247  1.00  0.00     0.133 C 
HETATM   15  C23 UNL     1       3.803   8.487  11.416  1.00  0.00     0.065 C 
HETATM   16  C24 UNL     1       4.243   7.087  11.021  1.00  0.00     0.139 C 
HETATM   17  C25 UNL     1       3.163   6.304  10.229  1.00  0.00     0.072 C 
HETATM   18  C26 UNL     1       3.694   4.867  10.006  1.00  0.00     0.030 C 
HETATM   19  C28 UNL     1       1.857   6.301  11.105  1.00  0.00     0.029 C 
HETATM   20  C29 UNL     1       0.713   5.444  10.551  1.00  0.00     0.090 C 
HETATM   21  C30 UNL     1      -0.332   5.231  11.615  1.00  0.00     0.157 C 
HETATM   22  O5  UNL     1      -0.927   4.159  11.691  1.00  0.00    -0.293 OA
ENDROOT
BRANCH   1  23
HETATM   23  C7  UNL     1      -4.774   8.223  15.015  1.00  0.00    -0.014 C 
HETATM   24  C8  UNL     1      -4.187   9.237  16.018  1.00  0.00     0.010 C 
BRANCH  23  25
HETATM   25  C6  UNL     1      -6.102   7.652  15.569  1.00  0.00     0.008 C 
BRANCH  25  26
HETATM   26  C5  UNL     1      -7.127   7.265  14.488  1.00  0.00     0.028 C 
BRANCH  26  27
HETATM   27  C4  UNL     1      -7.280   5.785  14.284  1.00  0.00    -0.025 C 
HETATM   28  C2  UNL     1      -7.902   5.141  13.276  1.00  0.00    -0.091 C 
HETATM   29  C1  UNL     1      -7.936   3.635  13.240  1.00  0.00     0.042 C 
HETATM   30  C3  UNL     1      -8.619   5.800  12.130  1.00  0.00     0.042 C 
ENDBRANCH  26  27
ENDBRANCH  25  26
ENDBRANCH  23  25
ENDBRANCH   1  23
BRANCH  14  31
HETATM   31  O1  UNL     1       2.196   9.848  12.495  1.00  0.00    -0.394 OA
HETATM   32  H35 UNL     1       2.924  10.239  13.009  1.00  0.00     0.210 HD
ENDBRANCH  14  31
BRANCH  17  33
HETATM   33  C27 UNL     1       2.912   6.846   8.822  1.00  0.00     0.151 C 
HETATM   34  O3  UNL     1       3.115   7.988   8.445  1.00  0.00    -0.649 OA
BRANCH  33  35
HETATM   35  O4  UNL     1       2.366   5.964   7.961  1.00  0.00    -0.776 OA
HETATM   36  H43 UNL     1       2.243   6.495   7.142  1.00  0.00     0.167 HD
ENDBRANCH  33  35
ENDBRANCH  17  33
BRANCH  16  37
HETATM   37  O2  UNL     1       5.496   7.160  10.343  1.00  0.00    -0.394 OA
HETATM   38  H39 UNL     1       5.329   7.600   9.484  1.00  0.00     0.210 HD
ENDBRANCH  16  37
TORSDOF 8
ENDMDL
MODEL 9
REMARK minimizedAffinity -9.26285934
REMARK CNNscore 0.385396898
REMARK CNNaffinity 6.80501318
REMARK  8 active torsions:
REMARK  status: ('A' for Active; 'I' for Inactive)
REMARK    1  A    between atoms: C4_4  and  C5_5 
REMARK    2  A    between atoms: C5_5  and  C6_6 
REMARK    3  A    between atoms: C6_6  and  C7_7 
REMARK    4  A    between atoms: C7_7  and  C9_9 
REMARK    5  A    between atoms: C22_22  and  O1_23 
REMARK    6  A    between atoms: C24_25  and  O2_26 
REMARK    7  A    between atoms: C25_27  and  C27_29 
REMARK    8  A    between atoms: C27_29  and  O4_31 
ROOT
HETATM    1  C9  UNL     1      -2.218   5.806  12.996  1.00  0.00    -0.002 C 
HETATM    2  C10 UNL     1      -2.187   4.993  11.679  1.00  0.00     0.007 C 
HETATM    3  C11 UNL     1      -0.727   5.030  11.172  1.00  0.00     0.015 C 
HETATM    4  C12 UNL     1       0.109   5.566  12.358  1.00  0.00    -0.005 C 
HETATM    5  C13 UNL     1       0.417   4.344  13.279  1.00  0.00     0.021 C 
HETATM    6  C14 UNL     1       1.464   6.227  12.139  1.00  0.00    -0.000 C 
HETATM    7  C15 UNL     1       1.937   7.167  13.002  1.00  0.00    -0.058 C 
HETATM    8  C16 UNL     1       1.071   7.640  14.184  1.00  0.00     0.036 C 
HETATM    9  C17 UNL     1      -0.367   7.088  14.300  1.00  0.00     0.015 C 
HETATM   10  C18 UNL     1      -0.898   6.626  12.942  1.00  0.00    -0.028 C 
HETATM   11  C19 UNL     1      -1.065   7.883  12.038  1.00  0.00     0.016 C 
HETATM   12  C20 UNL     1       3.331   7.865  12.838  1.00  0.00     0.011 C 
HETATM   13  C21 UNL     1       3.054   9.222  12.146  1.00  0.00     0.023 C 
HETATM   14  C22 UNL     1       4.043   8.112  14.220  1.00  0.00     0.133 C 
HETATM   15  C23 UNL     1       5.502   8.546  14.093  1.00  0.00     0.065 C 
HETATM   16  C24 UNL     1       6.320   7.574  13.260  1.00  0.00     0.139 C 
HETATM   17  C25 UNL     1       5.756   7.364  11.830  1.00  0.00     0.072 C 
HETATM   18  C26 UNL     1       6.606   6.267  11.145  1.00  0.00     0.030 C 
HETATM   19  C28 UNL     1       4.257   6.913  11.985  1.00  0.00     0.029 C 
HETATM   20  C29 UNL     1       3.568   6.513  10.675  1.00  0.00     0.090 C 
HETATM   21  C30 UNL     1       2.287   5.779  10.972  1.00  0.00     0.157 C 
HETATM   22  O5  UNL     1       1.928   4.847  10.256  1.00  0.00    -0.293 OA
ENDROOT
BRANCH   1  23
HETATM   23  C7  UNL     1      -3.552   6.538  13.334  1.00  0.00    -0.014 C 
HETATM   24  C8  UNL     1      -3.208   7.789  14.166  1.00  0.00     0.010 C 
BRANCH  23  25
HETATM   25  C6  UNL     1      -4.611   5.690  14.082  1.00  0.00     0.008 C 
BRANCH  25  26
HETATM   26  C5  UNL     1      -5.784   5.221  13.204  1.00  0.00     0.028 C 
BRANCH  26  27
HETATM   27  C4  UNL     1      -5.497   3.985  12.398  1.00  0.00    -0.025 C 
HETATM   28  C2  UNL     1      -6.252   2.875  12.276  1.00  0.00    -0.091 C 
HETATM   29  C1  UNL     1      -5.795   1.737  11.400  1.00  0.00     0.042 C 
HETATM   30  C3  UNL     1      -7.564   2.630  12.968  1.00  0.00     0.042 C 
ENDBRANCH  26  27
ENDBRANCH  25  26
ENDBRANCH  23  25
ENDBRANCH   1  23
BRANCH  14  31
HETATM   31  O1  UNL     1       3.385   9.136  14.971  1.00  0.00    -0.394 OA
HETATM   32  H35 UNL     1       3.801   9.174  15.852  1.00  0.00     0.210 HD
ENDBRANCH  14  31
BRANCH  17  33
HETATM   33  C27 UNL     1       5.898   8.586  10.923  1.00  0.00     0.151 C 
HETATM   34  O3  UNL     1       5.068   8.992  10.127  1.00  0.00    -0.649 OA
BRANCH  33  35
HETATM   35  O4  UNL     1       7.087   9.217  10.999  1.00  0.00    -0.776 OA
HETATM   36  H43 UNL     1       7.006   9.934  10.330  1.00  0.00     0.167 HD
ENDBRANCH  33  35
ENDBRANCH  17  33
BRANCH  16  37
HETATM   37  O2  UNL     1       7.688   7.979  13.271  1.00  0.00    -0.394 OA
HETATM   38  H39 UNL     1       7.740   8.817  12.766  1.00  0.00     0.210 HD
ENDBRANCH  16  37
TORSDOF 8
ENDMDL
