MODEL 1
REMARK minimizedAffinity -8.89056206
REMARK CNNscore 0.616368711
REMARK CNNaffinity 6.75695801
REMARK  11 active torsions:
REMARK  status: ('A' for Active; 'I' for Inactive)
REMARK    1  A    between atoms: O1_2  and  C2_3 
REMARK    2  A    between atoms: C4_5  and  O2_6 
REMARK    3  A    between atoms: O2_6  and  C5_7 
REMARK    4  A    between atoms: C8_10  and  C9_11 
REMARK    5  A    between atoms: N1_12  and  C10_14 
REMARK    6  A    between atoms: C10_14  and  C11_15 
REMARK    7  A    between atoms: C11_15  and  O3_16 
REMARK    8  A    between atoms: C17_22  and  C18_23 
REMARK    9  A    between atoms: C24_31  and  O6_32 
REMARK   10  A    between atoms: C28_36  and  O7_37 
REMARK   11  A    between atoms: C32_42  and  O9_43 
ROOT
HETATM    1  C5  UNL     1       0.249  11.229  18.694  1.00  0.00     0.127 C 
HETATM    2  C6  UNL     1      -1.215  11.655  18.858  1.00  0.00     0.033 C 
HETATM    3  C7  UNL     1      -2.167  10.828  17.997  1.00  0.00     0.021 C 
HETATM    4  C8  UNL     1      -1.833  10.836  16.461  1.00  0.00     0.026 C 
HETATM    5  C12 UNL     1      -2.310   9.444  15.878  1.00  0.00     0.009 C 
HETATM    6  C13 UNL     1      -3.841   9.228  15.958  1.00  0.00     0.007 C 
HETATM    7  C14 UNL     1      -4.282   7.864  15.431  1.00  0.00     0.013 C 
HETATM    8  C15 UNL     1      -3.797   7.583  13.990  1.00  0.00    -0.005 C 
HETATM    9  C16 UNL     1      -4.559   8.488  12.997  1.00  0.00     0.019 C 
HETATM   10  C17 UNL     1      -3.936   6.070  13.612  1.00  0.00     0.028 C 
HETATM   11  C22 UNL     1      -2.702   5.403  14.264  1.00  0.00     0.013 C 
HETATM   12  C23 UNL     1      -1.700   6.523  14.575  1.00  0.00     0.040 C 
HETATM   13  C24 UNL     1      -2.257   7.782  13.889  1.00  0.00     0.070 C 
HETATM   14  C25 UNL     1      -1.763   9.138  14.461  1.00  0.00     0.026 C 
HETATM   15  C26 UNL     1      -0.232   9.243  14.462  1.00  0.00     0.011 C 
HETATM   16  C27 UNL     1       0.202  10.642  14.856  1.00  0.00     0.039 C 
HETATM   17  C28 UNL     1      -0.298  11.098  16.230  1.00  0.00     0.073 C 
HETATM   18  C29 UNL     1       0.521  10.473  17.381  1.00  0.00     0.071 C 
ENDROOT
BRANCH   1  19
HETATM   19  O2  UNL     1       0.613  10.424  19.824  1.00  0.00    -0.356 OA
BRANCH  19  20
HETATM   20  C4  UNL     1       2.021  10.263  19.948  1.00  0.00     0.263 C 
HETATM   21  C3  UNL     1       2.642  11.631  20.247  1.00  0.00     0.095 C 
HETATM   22  C2  UNL     1       4.070  11.412  20.720  1.00  0.00     0.156 C 
HETATM   23  C32 UNL     1       4.056  10.575  22.030  1.00  0.00     0.175 C 
HETATM   24  C30 UNL     1       2.747   9.765  22.168  1.00  0.00     0.151 C 
HETATM   25  O8  UNL     1       2.339   9.245  20.897  1.00  0.00    -0.354 OA
HETATM   26  C31 UNL     1       2.918   8.595  23.129  1.00  0.00     0.042 C 
BRANCH  22  27
HETATM   27  O1  UNL     1       4.749  12.642  20.991  1.00  0.00    -0.388 OA
HETATM   28  C1  UNL     1       4.834  13.526  19.890  1.00  0.00     0.202 C 
ENDBRANCH  22  27
BRANCH  23  29
HETATM   29  O9  UNL     1       4.203  11.449  23.170  1.00  0.00    -0.390 OA
HETATM   30  H49 UNL     1       4.709  12.213  22.810  1.00  0.00     0.210 HD
ENDBRANCH  23  29
ENDBRANCH  19  20
ENDBRANCH   1  19
BRANCH  17  31
HETATM   31  O7  UNL     1      -0.026  12.522  16.290  1.00  0.00    -0.389 OA
HETATM   32  H41 UNL     1       0.919  12.651  16.042  1.00  0.00     0.210 HD
ENDBRANCH  17  31
BRANCH   4  33
HETATM   33  C9  UNL     1      -2.590  12.039  15.863  1.00  0.00     0.068 C 
HETATM   34  N1  UNL     1      -2.249  12.637  14.771  1.00  0.00    -0.399 N 
ATOM     35  H1  UNL     1      -1.447  12.366  14.202  1.00  0.00     0.158 HD
BRANCH  34  36
HETATM   36  C10 UNL     1      -3.150  13.761  14.437  1.00  0.00     0.144 C 
BRANCH  36  37
HETATM   37  C11 UNL     1      -2.397  14.799  13.600  1.00  0.00     0.183 C 
BRANCH  37  38
HETATM   38  O3  UNL     1      -1.212  14.238  13.037  1.00  0.00    -0.399 OA
HETATM   39  H18 UNL     1      -1.139  13.336  13.406  1.00  0.00     0.209 HD
ENDBRANCH  37  38
ENDBRANCH  36  37
ENDBRANCH  34  36
ENDBRANCH   4  33
BRANCH  13  40
HETATM   40  O6  UNL     1      -1.888   7.727  12.500  1.00  0.00    -0.389 OA
HETATM   41  H35 UNL     1      -0.932   7.548  12.438  1.00  0.00     0.210 HD
ENDBRANCH  13  40
BRANCH  10  42
HETATM   42  C18 UNL     1      -5.258   5.388  13.882  1.00  0.00    -0.045 A 
HETATM   43  C19 UNL     1      -5.869   4.424  13.189  1.00  0.00     0.087 A 
HETATM   44  C20 UNL     1      -7.173   4.200  13.814  1.00  0.00     0.283 A 
HETATM   45  O4  UNL     1      -7.993   3.384  13.433  1.00  0.00    -0.260 OA
HETATM   46  O5  UNL     1      -7.318   5.053  14.866  1.00  0.00    -0.314 OA
HETATM   47  C21 UNL     1      -6.130   5.836  14.998  1.00  0.00     0.213 A 
ENDBRANCH  10  42
TORSDOF 11
ENDMDL
MODEL 2
REMARK minimizedAffinity -9.23559856
REMARK CNNscore 0.578168511
REMARK CNNaffinity 7.24099207
REMARK  11 active torsions:
REMARK  status: ('A' for Active; 'I' for Inactive)
REMARK    1  A    between atoms: O1_2  and  C2_3 
REMARK    2  A    between atoms: C4_5  and  O2_6 
REMARK    3  A    between atoms: O2_6  and  C5_7 
REMARK    4  A    between atoms: C8_10  and  C9_11 
REMARK    5  A    between atoms: N1_12  and  C10_14 
REMARK    6  A    between atoms: C10_14  and  C11_15 
REMARK    7  A    between atoms: C11_15  and  O3_16 
REMARK    8  A    between atoms: C17_22  and  C18_23 
REMARK    9  A    between atoms: C24_31  and  O6_32 
REMARK   10  A    between atoms: C28_36  and  O7_37 
REMARK   11  A    between atoms: C32_42  and  O9_43 
ROOT
HETATM    1  C5  UNL     1      -5.774   7.075  14.511  1.00  0.00     0.127 C 
HETATM    2  C6  UNL     1      -5.618   8.401  13.756  1.00  0.00     0.033 C 
HETATM    3  C7  UNL     1      -4.244   8.547  13.107  1.00  0.00     0.021 C 
HETATM    4  C8  UNL     1      -3.035   8.417  14.102  1.00  0.00     0.026 C 
HETATM    5  C12 UNL     1      -1.824   7.811  13.280  1.00  0.00     0.009 C 
HETATM    6  C13 UNL     1      -1.317   8.737  12.147  1.00  0.00     0.007 C 
HETATM    7  C14 UNL     1      -0.178   8.124  11.336  1.00  0.00     0.013 C 
HETATM    8  C15 UNL     1       1.017   7.676  12.208  1.00  0.00    -0.005 C 
HETATM    9  C16 UNL     1       1.752   8.916  12.763  1.00  0.00     0.019 C 
HETATM   10  C17 UNL     1       1.991   6.734  11.424  1.00  0.00     0.028 C 
HETATM   11  C22 UNL     1       1.303   5.349  11.480  1.00  0.00     0.013 C 
HETATM   12  C23 UNL     1       0.269   5.408  12.611  1.00  0.00     0.040 C 
HETATM   13  C24 UNL     1       0.532   6.734  13.347  1.00  0.00     0.070 C 
HETATM   14  C25 UNL     1      -0.659   7.302  14.165  1.00  0.00     0.026 C 
HETATM   15  C26 UNL     1      -1.191   6.293  15.191  1.00  0.00     0.011 C 
HETATM   16  C27 UNL     1      -2.227   6.944  16.086  1.00  0.00     0.039 C 
HETATM   17  C28 UNL     1      -3.431   7.530  15.341  1.00  0.00     0.073 C 
HETATM   18  C29 UNL     1      -4.431   6.437  14.906  1.00  0.00     0.071 C 
ENDROOT
BRANCH   1  19
HETATM   19  O2  UNL     1      -6.539   6.178  13.695  1.00  0.00    -0.356 OA
BRANCH  19  20
HETATM   20  C4  UNL     1      -5.950   4.887  13.604  1.00  0.00     0.263 C 
HETATM   21  C3  UNL     1      -6.757   4.052  12.605  1.00  0.00     0.095 C 
HETATM   22  C2  UNL     1      -5.943   2.820  12.248  1.00  0.00     0.156 C 
HETATM   23  C32 UNL     1      -4.615   3.258  11.571  1.00  0.00     0.175 C 
HETATM   24  C30 UNL     1      -4.247   4.713  11.939  1.00  0.00     0.151 C 
HETATM   25  O8  UNL     1      -4.556   4.978  13.313  1.00  0.00    -0.354 OA
HETATM   26  C31 UNL     1      -2.762   4.982  11.724  1.00  0.00     0.042 C 
BRANCH  22  27
HETATM   27  O1  UNL     1      -6.634   1.954  11.341  1.00  0.00    -0.388 OA
HETATM   28  C1  UNL     1      -6.293   0.585  11.455  1.00  0.00     0.202 C 
ENDBRANCH  22  27
BRANCH  23  29
HETATM   29  O9  UNL     1      -4.735   3.141  10.136  1.00  0.00    -0.390 OA
HETATM   30  H49 UNL     1      -5.400   2.425  10.020  1.00  0.00     0.210 HD
ENDBRANCH  23  29
ENDBRANCH  19  20
ENDBRANCH   1  19
BRANCH  17  31
HETATM   31  O7  UNL     1      -4.138   8.336  16.318  1.00  0.00    -0.389 OA
HETATM   32  H41 UNL     1      -4.279   7.775  17.115  1.00  0.00     0.210 HD
ENDBRANCH  17  31
BRANCH   4  33
HETATM   33  C9  UNL     1      -2.760   9.837  14.633  1.00  0.00     0.068 C 
HETATM   34  N1  UNL     1      -2.769  10.155  15.885  1.00  0.00    -0.399 N 
ATOM     35  H1  UNL     1      -2.955   9.492  16.638  1.00  0.00     0.158 HD
BRANCH  34  36
HETATM   36  C10 UNL     1      -2.478  11.588  16.107  1.00  0.00     0.144 C 
BRANCH  36  37
HETATM   37  C11 UNL     1      -3.705  12.278  16.709  1.00  0.00     0.183 C 
BRANCH  37  38
HETATM   38  O3  UNL     1      -4.893  11.914  16.007  1.00  0.00    -0.399 OA
HETATM   39  H18 UNL     1      -4.601  11.368  15.250  1.00  0.00     0.209 HD
ENDBRANCH  37  38
ENDBRANCH  36  37
ENDBRANCH  34  36
ENDBRANCH   4  33
BRANCH  13  40
HETATM   40  O6  UNL     1       1.630   6.524  14.253  1.00  0.00    -0.389 OA
HETATM   41  H35 UNL     1       1.449   5.725  14.783  1.00  0.00     0.210 HD
ENDBRANCH  13  40
BRANCH  10  42
HETATM   42  C18 UNL     1       2.454   7.171  10.053  1.00  0.00    -0.045 A 
HETATM   43  C19 UNL     1       2.861   8.375   9.642  1.00  0.00     0.087 A 
HETATM   44  C20 UNL     1       3.090   8.286   8.199  1.00  0.00     0.283 A 
HETATM   45  O4  UNL     1       3.469   9.208   7.500  1.00  0.00    -0.260 OA
HETATM   46  O5  UNL     1       2.799   7.024   7.776  1.00  0.00    -0.314 OA
HETATM   47  C21 UNL     1       2.405   6.235   8.900  1.00  0.00     0.213 A 
ENDBRANCH  10  42
TORSDOF 11
ENDMDL
MODEL 3
REMARK minimizedAffinity -8.47090721
REMARK CNNscore 0.544852257
REMARK CNNaffinity 7.10632086
REMARK  11 active torsions:
REMARK  status: ('A' for Active; 'I' for Inactive)
REMARK    1  A    between atoms: O1_2  and  C2_3 
REMARK    2  A    between atoms: C4_5  and  O2_6 
REMARK    3  A    between atoms: O2_6  and  C5_7 
REMARK    4  A    between atoms: C8_10  and  C9_11 
REMARK    5  A    between atoms: N1_12  and  C10_14 
REMARK    6  A    between atoms: C10_14  and  C11_15 
REMARK    7  A    between atoms: C11_15  and  O3_16 
REMARK    8  A    between atoms: C17_22  and  C18_23 
REMARK    9  A    between atoms: C24_31  and  O6_32 
REMARK   10  A    between atoms: C28_36  and  O7_37 
REMARK   11  A    between atoms: C32_42  and  O9_43 
ROOT
HETATM    1  C5  UNL     1      -3.058   7.108  13.369  1.00  0.00     0.127 C 
HETATM    2  C6  UNL     1      -2.754   6.534  14.758  1.00  0.00     0.033 C 
HETATM    3  C7  UNL     1      -2.813   7.594  15.857  1.00  0.00     0.021 C 
HETATM    4  C8  UNL     1      -1.864   8.825  15.628  1.00  0.00     0.026 C 
HETATM    5  C12 UNL     1      -2.560  10.076  16.303  1.00  0.00     0.009 C 
HETATM    6  C13 UNL     1      -2.701   9.955  17.840  1.00  0.00     0.007 C 
HETATM    7  C14 UNL     1      -3.412  11.149  18.473  1.00  0.00     0.013 C 
HETATM    8  C15 UNL     1      -2.755  12.504  18.122  1.00  0.00    -0.005 C 
HETATM    9  C16 UNL     1      -1.391  12.623  18.837  1.00  0.00     0.019 C 
HETATM   10  C17 UNL     1      -3.691  13.712  18.463  1.00  0.00     0.028 C 
HETATM   11  C22 UNL     1      -4.680  13.770  17.275  1.00  0.00     0.013 C 
HETATM   12  C23 UNL     1      -4.052  12.965  16.129  1.00  0.00     0.040 C 
HETATM   13  C24 UNL     1      -2.614  12.652  16.580  1.00  0.00     0.070 C 
HETATM   14  C25 UNL     1      -1.940  11.435  15.892  1.00  0.00     0.026 C 
HETATM   15  C26 UNL     1      -1.935  11.562  14.363  1.00  0.00     0.011 C 
HETATM   16  C27 UNL     1      -1.114  10.449  13.742  1.00  0.00     0.039 C 
HETATM   17  C28 UNL     1      -1.592   9.036  14.092  1.00  0.00     0.073 C 
HETATM   18  C29 UNL     1      -2.839   8.629  13.277  1.00  0.00     0.071 C 
ENDROOT
BRANCH   1  19
HETATM   19  O2  UNL     1      -4.410   6.771  13.027  1.00  0.00    -0.356 OA
BRANCH  19  20
HETATM   20  C4  UNL     1      -4.963   5.791  13.897  1.00  0.00     0.263 C 
HETATM   21  C3  UNL     1      -6.290   6.324  14.448  1.00  0.00     0.095 C 
HETATM   22  C2  UNL     1      -7.040   5.165  15.084  1.00  0.00     0.156 C 
HETATM   23  C32 UNL     1      -7.346   4.093  14.000  1.00  0.00     0.175 C 
HETATM   24  C30 UNL     1      -6.380   4.213  12.800  1.00  0.00     0.151 C 
HETATM   25  O8  UNL     1      -5.056   4.523  13.248  1.00  0.00    -0.354 OA
HETATM   26  C31 UNL     1      -6.322   2.914  12.003  1.00  0.00     0.042 C 
BRANCH  22  27
HETATM   27  O1  UNL     1      -8.283   5.572  15.663  1.00  0.00    -0.388 OA
HETATM   28  C1  UNL     1      -8.310   6.909  16.127  1.00  0.00     0.202 C 
ENDBRANCH  22  27
BRANCH  23  29
HETATM   29  O9  UNL     1      -8.707   4.239  13.539  1.00  0.00    -0.390 OA
HETATM   30  H49 UNL     1      -9.170   4.633  14.313  1.00  0.00     0.210 HD
ENDBRANCH  23  29
ENDBRANCH  19  20
ENDBRANCH   1  19
BRANCH  17  31
HETATM   31  O7  UNL     1      -0.534   8.147  13.651  1.00  0.00    -0.389 OA
HETATM   32  H41 UNL     1      -0.326   8.379  12.716  1.00  0.00     0.210 HD
ENDBRANCH  17  31
BRANCH   4  33
HETATM   33  C9  UNL     1      -0.515   8.454  16.277  1.00  0.00     0.068 C 
HETATM   34  N1  UNL     1       0.614   8.992  15.956  1.00  0.00    -0.399 N 
ATOM     35  H1  UNL     1       0.715   9.716  15.244  1.00  0.00     0.158 HD
BRANCH  34  36
HETATM   36  C10 UNL     1       1.744   8.442  16.735  1.00  0.00     0.144 C 
BRANCH  36  37
HETATM   37  C11 UNL     1       2.716   7.720  15.799  1.00  0.00     0.183 C 
BRANCH  37  38
HETATM   38  O3  UNL     1       2.042   6.725  15.030  1.00  0.00    -0.399 OA
HETATM   39  H18 UNL     1       1.124   6.702  15.366  1.00  0.00     0.209 HD
ENDBRANCH  37  38
ENDBRANCH  36  37
ENDBRANCH  34  36
ENDBRANCH   4  33
BRANCH  13  40
HETATM   40  O6  UNL     1      -1.807  13.813  16.314  1.00  0.00    -0.389 OA
HETATM   41  H35 UNL     1      -1.956  14.092  15.391  1.00  0.00     0.210 HD
ENDBRANCH  13  40
BRANCH  10  42
HETATM   42  C18 UNL     1      -4.324  13.756  19.834  1.00  0.00    -0.045 A 
HETATM   43  C19 UNL     1      -5.307  13.004  20.337  1.00  0.00     0.087 A 
HETATM   44  C20 UNL     1      -5.619  13.530  21.667  1.00  0.00     0.283 A 
HETATM   45  O4  UNL     1      -6.472  13.076  22.408  1.00  0.00    -0.260 OA
HETATM   46  O5  UNL     1      -4.818  14.601  21.925  1.00  0.00    -0.314 OA
HETATM   47  C21 UNL     1      -3.942  14.805  20.815  1.00  0.00     0.213 A 
ENDBRANCH  10  42
TORSDOF 11
ENDMDL
MODEL 4
REMARK minimizedAffinity -8.21779251
REMARK CNNscore 0.531479299
REMARK CNNaffinity 6.76599312
REMARK  11 active torsions:
REMARK  status: ('A' for Active; 'I' for Inactive)
REMARK    1  A    between atoms: O1_2  and  C2_3 
REMARK    2  A    between atoms: C4_5  and  O2_6 
REMARK    3  A    between atoms: O2_6  and  C5_7 
REMARK    4  A    between atoms: C8_10  and  C9_11 
REMARK    5  A    between atoms: N1_12  and  C10_14 
REMARK    6  A    between atoms: C10_14  and  C11_15 
REMARK    7  A    between atoms: C11_15  and  O3_16 
REMARK    8  A    between atoms: C17_22  and  C18_23 
REMARK    9  A    between atoms: C24_31  and  O6_32 
REMARK   10  A    between atoms: C28_36  and  O7_37 
REMARK   11  A    between atoms: C32_42  and  O9_43 
ROOT
HETATM    1  C5  UNL     1      -3.291   6.336  14.022  1.00  0.00     0.127 C 
HETATM    2  C6  UNL     1      -2.742   5.997  15.414  1.00  0.00     0.033 C 
HETATM    3  C7  UNL     1      -2.767   7.194  16.361  1.00  0.00     0.021 C 
HETATM    4  C8  UNL     1      -1.996   8.459  15.836  1.00  0.00     0.026 C 
HETATM    5  C12 UNL     1      -2.727   9.728  16.439  1.00  0.00     0.009 C 
HETATM    6  C13 UNL     1      -2.645   9.816  17.983  1.00  0.00     0.007 C 
HETATM    7  C14 UNL     1      -3.390  11.022  18.554  1.00  0.00     0.013 C 
HETATM    8  C15 UNL     1      -2.937  12.365  17.936  1.00  0.00    -0.005 C 
HETATM    9  C16 UNL     1      -1.510  12.707  18.419  1.00  0.00     0.019 C 
HETATM   10  C17 UNL     1      -3.944  13.521  18.252  1.00  0.00     0.028 C 
HETATM   11  C22 UNL     1      -5.084  13.320  17.227  1.00  0.00     0.013 C 
HETATM   12  C23 UNL     1      -4.533  12.417  16.115  1.00  0.00     0.040 C 
HETATM   13  C24 UNL     1      -3.022  12.302  16.384  1.00  0.00     0.070 C 
HETATM   14  C25 UNL     1      -2.319  11.063  15.768  1.00  0.00     0.026 C 
HETATM   15  C26 UNL     1      -2.534  10.968  14.252  1.00  0.00     0.011 C 
HETATM   16  C27 UNL     1      -1.688   9.855  13.665  1.00  0.00     0.039 C 
HETATM   17  C28 UNL     1      -1.959   8.470  14.263  1.00  0.00     0.073 C 
HETATM   18  C29 UNL     1      -3.253   7.841  13.702  1.00  0.00     0.071 C 
ENDROOT
BRANCH   1  19
HETATM   19  O2  UNL     1      -4.631   5.834  13.932  1.00  0.00    -0.356 OA
BRANCH  19  20
HETATM   20  C4  UNL     1      -4.947   5.354  12.631  1.00  0.00     0.263 C 
HETATM   21  C3  UNL     1      -3.750   4.556  12.103  1.00  0.00     0.095 C 
HETATM   22  C2  UNL     1      -4.206   3.763  10.889  1.00  0.00     0.156 C 
HETATM   23  C32 UNL     1      -5.320   2.765  11.315  1.00  0.00     0.175 C 
HETATM   24  C30 UNL     1      -6.013   3.217  12.619  1.00  0.00     0.151 C 
HETATM   25  O8  UNL     1      -6.183   4.639  12.634  1.00  0.00    -0.354 OA
HETATM   26  C31 UNL     1      -7.386   2.572  12.770  1.00  0.00     0.042 C 
BRANCH  22  27
HETATM   27  O1  UNL     1      -3.142   3.009  10.300  1.00  0.00    -0.388 OA
HETATM   28  C1  UNL     1      -1.860   3.275  10.836  1.00  0.00     0.202 C 
ENDBRANCH  22  27
BRANCH  23  29
HETATM   29  O9  UNL     1      -4.753   1.450  11.502  1.00  0.00    -0.390 OA
HETATM   30  H49 UNL     1      -3.977   1.447  10.896  1.00  0.00     0.210 HD
ENDBRANCH  23  29
ENDBRANCH  19  20
ENDBRANCH   1  19
BRANCH  17  31
HETATM   31  O7  UNL     1      -0.880   7.625  13.789  1.00  0.00    -0.389 OA
HETATM   32  H41 UNL     1      -0.826   7.737  12.812  1.00  0.00     0.210 HD
ENDBRANCH  17  31
BRANCH   4  33
HETATM   33  C9  UNL     1      -0.540   8.307  16.320  1.00  0.00     0.068 C 
HETATM   34  N1  UNL     1       0.454   8.980  15.844  1.00  0.00    -0.399 N 
ATOM     35  H1  UNL     1       0.365   9.677  15.105  1.00  0.00     0.158 HD
BRANCH  34  36
HETATM   36  C10 UNL     1       1.736   8.626  16.490  1.00  0.00     0.144 C 
BRANCH  36  37
HETATM   37  C11 UNL     1       2.660   7.951  15.473  1.00  0.00     0.183 C 
BRANCH  37  38
HETATM   38  O3  UNL     1       3.047   6.651  15.917  1.00  0.00    -0.399 OA
HETATM   39  H18 UNL     1       2.681   6.555  16.818  1.00  0.00     0.209 HD
ENDBRANCH  37  38
ENDBRANCH  36  37
ENDBRANCH  34  36
ENDBRANCH   4  33
BRANCH  13  40
HETATM   40  O6  UNL     1      -2.390  13.479  15.853  1.00  0.00    -0.389 OA
HETATM   41  H35 UNL     1      -2.691  13.608  14.934  1.00  0.00     0.210 HD
ENDBRANCH  13  40
BRANCH  10  42
HETATM   42  C18 UNL     1      -4.388  13.706  19.686  1.00  0.00    -0.045 A 
HETATM   43  C19 UNL     1      -5.338  13.060  20.367  1.00  0.00     0.087 A 
HETATM   44  C20 UNL     1      -5.441  13.699  21.680  1.00  0.00     0.283 A 
HETATM   45  O4  UNL     1      -6.214  13.358  22.557  1.00  0.00    -0.260 OA
HETATM   46  O5  UNL     1      -4.552  14.729  21.748  1.00  0.00    -0.314 OA
HETATM   47  C21 UNL     1      -3.819  14.794  20.523  1.00  0.00     0.213 A 
ENDBRANCH  10  42
TORSDOF 11
ENDMDL
MODEL 5
REMARK minimizedAffinity -8.71966457
REMARK CNNscore 0.480039597
REMARK CNNaffinity 6.50698423
REMARK  11 active torsions:
REMARK  status: ('A' for Active; 'I' for Inactive)
REMARK    1  A    between atoms: O1_2  and  C2_3 
REMARK    2  A    between atoms: C4_5  and  O2_6 
REMARK    3  A    between atoms: O2_6  and  C5_7 
REMARK    4  A    between atoms: C8_10  and  C9_11 
REMARK    5  A    between atoms: N1_12  and  C10_14 
REMARK    6  A    between atoms: C10_14  and  C11_15 
REMARK    7  A    between atoms: C11_15  and  O3_16 
REMARK    8  A    between atoms: C17_22  and  C18_23 
REMARK    9  A    between atoms: C24_31  and  O6_32 
REMARK   10  A    between atoms: C28_36  and  O7_37 
REMARK   11  A    between atoms: C32_42  and  O9_43 
ROOT
HETATM    1  C5  UNL     1      -2.876   7.277  13.855  1.00  0.00     0.127 C 
HETATM    2  C6  UNL     1      -2.389   6.808  15.232  1.00  0.00     0.033 C 
HETATM    3  C7  UNL     1      -2.549   7.880  16.308  1.00  0.00     0.021 C 
HETATM    4  C8  UNL     1      -1.835   9.241  15.984  1.00  0.00     0.026 C 
HETATM    5  C12 UNL     1      -2.682  10.384  16.679  1.00  0.00     0.009 C 
HETATM    6  C13 UNL     1      -2.698  10.292  18.225  1.00  0.00     0.007 C 
HETATM    7  C14 UNL     1      -3.554  11.374  18.881  1.00  0.00     0.013 C 
HETATM    8  C15 UNL     1      -3.156  12.806  18.454  1.00  0.00    -0.005 C 
HETATM    9  C16 UNL     1      -1.786  13.172  19.066  1.00  0.00     0.019 C 
HETATM   10  C17 UNL     1      -4.255  13.854  18.834  1.00  0.00     0.028 C 
HETATM   11  C22 UNL     1      -5.317  13.710  17.719  1.00  0.00     0.013 C 
HETATM   12  C23 UNL     1      -4.642  12.981  16.549  1.00  0.00     0.040 C 
HETATM   13  C24 UNL     1      -3.146  12.923  16.902  1.00  0.00     0.070 C 
HETATM   14  C25 UNL     1      -2.326  11.811  16.195  1.00  0.00     0.026 C 
HETATM   15  C26 UNL     1      -2.445  11.885  14.667  1.00  0.00     0.011 C 
HETATM   16  C27 UNL     1      -1.493  10.902  14.014  1.00  0.00     0.039 C 
HETATM   17  C28 UNL     1      -1.706   9.442  14.428  1.00  0.00     0.073 C 
HETATM   18  C29 UNL     1      -2.919   8.809  13.714  1.00  0.00     0.071 C 
ENDROOT
BRANCH   1  19
HETATM   19  O2  UNL     1      -4.172   6.711  13.619  1.00  0.00    -0.356 OA
BRANCH  19  20
HETATM   20  C4  UNL     1      -4.147   5.290  13.578  1.00  0.00     0.263 C 
HETATM   21  C3  UNL     1      -5.455   4.798  12.949  1.00  0.00     0.095 C 
HETATM   22  C2  UNL     1      -5.287   3.331  12.588  1.00  0.00     0.156 C 
HETATM   23  C32 UNL     1      -4.146   3.186  11.541  1.00  0.00     0.175 C 
HETATM   24  C30 UNL     1      -3.185   4.394  11.584  1.00  0.00     0.151 C 
HETATM   25  O8  UNL     1      -2.964   4.815  12.935  1.00  0.00    -0.354 OA
HETATM   26  C31 UNL     1      -1.835   4.051  10.965  1.00  0.00     0.042 C 
BRANCH  22  27
HETATM   27  O1  UNL     1      -6.476   2.769  12.024  1.00  0.00    -0.388 OA
HETATM   28  C1  UNL     1      -7.550   2.622  12.933  1.00  0.00     0.202 C 
ENDBRANCH  22  27
BRANCH  23  29
HETATM   29  O9  UNL     1      -4.710   3.067  10.217  1.00  0.00    -0.390 OA
HETATM   30  H49 UNL     1      -5.594   2.664  10.380  1.00  0.00     0.210 HD
ENDBRANCH  23  29
ENDBRANCH  19  20
ENDBRANCH   1  19
BRANCH  17  31
HETATM   31  O7  UNL     1      -0.547   8.725  13.933  1.00  0.00    -0.389 OA
HETATM   32  H41 UNL     1      -0.443   8.957  12.981  1.00  0.00     0.210 HD
ENDBRANCH  17  31
BRANCH   4  33
HETATM   33  C9  UNL     1      -0.403   9.119  16.543  1.00  0.00     0.068 C 
HETATM   34  N1  UNL     1       0.520  10.004  16.364  1.00  0.00    -0.399 N 
ATOM     35  H1  UNL     1       0.385  10.867  15.837  1.00  0.00     0.158 HD
BRANCH  34  36
HETATM   36  C10 UNL     1       1.798   9.625  17.007  1.00  0.00     0.144 C 
BRANCH  36  37
HETATM   37  C11 UNL     1       2.037  10.501  18.239  1.00  0.00     0.183 C 
BRANCH  37  38
HETATM   38  O3  UNL     1       2.536   9.727  19.329  1.00  0.00    -0.399 OA
HETATM   39  H18 UNL     1       2.520   8.797  19.027  1.00  0.00     0.209 HD
ENDBRANCH  37  38
ENDBRANCH  36  37
ENDBRANCH  34  36
ENDBRANCH   4  33
BRANCH  13  40
HETATM   40  O6  UNL     1      -2.563  14.192  16.554  1.00  0.00    -0.389 OA
HETATM   41  H35 UNL     1      -2.817  14.411  15.638  1.00  0.00     0.210 HD
ENDBRANCH  13  40
BRANCH  10  42
HETATM   42  C18 UNL     1      -4.794  13.840  20.246  1.00  0.00    -0.045 A 
HETATM   43  C19 UNL     1      -5.760  13.086  20.775  1.00  0.00     0.087 A 
HETATM   44  C20 UNL     1      -5.968  13.547  22.148  1.00  0.00     0.283 A 
HETATM   45  O4  UNL     1      -6.781  13.074  22.922  1.00  0.00    -0.260 OA
HETATM   46  O5  UNL     1      -5.123  14.584  22.406  1.00  0.00    -0.314 OA
HETATM   47  C21 UNL     1      -4.318  14.826  21.251  1.00  0.00     0.213 A 
ENDBRANCH  10  42
TORSDOF 11
ENDMDL
MODEL 6
REMARK minimizedAffinity -10.0570593
REMARK CNNscore 0.422166675
REMARK CNNaffinity 6.68333101
REMARK  11 active torsions:
REMARK  status: ('A' for Active; 'I' for Inactive)
REMARK    1  A    between atoms: O1_2  and  C2_3 
REMARK    2  A    between atoms: C4_5  and  O2_6 
REMARK    3  A    between atoms: O2_6  and  C5_7 
REMARK    4  A    between atoms: C8_10  and  C9_11 
REMARK    5  A    between atoms: N1_12  and  C10_14 
REMARK    6  A    between atoms: C10_14  and  C11_15 
REMARK    7  A    between atoms: C11_15  and  O3_16 
REMARK    8  A    between atoms: C17_22  and  C18_23 
REMARK    9  A    between atoms: C24_31  and  O6_32 
REMARK   10  A    between atoms: C28_36  and  O7_37 
REMARK   11  A    between atoms: C32_42  and  O9_43 
ROOT
HETATM    1  C5  UNL     1      -4.529   7.994  15.510  1.00  0.00     0.127 C 
HETATM    2  C6  UNL     1      -4.543   9.088  14.434  1.00  0.00     0.033 C 
HETATM    3  C7  UNL     1      -3.379   8.960  13.454  1.00  0.00     0.021 C 
HETATM    4  C8  UNL     1      -1.958   8.963  14.123  1.00  0.00     0.026 C 
HETATM    5  C12 UNL     1      -1.014   8.082  13.207  1.00  0.00     0.009 C 
HETATM    6  C13 UNL     1      -0.796   8.670  11.792  1.00  0.00     0.007 C 
HETATM    7  C14 UNL     1       0.081   7.788  10.905  1.00  0.00     0.013 C 
HETATM    8  C15 UNL     1       1.451   7.457  11.541  1.00  0.00    -0.005 C 
HETATM    9  C16 UNL     1       2.332   8.725  11.574  1.00  0.00     0.019 C 
HETATM   10  C17 UNL     1       2.168   6.278  10.802  1.00  0.00     0.028 C 
HETATM   11  C22 UNL     1       1.486   5.009  11.366  1.00  0.00     0.013 C 
HETATM   12  C23 UNL     1       0.780   5.419  12.665  1.00  0.00     0.040 C 
HETATM   13  C24 UNL     1       1.254   6.853  12.961  1.00  0.00     0.070 C 
HETATM   14  C25 UNL     1       0.328   7.696  13.878  1.00  0.00     0.026 C 
HETATM   15  C26 UNL     1       0.056   7.004  15.221  1.00  0.00     0.011 C 
HETATM   16  C27 UNL     1      -0.699   7.933  16.151  1.00  0.00     0.039 C 
HETATM   17  C28 UNL     1      -2.041   8.429  15.601  1.00  0.00     0.073 C 
HETATM   18  C29 UNL     1      -3.144   7.353  15.710  1.00  0.00     0.071 C 
ENDROOT
BRANCH   1  19
HETATM   19  O2  UNL     1      -5.499   6.999  15.154  1.00  0.00    -0.356 OA
BRANCH  19  20
HETATM   20  C4  UNL     1      -5.300   6.489  13.841  1.00  0.00     0.263 C 
HETATM   21  C3  UNL     1      -4.613   5.124  13.948  1.00  0.00     0.095 C 
HETATM   22  C2  UNL     1      -4.716   4.433  12.599  1.00  0.00     0.156 C 
HETATM   23  C32 UNL     1      -6.214   4.210  12.247  1.00  0.00     0.175 C 
HETATM   24  C30 UNL     1      -7.126   5.188  13.020  1.00  0.00     0.151 C 
HETATM   25  O8  UNL     1      -6.522   6.484  13.102  1.00  0.00    -0.354 OA
HETATM   26  C31 UNL     1      -8.482   5.337  12.340  1.00  0.00     0.042 C 
BRANCH  22  27
HETATM   27  O1  UNL     1      -4.068   3.157  12.589  1.00  0.00    -0.388 OA
HETATM   28  C1  UNL     1      -3.143   2.972  11.534  1.00  0.00     0.202 C 
ENDBRANCH  22  27
BRANCH  23  29
HETATM   29  O9  UNL     1      -6.593   2.851  12.558  1.00  0.00    -0.390 OA
HETATM   30  H49 UNL     1      -5.750   2.352  12.465  1.00  0.00     0.210 HD
ENDBRANCH  23  29
ENDBRANCH  19  20
ENDBRANCH   1  19
BRANCH  17  31
HETATM   31  O7  UNL     1      -2.454   9.498  16.490  1.00  0.00    -0.389 OA
HETATM   32  H41 UNL     1      -2.396   9.153  17.411  1.00  0.00     0.210 HD
ENDBRANCH  17  31
BRANCH   4  33
HETATM   33  C9  UNL     1      -1.523  10.440  14.202  1.00  0.00     0.068 C 
HETATM   34  N1  UNL     1      -2.324  11.416  14.476  1.00  0.00    -0.399 N 
ATOM     35  H1  UNL     1      -3.318  11.297  14.669  1.00  0.00     0.158 HD
BRANCH  34  36
HETATM   36  C10 UNL     1      -1.638  12.726  14.479  1.00  0.00     0.144 C 
BRANCH  36  37
HETATM   37  C11 UNL     1      -2.659  13.846  14.263  1.00  0.00     0.183 C 
BRANCH  37  38
HETATM   38  O3  UNL     1      -2.395  14.555  13.053  1.00  0.00    -0.399 OA
HETATM   39  H18 UNL     1      -1.559  14.188  12.704  1.00  0.00     0.209 HD
ENDBRANCH  37  38
ENDBRANCH  36  37
ENDBRANCH  34  36
ENDBRANCH   4  33
BRANCH  13  40
HETATM   40  O6  UNL     1       2.544   6.768  13.594  1.00  0.00    -0.389 OA
HETATM   41  H35 UNL     1       2.488   6.134  14.333  1.00  0.00     0.210 HD
ENDBRANCH  13  40
BRANCH  10  42
HETATM   42  C18 UNL     1       2.271   6.341   9.295  1.00  0.00    -0.045 A 
HETATM   43  C19 UNL     1       1.726   7.215   8.446  1.00  0.00     0.087 A 
HETATM   44  C20 UNL     1       2.045   6.761   7.091  1.00  0.00     0.283 A 
HETATM   45  O4  UNL     1       1.701   7.330   6.071  1.00  0.00    -0.260 OA
HETATM   46  O5  UNL     1       2.769   5.610   7.164  1.00  0.00    -0.314 OA
HETATM   47  C21 UNL     1       2.980   5.277   8.537  1.00  0.00     0.213 A 
ENDBRANCH  10  42
TORSDOF 11
ENDMDL
MODEL 7
REMARK minimizedAffinity -6.7750845
REMARK CNNscore 0.414271623
REMARK CNNaffinity 5.63231516
REMARK  11 active torsions:
REMARK  status: ('A' for Active; 'I' for Inactive)
REMARK    1  A    between atoms: O1_2  and  C2_3 
REMARK    2  A    between atoms: C4_5  and  O2_6 
REMARK    3  A    between atoms: O2_6  and  C5_7 
REMARK    4  A    between atoms: C8_10  and  C9_11 
REMARK    5  A    between atoms: N1_12  and  C10_14 
REMARK    6  A    between atoms: C10_14  and  C11_15 
REMARK    7  A    between atoms: C11_15  and  O3_16 
REMARK    8  A    between atoms: C17_22  and  C18_23 
REMARK    9  A    between atoms: C24_31  and  O6_32 
REMARK   10  A    between atoms: C28_36  and  O7_37 
REMARK   11  A    between atoms: C32_42  and  O9_43 
ROOT
HETATM    1  C5  UNL     1     -16.768  -7.449   6.986  1.00  0.00     0.127 C 
HETATM    2  C6  UNL     1     -16.295  -8.346   8.136  1.00  0.00     0.033 C 
HETATM    3  C7  UNL     1     -15.979  -7.556   9.404  1.00  0.00     0.021 C 
HETATM    4  C8  UNL     1     -14.914  -6.417   9.215  1.00  0.00     0.026 C 
HETATM    5  C12 UNL     1     -15.267  -5.277  10.255  1.00  0.00     0.009 C 
HETATM    6  C13 UNL     1     -15.128  -5.719  11.733  1.00  0.00     0.007 C 
HETATM    7  C14 UNL     1     -15.512  -4.624  12.725  1.00  0.00     0.013 C 
HETATM    8  C15 UNL     1     -14.734  -3.305  12.507  1.00  0.00    -0.005 C 
HETATM    9  C16 UNL     1     -13.257  -3.498  12.914  1.00  0.00     0.019 C 
HETATM   10  C17 UNL     1     -15.390  -2.108  13.272  1.00  0.00     0.028 C 
HETATM   11  C22 UNL     1     -16.568  -1.679  12.365  1.00  0.00     0.013 C 
HETATM   12  C23 UNL     1     -16.302  -2.275  10.976  1.00  0.00     0.040 C 
HETATM   13  C24 UNL     1     -14.871  -2.836  11.030  1.00  0.00     0.070 C 
HETATM   14  C25 UNL     1     -14.536  -3.937   9.989  1.00  0.00     0.026 C 
HETATM   15  C26 UNL     1     -14.805  -3.477   8.551  1.00  0.00     0.011 C 
HETATM   16  C27 UNL     1     -14.299  -4.508   7.561  1.00  0.00     0.039 C 
HETATM   17  C28 UNL     1     -14.913  -5.902   7.727  1.00  0.00     0.073 C 
HETATM   18  C29 UNL     1     -16.340  -5.979   7.144  1.00  0.00     0.071 C 
ENDROOT
BRANCH   1  19
HETATM   19  O2  UNL     1     -18.196  -7.552   6.891  1.00  0.00    -0.356 OA
BRANCH  19  20
HETATM   20  C4  UNL     1     -18.614  -8.740   6.231  1.00  0.00     0.263 C 
HETATM   21  C3  UNL     1     -19.486  -8.351   5.034  1.00  0.00     0.095 C 
HETATM   22  C2  UNL     1     -19.640  -9.572   4.142  1.00  0.00     0.156 C 
HETATM   23  C32 UNL     1     -18.242 -10.007   3.618  1.00  0.00     0.175 C 
HETATM   24  C30 UNL     1     -17.111  -9.486   4.532  1.00  0.00     0.151 C 
HETATM   25  O8  UNL     1     -17.496  -9.569   5.909  1.00  0.00    -0.354 OA
HETATM   26  C31 UNL     1     -15.832 -10.294   4.346  1.00  0.00     0.042 C 
BRANCH  22  27
HETATM   27  O1  UNL     1     -20.474  -9.316   3.007  1.00  0.00    -0.388 OA
HETATM   28  C1  UNL     1     -20.997  -8.003   2.941  1.00  0.00     0.202 C 
ENDBRANCH  22  27
BRANCH  23  29
HETATM   29  O9  UNL     1     -18.045  -9.509   2.277  1.00  0.00    -0.390 OA
HETATM   30  H49 UNL     1     -18.960  -9.446   1.919  1.00  0.00     0.210 HD
ENDBRANCH  23  29
ENDBRANCH  19  20
ENDBRANCH   1  19
BRANCH  17  31
HETATM   31  O7  UNL     1     -14.108  -6.781   6.901  1.00  0.00    -0.389 OA
HETATM   32  H41 UNL     1     -14.050  -6.373   6.007  1.00  0.00     0.210 HD
ENDBRANCH  17  31
BRANCH   4  33
HETATM   33  C9  UNL     1     -13.539  -7.067   9.467  1.00  0.00     0.068 C 
HETATM   34  N1  UNL     1     -13.244  -8.282   9.143  1.00  0.00    -0.399 N 
ATOM     35  H1  UNL     1     -13.895  -8.922   8.687  1.00  0.00     0.158 HD
BRANCH  34  36
HETATM   36  C10 UNL     1     -11.857  -8.643   9.508  1.00  0.00     0.144 C 
BRANCH  36  37
HETATM   37  C11 UNL     1     -10.920  -8.357   8.331  1.00  0.00     0.183 C 
BRANCH  37  38
HETATM   38  O3  UNL     1      -9.755  -7.657   8.764  1.00  0.00    -0.399 OA
HETATM   39  H18 UNL     1      -9.895  -7.462   9.711  1.00  0.00     0.209 HD
ENDBRANCH  37  38
ENDBRANCH  36  37
ENDBRANCH  34  36
ENDBRANCH   4  33
BRANCH  13  40
HETATM   40  O6  UNL     1     -13.961  -1.740  10.823  1.00  0.00    -0.389 OA
HETATM   41  H35 UNL     1     -14.239  -1.250  10.028  1.00  0.00     0.210 HD
ENDBRANCH  13  40
BRANCH  10  42
HETATM   42  C18 UNL     1     -15.735  -2.299  14.732  1.00  0.00    -0.045 A 
HETATM   43  C19 UNL     1     -16.423  -1.499  15.550  1.00  0.00     0.087 A 
HETATM   44  C20 UNL     1     -16.372  -2.097  16.885  1.00  0.00     0.283 A 
HETATM   45  O4  UNL     1     -16.900  -1.625  17.876  1.00  0.00    -0.260 OA
HETATM   46  O5  UNL     1     -15.637  -3.242  16.836  1.00  0.00    -0.314 OA
HETATM   47  C21 UNL     1     -15.207  -3.462  15.491  1.00  0.00     0.213 A 
ENDBRANCH  10  42
TORSDOF 11
ENDMDL
MODEL 8
REMARK minimizedAffinity -6.85011816
REMARK CNNscore 0.379073411
REMARK CNNaffinity 7.08333015
REMARK  11 active torsions:
REMARK  status: ('A' for Active; 'I' for Inactive)
REMARK    1  A    between atoms: O1_2  and  C2_3 
REMARK    2  A    between atoms: C4_5  and  O2_6 
REMARK    3  A    between atoms: O2_6  and  C5_7 
REMARK    4  A    between atoms: C8_10  and  C9_11 
REMARK    5  A    between atoms: N1_12  and  C10_14 
REMARK    6  A    between atoms: C10_14  and  C11_15 
REMARK    7  A    between atoms: C11_15  and  O3_16 
REMARK    8  A    between atoms: C17_22  and  C18_23 
REMARK    9  A    between atoms: C24_31  and  O6_32 
REMARK   10  A    between atoms: C28_36  and  O7_37 
REMARK   11  A    between atoms: C32_42  and  O9_43 
ROOT
HETATM    1  C5  UNL     1     -10.297   7.662  13.231  1.00  0.00     0.127 C 
HETATM    2  C6  UNL     1     -10.455   7.384  14.731  1.00  0.00     0.033 C 
HETATM    3  C7  UNL     1     -11.881   6.989  15.107  1.00  0.00     0.021 C 
HETATM    4  C8  UNL     1     -12.979   8.034  14.694  1.00  0.00     0.026 C 
HETATM    5  C12 UNL     1     -14.307   7.221  14.409  1.00  0.00     0.009 C 
HETATM    6  C13 UNL     1     -14.879   6.506  15.658  1.00  0.00     0.007 C 
HETATM    7  C14 UNL     1     -16.135   5.691  15.360  1.00  0.00     0.013 C 
HETATM    8  C15 UNL     1     -17.252   6.520  14.685  1.00  0.00    -0.005 C 
HETATM    9  C16 UNL     1     -17.845   7.521  15.701  1.00  0.00     0.019 C 
HETATM   10  C17 UNL     1     -18.361   5.607  14.063  1.00  0.00     0.028 C 
HETATM   11  C22 UNL     1     -17.757   5.142  12.717  1.00  0.00     0.013 C 
HETATM   12  C23 UNL     1     -16.602   6.098  12.391  1.00  0.00     0.040 C 
HETATM   13  C24 UNL     1     -16.702   7.238  13.419  1.00  0.00     0.070 C 
HETATM   14  C25 UNL     1     -15.396   8.038  13.671  1.00  0.00     0.026 C 
HETATM   15  C26 UNL     1     -14.816   8.624  12.376  1.00  0.00     0.011 C 
HETATM   16  C27 UNL     1     -13.650   9.543  12.687  1.00  0.00     0.039 C 
HETATM   17  C28 UNL     1     -12.503   8.875  13.452  1.00  0.00     0.073 C 
HETATM   18  C29 UNL     1     -11.625   8.000  12.531  1.00  0.00     0.071 C 
ENDROOT
BRANCH   1  19
HETATM   19  O2  UNL     1      -9.682   6.518  12.623  1.00  0.00    -0.356 OA
BRANCH  19  20
HETATM   20  C4  UNL     1      -8.775   5.857  13.497  1.00  0.00     0.263 C 
HETATM   21  C3  UNL     1      -8.249   4.602  12.794  1.00  0.00     0.095 C 
HETATM   22  C2  UNL     1      -7.041   4.096  13.566  1.00  0.00     0.156 C 
HETATM   23  C32 UNL     1      -5.927   5.181  13.547  1.00  0.00     0.175 C 
HETATM   24  C30 UNL     1      -6.511   6.585  13.274  1.00  0.00     0.151 C 
HETATM   25  O8  UNL     1      -7.761   6.752  13.955  1.00  0.00    -0.354 OA
HETATM   26  C31 UNL     1      -5.563   7.681  13.745  1.00  0.00     0.042 C 
BRANCH  22  27
HETATM   27  O1  UNL     1      -6.497   2.898  13.003  1.00  0.00    -0.388 OA
HETATM   28  C1  UNL     1      -7.461   1.951  12.585  1.00  0.00     0.202 C 
ENDBRANCH  22  27
BRANCH  23  29
HETATM   29  O9  UNL     1      -4.950   4.861  12.531  1.00  0.00    -0.390 OA
HETATM   30  H49 UNL     1      -5.001   3.880  12.465  1.00  0.00     0.210 HD
ENDBRANCH  23  29
ENDBRANCH  19  20
ENDBRANCH   1  19
BRANCH  17  31
HETATM   31  O7  UNL     1     -11.645   9.959  13.889  1.00  0.00    -0.389 OA
HETATM   32  H41 UNL     1     -11.452  10.517  13.101  1.00  0.00     0.210 HD
ENDBRANCH  17  31
BRANCH   4  33
HETATM   33  C9  UNL     1     -13.107   9.013  15.879  1.00  0.00     0.068 C 
HETATM   34  N1  UNL     1     -12.366   8.971  16.935  1.00  0.00    -0.399 N 
ATOM     35  H1  UNL     1     -11.624   8.285  17.081  1.00  0.00     0.158 HD
BRANCH  34  36
HETATM   36  C10 UNL     1     -12.712  10.026  17.911  1.00  0.00     0.144 C 
BRANCH  36  37
HETATM   37  C11 UNL     1     -11.663  10.065  19.026  1.00  0.00     0.183 C 
BRANCH  37  38
HETATM   38  O3  UNL     1     -11.136   8.764  19.278  1.00  0.00    -0.399 OA
HETATM   39  H18 UNL     1     -11.652   8.152  18.717  1.00  0.00     0.209 HD
ENDBRANCH  37  38
ENDBRANCH  36  37
ENDBRANCH  34  36
ENDBRANCH   4  33
BRANCH  13  40
HETATM   40  O6  UNL     1     -17.704   8.161  12.957  1.00  0.00    -0.389 OA
HETATM   41  H35 UNL     1     -17.515   8.388  12.028  1.00  0.00     0.210 HD
ENDBRANCH  13  40
BRANCH  10  42
HETATM   42  C18 UNL     1     -18.945   4.510  14.923  1.00  0.00    -0.045 A 
HETATM   43  C19 UNL     1     -19.740   4.606  15.992  1.00  0.00     0.087 A 
HETATM   44  C20 UNL     1     -19.923   3.253  16.520  1.00  0.00     0.283 A 
HETATM   45  O4  UNL     1     -20.596   2.976  17.496  1.00  0.00    -0.260 OA
HETATM   46  O5  UNL     1     -19.218   2.375  15.755  1.00  0.00    -0.314 OA
HETATM   47  C21 UNL     1     -18.577   3.089  14.696  1.00  0.00     0.213 A 
ENDBRANCH  10  42
TORSDOF 11
ENDMDL
MODEL 9
REMARK minimizedAffinity -6.74040508
REMARK CNNscore 0.328494549
REMARK CNNaffinity 5.72275782
REMARK  11 active torsions:
REMARK  status: ('A' for Active; 'I' for Inactive)
REMARK    1  A    between atoms: O1_2  and  C2_3 
REMARK    2  A    between atoms: C4_5  and  O2_6 
REMARK    3  A    between atoms: O2_6  and  C5_7 
REMARK    4  A    between atoms: C8_10  and  C9_11 
REMARK    5  A    between atoms: N1_12  and  C10_14 
REMARK    6  A    between atoms: C10_14  and  C11_15 
REMARK    7  A    between atoms: C11_15  and  O3_16 
REMARK    8  A    between atoms: C17_22  and  C18_23 
REMARK    9  A    between atoms: C24_31  and  O6_32 
REMARK   10  A    between atoms: C28_36  and  O7_37 
REMARK   11  A    between atoms: C32_42  and  O9_43 
ROOT
HETATM    1  C5  UNL     1     -11.343  11.164  19.479  1.00  0.00     0.127 C 
HETATM    2  C6  UNL     1     -12.398  12.184  19.032  1.00  0.00     0.033 C 
HETATM    3  C7  UNL     1     -13.116  11.762  17.751  1.00  0.00     0.021 C 
HETATM    4  C8  UNL     1     -12.166  11.487  16.531  1.00  0.00     0.026 C 
HETATM    5  C12 UNL     1     -12.866  10.380  15.641  1.00  0.00     0.009 C 
HETATM    6  C13 UNL     1     -14.206  10.841  15.016  1.00  0.00     0.007 C 
HETATM    7  C14 UNL     1     -14.891   9.750  14.196  1.00  0.00     0.013 C 
HETATM    8  C15 UNL     1     -13.984   9.159  13.092  1.00  0.00    -0.005 C 
HETATM    9  C16 UNL     1     -13.769  10.206  11.977  1.00  0.00     0.019 C 
HETATM   10  C17 UNL     1     -14.559   7.819  12.520  1.00  0.00     0.028 C 
HETATM   11  C22 UNL     1     -14.149   6.756  13.566  1.00  0.00     0.013 C 
HETATM   12  C23 UNL     1     -13.025   7.369  14.411  1.00  0.00     0.040 C 
HETATM   13  C24 UNL     1     -12.636   8.678  13.701  1.00  0.00     0.070 C 
HETATM   14  C25 UNL     1     -11.931   9.743  14.583  1.00  0.00     0.026 C 
HETATM   15  C26 UNL     1     -10.675   9.189  15.268  1.00  0.00     0.011 C 
HETATM   16  C27 UNL     1      -9.921  10.302  15.970  1.00  0.00     0.039 C 
HETATM   17  C28 UNL     1     -10.737  11.052  17.028  1.00  0.00     0.073 C 
HETATM   18  C29 UNL     1     -10.860  10.248  18.341  1.00  0.00     0.071 C 
ENDROOT
BRANCH   1  19
HETATM   19  O2  UNL     1     -11.893  10.389  20.553  1.00  0.00    -0.356 OA
BRANCH  19  20
HETATM   20  C4  UNL     1     -11.054  10.377  21.702  1.00  0.00     0.263 C 
HETATM   21  C3  UNL     1     -11.488  11.513  22.633  1.00  0.00     0.095 C 
HETATM   22  C2  UNL     1     -10.842  11.289  23.990  1.00  0.00     0.156 C 
HETATM   23  C32 UNL     1     -11.341   9.941  24.582  1.00  0.00     0.175 C 
HETATM   24  C30 UNL     1     -11.860   8.996  23.476  1.00  0.00     0.151 C 
HETATM   25  O8  UNL     1     -11.034   9.085  22.309  1.00  0.00    -0.354 OA
HETATM   26  C31 UNL     1     -11.870   7.546  23.944  1.00  0.00     0.042 C 
BRANCH  22  27
HETATM   27  O1  UNL     1     -11.161  12.325  24.924  1.00  0.00    -0.388 OA
HETATM   28  C1  UNL     1     -10.960  13.639  24.441  1.00  0.00     0.202 C 
ENDBRANCH  22  27
BRANCH  23  29
HETATM   29  O9  UNL     1     -12.396  10.188  25.538  1.00  0.00    -0.390 OA
HETATM   30  H49 UNL     1     -12.195  11.091  25.873  1.00  0.00     0.210 HD
ENDBRANCH  23  29
ENDBRANCH  19  20
ENDBRANCH   1  19
BRANCH  17  31
HETATM   31  O7  UNL     1      -9.954  12.225  17.364  1.00  0.00    -0.389 OA
HETATM   32  H41 UNL     1      -9.041  11.918  17.573  1.00  0.00     0.210 HD
ENDBRANCH  17  31
BRANCH   4  33
HETATM   33  C9  UNL     1     -11.998  12.836  15.804  1.00  0.00     0.068 C 
HETATM   34  N1  UNL     1     -11.419  12.973  14.658  1.00  0.00    -0.399 N 
ATOM     35  H1  UNL     1     -11.021  12.197  14.127  1.00  0.00     0.158 HD
BRANCH  34  36
HETATM   36  C10 UNL     1     -11.395  14.379  14.201  1.00  0.00     0.144 C 
BRANCH  36  37
HETATM   37  C11 UNL     1     -12.474  14.596  13.136  1.00  0.00     0.183 C 
BRANCH  37  38
HETATM   38  O3  UNL     1     -12.750  13.385  12.433  1.00  0.00    -0.399 OA
HETATM   39  H18 UNL     1     -12.104  12.730  12.763  1.00  0.00     0.209 HD
ENDBRANCH  37  38
ENDBRANCH  36  37
ENDBRANCH  34  36
ENDBRANCH   4  33
BRANCH  13  40
HETATM   40  O6  UNL     1     -11.750   8.344  12.618  1.00  0.00    -0.389 OA
HETATM   41  H35 UNL     1     -11.039   7.771  12.962  1.00  0.00     0.210 HD
ENDBRANCH  13  40
BRANCH  10  42
HETATM   42  C18 UNL     1     -16.011   7.789  12.102  1.00  0.00    -0.045 A 
HETATM   43  C19 UNL     1     -16.715   8.697  11.422  1.00  0.00     0.087 A 
HETATM   44  C20 UNL     1     -18.102   8.232  11.382  1.00  0.00     0.283 A 
HETATM   45  O4  UNL     1     -19.015   8.824  10.837  1.00  0.00    -0.260 OA
HETATM   46  O5  UNL     1     -18.198   7.053  12.057  1.00  0.00    -0.314 OA
HETATM   47  C21 UNL     1     -16.903   6.682  12.534  1.00  0.00     0.213 A 
ENDBRANCH  10  42
TORSDOF 11
ENDMDL
