MODEL 1
REMARK minimizedAffinity -8.72333813
REMARK  8 active torsions:
REMARK  status: ('A' for Active; 'I' for Inactive)
REMARK    1  A    between atoms: C12_14  and  C13_15 
REMARK    2  A    between atoms: C13_15  and  C15_17 
REMARK    3  A    between atoms: C15_17  and  C16_18 
REMARK    4  A    between atoms: C16_18  and  C17_19 
REMARK    5  A    between atoms: C26_28  and  C27_29 
REMARK    6  A    between atoms: C27_29  and  C28_30 
REMARK    7  A    between atoms: C28_30  and  C29_31 
REMARK    8  A    between atoms: C29_31  and  O4_33 
ROOT
HETATM    1  C1  UNL     1      -7.190   4.141  13.617  1.00  0.00     0.025 C 
HETATM    2  C2  UNL     1      -6.368   5.167  13.870  1.00  0.00     0.015 C 
HETATM    3  C3  UNL     1      -6.300   5.839  15.193  1.00  0.00     0.289 C 
HETATM    4  O1  UNL     1      -6.782   5.433  16.236  1.00  0.00    -0.260 OA
HETATM    5  O2  UNL     1      -5.574   6.988  15.037  1.00  0.00    -0.311 OA
HETATM    6  C4  UNL     1      -5.425   7.232  13.636  1.00  0.00     0.142 C 
HETATM    7  C5  UNL     1      -4.202   8.065  13.298  1.00  0.00     0.039 C 
HETATM    8  C6  UNL     1      -2.863   7.418  13.705  1.00  0.00     0.006 C 
HETATM    9  C7  UNL     1      -2.729   5.975  13.142  1.00  0.00    -0.027 A 
HETATM   10  C8  UNL     1      -1.375   5.534  12.518  1.00  0.00     0.011 C 
HETATM   11  C9  UNL     1      -0.176   6.490  12.555  1.00  0.00     0.011 C 
HETATM   12  C10 UNL     1      -0.304   7.569  13.625  1.00  0.00    -0.032 C 
HETATM   13  C11 UNL     1      -0.232   6.898  15.018  1.00  0.00     0.016 C 
HETATM   14  C12 UNL     1       0.742   8.721  13.517  1.00  0.00    -0.002 C 
HETATM   15  C21 UNL     1       0.011   9.946  14.107  1.00  0.00     0.006 C 
HETATM   16  C22 UNL     1      -1.476   9.558  14.245  1.00  0.00     0.011 C 
HETATM   17  C23 UNL     1      -1.649   8.323  13.343  1.00  0.00    -0.032 C 
HETATM   18  C24 UNL     1      -1.797   8.838  11.875  1.00  0.00     0.016 C 
HETATM   19  C25 UNL     1      -3.301   4.883  14.042  1.00  0.00     0.022 A 
HETATM   20  C26 UNL     1      -4.049   5.218  12.778  1.00  0.00    -0.021 A 
HETATM   21  C31 UNL     1      -5.433   5.877  12.947  1.00  0.00     0.063 C 
ENDROOT
BRANCH  14  22
HETATM   22  C13 UNL     1       2.236   8.496  13.903  1.00  0.00    -0.014 C 
HETATM   23  C14 UNL     1       2.315   7.392  14.977  1.00  0.00     0.010 C 
BRANCH  22  24
HETATM   24  C15 UNL     1       3.338   8.302  12.829  1.00  0.00     0.008 C 
BRANCH  24  25
HETATM   25  C16 UNL     1       3.189   7.289  11.683  1.00  0.00     0.028 C 
BRANCH  25  26
HETATM   26  C17 UNL     1       2.920   7.910  10.345  1.00  0.00    -0.025 C 
HETATM   27  C18 UNL     1       2.896   7.312   9.139  1.00  0.00    -0.091 C 
HETATM   28  C19 UNL     1       3.064   5.839   8.897  1.00  0.00     0.042 C 
HETATM   29  C20 UNL     1       2.689   8.133   7.891  1.00  0.00     0.042 C 
ENDBRANCH  25  26
ENDBRANCH  24  25
ENDBRANCH  22  24
ENDBRANCH  14  22
BRANCH  20  30
HETATM   30  C27 UNL     1      -4.011   4.170  11.661  1.00  0.00     0.021 C 
BRANCH  30  31
HETATM   31  C28 UNL     1      -3.375   2.856  12.117  1.00  0.00     0.112 C 
BRANCH  31  32
HETATM   32  C29 UNL     1      -2.360   2.380  11.111  1.00  0.00     0.258 C 
HETATM   33  O3  UNL     1      -1.843   3.097  10.263  1.00  0.00    -0.265 OA
BRANCH  32  34
HETATM   34  O4  UNL     1      -2.109   1.052  11.278  1.00  0.00    -0.326 OA
HETATM   35  C30 UNL     1      -0.909   0.605  10.637  1.00  0.00     0.213 C 
ENDBRANCH  32  34
ENDBRANCH  31  32
ENDBRANCH  30  31
ENDBRANCH  20  30
TORSDOF 8
ENDMDL
MODEL 2
REMARK minimizedAffinity -8.55022335
REMARK  8 active torsions:
REMARK  status: ('A' for Active; 'I' for Inactive)
REMARK    1  A    between atoms: C12_14  and  C13_15 
REMARK    2  A    between atoms: C13_15  and  C15_17 
REMARK    3  A    between atoms: C15_17  and  C16_18 
REMARK    4  A    between atoms: C16_18  and  C17_19 
REMARK    5  A    between atoms: C26_28  and  C27_29 
REMARK    6  A    between atoms: C27_29  and  C28_30 
REMARK    7  A    between atoms: C28_30  and  C29_31 
REMARK    8  A    between atoms: C29_31  and  O4_33 
ROOT
HETATM    1  C1  UNL     1      -7.236   4.553  14.006  1.00  0.00     0.025 C 
HETATM    2  C2  UNL     1      -6.356   5.542  14.206  1.00  0.00     0.015 C 
HETATM    3  C3  UNL     1      -6.176   6.208  15.522  1.00  0.00     0.289 C 
HETATM    4  O1  UNL     1      -6.608   5.821  16.593  1.00  0.00    -0.260 OA
HETATM    5  O2  UNL     1      -5.412   7.324  15.319  1.00  0.00    -0.311 OA
HETATM    6  C4  UNL     1      -5.340   7.564  13.911  1.00  0.00     0.142 C 
HETATM    7  C5  UNL     1      -4.106   8.344  13.496  1.00  0.00     0.039 C 
HETATM    8  C6  UNL     1      -2.773   7.638  13.818  1.00  0.00     0.006 C 
HETATM    9  C7  UNL     1      -2.738   6.192  13.250  1.00  0.00    -0.027 A 
HETATM   10  C8  UNL     1      -1.446   5.694  12.541  1.00  0.00     0.011 C 
HETATM   11  C9  UNL     1      -0.207   6.596  12.503  1.00  0.00     0.011 C 
HETATM   12  C10 UNL     1      -0.220   7.677  13.578  1.00  0.00    -0.032 C 
HETATM   13  C11 UNL     1      -0.090   7.001  14.964  1.00  0.00     0.016 C 
HETATM   14  C12 UNL     1       0.867   8.783  13.403  1.00  0.00    -0.002 C 
HETATM   15  C21 UNL     1       0.228  10.038  14.037  1.00  0.00     0.006 C 
HETATM   16  C22 UNL     1      -1.262   9.715  14.269  1.00  0.00     0.011 C 
HETATM   17  C23 UNL     1      -1.546   8.490  13.380  1.00  0.00    -0.032 C 
HETATM   18  C24 UNL     1      -1.764   9.014  11.924  1.00  0.00     0.016 C 
HETATM   19  C25 UNL     1      -3.299   5.124  14.185  1.00  0.00     0.022 A 
HETATM   20  C26 UNL     1      -4.110   5.494  12.970  1.00  0.00    -0.021 A 
HETATM   21  C31 UNL     1      -5.451   6.212  13.225  1.00  0.00     0.063 C 
ENDROOT
BRANCH  14  22
HETATM   22  C13 UNL     1       2.370   8.492  13.694  1.00  0.00    -0.014 C 
HETATM   23  C14 UNL     1       2.518   8.035  15.160  1.00  0.00     0.010 C 
BRANCH  22  24
HETATM   24  C15 UNL     1       3.230   7.611  12.752  1.00  0.00     0.008 C 
BRANCH  24  25
HETATM   25  C16 UNL     1       3.356   7.907  11.250  1.00  0.00     0.028 C 
BRANCH  25  26
HETATM   26  C17 UNL     1       2.050   7.909  10.513  1.00  0.00    -0.025 C 
HETATM   27  C18 UNL     1       1.836   8.112   9.198  1.00  0.00    -0.091 C 
HETATM   28  C19 UNL     1       2.909   8.304   8.164  1.00  0.00     0.042 C 
HETATM   29  C20 UNL     1       0.430   8.160   8.659  1.00  0.00     0.042 C 
ENDBRANCH  25  26
ENDBRANCH  24  25
ENDBRANCH  22  24
ENDBRANCH  14  22
BRANCH  20  30
HETATM   30  C27 UNL     1      -4.188   4.447  11.854  1.00  0.00     0.021 C 
BRANCH  30  31
HETATM   31  C28 UNL     1      -3.309   3.229  12.135  1.00  0.00     0.112 C 
BRANCH  31  32
HETATM   32  C29 UNL     1      -4.028   1.957  11.768  1.00  0.00     0.258 C 
HETATM   33  O3  UNL     1      -3.483   0.865  11.661  1.00  0.00    -0.265 OA
BRANCH  32  34
HETATM   34  O4  UNL     1      -5.354   2.198  11.571  1.00  0.00    -0.326 OA
HETATM   35  C30 UNL     1      -6.082   1.065  11.089  1.00  0.00     0.213 C 
ENDBRANCH  32  34
ENDBRANCH  31  32
ENDBRANCH  30  31
ENDBRANCH  20  30
TORSDOF 8
ENDMDL
MODEL 3
REMARK minimizedAffinity -8.33496571
REMARK  8 active torsions:
REMARK  status: ('A' for Active; 'I' for Inactive)
REMARK    1  A    between atoms: C12_14  and  C13_15 
REMARK    2  A    between atoms: C13_15  and  C15_17 
REMARK    3  A    between atoms: C15_17  and  C16_18 
REMARK    4  A    between atoms: C16_18  and  C17_19 
REMARK    5  A    between atoms: C26_28  and  C27_29 
REMARK    6  A    between atoms: C27_29  and  C28_30 
REMARK    7  A    between atoms: C28_30  and  C29_31 
REMARK    8  A    between atoms: C29_31  and  O4_33 
ROOT
HETATM    1  C1  UNL     1       3.441   6.970  11.658  1.00  0.00     0.025 C 
HETATM    2  C2  UNL     1       2.124   7.203  11.603  1.00  0.00     0.015 C 
HETATM    3  C3  UNL     1       1.260   6.693  10.507  1.00  0.00     0.289 C 
HETATM    4  O1  UNL     1       1.562   5.851   9.681  1.00  0.00    -0.260 OA
HETATM    5  O2  UNL     1       0.049   7.321  10.609  1.00  0.00    -0.311 OA
HETATM    6  C4  UNL     1       0.189   8.411  11.524  1.00  0.00     0.142 C 
HETATM    7  C5  UNL     1      -1.115   8.809  12.190  1.00  0.00     0.039 C 
HETATM    8  C6  UNL     1      -1.759   7.695  13.040  1.00  0.00     0.006 C 
HETATM    9  C7  UNL     1      -0.757   7.113  14.076  1.00  0.00    -0.027 A 
HETATM   10  C8  UNL     1      -1.247   6.847  15.528  1.00  0.00     0.011 C 
HETATM   11  C9  UNL     1      -2.722   7.070  15.883  1.00  0.00     0.011 C 
HETATM   12  C10 UNL     1      -3.638   7.060  14.664  1.00  0.00    -0.032 C 
HETATM   13  C11 UNL     1      -3.657   5.631  14.068  1.00  0.00     0.016 C 
HETATM   14  C12 UNL     1      -5.091   7.557  14.938  1.00  0.00    -0.002 C 
HETATM   15  C21 UNL     1      -5.538   8.163  13.589  1.00  0.00     0.006 C 
HETATM   16  C22 UNL     1      -4.279   8.273  12.707  1.00  0.00     0.011 C 
HETATM   17  C23 UNL     1      -3.096   8.158  13.686  1.00  0.00    -0.032 C 
HETATM   18  C24 UNL     1      -2.902   9.562  14.346  1.00  0.00     0.016 C 
HETATM   19  C25 UNL     1       0.095   5.955  13.562  1.00  0.00     0.022 A 
HETATM   20  C26 UNL     1       0.770   7.284  13.778  1.00  0.00    -0.021 A 
HETATM   21  C31 UNL     1       1.271   8.019  12.518  1.00  0.00     0.063 C 
ENDROOT
BRANCH  14  22
HETATM   22  C13 UNL     1      -6.110   6.683  15.729  1.00  0.00    -0.014 C 
HETATM   23  C14 UNL     1      -7.289   7.570  16.179  1.00  0.00     0.010 C 
BRANCH  22  24
HETATM   24  C15 UNL     1      -6.619   5.323  15.183  1.00  0.00     0.008 C 
BRANCH  24  25
HETATM   25  C16 UNL     1      -7.447   5.222  13.894  1.00  0.00     0.028 C 
BRANCH  25  26
HETATM   26  C17 UNL     1      -6.688   4.685  12.717  1.00  0.00    -0.025 C 
HETATM   27  C18 UNL     1      -6.640   3.417  12.265  1.00  0.00    -0.091 C 
HETATM   28  C19 UNL     1      -7.427   2.266  12.825  1.00  0.00     0.042 C 
HETATM   29  C20 UNL     1      -5.743   3.059  11.108  1.00  0.00     0.042 C 
ENDBRANCH  25  26
ENDBRANCH  24  25
ENDBRANCH  22  24
ENDBRANCH  14  22
BRANCH  20  30
HETATM   30  C27 UNL     1       1.743   7.375  14.958  1.00  0.00     0.021 C 
BRANCH  30  31
HETATM   31  C28 UNL     1       2.175   8.812  15.248  1.00  0.00     0.112 C 
BRANCH  31  32
HETATM   32  C29 UNL     1       1.462   9.346  16.463  1.00  0.00     0.258 C 
HETATM   33  O3  UNL     1       0.309   9.760  16.457  1.00  0.00    -0.265 OA
BRANCH  32  34
HETATM   34  O4  UNL     1       2.279   9.307  17.552  1.00  0.00    -0.326 OA
HETATM   35  C30 UNL     1       2.505  10.586  18.152  1.00  0.00     0.213 C 
ENDBRANCH  32  34
ENDBRANCH  31  32
ENDBRANCH  30  31
ENDBRANCH  20  30
TORSDOF 8
ENDMDL
MODEL 4
REMARK minimizedAffinity -8.28417301
REMARK  8 active torsions:
REMARK  status: ('A' for Active; 'I' for Inactive)
REMARK    1  A    between atoms: C12_14  and  C13_15 
REMARK    2  A    between atoms: C13_15  and  C15_17 
REMARK    3  A    between atoms: C15_17  and  C16_18 
REMARK    4  A    between atoms: C16_18  and  C17_19 
REMARK    5  A    between atoms: C26_28  and  C27_29 
REMARK    6  A    between atoms: C27_29  and  C28_30 
REMARK    7  A    between atoms: C28_30  and  C29_31 
REMARK    8  A    between atoms: C29_31  and  O4_33 
ROOT
HETATM    1  C1  UNL     1      -7.417   3.358  13.060  1.00  0.00     0.025 C 
HETATM    2  C2  UNL     1      -6.784   4.470  13.454  1.00  0.00     0.015 C 
HETATM    3  C3  UNL     1      -6.945   5.052  14.811  1.00  0.00     0.289 C 
HETATM    4  O1  UNL     1      -7.460   4.510  15.774  1.00  0.00    -0.260 OA
HETATM    5  O2  UNL     1      -6.387   6.300  14.795  1.00  0.00    -0.311 OA
HETATM    6  C4  UNL     1      -6.140   6.659  13.433  1.00  0.00     0.142 C 
HETATM    7  C5  UNL     1      -5.028   7.679  13.271  1.00  0.00     0.039 C 
HETATM    8  C6  UNL     1      -3.653   7.203  13.782  1.00  0.00     0.006 C 
HETATM    9  C7  UNL     1      -3.253   5.836  13.159  1.00  0.00    -0.027 A 
HETATM   10  C8  UNL     1      -1.794   5.637  12.658  1.00  0.00     0.011 C 
HETATM   11  C9  UNL     1      -0.760   6.748  12.873  1.00  0.00     0.011 C 
HETATM   12  C10 UNL     1      -1.150   7.721  13.981  1.00  0.00    -0.032 C 
HETATM   13  C11 UNL     1      -1.113   6.973  15.336  1.00  0.00     0.016 C 
HETATM   14  C12 UNL     1      -0.281   9.015  14.047  1.00  0.00    -0.002 C 
HETATM   15  C21 UNL     1      -1.240  10.080  14.622  1.00  0.00     0.006 C 
HETATM   16  C22 UNL     1      -2.658   9.476  14.581  1.00  0.00     0.011 C 
HETATM   17  C23 UNL     1      -2.558   8.294  13.600  1.00  0.00    -0.032 C 
HETATM   18  C24 UNL     1      -2.639   8.883  12.154  1.00  0.00     0.016 C 
HETATM   19  C25 UNL     1      -3.740   4.614  13.933  1.00  0.00     0.022 A 
HETATM   20  C26 UNL     1      -4.404   4.926  12.617  1.00  0.00    -0.021 A 
HETATM   21  C31 UNL     1      -5.881   5.368  12.674  1.00  0.00     0.063 C 
ENDROOT
BRANCH  14  22
HETATM   22  C13 UNL     1       1.185   8.979  14.575  1.00  0.00    -0.014 C 
HETATM   23  C14 UNL     1       1.358   7.750  15.491  1.00  0.00     0.010 C 
BRANCH  22  24
HETATM   24  C15 UNL     1       2.401   9.134  13.625  1.00  0.00     0.008 C 
BRANCH  24  25
HETATM   25  C16 UNL     1       3.337   7.960  13.301  1.00  0.00     0.028 C 
BRANCH  25  26
HETATM   26  C17 UNL     1       2.888   7.118  12.145  1.00  0.00    -0.025 C 
HETATM   27  C18 UNL     1       3.646   6.516  11.208  1.00  0.00    -0.091 C 
HETATM   28  C19 UNL     1       5.149   6.505  11.184  1.00  0.00     0.042 C 
HETATM   29  C20 UNL     1       2.995   5.777  10.067  1.00  0.00     0.042 C 
ENDBRANCH  25  26
ENDBRANCH  24  25
ENDBRANCH  22  24
ENDBRANCH  14  22
BRANCH  20  30
HETATM   30  C27 UNL     1      -4.103   3.973  11.455  1.00  0.00     0.021 C 
BRANCH  30  31
HETATM   31  C28 UNL     1      -2.617   3.629  11.355  1.00  0.00     0.112 C 
BRANCH  31  32
HETATM   32  C29 UNL     1      -2.425   2.145  11.186  1.00  0.00     0.258 C 
HETATM   33  O3  UNL     1      -3.219   1.299  11.581  1.00  0.00    -0.265 OA
BRANCH  32  34
HETATM   34  O4  UNL     1      -1.252   1.884  10.544  1.00  0.00    -0.326 OA
HETATM   35  C30 UNL     1      -0.809   0.530  10.676  1.00  0.00     0.213 C 
ENDBRANCH  32  34
ENDBRANCH  31  32
ENDBRANCH  30  31
ENDBRANCH  20  30
TORSDOF 8
ENDMDL
MODEL 5
REMARK minimizedAffinity -8.2271719
REMARK  8 active torsions:
REMARK  status: ('A' for Active; 'I' for Inactive)
REMARK    1  A    between atoms: C12_14  and  C13_15 
REMARK    2  A    between atoms: C13_15  and  C15_17 
REMARK    3  A    between atoms: C15_17  and  C16_18 
REMARK    4  A    between atoms: C16_18  and  C17_19 
REMARK    5  A    between atoms: C26_28  and  C27_29 
REMARK    6  A    between atoms: C27_29  and  C28_30 
REMARK    7  A    between atoms: C28_30  and  C29_31 
REMARK    8  A    between atoms: C29_31  and  O4_33 
ROOT
HETATM    1  C1  UNL     1       3.234   5.451   8.931  1.00  0.00     0.025 C 
HETATM    2  C2  UNL     1       2.769   6.342   9.815  1.00  0.00     0.015 C 
HETATM    3  C3  UNL     1       2.611   7.785   9.499  1.00  0.00     0.289 C 
HETATM    4  O1  UNL     1       2.660   8.293   8.393  1.00  0.00    -0.260 OA
HETATM    5  O2  UNL     1       2.374   8.443  10.675  1.00  0.00    -0.311 OA
HETATM    6  C4  UNL     1       2.660   7.546  11.751  1.00  0.00     0.142 C 
HETATM    7  C5  UNL     1       1.909   7.878  13.028  1.00  0.00     0.039 C 
HETATM    8  C6  UNL     1       0.374   7.815  12.894  1.00  0.00     0.006 C 
HETATM    9  C7  UNL     1      -0.096   6.454  12.307  1.00  0.00    -0.027 A 
HETATM   10  C8  UNL     1      -1.324   5.745  12.944  1.00  0.00     0.011 C 
HETATM   11  C9  UNL     1      -2.104   6.441  14.066  1.00  0.00     0.011 C 
HETATM   12  C10 UNL     1      -1.885   7.949  14.100  1.00  0.00    -0.032 C 
HETATM   13  C11 UNL     1      -2.515   8.571  12.830  1.00  0.00     0.016 C 
HETATM   14  C12 UNL     1      -2.425   8.657  15.381  1.00  0.00    -0.002 C 
HETATM   15  C21 UNL     1      -1.491   9.875  15.556  1.00  0.00     0.006 C 
HETATM   16  C22 UNL     1      -0.302   9.671  14.595  1.00  0.00     0.011 C 
HETATM   17  C23 UNL     1      -0.339   8.176  14.229  1.00  0.00    -0.032 C 
HETATM   18  C24 UNL     1       0.325   7.394  15.408  1.00  0.00     0.016 C 
HETATM   19  C25 UNL     1      -0.160   6.403  10.783  1.00  0.00     0.022 A 
HETATM   20  C26 UNL     1       0.940   5.635  11.468  1.00  0.00    -0.021 A 
HETATM   21  C31 UNL     1       2.381   6.140  11.243  1.00  0.00     0.063 C 
ENDROOT
BRANCH  14  22
HETATM   22  C13 UNL     1      -3.953   8.859  15.610  1.00  0.00    -0.014 C 
HETATM   23  C14 UNL     1      -4.265  10.370  15.608  1.00  0.00     0.010 C 
BRANCH  22  24
HETATM   24  C15 UNL     1      -5.014   8.075  14.794  1.00  0.00     0.008 C 
BRANCH  24  25
HETATM   25  C16 UNL     1      -5.597   6.742  15.286  1.00  0.00     0.028 C 
BRANCH  25  26
HETATM   26  C17 UNL     1      -5.657   5.673  14.235  1.00  0.00    -0.025 C 
HETATM   27  C18 UNL     1      -6.699   5.333  13.452  1.00  0.00    -0.091 C 
HETATM   28  C19 UNL     1      -8.028   6.033  13.423  1.00  0.00     0.042 C 
HETATM   29  C20 UNL     1      -6.586   4.164  12.509  1.00  0.00     0.042 C 
ENDBRANCH  25  26
ENDBRANCH  24  25
ENDBRANCH  22  24
ENDBRANCH  14  22
BRANCH  20  30
HETATM   30  C27 UNL     1       0.825   4.107  11.446  1.00  0.00     0.021 C 
BRANCH  30  31
HETATM   31  C28 UNL     1      -0.523   3.617  11.974  1.00  0.00     0.112 C 
BRANCH  31  32
HETATM   32  C29 UNL     1      -0.995   2.418  11.195  1.00  0.00     0.258 C 
HETATM   33  O3  UNL     1      -0.303   1.435  10.959  1.00  0.00    -0.265 OA
BRANCH  32  34
HETATM   34  O4  UNL     1      -2.285   2.589  10.792  1.00  0.00    -0.326 OA
HETATM   35  C30 UNL     1      -3.239   2.507  11.857  1.00  0.00     0.213 C 
ENDBRANCH  32  34
ENDBRANCH  31  32
ENDBRANCH  30  31
ENDBRANCH  20  30
TORSDOF 8
ENDMDL
MODEL 6
REMARK minimizedAffinity -8.17606258
REMARK  8 active torsions:
REMARK  status: ('A' for Active; 'I' for Inactive)
REMARK    1  A    between atoms: C12_14  and  C13_15 
REMARK    2  A    between atoms: C13_15  and  C15_17 
REMARK    3  A    between atoms: C15_17  and  C16_18 
REMARK    4  A    between atoms: C16_18  and  C17_19 
REMARK    5  A    between atoms: C26_28  and  C27_29 
REMARK    6  A    between atoms: C27_29  and  C28_30 
REMARK    7  A    between atoms: C28_30  and  C29_31 
REMARK    8  A    between atoms: C29_31  and  O4_33 
ROOT
HETATM    1  C1  UNL     1      -5.404   4.357  13.033  1.00  0.00     0.025 C 
HETATM    2  C2  UNL     1      -5.246   5.623  13.438  1.00  0.00     0.015 C 
HETATM    3  C3  UNL     1      -6.286   6.362  14.200  1.00  0.00     0.289 C 
HETATM    4  O1  UNL     1      -7.270   5.881  14.733  1.00  0.00    -0.260 OA
HETATM    5  O2  UNL     1      -5.925   7.681  14.220  1.00  0.00    -0.311 OA
HETATM    6  C4  UNL     1      -4.872   7.869  13.271  1.00  0.00     0.142 C 
HETATM    7  C5  UNL     1      -3.984   9.059  13.583  1.00  0.00     0.039 C 
HETATM    8  C6  UNL     1      -3.248   8.962  14.935  1.00  0.00     0.006 C 
HETATM    9  C7  UNL     1      -2.461   7.628  15.065  1.00  0.00    -0.027 A 
HETATM   10  C8  UNL     1      -1.019   7.660  15.646  1.00  0.00     0.011 C 
HETATM   11  C9  UNL     1      -0.441   8.981  16.168  1.00  0.00     0.011 C 
HETATM   12  C10 UNL     1      -1.513  10.011  16.504  1.00  0.00    -0.032 C 
HETATM   13  C11 UNL     1      -2.324   9.506  17.722  1.00  0.00     0.016 C 
HETATM   14  C12 UNL     1      -0.973  11.451  16.767  1.00  0.00    -0.002 C 
HETATM   15  C21 UNL     1      -2.135  12.371  16.331  1.00  0.00     0.006 C 
HETATM   16  C22 UNL     1      -3.147  11.487  15.574  1.00  0.00     0.011 C 
HETATM   17  C23 UNL     1      -2.365  10.214  15.204  1.00  0.00    -0.032 C 
HETATM   18  C24 UNL     1      -1.518  10.544  13.931  1.00  0.00     0.016 C 
HETATM   19  C25 UNL     1      -3.263   6.466  15.645  1.00  0.00     0.022 A 
HETATM   20  C26 UNL     1      -2.927   6.427  14.177  1.00  0.00    -0.021 A 
HETATM   21  C31 UNL     1      -4.107   6.557  13.192  1.00  0.00     0.063 C 
ENDROOT
BRANCH  14  22
HETATM   22  C13 UNL     1      -0.206  11.801  18.077  1.00  0.00    -0.014 C 
HETATM   23  C14 UNL     1      -1.161  12.540  19.036  1.00  0.00     0.010 C 
BRANCH  22  24
HETATM   24  C15 UNL     1       0.634  10.744  18.840  1.00  0.00     0.008 C 
BRANCH  24  25
HETATM   25  C16 UNL     1       0.733  10.735  20.373  1.00  0.00     0.028 C 
BRANCH  25  26
HETATM   26  C17 UNL     1       2.137  10.670  20.897  1.00  0.00    -0.025 C 
HETATM   27  C18 UNL     1       2.674   9.756  21.728  1.00  0.00    -0.091 C 
HETATM   28  C19 UNL     1       1.969   8.536  22.249  1.00  0.00     0.042 C 
HETATM   29  C20 UNL     1       4.093   9.914  22.211  1.00  0.00     0.042 C 
ENDBRANCH  25  26
ENDBRANCH  24  25
ENDBRANCH  22  24
ENDBRANCH  14  22
BRANCH  20  30
HETATM   30  C27 UNL     1      -1.887   5.389  13.740  1.00  0.00     0.021 C 
BRANCH  30  31
HETATM   31  C28 UNL     1      -1.313   5.687  12.355  1.00  0.00     0.112 C 
BRANCH  31  32
HETATM   32  C29 UNL     1      -1.396   4.470  11.472  1.00  0.00     0.258 C 
HETATM   33  O3  UNL     1      -2.446   3.973  11.083  1.00  0.00    -0.265 OA
BRANCH  32  34
HETATM   34  O4  UNL     1      -0.149   4.008  11.177  1.00  0.00    -0.326 OA
HETATM   35  C30 UNL     1       0.888   4.974  11.377  1.00  0.00     0.213 C 
ENDBRANCH  32  34
ENDBRANCH  31  32
ENDBRANCH  30  31
ENDBRANCH  20  30
TORSDOF 8
ENDMDL
MODEL 7
REMARK minimizedAffinity -8.02300644
REMARK  8 active torsions:
REMARK  status: ('A' for Active; 'I' for Inactive)
REMARK    1  A    between atoms: C12_14  and  C13_15 
REMARK    2  A    between atoms: C13_15  and  C15_17 
REMARK    3  A    between atoms: C15_17  and  C16_18 
REMARK    4  A    between atoms: C16_18  and  C17_19 
REMARK    5  A    between atoms: C26_28  and  C27_29 
REMARK    6  A    between atoms: C27_29  and  C28_30 
REMARK    7  A    between atoms: C28_30  and  C29_31 
REMARK    8  A    between atoms: C29_31  and  O4_33 
ROOT
HETATM    1  C1  UNL     1      -6.239   1.450  10.955  1.00  0.00     0.025 C 
HETATM    2  C2  UNL     1      -6.366   2.537  11.726  1.00  0.00     0.015 C 
HETATM    3  C3  UNL     1      -7.159   2.547  12.982  1.00  0.00     0.289 C 
HETATM    4  O1  UNL     1      -7.588   1.572  13.574  1.00  0.00    -0.260 OA
HETATM    5  O2  UNL     1      -7.299   3.851  13.373  1.00  0.00    -0.311 OA
HETATM    6  C4  UNL     1      -6.892   4.686  12.286  1.00  0.00     0.142 C 
HETATM    7  C5  UNL     1      -6.422   6.060  12.726  1.00  0.00     0.039 C 
HETATM    8  C6  UNL     1      -5.193   6.041  13.657  1.00  0.00     0.006 C 
HETATM    9  C7  UNL     1      -4.023   5.220  13.045  1.00  0.00    -0.027 A 
HETATM   10  C8  UNL     1      -2.579   5.790  13.131  1.00  0.00     0.011 C 
HETATM   11  C9  UNL     1      -2.322   7.093  13.897  1.00  0.00     0.011 C 
HETATM   12  C10 UNL     1      -3.426   7.427  14.895  1.00  0.00    -0.032 C 
HETATM   13  C11 UNL     1      -3.407   6.372  16.028  1.00  0.00     0.016 C 
HETATM   14  C12 UNL     1      -3.354   8.868  15.488  1.00  0.00    -0.002 C 
HETATM   15  C21 UNL     1      -4.826   9.220  15.793  1.00  0.00     0.006 C 
HETATM   16  C22 UNL     1      -5.696   8.145  15.111  1.00  0.00     0.011 C 
HETATM   17  C23 UNL     1      -4.766   7.475  14.083  1.00  0.00    -0.032 C 
HETATM   18  C24 UNL     1      -4.719   8.405  12.827  1.00  0.00     0.016 C 
HETATM   19  C25 UNL     1      -4.047   3.729  13.374  1.00  0.00     0.022 A 
HETATM   20  C26 UNL     1      -4.384   4.145  11.966  1.00  0.00    -0.021 A 
HETATM   21  C31 UNL     1      -5.838   3.917  11.505  1.00  0.00     0.063 C 
ENDROOT
BRANCH  14  22
HETATM   22  C13 UNL     1      -2.268   9.258  16.536  1.00  0.00    -0.014 C 
HETATM   23  C14 UNL     1      -1.109   9.976  15.815  1.00  0.00     0.010 C 
BRANCH  22  24
HETATM   24  C15 UNL     1      -2.630   9.984  17.858  1.00  0.00     0.008 C 
BRANCH  24  25
HETATM   25  C16 UNL     1      -1.810  11.171  18.386  1.00  0.00     0.028 C 
BRANCH  25  26
HETATM   26  C17 UNL     1      -0.665  10.780  19.272  1.00  0.00    -0.025 C 
HETATM   27  C18 UNL     1       0.246  11.582  19.857  1.00  0.00    -0.091 C 
HETATM   28  C19 UNL     1       0.247  13.083  19.798  1.00  0.00     0.042 C 
HETATM   29  C20 UNL     1       1.381  10.984  20.648  1.00  0.00     0.042 C 
ENDBRANCH  25  26
ENDBRANCH  24  25
ENDBRANCH  22  24
ENDBRANCH  14  22
BRANCH  20  30
HETATM   30  C27 UNL     1      -3.348   3.811  10.887  1.00  0.00     0.021 C 
BRANCH  30  31
HETATM   31  C28 UNL     1      -2.045   3.273  11.477  1.00  0.00     0.112 C 
BRANCH  31  32
HETATM   32  C29 UNL     1      -1.989   1.772  11.363  1.00  0.00     0.258 C 
HETATM   33  O3  UNL     1      -2.969   1.040  11.435  1.00  0.00    -0.265 OA
BRANCH  32  34
HETATM   34  O4  UNL     1      -0.706   1.355  11.178  1.00  0.00    -0.326 OA
HETATM   35  C30 UNL     1      -0.549   0.432  10.095  1.00  0.00     0.213 C 
ENDBRANCH  32  34
ENDBRANCH  31  32
ENDBRANCH  30  31
ENDBRANCH  20  30
TORSDOF 8
ENDMDL
MODEL 8
REMARK minimizedAffinity -7.92819357
REMARK  8 active torsions:
REMARK  status: ('A' for Active; 'I' for Inactive)
REMARK    1  A    between atoms: C12_14  and  C13_15 
REMARK    2  A    between atoms: C13_15  and  C15_17 
REMARK    3  A    between atoms: C15_17  and  C16_18 
REMARK    4  A    between atoms: C16_18  and  C17_19 
REMARK    5  A    between atoms: C26_28  and  C27_29 
REMARK    6  A    between atoms: C27_29  and  C28_30 
REMARK    7  A    between atoms: C28_30  and  C29_31 
REMARK    8  A    between atoms: C29_31  and  O4_33 
ROOT
HETATM    1  C1  UNL     1      -7.012   4.415  13.693  1.00  0.00     0.025 C 
HETATM    2  C2  UNL     1      -6.243   5.471  13.987  1.00  0.00     0.015 C 
HETATM    3  C3  UNL     1      -6.310   6.179  15.291  1.00  0.00     0.289 C 
HETATM    4  O1  UNL     1      -6.870   5.787  16.300  1.00  0.00    -0.260 OA
HETATM    5  O2  UNL     1      -5.604   7.344  15.166  1.00  0.00    -0.311 OA
HETATM    6  C4  UNL     1      -5.339   7.556  13.776  1.00  0.00     0.142 C 
HETATM    7  C5  UNL     1      -4.114   8.415  13.521  1.00  0.00     0.039 C 
HETATM    8  C6  UNL     1      -2.799   7.818  14.061  1.00  0.00     0.006 C 
HETATM    9  C7  UNL     1      -2.577   6.365  13.554  1.00  0.00    -0.027 A 
HETATM   10  C8  UNL     1      -1.163   5.948  13.062  1.00  0.00     0.011 C 
HETATM   11  C9  UNL     1       0.003   6.939  13.176  1.00  0.00     0.011 C 
HETATM   12  C10 UNL     1      -0.248   8.041  14.199  1.00  0.00    -0.032 C 
HETATM   13  C11 UNL     1      -0.280   7.410  15.613  1.00  0.00     0.016 C 
HETATM   14  C12 UNL     1       0.773   9.220  14.149  1.00  0.00    -0.002 C 
HETATM   15  C21 UNL     1      -0.040  10.438  14.638  1.00  0.00     0.006 C 
HETATM   16  C22 UNL     1      -1.522  10.011  14.658  1.00  0.00     0.011 C 
HETATM   17  C23 UNL     1      -1.583   8.748  13.780  1.00  0.00    -0.032 C 
HETATM   18  C24 UNL     1      -1.615   9.220  12.290  1.00  0.00     0.016 C 
HETATM   19  C25 UNL     1      -3.197   5.281  14.432  1.00  0.00     0.022 A 
HETATM   20  C26 UNL     1      -3.840   5.561  13.099  1.00  0.00    -0.021 A 
HETATM   21  C31 UNL     1      -5.251   6.183  13.128  1.00  0.00     0.063 C 
ENDROOT
BRANCH  14  22
HETATM   22  C13 UNL     1       2.232   9.049  14.669  1.00  0.00    -0.014 C 
HETATM   23  C14 UNL     1       3.206   9.650  13.636  1.00  0.00     0.010 C 
BRANCH  22  24
HETATM   24  C15 UNL     1       2.640   9.450  16.111  1.00  0.00     0.008 C 
BRANCH  24  25
HETATM   25  C16 UNL     1       2.229  10.796  16.728  1.00  0.00     0.028 C 
BRANCH  25  26
HETATM   26  C17 UNL     1       2.001  10.747  18.210  1.00  0.00    -0.025 C 
HETATM   27  C18 UNL     1       0.834  10.836  18.876  1.00  0.00    -0.091 C 
HETATM   28  C19 UNL     1      -0.524  10.925  18.240  1.00  0.00     0.042 C 
HETATM   29  C20 UNL     1       0.823  10.852  20.383  1.00  0.00     0.042 C 
ENDBRANCH  25  26
ENDBRANCH  24  25
ENDBRANCH  22  24
ENDBRANCH  14  22
BRANCH  20  30
HETATM   30  C27 UNL     1      -3.676   4.485  12.020  1.00  0.00     0.021 C 
BRANCH  30  31
HETATM   31  C28 UNL     1      -3.354   3.112  12.611  1.00  0.00     0.112 C 
BRANCH  31  32
HETATM   32  C29 UNL     1      -3.881   2.015  11.724  1.00  0.00     0.258 C 
HETATM   33  O3  UNL     1      -3.326   0.934  11.563  1.00  0.00    -0.265 OA
BRANCH  32  34
HETATM   34  O4  UNL     1      -5.047   2.397  11.132  1.00  0.00    -0.326 OA
HETATM   35  C30 UNL     1      -6.073   1.400  11.178  1.00  0.00     0.213 C 
ENDBRANCH  32  34
ENDBRANCH  31  32
ENDBRANCH  30  31
ENDBRANCH  20  30
TORSDOF 8
ENDMDL
MODEL 9
REMARK minimizedAffinity -7.92665625
REMARK  8 active torsions:
REMARK  status: ('A' for Active; 'I' for Inactive)
REMARK    1  A    between atoms: C12_14  and  C13_15 
REMARK    2  A    between atoms: C13_15  and  C15_17 
REMARK    3  A    between atoms: C15_17  and  C16_18 
REMARK    4  A    between atoms: C16_18  and  C17_19 
REMARK    5  A    between atoms: C26_28  and  C27_29 
REMARK    6  A    between atoms: C27_29  and  C28_30 
REMARK    7  A    between atoms: C28_30  and  C29_31 
REMARK    8  A    between atoms: C29_31  and  O4_33 
ROOT
HETATM    1  C1  UNL     1      -6.232   1.524  10.970  1.00  0.00     0.025 C 
HETATM    2  C2  UNL     1      -6.352   2.609  11.745  1.00  0.00     0.015 C 
HETATM    3  C3  UNL     1      -7.182   2.633  12.977  1.00  0.00     0.289 C 
HETATM    4  O1  UNL     1      -7.654   1.667  13.549  1.00  0.00    -0.260 OA
HETATM    5  O2  UNL     1      -7.298   3.938  13.372  1.00  0.00    -0.311 OA
HETATM    6  C4  UNL     1      -6.837   4.769  12.304  1.00  0.00     0.142 C 
HETATM    7  C5  UNL     1      -6.344   6.127  12.768  1.00  0.00     0.039 C 
HETATM    8  C6  UNL     1      -5.143   6.068  13.734  1.00  0.00     0.006 C 
HETATM    9  C7  UNL     1      -3.979   5.220  13.152  1.00  0.00    -0.027 A 
HETATM   10  C8  UNL     1      -2.523   5.750  13.284  1.00  0.00     0.011 C 
HETATM   11  C9  UNL     1      -2.254   7.041  14.067  1.00  0.00     0.011 C 
HETATM   12  C10 UNL     1      -3.378   7.398  15.034  1.00  0.00    -0.032 C 
HETATM   13  C11 UNL     1      -3.422   6.336  16.160  1.00  0.00     0.016 C 
HETATM   14  C12 UNL     1      -3.285   8.833  15.639  1.00  0.00    -0.002 C 
HETATM   15  C21 UNL     1      -4.755   9.223  15.903  1.00  0.00     0.006 C 
HETATM   16  C22 UNL     1      -5.633   8.176  15.188  1.00  0.00     0.011 C 
HETATM   17  C23 UNL     1      -4.691   7.488  14.183  1.00  0.00    -0.032 C 
HETATM   18  C24 UNL     1      -4.582   8.423  12.935  1.00  0.00     0.016 C 
HETATM   19  C25 UNL     1      -4.053   3.729  13.470  1.00  0.00     0.022 A 
HETATM   20  C26 UNL     1      -4.336   4.162  12.055  1.00  0.00    -0.021 A 
HETATM   21  C31 UNL     1      -5.781   3.976  11.550  1.00  0.00     0.063 C 
ENDROOT
BRANCH  14  22
HETATM   22  C13 UNL     1      -2.221   9.187  16.722  1.00  0.00    -0.014 C 
HETATM   23  C14 UNL     1      -0.989   9.807  16.031  1.00  0.00     0.010 C 
BRANCH  22  24
HETATM   24  C15 UNL     1      -2.590   9.977  18.004  1.00  0.00     0.008 C 
BRANCH  24  25
HETATM   25  C16 UNL     1      -2.910  11.479  17.972  1.00  0.00     0.028 C 
BRANCH  25  26
HETATM   26  C17 UNL     1      -4.011  11.893  18.902  1.00  0.00    -0.025 C 
HETATM   27  C18 UNL     1      -4.212  13.098  19.471  1.00  0.00    -0.091 C 
HETATM   28  C19 UNL     1      -3.388  14.327  19.213  1.00  0.00     0.042 C 
HETATM   29  C20 UNL     1      -5.338  13.292  20.453  1.00  0.00     0.042 C 
ENDBRANCH  25  26
ENDBRANCH  24  25
ENDBRANCH  22  24
ENDBRANCH  14  22
BRANCH  20  30
HETATM   30  C27 UNL     1      -3.278   3.806  11.005  1.00  0.00     0.021 C 
BRANCH  30  31
HETATM   31  C28 UNL     1      -2.580   2.481  11.307  1.00  0.00     0.112 C 
BRANCH  31  32
HETATM   32  C29 UNL     1      -1.084   2.635  11.222  1.00  0.00     0.258 C 
HETATM   33  O3  UNL     1      -0.289   1.710  11.341  1.00  0.00    -0.265 OA
BRANCH  32  34
HETATM   34  O4  UNL     1      -0.750   3.937  11.003  1.00  0.00    -0.326 OA
HETATM   35  C30 UNL     1       0.540   4.296  11.507  1.00  0.00     0.213 C 
ENDBRANCH  32  34
ENDBRANCH  31  32
ENDBRANCH  30  31
ENDBRANCH  20  30
TORSDOF 8
ENDMDL
