MODEL 1
REMARK minimizedAffinity -9.35009193
REMARK CNNscore 0.823190093
REMARK CNNaffinity 6.24140596
REMARK  14 active torsions:
REMARK  status: ('A' for Active; 'I' for Inactive)
REMARK    1  A    between atoms: C2_2  and  O1_3 
REMARK    2  A    between atoms: O1_3  and  C3_4 
REMARK    3  A    between atoms: C4_6  and  C5_7 
REMARK    4  A    between atoms: C5_7  and  O3_8 
REMARK    5  A    between atoms: C5_7  and  C6_9 
REMARK    6  A    between atoms: C6_9  and  O4_10 
REMARK    7  A    between atoms: O4_10  and  C7_11 
REMARK    8  A    between atoms: C12_16  and  C13_17 
REMARK    9  A    between atoms: C13_17  and  O5_19 
REMARK   10  A    between atoms: C13_17  and  C15_20 
REMARK   11  A    between atoms: C15_20  and  O6_21 
REMARK   12  A    between atoms: C18_24  and  O7_26 
REMARK   13  A    between atoms: C22_29  and  O8_30 
REMARK   14  A    between atoms: C23_31  and  O9_32 
ROOT
HETATM    1  C7  UNL     1      -1.754   6.138  12.854  1.00  0.00     0.126 C 
HETATM    2  C8  UNL     1      -1.935   6.572  14.299  1.00  0.00     0.040 C 
HETATM    3  C9  UNL     1      -3.356   6.099  14.678  1.00  0.00     0.026 C 
HETATM    4  C10 UNL     1      -3.645   4.887  13.741  1.00  0.00    -0.001 C 
HETATM    5  C11 UNL     1      -4.954   4.856  12.941  1.00  0.00     0.013 C 
HETATM    6  C12 UNL     1      -6.238   4.782  13.792  1.00  0.00     0.022 C 
HETATM    7  C16 UNL     1      -6.667   6.183  14.272  1.00  0.00     0.010 C 
HETATM    8  C17 UNL     1      -5.739   6.817  15.299  1.00  0.00     0.038 C 
HETATM    9  C18 UNL     1      -4.357   7.274  14.806  1.00  0.00     0.058 C 
HETATM   10  C19 UNL     1      -4.440   8.202  13.589  1.00  0.00     0.046 C 
HETATM   11  C20 UNL     1      -2.355   4.734  12.882  1.00  0.00     0.015 C 
HETATM   12  C21 UNL     1      -2.496   4.142  11.484  1.00  0.00     0.013 C 
ENDROOT
BRANCH   1  13
HETATM   13  O4  UNL     1      -0.383   6.079  12.483  1.00  0.00    -0.383 OA
BRANCH  13  14
HETATM   14  C6  UNL     1       0.259   7.362  12.559  1.00  0.00     0.202 C 
BRANCH  14  15
HETATM   15  C5  UNL     1       1.771   7.127  12.470  1.00  0.00     0.173 C 
BRANCH  15  16
HETATM   16  C4  UNL     1       2.135   6.086  11.401  1.00  0.00     0.187 C 
HETATM   17  O2  UNL     1       1.237   6.219  10.269  1.00  0.00    -0.348 OA
HETATM   18  C3  UNL     1       2.029   6.460   9.093  1.00  0.00     0.291 C 
HETATM   19  C23 UNL     1       3.370   5.776   9.383  1.00  0.00     0.204 C 
HETATM   20  C22 UNL     1       3.573   6.128  10.850  1.00  0.00     0.183 C 
BRANCH  18  21
HETATM   21  O1  UNL     1       2.226   7.853   8.879  1.00  0.00    -0.359 OA
BRANCH  21  22
HETATM   22  C2  UNL     1       2.611   8.139   7.537  1.00  0.00     0.166 C 
HETATM   23  C1  UNL     1       1.806   7.246   6.613  1.00  0.00     0.033 C 
ENDBRANCH  21  22
ENDBRANCH  18  21
BRANCH  19  24
HETATM   24  O9  UNL     1       3.271   4.351   9.230  1.00  0.00    -0.388 OA
HETATM   25  H42 UNL     1       2.376   4.082   9.511  1.00  0.00     0.210 HD
ENDBRANCH  19  24
BRANCH  20  26
HETATM   26  O8  UNL     1       4.205   7.400  10.982  1.00  0.00    -0.390 OA
HETATM   27  H40 UNL     1       3.512   8.080  10.812  1.00  0.00     0.210 HD
ENDBRANCH  20  26
ENDBRANCH  15  16
BRANCH  15  28
HETATM   28  O3  UNL     1       2.258   6.732  13.766  1.00  0.00    -0.391 OA
HETATM   29  H9  UNL     1       1.847   7.367  14.388  1.00  0.00     0.210 HD
ENDBRANCH  15  28
ENDBRANCH  14  15
ENDBRANCH  13  14
ENDBRANCH   1  13
BRANCH   9  30
HETATM   30  O7  UNL     1      -3.821   8.094  15.874  1.00  0.00    -0.390 OA
HETATM   31  H34 UNL     1      -4.431   8.839  16.021  1.00  0.00     0.210 HD
ENDBRANCH   9  30
BRANCH   6  32
HETATM   32  C13 UNL     1      -7.415   4.059  13.036  1.00  0.00     0.079 C 
HETATM   33  C14 UNL     1      -8.203   4.992  12.112  1.00  0.00     0.048 C 
BRANCH  32  34
HETATM   34  O5  UNL     1      -8.340   3.570  14.028  1.00  0.00    -0.388 OA
HETATM   35  H23 UNL     1      -7.898   2.797  14.433  1.00  0.00     0.210 HD
ENDBRANCH  32  34
BRANCH  32  36
HETATM   36  C15 UNL     1      -6.960   2.810  12.241  1.00  0.00     0.201 C 
BRANCH  36  37
HETATM   37  O6  UNL     1      -7.843   1.720  12.516  1.00  0.00    -0.398 OA
HETATM   38  H26 UNL     1      -7.543   0.971  11.971  1.00  0.00     0.209 HD
ENDBRANCH  36  37
ENDBRANCH  32  36
ENDBRANCH   6  32
TORSDOF 14
ENDMDL
MODEL 2
REMARK minimizedAffinity -9.340909
REMARK CNNscore 0.821523786
REMARK CNNaffinity 6.0014081
REMARK  14 active torsions:
REMARK  status: ('A' for Active; 'I' for Inactive)
REMARK    1  A    between atoms: C2_2  and  O1_3 
REMARK    2  A    between atoms: O1_3  and  C3_4 
REMARK    3  A    between atoms: C4_6  and  C5_7 
REMARK    4  A    between atoms: C5_7  and  O3_8 
REMARK    5  A    between atoms: C5_7  and  C6_9 
REMARK    6  A    between atoms: C6_9  and  O4_10 
REMARK    7  A    between atoms: O4_10  and  C7_11 
REMARK    8  A    between atoms: C12_16  and  C13_17 
REMARK    9  A    between atoms: C13_17  and  O5_19 
REMARK   10  A    between atoms: C13_17  and  C15_20 
REMARK   11  A    between atoms: C15_20  and  O6_21 
REMARK   12  A    between atoms: C18_24  and  O7_26 
REMARK   13  A    between atoms: C22_29  and  O8_30 
REMARK   14  A    between atoms: C23_31  and  O9_32 
ROOT
HETATM    1  C7  UNL     1      -1.730   5.047  13.255  1.00  0.00     0.126 C 
HETATM    2  C8  UNL     1      -1.821   4.863  11.750  1.00  0.00     0.040 C 
HETATM    3  C9  UNL     1      -3.331   4.709  11.462  1.00  0.00     0.026 C 
HETATM    4  C10 UNL     1      -4.047   5.456  12.629  1.00  0.00    -0.001 C 
HETATM    5  C11 UNL     1      -5.162   4.740  13.403  1.00  0.00     0.013 C 
HETATM    6  C12 UNL     1      -6.413   4.390  12.572  1.00  0.00     0.022 C 
HETATM    7  C16 UNL     1      -6.217   3.066  11.804  1.00  0.00     0.010 C 
HETATM    8  C17 UNL     1      -5.194   3.129  10.678  1.00  0.00     0.038 C 
HETATM    9  C18 UNL     1      -3.716   3.258  11.079  1.00  0.00     0.058 C 
HETATM   10  C19 UNL     1      -3.277   2.178  12.075  1.00  0.00     0.046 C 
HETATM   11  C20 UNL     1      -2.890   6.005  13.516  1.00  0.00     0.015 C 
HETATM   12  C21 UNL     1      -3.160   6.189  15.005  1.00  0.00     0.013 C 
ENDROOT
BRANCH   1  13
HETATM   13  O4  UNL     1      -0.500   5.644  13.646  1.00  0.00    -0.383 OA
BRANCH  13  14
HETATM   14  C6  UNL     1      -0.087   6.684  12.746  1.00  0.00     0.202 C 
BRANCH  14  15
HETATM   15  C5  UNL     1       1.444   6.671  12.698  1.00  0.00     0.173 C 
BRANCH  15  16
HETATM   16  C4  UNL     1       1.982   5.806  11.548  1.00  0.00     0.187 C 
HETATM   17  O2  UNL     1       1.119   5.949  10.389  1.00  0.00    -0.348 OA
HETATM   18  C3  UNL     1       1.920   6.412   9.288  1.00  0.00     0.291 C 
HETATM   19  C23 UNL     1       3.325   5.873   9.577  1.00  0.00     0.204 C 
HETATM   20  C22 UNL     1       3.422   6.086  11.081  1.00  0.00     0.183 C 
BRANCH  18  21
HETATM   21  O1  UNL     1       1.944   7.835   9.230  1.00  0.00    -0.359 OA
BRANCH  21  22
HETATM   22  C2  UNL     1       2.349   8.310   7.949  1.00  0.00     0.166 C 
HETATM   23  C1  UNL     1       1.787   7.375   6.897  1.00  0.00     0.033 C 
ENDBRANCH  21  22
ENDBRANCH  18  21
BRANCH  19  24
HETATM   24  O9  UNL     1       3.416   4.472   9.274  1.00  0.00    -0.388 OA
HETATM   25  H42 UNL     1       2.554   4.065   9.477  1.00  0.00     0.210 HD
ENDBRANCH  19  24
BRANCH  20  26
HETATM   26  O8  UNL     1       3.880   7.404  11.377  1.00  0.00    -0.390 OA
HETATM   27  H40 UNL     1       3.112   8.008  11.242  1.00  0.00     0.210 HD
ENDBRANCH  20  26
ENDBRANCH  15  16
BRANCH  15  28
HETATM   28  O3  UNL     1       1.947   6.216  13.968  1.00  0.00    -0.391 OA
HETATM   29  H9  UNL     1       1.433   6.722  14.631  1.00  0.00     0.210 HD
ENDBRANCH  15  28
ENDBRANCH  14  15
ENDBRANCH  13  14
ENDBRANCH   1  13
BRANCH   9  30
HETATM   30  O7  UNL     1      -2.965   2.990   9.869  1.00  0.00    -0.390 OA
HETATM   31  H34 UNL     1      -3.193   2.094   9.563  1.00  0.00     0.210 HD
ENDBRANCH   9  30
BRANCH   6  32
HETATM   32  C13 UNL     1      -7.720   4.345  13.449  1.00  0.00     0.079 C 
HETATM   33  C14 UNL     1      -7.437   4.312  14.954  1.00  0.00     0.048 C 
BRANCH  32  34
HETATM   34  O5  UNL     1      -8.424   3.129  13.127  1.00  0.00    -0.388 OA
HETATM   35  H23 UNL     1      -8.816   3.286  12.245  1.00  0.00     0.210 HD
ENDBRANCH  32  34
BRANCH  32  36
HETATM   36  C15 UNL     1      -8.710   5.495  13.136  1.00  0.00     0.201 C 
BRANCH  36  37
HETATM   37  O6  UNL     1      -9.359   5.908  14.341  1.00  0.00    -0.398 OA
HETATM   38  H26 UNL     1      -9.941   6.652  14.105  1.00  0.00     0.209 HD
ENDBRANCH  36  37
ENDBRANCH  32  36
ENDBRANCH   6  32
TORSDOF 14
ENDMDL
MODEL 3
REMARK minimizedAffinity -7.42046928
REMARK CNNscore 0.766165555
REMARK CNNaffinity 6.14594412
REMARK  14 active torsions:
REMARK  status: ('A' for Active; 'I' for Inactive)
REMARK    1  A    between atoms: C2_2  and  O1_3 
REMARK    2  A    between atoms: O1_3  and  C3_4 
REMARK    3  A    between atoms: C4_6  and  C5_7 
REMARK    4  A    between atoms: C5_7  and  O3_8 
REMARK    5  A    between atoms: C5_7  and  C6_9 
REMARK    6  A    between atoms: C6_9  and  O4_10 
REMARK    7  A    between atoms: O4_10  and  C7_11 
REMARK    8  A    between atoms: C12_16  and  C13_17 
REMARK    9  A    between atoms: C13_17  and  O5_19 
REMARK   10  A    between atoms: C13_17  and  C15_20 
REMARK   11  A    between atoms: C15_20  and  O6_21 
REMARK   12  A    between atoms: C18_24  and  O7_26 
REMARK   13  A    between atoms: C22_29  and  O8_30 
REMARK   14  A    between atoms: C23_31  and  O9_32 
ROOT
HETATM    1  C7  UNL     1      -6.648   5.800  13.393  1.00  0.00     0.126 C 
HETATM    2  C8  UNL     1      -6.603   5.668  14.906  1.00  0.00     0.040 C 
HETATM    3  C9  UNL     1      -8.007   6.104  15.381  1.00  0.00     0.026 C 
HETATM    4  C10 UNL     1      -8.953   5.816  14.175  1.00  0.00    -0.001 C 
HETATM    5  C11 UNL     1      -9.895   6.923  13.682  1.00  0.00     0.013 C 
HETATM    6  C12 UNL     1     -10.969   7.366  14.697  1.00  0.00     0.022 C 
HETATM    7  C16 UNL     1     -10.403   8.408  15.684  1.00  0.00     0.010 C 
HETATM    8  C17 UNL     1      -9.366   7.866  16.658  1.00  0.00     0.038 C 
HETATM    9  C18 UNL     1      -7.993   7.486  16.081  1.00  0.00     0.058 C 
HETATM   10  C19 UNL     1      -7.355   8.624  15.275  1.00  0.00     0.046 C 
HETATM   11  C20 UNL     1      -8.024   5.218  13.077  1.00  0.00     0.015 C 
HETATM   12  C21 UNL     1      -8.416   5.430  11.619  1.00  0.00     0.013 C 
ENDROOT
BRANCH   1  13
HETATM   13  O4  UNL     1      -5.631   5.032  12.761  1.00  0.00    -0.383 OA
BRANCH  13  14
HETATM   14  C6  UNL     1      -4.324   5.596  12.948  1.00  0.00     0.202 C 
BRANCH  14  15
HETATM   15  C5  UNL     1      -3.302   4.474  12.735  1.00  0.00     0.173 C 
BRANCH  15  16
HETATM   16  C4  UNL     1      -1.880   4.901  13.125  1.00  0.00     0.187 C 
HETATM   17  O2  UNL     1      -1.400   5.902  12.191  1.00  0.00    -0.348 OA
HETATM   18  C3  UNL     1      -1.049   7.081  12.936  1.00  0.00     0.291 C 
HETATM   19  C23 UNL     1      -0.647   6.558  14.319  1.00  0.00     0.204 C 
HETATM   20  C22 UNL     1      -1.690   5.473  14.543  1.00  0.00     0.183 C 
BRANCH  18  21
HETATM   21  O1  UNL     1      -2.155   7.969  13.050  1.00  0.00    -0.359 OA
BRANCH  21  22
HETATM   22  C2  UNL     1      -1.743   9.330  13.131  1.00  0.00     0.166 C 
HETATM   23  C1  UNL     1      -2.440   9.967  14.318  1.00  0.00     0.033 C 
ENDBRANCH  21  22
ENDBRANCH  18  21
BRANCH  19  24
HETATM   24  O9  UNL     1       0.667   5.977  14.294  1.00  0.00    -0.388 OA
HETATM   25  H42 UNL     1       0.790   5.554  13.424  1.00  0.00     0.210 HD
ENDBRANCH  19  24
BRANCH  20  26
HETATM   26  O8  UNL     1      -2.879   6.022  15.108  1.00  0.00    -0.390 OA
HETATM   27  H40 UNL     1      -3.360   6.472  14.375  1.00  0.00     0.210 HD
ENDBRANCH  20  26
ENDBRANCH  15  16
BRANCH  15  28
HETATM   28  O3  UNL     1      -3.358   4.049  11.360  1.00  0.00    -0.391 OA
HETATM   29  H9  UNL     1      -4.314   3.951  11.171  1.00  0.00     0.210 HD
ENDBRANCH  15  28
ENDBRANCH  14  15
ENDBRANCH  13  14
ENDBRANCH   1  13
BRANCH   9  30
HETATM   30  O7  UNL     1      -7.131   7.303  17.230  1.00  0.00    -0.390 OA
HETATM   31  H34 UNL     1      -7.109   8.139  17.730  1.00  0.00     0.210 HD
ENDBRANCH   9  30
BRANCH   6  32
HETATM   32  C13 UNL     1     -12.271   7.903  13.993  1.00  0.00     0.079 C 
HETATM   33  C14 UNL     1     -11.982   8.722  12.732  1.00  0.00     0.048 C 
BRANCH  32  34
HETATM   34  O5  UNL     1     -12.941   8.780  14.920  1.00  0.00    -0.388 OA
HETATM   35  H23 UNL     1     -13.342   8.189  15.589  1.00  0.00     0.210 HD
ENDBRANCH  32  34
BRANCH  32  36
HETATM   36  C15 UNL     1     -13.294   6.789  13.660  1.00  0.00     0.201 C 
BRANCH  36  37
HETATM   37  O6  UNL     1     -12.965   5.604  14.388  1.00  0.00    -0.398 OA
HETATM   38  H26 UNL     1     -13.650   4.945  14.177  1.00  0.00     0.209 HD
ENDBRANCH  36  37
ENDBRANCH  32  36
ENDBRANCH   6  32
TORSDOF 14
ENDMDL
MODEL 4
REMARK minimizedAffinity -7.48032188
REMARK CNNscore 0.657782555
REMARK CNNaffinity 5.46121216
REMARK  14 active torsions:
REMARK  status: ('A' for Active; 'I' for Inactive)
REMARK    1  A    between atoms: C2_2  and  O1_3 
REMARK    2  A    between atoms: O1_3  and  C3_4 
REMARK    3  A    between atoms: C4_6  and  C5_7 
REMARK    4  A    between atoms: C5_7  and  O3_8 
REMARK    5  A    between atoms: C5_7  and  C6_9 
REMARK    6  A    between atoms: C6_9  and  O4_10 
REMARK    7  A    between atoms: O4_10  and  C7_11 
REMARK    8  A    between atoms: C12_16  and  C13_17 
REMARK    9  A    between atoms: C13_17  and  O5_19 
REMARK   10  A    between atoms: C13_17  and  C15_20 
REMARK   11  A    between atoms: C15_20  and  O6_21 
REMARK   12  A    between atoms: C18_24  and  O7_26 
REMARK   13  A    between atoms: C22_29  and  O8_30 
REMARK   14  A    between atoms: C23_31  and  O9_32 
ROOT
HETATM    1  C7  UNL     1      -2.607   8.714  14.509  1.00  0.00     0.126 C 
HETATM    2  C8  UNL     1      -2.560   7.938  13.204  1.00  0.00     0.040 C 
HETATM    3  C9  UNL     1      -3.959   7.296  13.076  1.00  0.00     0.026 C 
HETATM    4  C10 UNL     1      -4.910   8.225  13.889  1.00  0.00    -0.001 C 
HETATM    5  C11 UNL     1      -5.845   7.608  14.937  1.00  0.00     0.013 C 
HETATM    6  C12 UNL     1      -6.912   6.647  14.374  1.00  0.00     0.022 C 
HETATM    7  C16 UNL     1      -6.336   5.229  14.181  1.00  0.00     0.010 C 
HETATM    8  C17 UNL     1      -5.300   5.108  13.072  1.00  0.00     0.038 C 
HETATM    9  C18 UNL     1      -3.931   5.765  13.315  1.00  0.00     0.058 C 
HETATM   10  C19 UNL     1      -3.287   5.317  14.632  1.00  0.00     0.046 C 
HETATM   11  C20 UNL     1      -3.989   9.360  14.429  1.00  0.00     0.015 C 
HETATM   12  C21 UNL     1      -4.384  10.036  15.737  1.00  0.00     0.013 C 
ENDROOT
BRANCH   1  13
HETATM   13  O4  UNL     1      -1.599   9.715  14.571  1.00  0.00    -0.383 OA
BRANCH  13  14
HETATM   14  C6  UNL     1      -0.449   9.382  13.777  1.00  0.00     0.202 C 
BRANCH  14  15
HETATM   15  C5  UNL     1       0.787   9.528  14.671  1.00  0.00     0.173 C 
BRANCH  15  16
HETATM   16  C4  UNL     1       1.945   8.629  14.212  1.00  0.00     0.187 C 
HETATM   17  O2  UNL     1       1.428   7.563  13.374  1.00  0.00    -0.348 OA
HETATM   18  C3  UNL     1       2.093   7.630  12.101  1.00  0.00     0.291 C 
HETATM   19  C23 UNL     1       3.462   8.246  12.411  1.00  0.00     0.204 C 
HETATM   20  C22 UNL     1       3.086   9.310  13.433  1.00  0.00     0.183 C 
BRANCH  18  21
HETATM   21  O1  UNL     1       1.380   8.457  11.188  1.00  0.00    -0.359 OA
BRANCH  21  22
HETATM   22  C2  UNL     1       0.924   7.730  10.051  1.00  0.00     0.166 C 
HETATM   23  C1  UNL     1      -0.076   8.594   9.306  1.00  0.00     0.033 C 
ENDBRANCH  21  22
ENDBRANCH  18  21
BRANCH  19  24
HETATM   24  O9  UNL     1       4.342   7.281  13.010  1.00  0.00    -0.388 OA
HETATM   25  H42 UNL     1       3.802   6.686  13.563  1.00  0.00     0.210 HD
ENDBRANCH  19  24
BRANCH  20  26
HETATM   26  O8  UNL     1       2.701  10.520  12.784  1.00  0.00    -0.390 OA
HETATM   27  H40 UNL     1       1.786  10.382  12.444  1.00  0.00     0.210 HD
ENDBRANCH  20  26
ENDBRANCH  15  16
BRANCH  15  28
HETATM   28  O3  UNL     1       0.414   9.239  16.032  1.00  0.00    -0.391 OA
HETATM   29  H9  UNL     1      -0.415   9.742  16.172  1.00  0.00     0.210 HD
ENDBRANCH  15  28
ENDBRANCH  14  15
ENDBRANCH  13  14
ENDBRANCH   1  13
BRANCH   9  30
HETATM   30  O7  UNL     1      -3.067   5.249  12.273  1.00  0.00    -0.390 OA
HETATM   31  H34 UNL     1      -3.037   4.279  12.356  1.00  0.00     0.210 HD
ENDBRANCH   9  30
BRANCH   6  32
HETATM   32  C13 UNL     1      -8.212   6.611  15.263  1.00  0.00     0.079 C 
HETATM   33  C14 UNL     1      -8.055   7.351  16.594  1.00  0.00     0.048 C 
BRANCH  32  34
HETATM   34  O5  UNL     1      -8.491   5.232  15.578  1.00  0.00    -0.388 OA
HETATM   35  H23 UNL     1      -8.840   4.845  14.751  1.00  0.00     0.210 HD
ENDBRANCH  32  34
BRANCH  32  36
HETATM   36  C15 UNL     1      -9.473   7.133  14.529  1.00  0.00     0.201 C 
BRANCH  36  37
HETATM   37  O6  UNL     1     -10.638   6.525  15.090  1.00  0.00    -0.398 OA
HETATM   38  H26 UNL     1     -11.405   6.908  14.626  1.00  0.00     0.209 HD
ENDBRANCH  36  37
ENDBRANCH  32  36
ENDBRANCH   6  32
TORSDOF 14
ENDMDL
MODEL 5
REMARK minimizedAffinity -9.15228844
REMARK CNNscore 0.601188302
REMARK CNNaffinity 6.00444221
REMARK  14 active torsions:
REMARK  status: ('A' for Active; 'I' for Inactive)
REMARK    1  A    between atoms: C2_2  and  O1_3 
REMARK    2  A    between atoms: O1_3  and  C3_4 
REMARK    3  A    between atoms: C4_6  and  C5_7 
REMARK    4  A    between atoms: C5_7  and  O3_8 
REMARK    5  A    between atoms: C5_7  and  C6_9 
REMARK    6  A    between atoms: C6_9  and  O4_10 
REMARK    7  A    between atoms: O4_10  and  C7_11 
REMARK    8  A    between atoms: C12_16  and  C13_17 
REMARK    9  A    between atoms: C13_17  and  O5_19 
REMARK   10  A    between atoms: C13_17  and  C15_20 
REMARK   11  A    between atoms: C15_20  and  O6_21 
REMARK   12  A    between atoms: C18_24  and  O7_26 
REMARK   13  A    between atoms: C22_29  and  O8_30 
REMARK   14  A    between atoms: C23_31  and  O9_32 
ROOT
HETATM    1  C7  UNL     1      -1.739   6.315  12.622  1.00  0.00     0.126 C 
HETATM    2  C8  UNL     1      -1.843   6.719  14.083  1.00  0.00     0.040 C 
HETATM    3  C9  UNL     1      -3.216   6.181  14.543  1.00  0.00     0.026 C 
HETATM    4  C10 UNL     1      -3.516   4.973  13.604  1.00  0.00    -0.001 C 
HETATM    5  C11 UNL     1      -4.872   4.900  12.888  1.00  0.00     0.013 C 
HETATM    6  C12 UNL     1      -6.094   4.758  13.819  1.00  0.00     0.022 C 
HETATM    7  C16 UNL     1      -6.548   6.132  14.351  1.00  0.00     0.010 C 
HETATM    8  C17 UNL     1      -5.582   6.788  15.328  1.00  0.00     0.038 C 
HETATM    9  C18 UNL     1      -4.254   7.311  14.757  1.00  0.00     0.058 C 
HETATM   10  C19 UNL     1      -4.453   8.254  13.565  1.00  0.00     0.046 C 
HETATM   11  C20 UNL     1      -2.279   4.887  12.661  1.00  0.00     0.015 C 
HETATM   12  C21 UNL     1      -2.486   4.313  11.264  1.00  0.00     0.013 C 
ENDROOT
BRANCH   1  13
HETATM   13  O4  UNL     1      -0.393   6.320  12.163  1.00  0.00    -0.383 OA
BRANCH  13  14
HETATM   14  C6  UNL     1       0.436   7.224  12.909  1.00  0.00     0.202 C 
BRANCH  14  15
HETATM   15  C5  UNL     1       1.502   7.770  11.953  1.00  0.00     0.173 C 
BRANCH  15  16
HETATM   16  C4  UNL     1       2.848   7.045  12.110  1.00  0.00     0.187 C 
HETATM   17  O2  UNL     1       2.902   5.920  11.195  1.00  0.00    -0.348 OA
HETATM   18  C3  UNL     1       4.052   6.084  10.348  1.00  0.00     0.291 C 
HETATM   19  C23 UNL     1       5.045   6.886  11.195  1.00  0.00     0.204 C 
HETATM   20  C22 UNL     1       4.119   7.883  11.878  1.00  0.00     0.183 C 
BRANCH  18  21
HETATM   21  O1  UNL     1       3.723   6.806   9.166  1.00  0.00    -0.359 OA
BRANCH  21  22
HETATM   22  C2  UNL     1       2.641   6.207   8.457  1.00  0.00     0.166 C 
HETATM   23  C1  UNL     1       1.903   7.300   7.708  1.00  0.00     0.033 C 
ENDBRANCH  21  22
ENDBRANCH  18  21
BRANCH  19  24
HETATM   24  O9  UNL     1       5.680   6.053  12.179  1.00  0.00    -0.388 OA
HETATM   25  H42 UNL     1       5.030   5.387  12.470  1.00  0.00     0.210 HD
ENDBRANCH  19  24
BRANCH  20  26
HETATM   26  O8  UNL     1       3.914   9.029  11.054  1.00  0.00    -0.390 OA
HETATM   27  H40 UNL     1       3.274   8.764  10.353  1.00  0.00     0.210 HD
ENDBRANCH  20  26
ENDBRANCH  15  16
BRANCH  15  28
HETATM   28  O3  UNL     1       1.646   9.185  12.174  1.00  0.00    -0.391 OA
HETATM   29  H9  UNL     1       0.727   9.523  12.207  1.00  0.00     0.210 HD
ENDBRANCH  15  28
ENDBRANCH  14  15
ENDBRANCH  13  14
ENDBRANCH   1  13
BRANCH   9  30
HETATM   30  O7  UNL     1      -3.684   8.135  15.804  1.00  0.00    -0.390 OA
HETATM   31  H34 UNL     1      -4.313   8.851  16.003  1.00  0.00     0.210 HD
ENDBRANCH   9  30
BRANCH   6  32
HETATM   32  C13 UNL     1      -7.287   3.998  13.126  1.00  0.00     0.079 C 
HETATM   33  C14 UNL     1      -8.106   4.889  12.188  1.00  0.00     0.048 C 
BRANCH  32  34
HETATM   34  O5  UNL     1      -8.180   3.546  14.163  1.00  0.00    -0.388 OA
HETATM   35  H23 UNL     1      -7.722   2.792  14.586  1.00  0.00     0.210 HD
ENDBRANCH  32  34
BRANCH  32  36
HETATM   36  C15 UNL     1      -6.846   2.721  12.369  1.00  0.00     0.201 C 
BRANCH  36  37
HETATM   37  O6  UNL     1      -7.849   1.712  12.509  1.00  0.00    -0.398 OA
HETATM   38  H26 UNL     1      -7.549   0.945  11.990  1.00  0.00     0.209 HD
ENDBRANCH  36  37
ENDBRANCH  32  36
ENDBRANCH   6  32
TORSDOF 14
ENDMDL
MODEL 6
REMARK minimizedAffinity -8.16015244
REMARK CNNscore 0.577190876
REMARK CNNaffinity 5.95137167
REMARK  14 active torsions:
REMARK  status: ('A' for Active; 'I' for Inactive)
REMARK    1  A    between atoms: C2_2  and  O1_3 
REMARK    2  A    between atoms: O1_3  and  C3_4 
REMARK    3  A    between atoms: C4_6  and  C5_7 
REMARK    4  A    between atoms: C5_7  and  O3_8 
REMARK    5  A    between atoms: C5_7  and  C6_9 
REMARK    6  A    between atoms: C6_9  and  O4_10 
REMARK    7  A    between atoms: O4_10  and  C7_11 
REMARK    8  A    between atoms: C12_16  and  C13_17 
REMARK    9  A    between atoms: C13_17  and  O5_19 
REMARK   10  A    between atoms: C13_17  and  C15_20 
REMARK   11  A    between atoms: C15_20  and  O6_21 
REMARK   12  A    between atoms: C18_24  and  O7_26 
REMARK   13  A    between atoms: C22_29  and  O8_30 
REMARK   14  A    between atoms: C23_31  and  O9_32 
ROOT
HETATM    1  C7  UNL     1      -2.500   5.320  12.770  1.00  0.00     0.126 C 
HETATM    2  C8  UNL     1      -2.511   5.739  14.231  1.00  0.00     0.040 C 
HETATM    3  C9  UNL     1      -4.007   5.799  14.612  1.00  0.00     0.026 C 
HETATM    4  C10 UNL     1      -4.716   4.809  13.639  1.00  0.00    -0.001 C 
HETATM    5  C11 UNL     1      -5.947   5.283  12.855  1.00  0.00     0.013 C 
HETATM    6  C12 UNL     1      -7.171   5.649  13.720  1.00  0.00     0.022 C 
HETATM    7  C16 UNL     1      -7.063   7.092  14.252  1.00  0.00     0.010 C 
HETATM    8  C17 UNL     1      -5.968   7.309  15.288  1.00  0.00     0.038 C 
HETATM    9  C18 UNL     1      -4.513   7.252  14.793  1.00  0.00     0.058 C 
HETATM   10  C19 UNL     1      -4.254   8.190  13.608  1.00  0.00     0.046 C 
HETATM   11  C20 UNL     1      -3.570   4.230  12.758  1.00  0.00     0.015 C 
HETATM   12  C21 UNL     1      -3.915   3.780  11.343  1.00  0.00     0.013 C 
ENDROOT
BRANCH   1  13
HETATM   13  O4  UNL     1      -1.243   4.782  12.380  1.00  0.00    -0.383 OA
BRANCH  13  14
HETATM   14  C6  UNL     1      -0.173   5.218  13.232  1.00  0.00     0.202 C 
BRANCH  14  15
HETATM   15  C5  UNL     1       1.045   5.489  12.342  1.00  0.00     0.173 C 
BRANCH  15  16
HETATM   16  C4  UNL     1       1.820   6.740  12.783  1.00  0.00     0.187 C 
HETATM   17  O2  UNL     1       2.995   6.902  11.947  1.00  0.00    -0.348 OA
HETATM   18  C3  UNL     1       2.928   8.197  11.326  1.00  0.00     0.291 C 
HETATM   19  C23 UNL     1       2.127   9.057  12.310  1.00  0.00     0.204 C 
HETATM   20  C22 UNL     1       1.054   8.076  12.759  1.00  0.00     0.183 C 
BRANCH  18  21
HETATM   21  O1  UNL     1       2.258   8.135  10.072  1.00  0.00    -0.359 OA
BRANCH  21  22
HETATM   22  C2  UNL     1       3.138   7.772   9.012  1.00  0.00     0.166 C 
HETATM   23  C1  UNL     1       2.492   8.175   7.700  1.00  0.00     0.033 C 
ENDBRANCH  21  22
ENDBRANCH  18  21
BRANCH  19  24
HETATM   24  O9  UNL     1       2.934   9.450  13.432  1.00  0.00    -0.388 OA
HETATM   25  H42 UNL     1       3.554   8.722  13.625  1.00  0.00     0.210 HD
ENDBRANCH  19  24
BRANCH  20  26
HETATM   26  O8  UNL     1      -0.054   8.092  11.861  1.00  0.00    -0.390 OA
HETATM   27  H40 UNL     1       0.220   7.580  11.064  1.00  0.00     0.210 HD
ENDBRANCH  20  26
ENDBRANCH  15  16
BRANCH  15  28
HETATM   28  O3  UNL     1       0.607   5.604  10.975  1.00  0.00    -0.391 OA
HETATM   29  H9  UNL     1       0.002   4.844  10.846  1.00  0.00     0.210 HD
ENDBRANCH  15  28
ENDBRANCH  14  15
ENDBRANCH  13  14
ENDBRANCH   1  13
BRANCH   9  30
HETATM   30  O7  UNL     1      -3.717   7.782  15.881  1.00  0.00    -0.390 OA
HETATM   31  H34 UNL     1      -4.016   8.692  16.060  1.00  0.00     0.210 HD
ENDBRANCH   9  30
BRANCH   6  32
HETATM   32  C13 UNL     1      -8.530   5.429  12.956  1.00  0.00     0.079 C 
HETATM   33  C14 UNL     1      -9.639   6.384  13.408  1.00  0.00     0.048 C 
BRANCH  32  34
HETATM   34  O5  UNL     1      -8.984   4.092  13.242  1.00  0.00    -0.388 OA
HETATM   35  H23 UNL     1      -8.400   3.505  12.721  1.00  0.00     0.210 HD
ENDBRANCH  32  34
BRANCH  32  36
HETATM   36  C15 UNL     1      -8.387   5.500  11.415  1.00  0.00     0.201 C 
BRANCH  36  37
HETATM   37  O6  UNL     1      -9.433   6.310  10.874  1.00  0.00    -0.398 OA
HETATM   38  H26 UNL     1      -9.284   6.357   9.913  1.00  0.00     0.209 HD
ENDBRANCH  36  37
ENDBRANCH  32  36
ENDBRANCH   6  32
TORSDOF 14
ENDMDL
MODEL 7
REMARK minimizedAffinity -7.33816814
REMARK CNNscore 0.500160336
REMARK CNNaffinity 5.6191349
REMARK  14 active torsions:
REMARK  status: ('A' for Active; 'I' for Inactive)
REMARK    1  A    between atoms: C2_2  and  O1_3 
REMARK    2  A    between atoms: O1_3  and  C3_4 
REMARK    3  A    between atoms: C4_6  and  C5_7 
REMARK    4  A    between atoms: C5_7  and  O3_8 
REMARK    5  A    between atoms: C5_7  and  C6_9 
REMARK    6  A    between atoms: C6_9  and  O4_10 
REMARK    7  A    between atoms: O4_10  and  C7_11 
REMARK    8  A    between atoms: C12_16  and  C13_17 
REMARK    9  A    between atoms: C13_17  and  O5_19 
REMARK   10  A    between atoms: C13_17  and  C15_20 
REMARK   11  A    between atoms: C15_20  and  O6_21 
REMARK   12  A    between atoms: C18_24  and  O7_26 
REMARK   13  A    between atoms: C22_29  and  O8_30 
REMARK   14  A    between atoms: C23_31  and  O9_32 
ROOT
HETATM    1  C7  UNL     1      -0.805   6.963  13.765  1.00  0.00     0.126 C 
HETATM    2  C8  UNL     1      -2.064   6.741  12.944  1.00  0.00     0.040 C 
HETATM    3  C9  UNL     1      -3.024   7.869  13.382  1.00  0.00     0.026 C 
HETATM    4  C10 UNL     1      -2.100   9.021  13.878  1.00  0.00    -0.001 C 
HETATM    5  C11 UNL     1      -2.365   9.655  15.251  1.00  0.00     0.013 C 
HETATM    6  C12 UNL     1      -3.715  10.391  15.379  1.00  0.00     0.022 C 
HETATM    7  C16 UNL     1      -4.854   9.406  15.711  1.00  0.00     0.010 C 
HETATM    8  C17 UNL     1      -5.215   8.446  14.586  1.00  0.00     0.038 C 
HETATM    9  C18 UNL     1      -4.195   7.345  14.250  1.00  0.00     0.058 C 
HETATM   10  C19 UNL     1      -3.787   6.523  15.478  1.00  0.00     0.046 C 
HETATM   11  C20 UNL     1      -0.652   8.480  13.683  1.00  0.00     0.015 C 
HETATM   12  C21 UNL     1       0.435   8.999  14.618  1.00  0.00     0.013 C 
ENDROOT
BRANCH   1  13
HETATM   13  O4  UNL     1       0.326   6.321  13.190  1.00  0.00    -0.383 OA
BRANCH  13  14
HETATM   14  C6  UNL     1      -0.039   5.208  12.360  1.00  0.00     0.202 C 
BRANCH  14  15
HETATM   15  C5  UNL     1       0.379   5.546  10.925  1.00  0.00     0.173 C 
BRANCH  15  16
HETATM   16  C4  UNL     1       1.886   5.350  10.698  1.00  0.00     0.187 C 
HETATM   17  O2  UNL     1       2.176   5.425   9.278  1.00  0.00    -0.348 OA
HETATM   18  C3  UNL     1       3.140   6.471   9.071  1.00  0.00     0.291 C 
HETATM   19  C23 UNL     1       3.935   6.529  10.381  1.00  0.00     0.204 C 
HETATM   20  C22 UNL     1       2.830   6.337  11.409  1.00  0.00     0.183 C 
BRANCH  18  21
HETATM   21  O1  UNL     1       2.503   7.721   8.830  1.00  0.00    -0.359 OA
BRANCH  21  22
HETATM   22  C2  UNL     1       2.683   8.163   7.487  1.00  0.00     0.166 C 
HETATM   23  C1  UNL     1       1.825   7.297   6.585  1.00  0.00     0.033 C 
ENDBRANCH  21  22
ENDBRANCH  18  21
BRANCH  19  24
HETATM   24  O9  UNL     1       4.877   5.447  10.465  1.00  0.00    -0.388 OA
HETATM   25  H42 UNL     1       4.481   4.671  10.027  1.00  0.00     0.210 HD
ENDBRANCH  19  24
BRANCH  20  26
HETATM   26  O8  UNL     1       2.222   7.585  11.737  1.00  0.00    -0.390 OA
HETATM   27  H40 UNL     1       1.622   7.813  10.989  1.00  0.00     0.210 HD
ENDBRANCH  20  26
ENDBRANCH  15  16
BRANCH  15  28
HETATM   28  O3  UNL     1      -0.020   6.897  10.629  1.00  0.00    -0.391 OA
HETATM   29  H9  UNL     1      -0.943   6.957  10.950  1.00  0.00     0.210 HD
ENDBRANCH  15  28
ENDBRANCH  14  15
ENDBRANCH  13  14
ENDBRANCH   1  13
BRANCH   9  30
HETATM   30  O7  UNL     1      -4.901   6.419  13.388  1.00  0.00    -0.390 OA
HETATM   31  H34 UNL     1      -5.673   6.079  13.876  1.00  0.00     0.210 HD
ENDBRANCH   9  30
BRANCH   6  32
HETATM   32  C13 UNL     1      -3.658  11.564  16.429  1.00  0.00     0.079 C 
HETATM   33  C14 UNL     1      -2.348  12.354  16.381  1.00  0.00     0.048 C 
BRANCH  32  34
HETATM   34  O5  UNL     1      -3.751  10.981  17.744  1.00  0.00    -0.388 OA
HETATM   35  H23 UNL     1      -4.686  10.712  17.840  1.00  0.00     0.210 HD
ENDBRANCH  32  34
BRANCH  32  36
HETATM   36  C15 UNL     1      -4.854  12.543  16.322  1.00  0.00     0.201 C 
BRANCH  36  37
HETATM   37  O6  UNL     1      -4.791  13.241  15.076  1.00  0.00    -0.398 OA
HETATM   38  H26 UNL     1      -5.576  13.815  15.036  1.00  0.00     0.209 HD
ENDBRANCH  36  37
ENDBRANCH  32  36
ENDBRANCH   6  32
TORSDOF 14
ENDMDL
MODEL 8
REMARK minimizedAffinity -7.31290388
REMARK CNNscore 0.465738952
REMARK CNNaffinity 6.01206732
REMARK  14 active torsions:
REMARK  status: ('A' for Active; 'I' for Inactive)
REMARK    1  A    between atoms: C2_2  and  O1_3 
REMARK    2  A    between atoms: O1_3  and  C3_4 
REMARK    3  A    between atoms: C4_6  and  C5_7 
REMARK    4  A    between atoms: C5_7  and  O3_8 
REMARK    5  A    between atoms: C5_7  and  C6_9 
REMARK    6  A    between atoms: C6_9  and  O4_10 
REMARK    7  A    between atoms: O4_10  and  C7_11 
REMARK    8  A    between atoms: C12_16  and  C13_17 
REMARK    9  A    between atoms: C13_17  and  O5_19 
REMARK   10  A    between atoms: C13_17  and  C15_20 
REMARK   11  A    between atoms: C15_20  and  O6_21 
REMARK   12  A    between atoms: C18_24  and  O7_26 
REMARK   13  A    between atoms: C22_29  and  O8_30 
REMARK   14  A    between atoms: C23_31  and  O9_32 
ROOT
HETATM    1  C7  UNL     1      -6.605   5.790  13.313  1.00  0.00     0.126 C 
HETATM    2  C8  UNL     1      -6.549   5.653  14.826  1.00  0.00     0.040 C 
HETATM    3  C9  UNL     1      -7.957   6.065  15.310  1.00  0.00     0.026 C 
HETATM    4  C10 UNL     1      -8.905   5.767  14.110  1.00  0.00    -0.001 C 
HETATM    5  C11 UNL     1      -9.868   6.860  13.627  1.00  0.00     0.013 C 
HETATM    6  C12 UNL     1     -10.942   7.282  14.650  1.00  0.00     0.022 C 
HETATM    7  C16 UNL     1     -10.387   8.329  15.637  1.00  0.00     0.010 C 
HETATM    8  C17 UNL     1      -9.336   7.800  16.603  1.00  0.00     0.038 C 
HETATM    9  C18 UNL     1      -7.960   7.444  16.016  1.00  0.00     0.058 C 
HETATM   10  C19 UNL     1      -7.345   8.595  15.210  1.00  0.00     0.046 C 
HETATM   11  C20 UNL     1      -7.974   5.187  13.004  1.00  0.00     0.015 C 
HETATM   12  C21 UNL     1      -8.378   5.398  11.549  1.00  0.00     0.013 C 
ENDROOT
BRANCH   1  13
HETATM   13  O4  UNL     1      -5.580   5.040  12.673  1.00  0.00    -0.383 OA
BRANCH  13  14
HETATM   14  C6  UNL     1      -4.434   4.848  13.516  1.00  0.00     0.202 C 
BRANCH  14  15
HETATM   15  C5  UNL     1      -3.381   5.883  13.106  1.00  0.00     0.173 C 
BRANCH  15  16
HETATM   16  C4  UNL     1      -2.257   6.011  14.146  1.00  0.00     0.187 C 
HETATM   17  O2  UNL     1      -1.327   4.908  13.993  1.00  0.00    -0.348 OA
HETATM   18  C3  UNL     1      -0.018   5.454  13.757  1.00  0.00     0.291 C 
HETATM   19  C23 UNL     1      -0.034   6.815  14.461  1.00  0.00     0.204 C 
HETATM   20  C22 UNL     1      -1.432   7.311  14.121  1.00  0.00     0.183 C 
BRANCH  18  21
HETATM   21  O1  UNL     1       0.227   5.626  12.365  1.00  0.00    -0.359 OA
BRANCH  21  22
HETATM   22  C2  UNL     1       1.548   6.095  12.108  1.00  0.00     0.166 C 
HETATM   23  C1  UNL     1       2.047   5.432  10.839  1.00  0.00     0.033 C 
ENDBRANCH  21  22
ENDBRANCH  18  21
BRANCH  19  24
HETATM   24  O9  UNL     1       0.101   6.666  15.884  1.00  0.00    -0.388 OA
HETATM   25  H42 UNL     1      -0.352   5.841  16.142  1.00  0.00     0.210 HD
ENDBRANCH  19  24
BRANCH  20  26
HETATM   26  O8  UNL     1      -1.440   7.976  12.860  1.00  0.00    -0.390 OA
HETATM   27  H40 UNL     1      -1.413   7.274  12.168  1.00  0.00     0.210 HD
ENDBRANCH  20  26
ENDBRANCH  15  16
BRANCH  15  28
HETATM   28  O3  UNL     1      -4.032   7.148  12.886  1.00  0.00    -0.391 OA
HETATM   29  H9  UNL     1      -4.815   6.930  12.340  1.00  0.00     0.210 HD
ENDBRANCH  15  28
ENDBRANCH  14  15
ENDBRANCH  13  14
ENDBRANCH   1  13
BRANCH   9  30
HETATM   30  O7  UNL     1      -7.088   7.270  17.160  1.00  0.00    -0.390 OA
HETATM   31  H34 UNL     1      -7.076   8.104  17.662  1.00  0.00     0.210 HD
ENDBRANCH   9  30
BRANCH   6  32
HETATM   32  C13 UNL     1     -12.257   7.802  13.956  1.00  0.00     0.079 C 
HETATM   33  C14 UNL     1     -13.330   6.719  13.808  1.00  0.00     0.048 C 
BRANCH  32  34
HETATM   34  O5  UNL     1     -11.910   8.234  12.626  1.00  0.00    -0.388 OA
HETATM   35  H23 UNL     1     -11.436   9.082  12.747  1.00  0.00     0.210 HD
ENDBRANCH  32  34
BRANCH  32  36
HETATM   36  C15 UNL     1     -12.870   9.043  14.651  1.00  0.00     0.201 C 
BRANCH  36  37
HETATM   37  O6  UNL     1     -13.625   9.798  13.702  1.00  0.00    -0.398 OA
HETATM   38  H26 UNL     1     -14.020  10.544  14.187  1.00  0.00     0.209 HD
ENDBRANCH  36  37
ENDBRANCH  32  36
ENDBRANCH   6  32
TORSDOF 14
ENDMDL
MODEL 9
REMARK minimizedAffinity -6.95341873
REMARK CNNscore 0.463105857
REMARK CNNaffinity 5.59240341
REMARK  14 active torsions:
REMARK  status: ('A' for Active; 'I' for Inactive)
REMARK    1  A    between atoms: C2_2  and  O1_3 
REMARK    2  A    between atoms: O1_3  and  C3_4 
REMARK    3  A    between atoms: C4_6  and  C5_7 
REMARK    4  A    between atoms: C5_7  and  O3_8 
REMARK    5  A    between atoms: C5_7  and  C6_9 
REMARK    6  A    between atoms: C6_9  and  O4_10 
REMARK    7  A    between atoms: O4_10  and  C7_11 
REMARK    8  A    between atoms: C12_16  and  C13_17 
REMARK    9  A    between atoms: C13_17  and  O5_19 
REMARK   10  A    between atoms: C13_17  and  C15_20 
REMARK   11  A    between atoms: C15_20  and  O6_21 
REMARK   12  A    between atoms: C18_24  and  O7_26 
REMARK   13  A    between atoms: C22_29  and  O8_30 
REMARK   14  A    between atoms: C23_31  and  O9_32 
ROOT
HETATM    1  C7  UNL     1      -4.498   7.983  14.060  1.00  0.00     0.126 C 
HETATM    2  C8  UNL     1      -5.361   7.434  15.184  1.00  0.00     0.040 C 
HETATM    3  C9  UNL     1      -5.570   5.946  14.829  1.00  0.00     0.026 C 
HETATM    4  C10 UNL     1      -4.335   5.556  13.960  1.00  0.00    -0.001 C 
HETATM    5  C11 UNL     1      -4.559   4.854  12.614  1.00  0.00     0.013 C 
HETATM    6  C12 UNL     1      -5.206   3.457  12.708  1.00  0.00     0.022 C 
HETATM    7  C16 UNL     1      -6.741   3.561  12.808  1.00  0.00     0.010 C 
HETATM    8  C17 UNL     1      -7.255   4.148  14.116  1.00  0.00     0.038 C 
HETATM    9  C18 UNL     1      -7.014   5.647  14.355  1.00  0.00     0.058 C 
HETATM   10  C19 UNL     1      -7.520   6.519  13.200  1.00  0.00     0.046 C 
HETATM   11  C20 UNL     1      -3.482   6.857  13.878  1.00  0.00     0.015 C 
HETATM   12  C21 UNL     1      -2.612   7.063  12.644  1.00  0.00     0.013 C 
ENDROOT
BRANCH   1  13
HETATM   13  O4  UNL     1      -3.839   9.186  14.434  1.00  0.00    -0.383 OA
BRANCH  13  14
HETATM   14  C6  UNL     1      -4.428   9.796  15.593  1.00  0.00     0.202 C 
BRANCH  14  15
HETATM   15  C5  UNL     1      -3.943  11.249  15.648  1.00  0.00     0.173 C 
BRANCH  15  16
HETATM   16  C4  UNL     1      -2.639  11.395  16.446  1.00  0.00     0.187 C 
HETATM   17  O2  UNL     1      -2.205  12.780  16.416  1.00  0.00    -0.348 OA
HETATM   18  C3  UNL     1      -2.094  13.245  17.772  1.00  0.00     0.291 C 
HETATM   19  C23 UNL     1      -1.770  11.988  18.587  1.00  0.00     0.204 C 
HETATM   20  C22 UNL     1      -2.675  10.960  17.923  1.00  0.00     0.183 C 
BRANCH  18  21
HETATM   21  O1  UNL     1      -3.317  13.818  18.223  1.00  0.00    -0.359 OA
BRANCH  21  22
HETATM   22  C2  UNL     1      -3.198  14.369  19.532  1.00  0.00     0.166 C 
HETATM   23  C1  UNL     1      -4.156  15.540  19.642  1.00  0.00     0.033 C 
ENDBRANCH  21  22
ENDBRANCH  18  21
BRANCH  19  24
HETATM   24  O9  UNL     1      -0.394  11.606  18.428  1.00  0.00    -0.388 OA
HETATM   25  H42 UNL     1      -0.126  11.827  17.516  1.00  0.00     0.210 HD
ENDBRANCH  19  24
BRANCH  20  26
HETATM   26  O8  UNL     1      -3.978  10.984  18.501  1.00  0.00    -0.390 OA
HETATM   27  H40 UNL     1      -4.438  11.774  18.131  1.00  0.00     0.210 HD
ENDBRANCH  20  26
ENDBRANCH  15  16
BRANCH  15  28
HETATM   28  O3  UNL     1      -4.988  12.068  16.204  1.00  0.00    -0.391 OA
HETATM   29  H9  UNL     1      -5.798  11.788  15.732  1.00  0.00     0.210 HD
ENDBRANCH  15  28
ENDBRANCH  14  15
ENDBRANCH  13  14
ENDBRANCH   1  13
BRANCH   9  30
HETATM   30  O7  UNL     1      -7.848   5.994  15.488  1.00  0.00    -0.390 OA
HETATM   31  H34 UNL     1      -8.773   5.796  15.256  1.00  0.00     0.210 HD
ENDBRANCH   9  30
BRANCH   6  32
HETATM   32  C13 UNL     1      -4.781   2.521  11.514  1.00  0.00     0.079 C 
HETATM   33  C14 UNL     1      -5.818   1.439  11.196  1.00  0.00     0.048 C 
BRANCH  32  34
HETATM   34  O5  UNL     1      -3.569   1.842  11.898  1.00  0.00    -0.388 OA
HETATM   35  H23 UNL     1      -2.866   2.520  11.840  1.00  0.00     0.210 HD
ENDBRANCH  32  34
BRANCH  32  36
HETATM   36  C15 UNL     1      -4.432   3.296  10.219  1.00  0.00     0.201 C 
BRANCH  36  37
HETATM   37  O6  UNL     1      -5.441   3.058   9.234  1.00  0.00    -0.398 OA
HETATM   38  H26 UNL     1      -5.201   3.590   8.454  1.00  0.00     0.209 HD
ENDBRANCH  36  37
ENDBRANCH  32  36
ENDBRANCH   6  32
TORSDOF 14
ENDMDL
