MODEL 1
REMARK minimizedAffinity -7.48892403
REMARK CNNscore 0.644987106
REMARK CNNaffinity 6.6926384
REMARK  6 active torsions:
REMARK  status: ('A' for Active; 'I' for Inactive)
REMARK    1  A    between atoms: C2_2  and  C30_31 
REMARK    2  A    between atoms: C3_3  and  C4_4 
REMARK    3  A    between atoms: C4_4  and  C5_5 
REMARK    4  A    between atoms: C5_5  and  C6_6 
REMARK    5  A    between atoms: C6_6  and  C8_8 
REMARK    6  A    between atoms: C30_31  and  O3_33 
ROOT
HETATM    1  C8  UNL     1      -0.766   8.168  14.040  1.00  0.00    -0.002 C 
HETATM    2  C9  UNL     1      -1.117   7.067  15.075  1.00  0.00     0.007 C 
HETATM    3  C10 UNL     1      -1.792   7.783  16.268  1.00  0.00     0.015 C 
HETATM    4  C11 UNL     1      -1.518   9.288  16.041  1.00  0.00    -0.013 C 
HETATM    5  C12 UNL     1      -0.085   9.553  16.612  1.00  0.00     0.021 C 
HETATM    6  C13 UNL     1      -2.421  10.314  16.713  1.00  0.00    -0.070 C 
HETATM    7  C14 UNL     1      -2.979  10.100  17.920  1.00  0.00    -0.022 C 
HETATM    8  C15 UNL     1      -3.750  11.131  18.693  1.00  0.00     0.034 C 
HETATM    9  C16 UNL     1      -4.074  12.412  17.891  1.00  0.00     0.013 C 
HETATM   10  C17 UNL     1      -4.768  13.570  18.707  1.00  0.00     0.018 C 
HETATM   11  C18 UNL     1      -6.208  13.773  18.187  1.00  0.00     0.023 C 
HETATM   12  C19 UNL     1      -4.869  13.282  20.220  1.00  0.00     0.023 C 
HETATM   13  C20 UNL     1      -4.061  14.920  18.524  1.00  0.00     0.135 C 
HETATM   14  O1  UNL     1      -3.956  15.733  19.447  1.00  0.00    -0.297 OA
HETATM   15  C21 UNL     1      -3.567  15.306  17.148  1.00  0.00     0.080 C 
HETATM   16  C22 UNL     1      -3.262  14.122  16.245  1.00  0.00     0.017 C 
HETATM   17  C23 UNL     1      -2.848  12.843  17.008  1.00  0.00    -0.031 C 
HETATM   18  C24 UNL     1      -1.577  13.121  17.851  1.00  0.00     0.016 C 
HETATM   19  C25 UNL     1      -2.590  11.659  15.991  1.00  0.00     0.024 C 
HETATM   20  C26 UNL     1      -1.491  11.935  14.934  1.00  0.00     0.010 C 
HETATM   21  C27 UNL     1      -1.129  10.754  14.000  1.00  0.00     0.011 C 
HETATM   22  C28 UNL     1      -1.642   9.382  14.482  1.00  0.00    -0.029 C 
HETATM   23  C29 UNL     1      -3.096   9.193  13.956  1.00  0.00     0.016 C 
ENDROOT
BRANCH   1  24
HETATM   24  C6  UNL     1      -0.764   7.749  12.539  1.00  0.00    -0.014 C 
HETATM   25  C7  UNL     1      -1.195   8.967  11.698  1.00  0.00     0.010 C 
BRANCH  24  26
HETATM   26  C5  UNL     1       0.582   7.202  11.999  1.00  0.00     0.008 C 
BRANCH  26  27
HETATM   27  C4  UNL     1       0.521   6.659  10.562  1.00  0.00     0.028 C 
BRANCH  27  28
HETATM   28  C3  UNL     1       1.122   7.554   9.517  1.00  0.00    -0.013 C 
HETATM   29  C2  UNL     1       2.248   7.366   8.799  1.00  0.00     0.008 C 
HETATM   30  C1  UNL     1       2.682   8.369   7.766  1.00  0.00     0.055 C 
BRANCH  29  31
HETATM   31  C30 UNL     1       3.131   6.190   9.007  1.00  0.00     0.171 C 
HETATM   32  O2  UNL     1       4.025   6.066   9.825  1.00  0.00    -0.646 OA
BRANCH  31  33
HETATM   33  O3  UNL     1       2.849   5.191   8.151  1.00  0.00    -0.773 OA
HETATM   34  H46 UNL     1       3.492   4.496   8.402  1.00  0.00     0.167 HD
ENDBRANCH  31  33
ENDBRANCH  29  31
ENDBRANCH  27  28
ENDBRANCH  26  27
ENDBRANCH  24  26
ENDBRANCH   1  24
TORSDOF 6
ENDMDL
MODEL 2
REMARK minimizedAffinity -8.1865406
REMARK CNNscore 0.640380979
REMARK CNNaffinity 6.88821936
REMARK  6 active torsions:
REMARK  status: ('A' for Active; 'I' for Inactive)
REMARK    1  A    between atoms: C2_2  and  C30_31 
REMARK    2  A    between atoms: C3_3  and  C4_4 
REMARK    3  A    between atoms: C4_4  and  C5_5 
REMARK    4  A    between atoms: C5_5  and  C6_6 
REMARK    5  A    between atoms: C6_6  and  C8_8 
REMARK    6  A    between atoms: C30_31  and  O3_33 
ROOT
HETATM    1  C8  UNL     1      -0.785  10.814  17.121  1.00  0.00    -0.002 C 
HETATM    2  C9  UNL     1      -1.815  11.901  17.526  1.00  0.00     0.007 C 
HETATM    3  C10 UNL     1      -3.193  11.414  17.018  1.00  0.00     0.015 C 
HETATM    4  C11 UNL     1      -2.877  10.241  16.061  1.00  0.00    -0.013 C 
HETATM    5  C12 UNL     1      -2.531  10.894  14.682  1.00  0.00     0.021 C 
HETATM    6  C13 UNL     1      -3.963   9.215  15.765  1.00  0.00    -0.070 C 
HETATM    7  C14 UNL     1      -5.268   9.544  15.715  1.00  0.00    -0.022 C 
HETATM    8  C15 UNL     1      -6.362   8.610  15.280  1.00  0.00     0.034 C 
HETATM    9  C16 UNL     1      -5.913   7.141  15.118  1.00  0.00     0.013 C 
HETATM   10  C17 UNL     1      -6.999   6.155  14.539  1.00  0.00     0.018 C 
HETATM   11  C18 UNL     1      -7.401   5.135  15.627  1.00  0.00     0.023 C 
HETATM   12  C19 UNL     1      -8.293   6.864  14.084  1.00  0.00     0.023 C 
HETATM   13  C20 UNL     1      -6.469   5.326  13.361  1.00  0.00     0.135 C 
HETATM   14  O1  UNL     1      -7.181   5.033  12.396  1.00  0.00    -0.297 OA
HETATM   15  C21 UNL     1      -5.066   4.770  13.432  1.00  0.00     0.080 C 
HETATM   16  C22 UNL     1      -4.129   5.564  14.328  1.00  0.00     0.017 C 
HETATM   17  C23 UNL     1      -4.495   7.060  14.446  1.00  0.00    -0.031 C 
HETATM   18  C24 UNL     1      -4.465   7.721  13.044  1.00  0.00     0.016 C 
HETATM   19  C25 UNL     1      -3.492   7.793  15.426  1.00  0.00     0.024 C 
HETATM   20  C26 UNL     1      -2.001   7.720  15.008  1.00  0.00     0.010 C 
HETATM   21  C27 UNL     1      -1.007   8.527  15.878  1.00  0.00     0.011 C 
HETATM   22  C28 UNL     1      -1.671   9.567  16.802  1.00  0.00    -0.029 C 
HETATM   23  C29 UNL     1      -2.068   8.857  18.130  1.00  0.00     0.016 C 
ENDROOT
BRANCH   1  24
HETATM   24  C6  UNL     1       0.455  10.637  18.049  1.00  0.00    -0.014 C 
HETATM   25  C7  UNL     1       1.699  11.141  17.290  1.00  0.00     0.010 C 
BRANCH  24  26
HETATM   26  C5  UNL     1       0.368  11.347  19.423  1.00  0.00     0.008 C 
BRANCH  26  27
HETATM   27  C4  UNL     1       0.862  10.504  20.610  1.00  0.00     0.028 C 
BRANCH  27  28
HETATM   28  C3  UNL     1       2.329  10.624  20.909  1.00  0.00    -0.013 C 
HETATM   29  C2  UNL     1       3.060   9.938  21.811  1.00  0.00     0.008 C 
HETATM   30  C1  UNL     1       4.538  10.177  21.949  1.00  0.00     0.055 C 
BRANCH  29  31
HETATM   31  C30 UNL     1       2.449   8.943  22.730  1.00  0.00     0.171 C 
HETATM   32  O2  UNL     1       2.417   8.977  23.947  1.00  0.00    -0.646 OA
BRANCH  31  33
HETATM   33  O3  UNL     1       1.895   7.916  22.063  1.00  0.00    -0.773 OA
HETATM   34  H46 UNL     1       1.536   7.353  22.781  1.00  0.00     0.167 HD
ENDBRANCH  31  33
ENDBRANCH  29  31
ENDBRANCH  27  28
ENDBRANCH  26  27
ENDBRANCH  24  26
ENDBRANCH   1  24
TORSDOF 6
ENDMDL
MODEL 3
REMARK minimizedAffinity -6.55437851
REMARK CNNscore 0.529116035
REMARK CNNaffinity 6.36012268
REMARK  6 active torsions:
REMARK  status: ('A' for Active; 'I' for Inactive)
REMARK    1  A    between atoms: C2_2  and  C30_31 
REMARK    2  A    between atoms: C3_3  and  C4_4 
REMARK    3  A    between atoms: C4_4  and  C5_5 
REMARK    4  A    between atoms: C5_5  and  C6_6 
REMARK    5  A    between atoms: C6_6  and  C8_8 
REMARK    6  A    between atoms: C30_31  and  O3_33 
ROOT
HETATM    1  C8  UNL     1      -1.585  13.394  17.572  1.00  0.00    -0.002 C 
HETATM    2  C9  UNL     1      -3.124  13.588  17.563  1.00  0.00     0.007 C 
HETATM    3  C10 UNL     1      -3.710  12.430  16.721  1.00  0.00     0.015 C 
HETATM    4  C11 UNL     1      -2.494  11.800  16.004  1.00  0.00    -0.013 C 
HETATM    5  C12 UNL     1      -2.243  12.678  14.734  1.00  0.00     0.021 C 
HETATM    6  C13 UNL     1      -2.595  10.368  15.496  1.00  0.00    -0.070 C 
HETATM    7  C14 UNL     1      -3.750   9.847  15.039  1.00  0.00    -0.022 C 
HETATM    8  C15 UNL     1      -3.875   8.499  14.388  1.00  0.00     0.034 C 
HETATM    9  C16 UNL     1      -2.605   7.625  14.493  1.00  0.00     0.013 C 
HETATM   10  C17 UNL     1      -2.651   6.257  13.711  1.00  0.00     0.018 C 
HETATM   11  C18 UNL     1      -2.639   5.087  14.721  1.00  0.00     0.023 C 
HETATM   12  C19 UNL     1      -3.914   6.088  12.839  1.00  0.00     0.023 C 
HETATM   13  C20 UNL     1      -1.421   6.052  12.815  1.00  0.00     0.135 C 
HETATM   14  O1  UNL     1      -1.501   5.499  11.715  1.00  0.00    -0.297 OA
HETATM   15  C21 UNL     1      -0.061   6.449  13.340  1.00  0.00     0.080 C 
HETATM   16  C22 UNL     1      -0.099   7.541  14.397  1.00  0.00     0.017 C 
HETATM   17  C23 UNL     1      -1.312   8.490  14.272  1.00  0.00    -0.031 C 
HETATM   18  C24 UNL     1      -1.294   9.188  12.887  1.00  0.00     0.016 C 
HETATM   19  C25 UNL     1      -1.288   9.565  15.433  1.00  0.00     0.024 C 
HETATM   20  C26 UNL     1      -0.016  10.451  15.475  1.00  0.00     0.010 C 
HETATM   21  C27 UNL     1      -0.013  11.591  16.523  1.00  0.00     0.011 C 
HETATM   22  C28 UNL     1      -1.398  11.911  17.119  1.00  0.00    -0.029 C 
HETATM   23  C29 UNL     1      -1.638  10.963  18.331  1.00  0.00     0.016 C 
ENDROOT
BRANCH   1  24
HETATM   24  C6  UNL     1      -0.818  13.898  18.832  1.00  0.00    -0.014 C 
HETATM   25  C7  UNL     1      -1.750  14.842  19.617  1.00  0.00     0.010 C 
BRANCH  24  26
HETATM   26  C5  UNL     1      -0.290  12.792  19.780  1.00  0.00     0.008 C 
BRANCH  26  27
HETATM   27  C4  UNL     1       1.216  12.872  20.078  1.00  0.00     0.028 C 
BRANCH  27  28
HETATM   28  C3  UNL     1       1.762  11.741  20.901  1.00  0.00    -0.013 C 
HETATM   29  C2  UNL     1       2.537  10.712  20.502  1.00  0.00     0.008 C 
HETATM   30  C1  UNL     1       3.016   9.679  21.485  1.00  0.00     0.055 C 
BRANCH  29  31
HETATM   31  C30 UNL     1       2.930  10.523  19.082  1.00  0.00     0.171 C 
HETATM   32  O2  UNL     1       3.843  11.063  18.484  1.00  0.00    -0.646 OA
BRANCH  31  33
HETATM   33  O3  UNL     1       2.132   9.643  18.452  1.00  0.00    -0.773 OA
HETATM   34  H46 UNL     1       2.503   9.616  17.545  1.00  0.00     0.167 HD
ENDBRANCH  31  33
ENDBRANCH  29  31
ENDBRANCH  27  28
ENDBRANCH  26  27
ENDBRANCH  24  26
ENDBRANCH   1  24
TORSDOF 6
ENDMDL
MODEL 4
REMARK minimizedAffinity -8.72911263
REMARK CNNscore 0.510427356
REMARK CNNaffinity 7.26810026
REMARK  6 active torsions:
REMARK  status: ('A' for Active; 'I' for Inactive)
REMARK    1  A    between atoms: C2_2  and  C30_31 
REMARK    2  A    between atoms: C3_3  and  C4_4 
REMARK    3  A    between atoms: C4_4  and  C5_5 
REMARK    4  A    between atoms: C5_5  and  C6_6 
REMARK    5  A    between atoms: C6_6  and  C8_8 
REMARK    6  A    between atoms: C30_31  and  O3_33 
ROOT
HETATM    1  C8  UNL     1      -3.313   6.741  14.305  1.00  0.00    -0.002 C 
HETATM    2  C9  UNL     1      -3.583   5.435  13.514  1.00  0.00     0.007 C 
HETATM    3  C10 UNL     1      -5.120   5.294  13.408  1.00  0.00     0.015 C 
HETATM    4  C11 UNL     1      -5.688   6.328  14.408  1.00  0.00    -0.013 C 
HETATM    5  C12 UNL     1      -5.659   5.631  15.808  1.00  0.00     0.021 C 
HETATM    6  C13 UNL     1      -7.117   6.822  14.228  1.00  0.00    -0.070 C 
HETATM    7  C14 UNL     1      -8.094   6.035  13.738  1.00  0.00    -0.022 C 
HETATM    8  C15 UNL     1      -9.545   6.419  13.681  1.00  0.00     0.034 C 
HETATM    9  C16 UNL     1      -9.821   7.904  14.010  1.00  0.00     0.013 C 
HETATM   10  C17 UNL     1     -11.341   8.314  14.089  1.00  0.00     0.018 C 
HETATM   11  C18 UNL     1     -11.673   9.280  12.930  1.00  0.00     0.023 C 
HETATM   12  C19 UNL     1     -12.309   7.117  13.972  1.00  0.00     0.023 C 
HETATM   13  C20 UNL     1     -11.677   9.076  15.379  1.00  0.00     0.135 C 
HETATM   14  O1  UNL     1     -12.752   8.926  15.965  1.00  0.00    -0.297 OA
HETATM   15  C21 UNL     1     -10.701  10.110  15.891  1.00  0.00     0.080 C 
HETATM   16  C22 UNL     1      -9.262   9.872  15.462  1.00  0.00     0.017 C 
HETATM   17  C23 UNL     1      -8.924   8.386  15.207  1.00  0.00    -0.031 C 
HETATM   18  C24 UNL     1      -9.164   7.563  16.498  1.00  0.00     0.016 C 
HETATM   19  C25 UNL     1      -7.423   8.242  14.728  1.00  0.00     0.024 C 
HETATM   20  C26 UNL     1      -6.366   8.786  15.723  1.00  0.00     0.010 C 
HETATM   21  C27 UNL     1      -4.884   8.552  15.341  1.00  0.00     0.011 C 
HETATM   22  C28 UNL     1      -4.672   7.507  14.228  1.00  0.00    -0.029 C 
HETATM   23  C29 UNL     1      -4.785   8.230  12.853  1.00  0.00     0.016 C 
ENDROOT
BRANCH   1  24
HETATM   24  C6  UNL     1      -1.997   7.509  13.970  1.00  0.00    -0.014 C 
HETATM   25  C7  UNL     1      -0.915   7.071  14.977  1.00  0.00     0.010 C 
BRANCH  24  26
HETATM   26  C5  UNL     1      -1.464   7.322  12.527  1.00  0.00     0.008 C 
BRANCH  26  27
HETATM   27  C4  UNL     1      -0.343   8.296  12.130  1.00  0.00     0.028 C 
BRANCH  27  28
HETATM   28  C3  UNL     1      -0.193   8.525  10.653  1.00  0.00    -0.013 C 
HETATM   29  C2  UNL     1       0.561   7.839   9.770  1.00  0.00     0.008 C 
HETATM   30  C1  UNL     1       0.561   8.199   8.311  1.00  0.00     0.055 C 
BRANCH  29  31
HETATM   31  C30 UNL     1       1.448   6.723  10.189  1.00  0.00     0.171 C 
HETATM   32  O2  UNL     1       1.179   5.537  10.240  1.00  0.00    -0.646 OA
BRANCH  31  33
HETATM   33  O3  UNL     1       2.671   7.159  10.542  1.00  0.00    -0.773 OA
HETATM   34  H46 UNL     1       3.138   6.333  10.786  1.00  0.00     0.167 HD
ENDBRANCH  31  33
ENDBRANCH  29  31
ENDBRANCH  27  28
ENDBRANCH  26  27
ENDBRANCH  24  26
ENDBRANCH   1  24
TORSDOF 6
ENDMDL
MODEL 5
REMARK minimizedAffinity -7.73121262
REMARK CNNscore 0.411732376
REMARK CNNaffinity 6.5888648
REMARK  6 active torsions:
REMARK  status: ('A' for Active; 'I' for Inactive)
REMARK    1  A    between atoms: C2_2  and  C30_31 
REMARK    2  A    between atoms: C3_3  and  C4_4 
REMARK    3  A    between atoms: C4_4  and  C5_5 
REMARK    4  A    between atoms: C5_5  and  C6_6 
REMARK    5  A    between atoms: C6_6  and  C8_8 
REMARK    6  A    between atoms: C30_31  and  O3_33 
ROOT
HETATM    1  C8  UNL     1      -2.547   8.866  15.618  1.00  0.00    -0.002 C 
HETATM    2  C9  UNL     1      -1.630   8.193  16.673  1.00  0.00     0.007 C 
HETATM    3  C10 UNL     1      -0.449   7.566  15.895  1.00  0.00     0.015 C 
HETATM    4  C11 UNL     1      -0.879   7.607  14.410  1.00  0.00    -0.013 C 
HETATM    5  C12 UNL     1      -1.775   6.344  14.189  1.00  0.00     0.021 C 
HETATM    6  C13 UNL     1       0.190   7.542  13.328  1.00  0.00    -0.070 C 
HETATM    7  C14 UNL     1       1.329   6.840  13.484  1.00  0.00    -0.022 C 
HETATM    8  C15 UNL     1       2.344   6.617  12.399  1.00  0.00     0.034 C 
HETATM    9  C16 UNL     1       2.110   7.466  11.129  1.00  0.00     0.013 C 
HETATM   10  C17 UNL     1       3.077   7.166   9.920  1.00  0.00     0.018 C 
HETATM   11  C18 UNL     1       3.984   8.392   9.671  1.00  0.00     0.023 C 
HETATM   12  C19 UNL     1       4.006   5.957  10.160  1.00  0.00     0.023 C 
HETATM   13  C20 UNL     1       2.317   6.932   8.607  1.00  0.00     0.135 C 
HETATM   14  O1  UNL     1       2.694   6.104   7.773  1.00  0.00    -0.297 OA
HETATM   15  C21 UNL     1       1.132   7.811   8.282  1.00  0.00     0.080 C 
HETATM   16  C22 UNL     1       0.442   8.398   9.503  1.00  0.00     0.017 C 
HETATM   17  C23 UNL     1       0.580   7.532  10.775  1.00  0.00    -0.031 C 
HETATM   18  C24 UNL     1      -0.033   6.130  10.527  1.00  0.00     0.016 C 
HETATM   19  C25 UNL     1      -0.132   8.239  11.998  1.00  0.00     0.024 C 
HETATM   20  C26 UNL     1      -1.644   8.520  11.799  1.00  0.00     0.010 C 
HETATM   21  C27 UNL     1      -2.397   9.101  13.021  1.00  0.00     0.011 C 
HETATM   22  C28 UNL     1      -1.635   8.979  14.355  1.00  0.00    -0.029 C 
HETATM   23  C29 UNL     1      -0.700  10.217  14.497  1.00  0.00     0.016 C 
ENDROOT
BRANCH   1  24
HETATM   24  C6  UNL     1      -3.351  10.119  16.079  1.00  0.00    -0.014 C 
HETATM   25  C7  UNL     1      -4.760  10.043  15.459  1.00  0.00     0.010 C 
BRANCH  24  26
HETATM   26  C5  UNL     1      -3.473  10.308  17.612  1.00  0.00     0.008 C 
BRANCH  26  27
HETATM   27  C4  UNL     1      -2.907  11.636  18.140  1.00  0.00     0.028 C 
BRANCH  27  28
HETATM   28  C3  UNL     1      -3.824  12.402  19.050  1.00  0.00    -0.013 C 
HETATM   29  C2  UNL     1      -4.809  13.261  18.717  1.00  0.00     0.008 C 
HETATM   30  C1  UNL     1      -5.651  13.918  19.775  1.00  0.00     0.055 C 
BRANCH  29  31
HETATM   31  C30 UNL     1      -5.094  13.628  17.306  1.00  0.00     0.171 C 
HETATM   32  O2  UNL     1      -5.935  13.148  16.566  1.00  0.00    -0.646 OA
BRANCH  31  33
HETATM   33  O3  UNL     1      -4.282  14.607  16.867  1.00  0.00    -0.773 OA
HETATM   34  H46 UNL     1      -4.580  14.745  15.944  1.00  0.00     0.167 HD
ENDBRANCH  31  33
ENDBRANCH  29  31
ENDBRANCH  27  28
ENDBRANCH  26  27
ENDBRANCH  24  26
ENDBRANCH   1  24
TORSDOF 6
ENDMDL
MODEL 6
REMARK minimizedAffinity -7.81611633
REMARK CNNscore 0.386541992
REMARK CNNaffinity 5.74271631
REMARK  6 active torsions:
REMARK  status: ('A' for Active; 'I' for Inactive)
REMARK    1  A    between atoms: C2_2  and  C30_31 
REMARK    2  A    between atoms: C3_3  and  C4_4 
REMARK    3  A    between atoms: C4_4  and  C5_5 
REMARK    4  A    between atoms: C5_5  and  C6_6 
REMARK    5  A    between atoms: C6_6  and  C8_8 
REMARK    6  A    between atoms: C30_31  and  O3_33 
ROOT
HETATM    1  C8  UNL     1       7.524   9.252  15.331  1.00  0.00    -0.002 C 
HETATM    2  C9  UNL     1       6.614  10.357  15.928  1.00  0.00     0.007 C 
HETATM    3  C10 UNL     1       5.329  10.381  15.068  1.00  0.00     0.015 C 
HETATM    4  C11 UNL     1       5.665   9.534  13.818  1.00  0.00    -0.013 C 
HETATM    5  C12 UNL     1       6.413  10.496  12.837  1.00  0.00     0.021 C 
HETATM    6  C13 UNL     1       4.527   8.929  13.007  1.00  0.00    -0.070 C 
HETATM    7  C14 UNL     1       3.336   9.543  12.870  1.00  0.00    -0.022 C 
HETATM    8  C15 UNL     1       2.236   9.068  11.963  1.00  0.00     0.034 C 
HETATM    9  C16 UNL     1       2.473   7.665  11.361  1.00  0.00     0.013 C 
HETATM   10  C17 UNL     1       1.405   7.188  10.303  1.00  0.00     0.018 C 
HETATM   11  C18 UNL     1       0.612   5.993  10.876  1.00  0.00     0.023 C 
HETATM   12  C19 UNL     1       0.377   8.277   9.931  1.00  0.00     0.023 C 
HETATM   13  C20 UNL     1       2.052   6.679   9.006  1.00  0.00     0.135 C 
HETATM   14  O1  UNL     1       1.541   6.878   7.901  1.00  0.00    -0.297 OA
HETATM   15  C21 UNL     1       3.297   5.828   9.096  1.00  0.00     0.080 C 
HETATM   16  C22 UNL     1       4.119   6.062  10.354  1.00  0.00     0.017 C 
HETATM   17  C23 UNL     1       3.976   7.485  10.938  1.00  0.00    -0.031 C 
HETATM   18  C24 UNL     1       4.427   8.533   9.889  1.00  0.00     0.016 C 
HETATM   19  C25 UNL     1       4.832   7.622  12.261  1.00  0.00     0.024 C 
HETATM   20  C26 UNL     1       6.349   7.350  12.088  1.00  0.00     0.010 C 
HETATM   21  C27 UNL     1       7.233   7.592  13.335  1.00  0.00     0.011 C 
HETATM   22  C28 UNL     1       6.549   8.406  14.451  1.00  0.00    -0.029 C 
HETATM   23  C29 UNL     1       5.755   7.419  15.357  1.00  0.00     0.016 C 
ENDROOT
BRANCH   1  24
HETATM   24  C6  UNL     1       8.478   8.514  16.319  1.00  0.00    -0.014 C 
HETATM   25  C7  UNL     1       9.353   7.539  15.506  1.00  0.00     0.010 C 
BRANCH  24  26
HETATM   26  C5  UNL     1       9.388   9.428  17.178  1.00  0.00     0.008 C 
BRANCH  26  27
HETATM   27  C4  UNL     1       8.815  10.829  17.447  1.00  0.00     0.028 C 
BRANCH  27  28
HETATM   28  C3  UNL     1       8.684  11.195  18.897  1.00  0.00    -0.013 C 
HETATM   29  C2  UNL     1       9.654  11.564  19.759  1.00  0.00     0.008 C 
HETATM   30  C1  UNL     1       9.326  11.925  21.181  1.00  0.00     0.055 C 
BRANCH  29  31
HETATM   31  C30 UNL     1      11.087  11.603  19.367  1.00  0.00     0.171 C 
HETATM   32  O2  UNL     1      11.683  12.510  18.815  1.00  0.00    -0.646 OA
BRANCH  31  33
HETATM   33  O3  UNL     1      11.727  10.465  19.688  1.00  0.00    -0.773 OA
HETATM   34  H46 UNL     1      12.642  10.631  19.381  1.00  0.00     0.167 HD
ENDBRANCH  31  33
ENDBRANCH  29  31
ENDBRANCH  27  28
ENDBRANCH  26  27
ENDBRANCH  24  26
ENDBRANCH   1  24
TORSDOF 6
ENDMDL
MODEL 7
REMARK minimizedAffinity -7.04621792
REMARK CNNscore 0.357062727
REMARK CNNaffinity 5.29534292
REMARK  6 active torsions:
REMARK  status: ('A' for Active; 'I' for Inactive)
REMARK    1  A    between atoms: C2_2  and  C30_31 
REMARK    2  A    between atoms: C3_3  and  C4_4 
REMARK    3  A    between atoms: C4_4  and  C5_5 
REMARK    4  A    between atoms: C5_5  and  C6_6 
REMARK    5  A    between atoms: C6_6  and  C8_8 
REMARK    6  A    between atoms: C30_31  and  O3_33 
ROOT
HETATM    1  C8  UNL     1     -17.390   2.631  14.852  1.00  0.00    -0.002 C 
HETATM    2  C9  UNL     1     -17.591   2.292  16.352  1.00  0.00     0.007 C 
HETATM    3  C10 UNL     1     -17.094   0.840  16.546  1.00  0.00     0.015 C 
HETATM    4  C11 UNL     1     -16.932   0.276  15.115  1.00  0.00    -0.013 C 
HETATM    5  C12 UNL     1     -18.356  -0.203  14.679  1.00  0.00     0.021 C 
HETATM    6  C13 UNL     1     -16.013  -0.917  14.890  1.00  0.00    -0.070 C 
HETATM    7  C14 UNL     1     -15.852  -1.885  15.812  1.00  0.00    -0.022 C 
HETATM    8  C15 UNL     1     -15.081  -3.154  15.585  1.00  0.00     0.034 C 
HETATM    9  C16 UNL     1     -14.265  -3.173  14.274  1.00  0.00     0.013 C 
HETATM   10  C17 UNL     1     -13.547  -4.537  13.936  1.00  0.00     0.018 C 
HETATM   11  C18 UNL     1     -12.016  -4.345  14.014  1.00  0.00     0.023 C 
HETATM   12  C19 UNL     1     -13.910  -5.680  14.907  1.00  0.00     0.023 C 
HETATM   13  C20 UNL     1     -13.839  -5.014  12.506  1.00  0.00     0.135 C 
HETATM   14  O1  UNL     1     -13.979  -6.209  12.233  1.00  0.00    -0.297 OA
HETATM   15  C21 UNL     1     -13.855  -3.999  11.387  1.00  0.00     0.080 C 
HETATM   16  C22 UNL     1     -14.192  -2.586  11.835  1.00  0.00     0.017 C 
HETATM   17  C23 UNL     1     -15.082  -2.527  13.097  1.00  0.00    -0.031 C 
HETATM   18  C24 UNL     1     -16.422  -3.260  12.832  1.00  0.00     0.016 C 
HETATM   19  C25 UNL     1     -15.346  -1.022  13.510  1.00  0.00     0.024 C 
HETATM   20  C26 UNL     1     -16.038  -0.159  12.423  1.00  0.00     0.010 C 
HETATM   21  C27 UNL     1     -16.419   1.283  12.837  1.00  0.00     0.011 C 
HETATM   22  C28 UNL     1     -16.391   1.537  14.357  1.00  0.00    -0.029 C 
HETATM   23  C29 UNL     1     -14.941   1.937  14.758  1.00  0.00     0.016 C 
ENDROOT
BRANCH   1  24
HETATM   24  C6  UNL     1     -17.106   4.123  14.499  1.00  0.00    -0.014 C 
HETATM   25  C7  UNL     1     -15.613   4.404  14.759  1.00  0.00     0.010 C 
BRANCH  24  26
HETATM   26  C5  UNL     1     -17.465   4.547  13.052  1.00  0.00     0.008 C 
BRANCH  26  27
HETATM   27  C4  UNL     1     -16.811   5.860  12.591  1.00  0.00     0.028 C 
BRANCH  27  28
HETATM   28  C3  UNL     1     -17.331   7.099  13.261  1.00  0.00    -0.013 C 
HETATM   29  C2  UNL     1     -17.437   8.345  12.755  1.00  0.00     0.008 C 
HETATM   30  C1  UNL     1     -18.014   9.465  13.575  1.00  0.00     0.055 C 
BRANCH  29  31
HETATM   31  C30 UNL     1     -16.964   8.684  11.388  1.00  0.00     0.171 C 
HETATM   32  O2  UNL     1     -15.815   8.834  11.013  1.00  0.00    -0.646 OA
BRANCH  31  33
HETATM   33  O3  UNL     1     -17.985   8.833  10.525  1.00  0.00    -0.773 OA
HETATM   34  H46 UNL     1     -17.534   9.047   9.682  1.00  0.00     0.167 HD
ENDBRANCH  31  33
ENDBRANCH  29  31
ENDBRANCH  27  28
ENDBRANCH  26  27
ENDBRANCH  24  26
ENDBRANCH   1  24
TORSDOF 6
ENDMDL
MODEL 8
REMARK minimizedAffinity -9.2192049
REMARK CNNscore 0.356547058
REMARK CNNaffinity 7.09124756
REMARK  6 active torsions:
REMARK  status: ('A' for Active; 'I' for Inactive)
REMARK    1  A    between atoms: C2_2  and  C30_31 
REMARK    2  A    between atoms: C3_3  and  C4_4 
REMARK    3  A    between atoms: C4_4  and  C5_5 
REMARK    4  A    between atoms: C5_5  and  C6_6 
REMARK    5  A    between atoms: C6_6  and  C8_8 
REMARK    6  A    between atoms: C30_31  and  O3_33 
ROOT
HETATM    1  C8  UNL     1       0.745   7.660  13.088  1.00  0.00    -0.002 C 
HETATM    2  C9  UNL     1       1.075   6.226  12.596  1.00  0.00     0.007 C 
HETATM    3  C10 UNL     1      -0.230   5.406  12.720  1.00  0.00     0.015 C 
HETATM    4  C11 UNL     1      -1.175   6.281  13.576  1.00  0.00    -0.013 C 
HETATM    5  C12 UNL     1      -0.785   6.002  15.065  1.00  0.00     0.021 C 
HETATM    6  C13 UNL     1      -2.677   6.044  13.496  1.00  0.00    -0.070 C 
HETATM    7  C14 UNL     1      -3.202   4.821  13.292  1.00  0.00    -0.022 C 
HETATM    8  C15 UNL     1      -4.670   4.506  13.356  1.00  0.00     0.034 C 
HETATM    9  C16 UNL     1      -5.581   5.751  13.437  1.00  0.00     0.013 C 
HETATM   10  C17 UNL     1      -7.118   5.459  13.636  1.00  0.00     0.018 C 
HETATM   11  C18 UNL     1      -7.892   5.893  12.372  1.00  0.00     0.023 C 
HETATM   12  C19 UNL     1      -7.437   3.967  13.871  1.00  0.00     0.023 C 
HETATM   13  C20 UNL     1      -7.722   6.265  14.795  1.00  0.00     0.135 C 
HETATM   14  O1  UNL     1      -8.591   5.794  15.534  1.00  0.00    -0.297 OA
HETATM   15  C21 UNL     1      -7.311   7.708  14.974  1.00  0.00     0.080 C 
HETATM   16  C22 UNL     1      -5.937   8.035  14.412  1.00  0.00     0.017 C 
HETATM   17  C23 UNL     1      -4.966   6.833  14.395  1.00  0.00    -0.031 C 
HETATM   18  C24 UNL     1      -4.761   6.301  15.837  1.00  0.00     0.016 C 
HETATM   19  C25 UNL     1      -3.581   7.258  13.760  1.00  0.00     0.024 C 
HETATM   20  C26 UNL     1      -2.857   8.419  14.489  1.00  0.00     0.010 C 
HETATM   21  C27 UNL     1      -1.445   8.779  13.967  1.00  0.00     0.011 C 
HETATM   22  C28 UNL     1      -0.815   7.713  13.049  1.00  0.00    -0.029 C 
HETATM   23  C29 UNL     1      -1.290   7.983  11.590  1.00  0.00     0.016 C 
ENDROOT
BRANCH   1  24
HETATM   24  C6  UNL     1       1.553   8.829  12.447  1.00  0.00    -0.014 C 
HETATM   25  C7  UNL     1       2.487   9.416  13.525  1.00  0.00     0.010 C 
BRANCH  24  26
HETATM   26  C5  UNL     1       2.385   8.458  11.193  1.00  0.00     0.008 C 
BRANCH  26  27
HETATM   27  C4  UNL     1       1.823   7.281  10.379  1.00  0.00     0.028 C 
BRANCH  27  28
HETATM   28  C3  UNL     1       1.734   7.517   8.899  1.00  0.00    -0.013 C 
HETATM   29  C2  UNL     1       2.176   6.730   7.896  1.00  0.00     0.008 C 
HETATM   30  C1  UNL     1       1.969   7.121   6.459  1.00  0.00     0.055 C 
BRANCH  29  31
HETATM   31  C30 UNL     1       2.911   5.465   8.151  1.00  0.00     0.171 C 
HETATM   32  O2  UNL     1       3.212   4.982   9.228  1.00  0.00    -0.646 OA
BRANCH  31  33
HETATM   33  O3  UNL     1       3.255   4.844   7.008  1.00  0.00    -0.773 OA
HETATM   34  H46 UNL     1       3.720   4.041   7.324  1.00  0.00     0.167 HD
ENDBRANCH  31  33
ENDBRANCH  29  31
ENDBRANCH  27  28
ENDBRANCH  26  27
ENDBRANCH  24  26
ENDBRANCH   1  24
TORSDOF 6
ENDMDL
MODEL 9
REMARK minimizedAffinity -8.38929653
REMARK CNNscore 0.35597536
REMARK CNNaffinity 6.42906427
REMARK  6 active torsions:
REMARK  status: ('A' for Active; 'I' for Inactive)
REMARK    1  A    between atoms: C2_2  and  C30_31 
REMARK    2  A    between atoms: C3_3  and  C4_4 
REMARK    3  A    between atoms: C4_4  and  C5_5 
REMARK    4  A    between atoms: C5_5  and  C6_6 
REMARK    5  A    between atoms: C6_6  and  C8_8 
REMARK    6  A    between atoms: C30_31  and  O3_33 
ROOT
HETATM    1  C8  UNL     1      -2.164   9.151  15.758  1.00  0.00    -0.002 C 
HETATM    2  C9  UNL     1      -1.262   8.392  16.765  1.00  0.00     0.007 C 
HETATM    3  C10 UNL     1      -0.180   7.668  15.930  1.00  0.00     0.015 C 
HETATM    4  C11 UNL     1      -0.675   7.758  14.468  1.00  0.00    -0.013 C 
HETATM    5  C12 UNL     1      -1.690   6.581  14.286  1.00  0.00     0.021 C 
HETATM    6  C13 UNL     1       0.332   7.606  13.335  1.00  0.00    -0.070 C 
HETATM    7  C14 UNL     1       1.409   6.804  13.434  1.00  0.00    -0.022 C 
HETATM    8  C15 UNL     1       2.348   6.500  12.301  1.00  0.00     0.034 C 
HETATM    9  C16 UNL     1       2.130   7.376  11.047  1.00  0.00     0.013 C 
HETATM   10  C17 UNL     1       3.008   7.000   9.791  1.00  0.00     0.018 C 
HETATM   11  C18 UNL     1       4.008   8.142   9.503  1.00  0.00     0.023 C 
HETATM   12  C19 UNL     1       3.836   5.711   9.982  1.00  0.00     0.023 C 
HETATM   13  C20 UNL     1       2.169   6.844   8.515  1.00  0.00     0.135 C 
HETATM   14  O1  UNL     1       2.430   5.992   7.662  1.00  0.00    -0.297 OA
HETATM   15  C21 UNL     1       1.052   7.827   8.250  1.00  0.00     0.080 C 
HETATM   16  C22 UNL     1       0.476   8.464   9.505  1.00  0.00     0.017 C 
HETATM   17  C23 UNL     1       0.597   7.580  10.767  1.00  0.00    -0.031 C 
HETATM   18  C24 UNL     1      -0.149   6.240  10.544  1.00  0.00     0.016 C 
HETATM   19  C25 UNL     1       0.010   8.339  12.025  1.00  0.00     0.024 C 
HETATM   20  C26 UNL     1      -1.479   8.754  11.899  1.00  0.00     0.010 C 
HETATM   21  C27 UNL     1      -2.118   9.391  13.158  1.00  0.00     0.011 C 
HETATM   22  C28 UNL     1      -1.307   9.192  14.453  1.00  0.00    -0.029 C 
HETATM   23  C29 UNL     1      -0.260  10.341  14.554  1.00  0.00     0.016 C 
ENDROOT
BRANCH   1  24
HETATM   24  C6  UNL     1      -2.830  10.468  16.261  1.00  0.00    -0.014 C 
HETATM   25  C7  UNL     1      -4.342  10.384  15.972  1.00  0.00     0.010 C 
BRANCH  24  26
HETATM   26  C5  UNL     1      -2.610  10.798  17.759  1.00  0.00     0.008 C 
BRANCH  26  27
HETATM   27  C4  UNL     1      -1.389  11.687  18.045  1.00  0.00     0.028 C 
BRANCH  27  28
HETATM   28  C3  UNL     1      -0.587  11.298  19.253  1.00  0.00    -0.013 C 
HETATM   29  C2  UNL     1       0.705  10.916  19.315  1.00  0.00     0.008 C 
HETATM   30  C1  UNL     1       1.351  10.588  20.632  1.00  0.00     0.055 C 
BRANCH  29  31
HETATM   31  C30 UNL     1       1.543  10.767  18.097  1.00  0.00     0.171 C 
HETATM   32  O2  UNL     1       1.730  11.588  17.217  1.00  0.00    -0.646 OA
BRANCH  31  33
HETATM   33  O3  UNL     1       2.124   9.556  18.032  1.00  0.00    -0.773 OA
HETATM   34  H46 UNL     1       2.637   9.601  17.198  1.00  0.00     0.167 HD
ENDBRANCH  31  33
ENDBRANCH  29  31
ENDBRANCH  27  28
ENDBRANCH  26  27
ENDBRANCH  24  26
ENDBRANCH   1  24
TORSDOF 6
ENDMDL
