MODEL 1
REMARK minimizedAffinity -8.22158527
REMARK CNNscore 0.655921459
REMARK CNNaffinity 7.46502447
REMARK  12 active torsions:
REMARK  status: ('A' for Active; 'I' for Inactive)
REMARK    1  A    between atoms: N1_2  and  C2_3 
REMARK    2  A    between atoms: C2_3  and  C3_4 
REMARK    3  A    between atoms: C3_4  and  C4_5 
REMARK    4  A    between atoms: C13_15  and  O2_16 
REMARK    5  A    between atoms: C18_21  and  O3_22 
REMARK    6  A    between atoms: C20_24  and  C21_25 
REMARK    7  A    between atoms: C21_25  and  C23_27 
REMARK    8  A    between atoms: C23_27  and  C24_28 
REMARK    9  A    between atoms: C24_28  and  O4_29 
REMARK   10  A    between atoms: C24_28  and  C25_30 
REMARK   11  A    between atoms: C26_31  and  C28_33 
REMARK   12  A    between atoms: C28_33  and  O6_35 
ROOT
HETATM    1  C4  UNL     1      -7.263   5.026  13.316  1.00  0.00     0.023 C 
HETATM    2  C5  UNL     1      -7.943   5.867  12.180  1.00  0.00     0.024 C 
HETATM    3  C6  UNL     1      -7.556   3.557  12.950  1.00  0.00     0.135 C 
HETATM    4  O1  UNL     1      -8.694   3.206  12.612  1.00  0.00    -0.297 OA
HETATM    5  C7  UNL     1      -6.463   2.515  12.971  1.00  0.00     0.080 C 
HETATM    6  C8  UNL     1      -5.067   3.019  13.281  1.00  0.00     0.022 C 
HETATM    7  C9  UNL     1      -4.750   4.389  12.652  1.00  0.00    -0.008 C 
HETATM    8  C10 UNL     1      -4.983   4.375  11.117  1.00  0.00     0.021 C 
HETATM    9  C11 UNL     1      -3.264   4.754  12.904  1.00  0.00     0.002 C 
HETATM   10  C12 UNL     1      -2.845   5.750  13.729  1.00  0.00    -0.029 C 
HETATM   11  C13 UNL     1      -3.817   6.537  14.572  1.00  0.00     0.149 C 
HETATM   12  C14 UNL     1      -5.199   5.897  14.661  1.00  0.00     0.043 C 
HETATM   13  C15 UNL     1      -5.732   5.443  13.299  1.00  0.00     0.017 C 
HETATM   14  C16 UNL     1      -1.360   6.112  13.821  1.00  0.00     0.017 C 
HETATM   15  C17 UNL     1      -0.747   5.147  14.886  1.00  0.00     0.023 C 
HETATM   16  C18 UNL     1      -0.970   7.574  14.162  1.00  0.00     0.132 C 
HETATM   17  C19 UNL     1       0.469   7.733  13.636  1.00  0.00     0.038 C 
HETATM   18  C20 UNL     1       0.732   6.552  12.651  1.00  0.00     0.001 C 
HETATM   19  C29 UNL     1      -0.709   6.000  12.389  1.00  0.00    -0.019 C 
HETATM   20  C30 UNL     1      -1.410   6.886  11.308  1.00  0.00     0.017 C 
HETATM   21  C31 UNL     1      -0.806   4.540  11.948  1.00  0.00     0.094 C 
HETATM   22  C32 UNL     1      -2.199   3.960  12.159  1.00  0.00     0.157 C 
HETATM   23  O7  UNL     1      -2.443   2.831  11.730  1.00  0.00    -0.293 OA
ENDROOT
BRANCH  18  24
HETATM   24  C21 UNL     1       1.635   6.971  11.449  1.00  0.00    -0.011 C 
HETATM   25  C22 UNL     1       0.799   7.553  10.301  1.00  0.00     0.010 C 
BRANCH  24  26
HETATM   26  C23 UNL     1       2.460   5.757  10.919  1.00  0.00     0.040 C 
BRANCH  26  27
HETATM   27  C24 UNL     1       3.504   6.084   9.834  1.00  0.00     0.142 C 
BRANCH  27  28
HETATM   28  O4  UNL     1       4.410   4.991   9.701  1.00  0.00    -0.392 OA
HETATM   29  H39 UNL     1       3.917   4.257   9.300  1.00  0.00     0.210 HD
ENDBRANCH  27  28
BRANCH  27  30
HETATM   30  C25 UNL     1       4.330   7.302  10.100  1.00  0.00     0.018 C 
HETATM   31  C26 UNL     1       5.529   7.353  10.716  1.00  0.00     0.010 C 
HETATM   32  C27 UNL     1       6.302   6.178  11.232  1.00  0.00     0.055 C 
BRANCH  31  33
HETATM   33  C28 UNL     1       6.139   8.699  10.866  1.00  0.00     0.171 C 
HETATM   34  O5  UNL     1       7.146   8.984  11.490  1.00  0.00    -0.646 OA
BRANCH  33  35
HETATM   35  O6  UNL     1       5.442   9.645  10.214  1.00  0.00    -0.773 OA
HETATM   36  H44 UNL     1       5.949  10.464  10.394  1.00  0.00     0.167 HD
ENDBRANCH  33  35
ENDBRANCH  31  33
ENDBRANCH  27  30
ENDBRANCH  26  27
ENDBRANCH  24  26
ENDBRANCH  18  24
BRANCH  16  37
HETATM   37  O3  UNL     1      -1.064   7.894  15.544  1.00  0.00    -0.394 OA
HETATM   38  H28 UNL     1      -0.298   7.508  16.006  1.00  0.00     0.210 HD
ENDBRANCH  16  37
BRANCH  11  39
HETATM   39  O2  UNL     1      -3.365   6.625  15.918  1.00  0.00    -0.391 OA
HETATM   40  H20 UNL     1      -2.647   7.295  15.942  1.00  0.00     0.210 HD
ENDBRANCH  11  39
BRANCH   1  41
HETATM   41  C3  UNL     1      -8.110   5.377  14.590  1.00  0.00     0.047 C 
BRANCH  41  42
HETATM   42  C2  UNL     1      -8.868   6.706  14.750  1.00  0.00     0.270 C 
BRANCH  42  43
HETATM   43  N1  UNL     1     -10.238   6.570  15.228  1.00  0.00     0.079 N 
HETATM   44  C1  UNL     1     -11.193   6.916  14.178  1.00  0.00     0.306 C 
HETATM   45  H4  UNL     1     -10.388   7.218  15.996  1.00  0.00     0.315 HD
ENDBRANCH  42  43
ENDBRANCH  41  42
ENDBRANCH   1  41
TORSDOF 12
ENDMDL
MODEL 2
REMARK minimizedAffinity -9.15105724
REMARK CNNscore 0.630368769
REMARK CNNaffinity 6.75460672
REMARK  12 active torsions:
REMARK  status: ('A' for Active; 'I' for Inactive)
REMARK    1  A    between atoms: N1_2  and  C2_3 
REMARK    2  A    between atoms: C2_3  and  C3_4 
REMARK    3  A    between atoms: C3_4  and  C4_5 
REMARK    4  A    between atoms: C13_15  and  O2_16 
REMARK    5  A    between atoms: C18_21  and  O3_22 
REMARK    6  A    between atoms: C20_24  and  C21_25 
REMARK    7  A    between atoms: C21_25  and  C23_27 
REMARK    8  A    between atoms: C23_27  and  C24_28 
REMARK    9  A    between atoms: C24_28  and  O4_29 
REMARK   10  A    between atoms: C24_28  and  C25_30 
REMARK   11  A    between atoms: C26_31  and  C28_33 
REMARK   12  A    between atoms: C28_33  and  O6_35 
ROOT
HETATM    1  C4  UNL     1       1.665   7.059  10.196  1.00  0.00     0.023 C 
HETATM    2  C5  UNL     1       1.319   8.065   9.043  1.00  0.00     0.024 C 
HETATM    3  C6  UNL     1       2.787   7.749  10.999  1.00  0.00     0.135 C 
HETATM    4  O1  UNL     1       3.747   8.272  10.420  1.00  0.00    -0.297 OA
HETATM    5  C7  UNL     1       2.733   7.825  12.506  1.00  0.00     0.080 C 
HETATM    6  C8  UNL     1       1.482   7.271  13.158  1.00  0.00     0.022 C 
HETATM    7  C9  UNL     1       0.191   7.567  12.372  1.00  0.00    -0.008 C 
HETATM    8  C10 UNL     1       0.024   9.088  12.108  1.00  0.00     0.021 C 
HETATM    9  C11 UNL     1      -1.043   7.087  13.180  1.00  0.00     0.002 C 
HETATM   10  C12 UNL     1      -1.830   6.035  12.832  1.00  0.00    -0.029 C 
HETATM   11  C13 UNL     1      -1.497   5.157  11.652  1.00  0.00     0.149 C 
HETATM   12  C14 UNL     1      -0.075   5.351  11.134  1.00  0.00     0.043 C 
HETATM   13  C15 UNL     1       0.306   6.826  10.981  1.00  0.00     0.017 C 
HETATM   14  C16 UNL     1      -3.095   5.712  13.632  1.00  0.00     0.017 C 
HETATM   15  C17 UNL     1      -2.634   4.809  14.821  1.00  0.00     0.023 C 
HETATM   16  C18 UNL     1      -4.286   5.038  12.901  1.00  0.00     0.132 C 
HETATM   17  C19 UNL     1      -5.517   5.363  13.767  1.00  0.00     0.038 C 
HETATM   18  C20 UNL     1      -5.117   6.535  14.714  1.00  0.00     0.001 C 
HETATM   19  C29 UNL     1      -3.791   7.058  14.069  1.00  0.00    -0.019 C 
HETATM   20  C30 UNL     1      -4.140   8.003  12.873  1.00  0.00     0.017 C 
HETATM   21  C31 UNL     1      -2.829   7.798  14.998  1.00  0.00     0.094 C 
HETATM   22  C32 UNL     1      -1.413   7.861  14.439  1.00  0.00     0.157 C 
HETATM   23  O7  UNL     1      -0.570   8.536  15.032  1.00  0.00    -0.293 OA
ENDROOT
BRANCH  18  24
HETATM   24  C21 UNL     1      -6.298   7.522  14.971  1.00  0.00    -0.011 C 
HETATM   25  C22 UNL     1      -5.794   8.864  15.520  1.00  0.00     0.010 C 
BRANCH  24  26
HETATM   26  C23 UNL     1      -7.329   6.913  15.973  1.00  0.00     0.040 C 
BRANCH  26  27
HETATM   27  C24 UNL     1      -8.782   6.830  15.465  1.00  0.00     0.142 C 
BRANCH  27  28
HETATM   28  O4  UNL     1      -8.855   5.902  14.385  1.00  0.00    -0.392 OA
HETATM   29  H39 UNL     1      -8.714   5.016  14.756  1.00  0.00     0.210 HD
ENDBRANCH  27  28
BRANCH  27  30
HETATM   30  C25 UNL     1      -9.352   8.119  14.969  1.00  0.00     0.018 C 
HETATM   31  C26 UNL     1     -10.598   8.328  14.493  1.00  0.00     0.010 C 
HETATM   32  C27 UNL     1     -11.686   7.303  14.401  1.00  0.00     0.055 C 
BRANCH  31  33
HETATM   33  C28 UNL     1     -10.913   9.711  14.050  1.00  0.00     0.171 C 
HETATM   34  O5  UNL     1     -10.659  10.747  14.640  1.00  0.00    -0.646 OA
BRANCH  33  35
HETATM   35  O6  UNL     1     -11.546   9.731  12.866  1.00  0.00    -0.773 OA
HETATM   36  H44 UNL     1     -11.686  10.687  12.700  1.00  0.00     0.167 HD
ENDBRANCH  33  35
ENDBRANCH  31  33
ENDBRANCH  27  30
ENDBRANCH  26  27
ENDBRANCH  24  26
ENDBRANCH  18  24
BRANCH  16  37
HETATM   37  O3  UNL     1      -4.132   3.638  12.707  1.00  0.00    -0.394 OA
HETATM   38  H28 UNL     1      -4.305   3.186  13.553  1.00  0.00     0.210 HD
ENDBRANCH  16  37
BRANCH  11  39
HETATM   39  O2  UNL     1      -1.577   3.782  12.005  1.00  0.00    -0.391 OA
HETATM   40  H20 UNL     1      -2.529   3.544  12.040  1.00  0.00     0.210 HD
ENDBRANCH  11  39
BRANCH   1  41
HETATM   41  C3  UNL     1       2.301   5.839   9.442  1.00  0.00     0.047 C 
BRANCH  41  42
HETATM   42  C2  UNL     1       3.565   5.116   9.938  1.00  0.00     0.270 C 
BRANCH  42  43
HETATM   43  N1  UNL     1       3.564   3.675   9.722  1.00  0.00     0.079 N 
HETATM   44  C1  UNL     1       4.666   3.277   8.850  1.00  0.00     0.306 C 
HETATM   45  H4  UNL     1       2.701   3.410   9.256  1.00  0.00     0.315 HD
ENDBRANCH  42  43
ENDBRANCH  41  42
ENDBRANCH   1  41
TORSDOF 12
ENDMDL
MODEL 3
REMARK minimizedAffinity -8.10395718
REMARK CNNscore 0.562277853
REMARK CNNaffinity 7.13705492
REMARK  12 active torsions:
REMARK  status: ('A' for Active; 'I' for Inactive)
REMARK    1  A    between atoms: N1_2  and  C2_3 
REMARK    2  A    between atoms: C2_3  and  C3_4 
REMARK    3  A    between atoms: C3_4  and  C4_5 
REMARK    4  A    between atoms: C13_15  and  O2_16 
REMARK    5  A    between atoms: C18_21  and  O3_22 
REMARK    6  A    between atoms: C20_24  and  C21_25 
REMARK    7  A    between atoms: C21_25  and  C23_27 
REMARK    8  A    between atoms: C23_27  and  C24_28 
REMARK    9  A    between atoms: C24_28  and  O4_29 
REMARK   10  A    between atoms: C24_28  and  C25_30 
REMARK   11  A    between atoms: C26_31  and  C28_33 
REMARK   12  A    between atoms: C28_33  and  O6_35 
ROOT
HETATM    1  C4  UNL     1      -8.108   5.776  13.104  1.00  0.00     0.023 C 
HETATM    2  C5  UNL     1      -8.505   5.977  11.600  1.00  0.00     0.024 C 
HETATM    3  C6  UNL     1      -8.146   4.249  13.322  1.00  0.00     0.135 C 
HETATM    4  O1  UNL     1      -9.100   3.577  12.911  1.00  0.00    -0.297 OA
HETATM    5  C7  UNL     1      -7.014   3.534  14.020  1.00  0.00     0.080 C 
HETATM    6  C8  UNL     1      -5.820   4.386  14.403  1.00  0.00     0.022 C 
HETATM    7  C9  UNL     1      -5.462   5.456  13.354  1.00  0.00    -0.008 C 
HETATM    8  C10 UNL     1      -5.239   4.824  11.953  1.00  0.00     0.021 C 
HETATM    9  C11 UNL     1      -4.153   6.180  13.763  1.00  0.00     0.002 C 
HETATM   10  C12 UNL     1      -4.085   7.474  14.173  1.00  0.00    -0.029 C 
HETATM   11  C13 UNL     1      -5.328   8.306  14.370  1.00  0.00     0.149 C 
HETATM   12  C14 UNL     1      -6.610   7.481  14.399  1.00  0.00     0.043 C 
HETATM   13  C15 UNL     1      -6.683   6.455  13.265  1.00  0.00     0.017 C 
HETATM   14  C16 UNL     1      -2.730   8.134  14.443  1.00  0.00     0.017 C 
HETATM   15  C17 UNL     1      -2.365   7.780  15.920  1.00  0.00     0.023 C 
HETATM   16  C18 UNL     1      -2.591   9.664  14.227  1.00  0.00     0.132 C 
HETATM   17  C19 UNL     1      -1.083   9.901  14.025  1.00  0.00     0.038 C 
HETATM   18  C20 UNL     1      -0.439   8.517  13.704  1.00  0.00     0.001 C 
HETATM   19  C29 UNL     1      -1.685   7.629  13.375  1.00  0.00    -0.019 C 
HETATM   20  C30 UNL     1      -2.122   7.887  11.896  1.00  0.00     0.017 C 
HETATM   21  C31 UNL     1      -1.515   6.122  13.567  1.00  0.00     0.094 C 
HETATM   22  C32 UNL     1      -2.850   5.396  13.677  1.00  0.00     0.157 C 
HETATM   23  O7  UNL     1      -2.854   4.164  13.710  1.00  0.00    -0.293 OA
ENDROOT
BRANCH  18  24
HETATM   24  C21 UNL     1       0.730   8.629  12.677  1.00  0.00    -0.011 C 
HETATM   25  C22 UNL     1       0.207   8.612  11.234  1.00  0.00     0.010 C 
BRANCH  24  26
HETATM   26  C23 UNL     1       1.755   7.467  12.865  1.00  0.00     0.040 C 
BRANCH  26  27
HETATM   27  C24 UNL     1       2.056   6.634  11.604  1.00  0.00     0.142 C 
BRANCH  27  28
HETATM   28  O4  UNL     1       3.411   6.193  11.639  1.00  0.00    -0.392 OA
HETATM   29  H39 UNL     1       3.481   5.531  12.346  1.00  0.00     0.210 HD
ENDBRANCH  27  28
BRANCH  27  30
HETATM   30  C25 UNL     1       1.868   7.357  10.310  1.00  0.00     0.018 C 
HETATM   31  C26 UNL     1       2.323   6.984   9.095  1.00  0.00     0.010 C 
HETATM   32  C27 UNL     1       3.088   5.732   8.791  1.00  0.00     0.055 C 
BRANCH  31  33
HETATM   33  C28 UNL     1       2.007   7.892   7.963  1.00  0.00     0.171 C 
HETATM   34  O5  UNL     1       0.982   7.916   7.305  1.00  0.00    -0.646 OA
BRANCH  33  35
HETATM   35  O6  UNL     1       3.013   8.744   7.702  1.00  0.00    -0.773 OA
HETATM   36  H44 UNL     1       2.672   9.273   6.950  1.00  0.00     0.167 HD
ENDBRANCH  33  35
ENDBRANCH  31  33
ENDBRANCH  27  30
ENDBRANCH  26  27
ENDBRANCH  24  26
ENDBRANCH  18  24
BRANCH  16  37
HETATM   37  O3  UNL     1      -3.111  10.451  15.292  1.00  0.00    -0.394 OA
HETATM   38  H28 UNL     1      -2.478  10.427  16.033  1.00  0.00     0.210 HD
ENDBRANCH  16  37
BRANCH  11  39
HETATM   39  O2  UNL     1      -5.293   8.978  15.623  1.00  0.00    -0.391 OA
HETATM   40  H20 UNL     1      -4.679   9.738  15.530  1.00  0.00     0.210 HD
ENDBRANCH  11  39
BRANCH   1  41
HETATM   41  C3  UNL     1      -9.316   6.398  13.889  1.00  0.00     0.047 C 
BRANCH  41  42
HETATM   42  C2  UNL     1     -10.651   6.765  13.217  1.00  0.00     0.270 C 
BRANCH  42  43
HETATM   43  N1  UNL     1     -11.836   6.395  13.981  1.00  0.00     0.079 N 
HETATM   44  C1  UNL     1     -12.473   7.575  14.559  1.00  0.00     0.306 C 
HETATM   45  H4  UNL     1     -11.560   5.794  14.752  1.00  0.00     0.315 HD
ENDBRANCH  42  43
ENDBRANCH  41  42
ENDBRANCH   1  41
TORSDOF 12
ENDMDL
MODEL 4
REMARK minimizedAffinity -6.99078035
REMARK CNNscore 0.514401674
REMARK CNNaffinity 6.4624424
REMARK  12 active torsions:
REMARK  status: ('A' for Active; 'I' for Inactive)
REMARK    1  A    between atoms: N1_2  and  C2_3 
REMARK    2  A    between atoms: C2_3  and  C3_4 
REMARK    3  A    between atoms: C3_4  and  C4_5 
REMARK    4  A    between atoms: C13_15  and  O2_16 
REMARK    5  A    between atoms: C18_21  and  O3_22 
REMARK    6  A    between atoms: C20_24  and  C21_25 
REMARK    7  A    between atoms: C21_25  and  C23_27 
REMARK    8  A    between atoms: C23_27  and  C24_28 
REMARK    9  A    between atoms: C24_28  and  O4_29 
REMARK   10  A    between atoms: C24_28  and  C25_30 
REMARK   11  A    between atoms: C26_31  and  C28_33 
REMARK   12  A    between atoms: C28_33  and  O6_35 
ROOT
HETATM    1  C4  UNL     1      -4.243  17.784   4.802  1.00  0.00     0.023 C 
HETATM    2  C5  UNL     1      -3.952  19.325   4.854  1.00  0.00     0.024 C 
HETATM    3  C6  UNL     1      -5.421  17.637   3.817  1.00  0.00     0.135 C 
HETATM    4  O1  UNL     1      -6.407  18.381   3.898  1.00  0.00    -0.297 OA
HETATM    5  C7  UNL     1      -5.393  16.602   2.718  1.00  0.00     0.080 C 
HETATM    6  C8  UNL     1      -4.116  15.796   2.592  1.00  0.00     0.022 C 
HETATM    7  C9  UNL     1      -2.838  16.618   2.845  1.00  0.00    -0.008 C 
HETATM    8  C10 UNL     1      -2.774  17.864   1.922  1.00  0.00     0.021 C 
HETATM    9  C11 UNL     1      -1.585  15.749   2.558  1.00  0.00     0.002 C 
HETATM   10  C12 UNL     1      -0.723  15.305   3.510  1.00  0.00    -0.029 C 
HETATM   11  C13 UNL     1      -0.977  15.540   4.978  1.00  0.00     0.149 C 
HETATM   12  C14 UNL     1      -2.401  15.994   5.281  1.00  0.00     0.043 C 
HETATM   13  C15 UNL     1      -2.882  17.108   4.347  1.00  0.00     0.017 C 
HETATM   14  C16 UNL     1       0.551  14.551   3.115  1.00  0.00     0.017 C 
HETATM   15  C17 UNL     1       0.137  13.052   2.972  1.00  0.00     0.023 C 
HETATM   16  C18 UNL     1       1.796  14.660   4.034  1.00  0.00     0.132 C 
HETATM   17  C19 UNL     1       2.989  14.305   3.128  1.00  0.00     0.038 C 
HETATM   18  C20 UNL     1       2.496  14.414   1.653  1.00  0.00     0.001 C 
HETATM   19  C29 UNL     1       1.146  15.191   1.801  1.00  0.00    -0.019 C 
HETATM   20  C30 UNL     1       1.445  16.721   1.927  1.00  0.00     0.017 C 
HETATM   21  C31 UNL     1       0.122  14.994   0.684  1.00  0.00     0.094 C 
HETATM   22  C32 UNL     1      -1.287  15.387   1.110  1.00  0.00     0.157 C 
HETATM   23  O7  UNL     1      -2.183  15.392   0.263  1.00  0.00    -0.293 OA
ENDROOT
BRANCH  18  24
HETATM   24  C21 UNL     1       3.602  14.954   0.694  1.00  0.00    -0.011 C 
HETATM   25  C22 UNL     1       4.581  15.874   1.436  1.00  0.00     0.010 C 
BRANCH  24  26
HETATM   26  C23 UNL     1       2.975  15.732  -0.505  1.00  0.00     0.040 C 
BRANCH  26  27
HETATM   27  C24 UNL     1       3.094  15.046  -1.879  1.00  0.00     0.142 C 
BRANCH  27  28
HETATM   28  O4  UNL     1       1.791  14.759  -2.381  1.00  0.00    -0.392 OA
HETATM   29  H39 UNL     1       1.377  15.608  -2.608  1.00  0.00     0.210 HD
ENDBRANCH  27  28
BRANCH  27  30
HETATM   30  C25 UNL     1       3.851  13.757  -1.878  1.00  0.00     0.018 C 
HETATM   31  C26 UNL     1       4.361  13.112  -2.949  1.00  0.00     0.010 C 
HETATM   32  C27 UNL     1       4.302  13.585  -4.369  1.00  0.00     0.055 C 
BRANCH  31  33
HETATM   33  C28 UNL     1       5.066  11.833  -2.676  1.00  0.00     0.171 C 
HETATM   34  O5  UNL     1       6.001  11.658  -1.915  1.00  0.00    -0.646 OA
BRANCH  33  35
HETATM   35  O6  UNL     1       4.557  10.813  -3.387  1.00  0.00    -0.773 OA
HETATM   36  H44 UNL     1       5.105  10.049  -3.110  1.00  0.00     0.167 HD
ENDBRANCH  33  35
ENDBRANCH  31  33
ENDBRANCH  27  30
ENDBRANCH  26  27
ENDBRANCH  24  26
ENDBRANCH  18  24
BRANCH  16  37
HETATM   37  O3  UNL     1       1.742  13.828   5.187  1.00  0.00    -0.394 OA
HETATM   38  H28 UNL     1       1.934  12.911   4.917  1.00  0.00     0.210 HD
ENDBRANCH  16  37
BRANCH  11  39
HETATM   39  O2  UNL     1      -0.807  14.339   5.720  1.00  0.00    -0.391 OA
HETATM   40  H20 UNL     1       0.158  14.184   5.810  1.00  0.00     0.210 HD
ENDBRANCH  11  39
BRANCH   1  41
HETATM   41  C3  UNL     1      -4.782  17.464   6.240  1.00  0.00     0.047 C 
BRANCH  41  42
HETATM   42  C2  UNL     1      -4.500  18.360   7.459  1.00  0.00     0.270 C 
BRANCH  42  43
HETATM   43  N1  UNL     1      -3.134  18.289   7.961  1.00  0.00     0.079 N 
HETATM   44  C1  UNL     1      -3.115  18.284   9.422  1.00  0.00     0.306 C 
HETATM   45  H4  UNL     1      -2.625  19.114   7.656  1.00  0.00     0.315 HD
ENDBRANCH  42  43
ENDBRANCH  41  42
ENDBRANCH   1  41
TORSDOF 12
ENDMDL
MODEL 5
REMARK minimizedAffinity -6.81461096
REMARK CNNscore 0.513245225
REMARK CNNaffinity 6.37704706
REMARK  12 active torsions:
REMARK  status: ('A' for Active; 'I' for Inactive)
REMARK    1  A    between atoms: N1_2  and  C2_3 
REMARK    2  A    between atoms: C2_3  and  C3_4 
REMARK    3  A    between atoms: C3_4  and  C4_5 
REMARK    4  A    between atoms: C13_15  and  O2_16 
REMARK    5  A    between atoms: C18_21  and  O3_22 
REMARK    6  A    between atoms: C20_24  and  C21_25 
REMARK    7  A    between atoms: C21_25  and  C23_27 
REMARK    8  A    between atoms: C23_27  and  C24_28 
REMARK    9  A    between atoms: C24_28  and  O4_29 
REMARK   10  A    between atoms: C24_28  and  C25_30 
REMARK   11  A    between atoms: C26_31  and  C28_33 
REMARK   12  A    between atoms: C28_33  and  O6_35 
ROOT
HETATM    1  C4  UNL     1      -7.910  -9.520  -3.086  1.00  0.00     0.023 C 
HETATM    2  C5  UNL     1      -7.190  -8.201  -3.536  1.00  0.00     0.024 C 
HETATM    3  C6  UNL     1      -7.375 -10.608  -4.039  1.00  0.00     0.135 C 
HETATM    4  O1  UNL     1      -7.314 -10.404  -5.258  1.00  0.00    -0.297 OA
HETATM    5  C7  UNL     1      -6.891 -11.937  -3.511  1.00  0.00     0.080 C 
HETATM    6  C8  UNL     1      -6.881 -12.093  -2.003  1.00  0.00     0.022 C 
HETATM    7  C9  UNL     1      -6.455 -10.818  -1.252  1.00  0.00    -0.008 C 
HETATM    8  C10 UNL     1      -5.074 -10.306  -1.744  1.00  0.00     0.021 C 
HETATM    9  C11 UNL     1      -6.339 -11.112   0.266  1.00  0.00     0.002 C 
HETATM   10  C12 UNL     1      -7.182 -10.620   1.212  1.00  0.00    -0.029 C 
HETATM   11  C13 UNL     1      -8.397  -9.807   0.840  1.00  0.00     0.149 C 
HETATM   12  C14 UNL     1      -8.752  -9.891  -0.640  1.00  0.00     0.043 C 
HETATM   13  C15 UNL     1      -7.538  -9.708  -1.555  1.00  0.00     0.017 C 
HETATM   14  C16 UNL     1      -6.916 -10.873   2.699  1.00  0.00     0.017 C 
HETATM   15  C17 UNL     1      -7.564 -12.256   3.024  1.00  0.00     0.023 C 
HETATM   16  C18 UNL     1      -7.398  -9.819   3.731  1.00  0.00     0.132 C 
HETATM   17  C19 UNL     1      -6.525 -10.057   4.977  1.00  0.00     0.038 C 
HETATM   18  C20 UNL     1      -5.304 -10.917   4.526  1.00  0.00     0.001 C 
HETATM   19  C29 UNL     1      -5.363 -10.802   2.967  1.00  0.00    -0.019 C 
HETATM   20  C30 UNL     1      -4.709  -9.451   2.527  1.00  0.00     0.017 C 
HETATM   21  C31 UNL     1      -4.704 -11.932   2.177  1.00  0.00     0.094 C 
HETATM   22  C32 UNL     1      -5.189 -11.994   0.734  1.00  0.00     0.157 C 
HETATM   23  O7  UNL     1      -4.645 -12.781  -0.041  1.00  0.00    -0.293 OA
ENDROOT
BRANCH  18  24
HETATM   24  C21 UNL     1      -3.996 -10.535   5.286  1.00  0.00    -0.011 C 
HETATM   25  C22 UNL     1      -2.781 -11.278   4.711  1.00  0.00     0.010 C 
BRANCH  24  26
HETATM   26  C23 UNL     1      -4.118 -10.854   6.809  1.00  0.00     0.040 C 
BRANCH  26  27
HETATM   27  C24 UNL     1      -3.933  -9.654   7.757  1.00  0.00     0.142 C 
BRANCH  27  28
HETATM   28  O4  UNL     1      -2.580  -9.208   7.703  1.00  0.00    -0.392 OA
HETATM   29  H39 UNL     1      -2.444  -8.805   6.830  1.00  0.00     0.210 HD
ENDBRANCH  27  28
BRANCH  27  30
HETATM   30  C25 UNL     1      -4.241  -9.931   9.193  1.00  0.00     0.018 C 
HETATM   31  C26 UNL     1      -5.335  -9.542   9.881  1.00  0.00     0.010 C 
HETATM   32  C27 UNL     1      -6.495  -8.774   9.325  1.00  0.00     0.055 C 
BRANCH  31  33
HETATM   33  C28 UNL     1      -5.393  -9.941  11.311  1.00  0.00     0.171 C 
HETATM   34  O5  UNL     1      -5.288 -11.067  11.764  1.00  0.00    -0.646 OA
BRANCH  33  35
HETATM   35  O6  UNL     1      -5.586  -8.888  12.123  1.00  0.00    -0.773 OA
HETATM   36  H44 UNL     1      -5.601  -9.291  13.017  1.00  0.00     0.167 HD
ENDBRANCH  33  35
ENDBRANCH  31  33
ENDBRANCH  27  30
ENDBRANCH  26  27
ENDBRANCH  24  26
ENDBRANCH  18  24
BRANCH  16  37
HETATM   37  O3  UNL     1      -8.785  -9.896   4.035  1.00  0.00    -0.394 OA
HETATM   38  H28 UNL     1      -8.930 -10.651   4.634  1.00  0.00     0.210 HD
ENDBRANCH  16  37
BRANCH  11  39
HETATM   39  O2  UNL     1      -9.551 -10.280   1.524  1.00  0.00    -0.391 OA
HETATM   40  H20 UNL     1      -9.496  -9.958   2.450  1.00  0.00     0.210 HD
ENDBRANCH  11  39
BRANCH   1  41
HETATM   41  C3  UNL     1      -9.413  -9.262  -3.454  1.00  0.00     0.047 C 
BRANCH  41  42
HETATM   42  C2  UNL     1      -9.981  -7.856  -3.715  1.00  0.00     0.270 C 
BRANCH  42  43
HETATM   43  N1  UNL     1     -10.635  -7.696  -5.008  1.00  0.00     0.079 N 
HETATM   44  C1  UNL     1     -11.742  -6.747  -4.919  1.00  0.00     0.306 C 
HETATM   45  H4  UNL     1     -11.026  -8.589  -5.295  1.00  0.00     0.315 HD
ENDBRANCH  42  43
ENDBRANCH  41  42
ENDBRANCH   1  41
TORSDOF 12
ENDMDL
MODEL 6
REMARK minimizedAffinity -7.38035917
REMARK CNNscore 0.467078745
REMARK CNNaffinity 6.51669693
REMARK  12 active torsions:
REMARK  status: ('A' for Active; 'I' for Inactive)
REMARK    1  A    between atoms: N1_2  and  C2_3 
REMARK    2  A    between atoms: C2_3  and  C3_4 
REMARK    3  A    between atoms: C3_4  and  C4_5 
REMARK    4  A    between atoms: C13_15  and  O2_16 
REMARK    5  A    between atoms: C18_21  and  O3_22 
REMARK    6  A    between atoms: C20_24  and  C21_25 
REMARK    7  A    between atoms: C21_25  and  C23_27 
REMARK    8  A    between atoms: C23_27  and  C24_28 
REMARK    9  A    between atoms: C24_28  and  O4_29 
REMARK   10  A    between atoms: C24_28  and  C25_30 
REMARK   11  A    between atoms: C26_31  and  C28_33 
REMARK   12  A    between atoms: C28_33  and  O6_35 
ROOT
HETATM    1  C4  UNL     1       2.693   7.174   9.810  1.00  0.00     0.023 C 
HETATM    2  C5  UNL     1       2.607   8.433   8.877  1.00  0.00     0.024 C 
HETATM    3  C6  UNL     1       4.077   7.276  10.483  1.00  0.00     0.135 C 
HETATM    4  O1  UNL     1       5.086   7.536   9.815  1.00  0.00    -0.297 OA
HETATM    5  C7  UNL     1       4.235   7.085  11.973  1.00  0.00     0.080 C 
HETATM    6  C8  UNL     1       2.955   6.883  12.759  1.00  0.00     0.022 C 
HETATM    7  C9  UNL     1       1.779   7.744  12.260  1.00  0.00    -0.008 C 
HETATM    8  C10 UNL     1       2.153   9.251  12.230  1.00  0.00     0.021 C 
HETATM    9  C11 UNL     1       0.562   7.576  13.206  1.00  0.00     0.002 C 
HETATM   10  C12 UNL     1      -0.592   6.941  12.870  1.00  0.00    -0.029 C 
HETATM   11  C13 UNL     1      -0.749   6.237  11.545  1.00  0.00     0.149 C 
HETATM   12  C14 UNL     1       0.572   6.025  10.812  1.00  0.00     0.043 C 
HETATM   13  C15 UNL     1       1.448   7.280  10.787  1.00  0.00     0.017 C 
HETATM   14  C16 UNL     1      -1.783   6.929  13.833  1.00  0.00     0.017 C 
HETATM   15  C17 UNL     1      -1.548   5.719  14.793  1.00  0.00     0.023 C 
HETATM   16  C18 UNL     1      -3.216   6.853  13.244  1.00  0.00     0.132 C 
HETATM   17  C19 UNL     1      -4.129   7.413  14.350  1.00  0.00     0.038 C 
HETATM   18  C20 UNL     1      -3.216   8.181  15.355  1.00  0.00     0.001 C 
HETATM   19  C29 UNL     1      -1.878   8.327  14.558  1.00  0.00    -0.019 C 
HETATM   20  C30 UNL     1      -1.995   9.538  13.576  1.00  0.00     0.017 C 
HETATM   21  C31 UNL     1      -0.608   8.506  15.389  1.00  0.00     0.094 C 
HETATM   22  C32 UNL     1       0.654   8.182  14.600  1.00  0.00     0.157 C 
HETATM   23  O7  UNL     1       1.751   8.405  15.117  1.00  0.00    -0.293 OA
ENDROOT
BRANCH  18  24
HETATM   24  C21 UNL     1      -3.913   9.446  15.944  1.00  0.00    -0.011 C 
HETATM   25  C22 UNL     1      -3.749  10.656  15.014  1.00  0.00     0.010 C 
BRANCH  24  26
HETATM   26  C23 UNL     1      -3.338   9.800  17.351  1.00  0.00     0.040 C 
BRANCH  26  27
HETATM   27  C24 UNL     1      -2.893  11.262  17.542  1.00  0.00     0.142 C 
BRANCH  27  28
HETATM   28  O4  UNL     1      -1.486  11.307  17.765  1.00  0.00    -0.392 OA
HETATM   29  H39 UNL     1      -1.054  11.066  16.930  1.00  0.00     0.210 HD
ENDBRANCH  27  28
BRANCH  27  30
HETATM   30  C25 UNL     1      -3.537  11.974  18.688  1.00  0.00     0.018 C 
HETATM   31  C26 UNL     1      -4.339  13.058  18.626  1.00  0.00     0.010 C 
HETATM   32  C27 UNL     1      -4.781  13.753  17.375  1.00  0.00     0.055 C 
BRANCH  31  33
HETATM   33  C28 UNL     1      -4.843  13.582  19.922  1.00  0.00     0.171 C 
HETATM   34  O5  UNL     1      -5.836  13.216  20.525  1.00  0.00    -0.646 OA
BRANCH  33  35
HETATM   35  O6  UNL     1      -4.064  14.562  20.409  1.00  0.00    -0.773 OA
HETATM   36  H44 UNL     1      -4.505  14.805  21.249  1.00  0.00     0.167 HD
ENDBRANCH  33  35
ENDBRANCH  31  33
ENDBRANCH  27  30
ENDBRANCH  26  27
ENDBRANCH  24  26
ENDBRANCH  18  24
BRANCH  16  37
HETATM   37  O3  UNL     1      -3.612   5.546  12.845  1.00  0.00    -0.394 OA
HETATM   38  H28 UNL     1      -3.836   5.032  13.642  1.00  0.00     0.210 HD
ENDBRANCH  16  37
BRANCH  11  39
HETATM   39  O2  UNL     1      -1.286   4.933  11.724  1.00  0.00    -0.391 OA
HETATM   40  H20 UNL     1      -2.247   5.033  11.898  1.00  0.00     0.210 HD
ENDBRANCH  11  39
BRANCH   1  41
HETATM   41  C3  UNL     1       2.742   5.973   8.802  1.00  0.00     0.047 C 
BRANCH  41  42
HETATM   42  C2  UNL     1       3.529   4.680   9.079  1.00  0.00     0.270 C 
BRANCH  42  43
HETATM   43  N1  UNL     1       3.891   3.922   7.888  1.00  0.00     0.079 N 
HETATM   44  C1  UNL     1       4.995   3.008   8.166  1.00  0.00     0.306 C 
HETATM   45  H4  UNL     1       4.207   4.566   7.168  1.00  0.00     0.315 HD
ENDBRANCH  42  43
ENDBRANCH  41  42
ENDBRANCH   1  41
TORSDOF 12
ENDMDL
MODEL 7
REMARK minimizedAffinity -6.55457401
REMARK CNNscore 0.463195711
REMARK CNNaffinity 6.08230734
REMARK  12 active torsions:
REMARK  status: ('A' for Active; 'I' for Inactive)
REMARK    1  A    between atoms: N1_2  and  C2_3 
REMARK    2  A    between atoms: C2_3  and  C3_4 
REMARK    3  A    between atoms: C3_4  and  C4_5 
REMARK    4  A    between atoms: C13_15  and  O2_16 
REMARK    5  A    between atoms: C18_21  and  O3_22 
REMARK    6  A    between atoms: C20_24  and  C21_25 
REMARK    7  A    between atoms: C21_25  and  C23_27 
REMARK    8  A    between atoms: C23_27  and  C24_28 
REMARK    9  A    between atoms: C24_28  and  O4_29 
REMARK   10  A    between atoms: C24_28  and  C25_30 
REMARK   11  A    between atoms: C26_31  and  C28_33 
REMARK   12  A    between atoms: C28_33  and  O6_35 
ROOT
HETATM    1  C4  UNL     1     -16.646   5.560  14.258  1.00  0.00     0.023 C 
HETATM    2  C5  UNL     1     -16.134   6.165  12.905  1.00  0.00     0.024 C 
HETATM    3  C6  UNL     1     -18.082   6.102  14.416  1.00  0.00     0.135 C 
HETATM    4  O1  UNL     1     -18.328   7.300  14.220  1.00  0.00    -0.297 OA
HETATM    5  C7  UNL     1     -19.224   5.188  14.788  1.00  0.00     0.080 C 
HETATM    6  C8  UNL     1     -18.889   3.714  14.904  1.00  0.00     0.022 C 
HETATM    7  C9  UNL     1     -17.885   3.223  13.845  1.00  0.00    -0.008 C 
HETATM    8  C10 UNL     1     -18.373   3.546  12.407  1.00  0.00     0.021 C 
HETATM    9  C11 UNL     1     -17.712   1.685  13.954  1.00  0.00     0.002 C 
HETATM   10  C12 UNL     1     -16.582   1.066  14.389  1.00  0.00    -0.029 C 
HETATM   11  C13 UNL     1     -15.406   1.850  14.916  1.00  0.00     0.149 C 
HETATM   12  C14 UNL     1     -15.736   3.307  15.220  1.00  0.00     0.043 C 
HETATM   13  C15 UNL     1     -16.524   3.986  14.096  1.00  0.00     0.017 C 
HETATM   14  C16 UNL     1     -16.468  -0.460  14.348  1.00  0.00     0.017 C 
HETATM   15  C17 UNL     1     -17.108  -0.975  15.677  1.00  0.00     0.023 C 
HETATM   16  C18 UNL     1     -15.064  -1.096  14.169  1.00  0.00     0.132 C 
HETATM   17  C19 UNL     1     -15.336  -2.508  13.617  1.00  0.00     0.038 C 
HETATM   18  C20 UNL     1     -16.805  -2.521  13.093  1.00  0.00     0.001 C 
HETATM   19  C29 UNL     1     -17.162  -0.999  13.039  1.00  0.00    -0.019 C 
HETATM   20  C30 UNL     1     -16.585  -0.383  11.722  1.00  0.00     0.017 C 
HETATM   21  C31 UNL     1     -18.647  -0.646  13.122  1.00  0.00     0.094 C 
HETATM   22  C32 UNL     1     -18.878   0.806  13.522  1.00  0.00     0.157 C 
HETATM   23  O7  UNL     1     -20.027   1.251  13.504  1.00  0.00    -0.293 OA
ENDROOT
BRANCH  18  24
HETATM   24  C21 UNL     1     -16.974  -3.405  11.818  1.00  0.00    -0.011 C 
HETATM   25  C22 UNL     1     -16.424  -4.820  12.045  1.00  0.00     0.010 C 
BRANCH  24  26
HETATM   26  C23 UNL     1     -16.251  -2.765  10.592  1.00  0.00     0.040 C 
BRANCH  26  27
HETATM   27  C24 UNL     1     -14.820  -3.269  10.324  1.00  0.00     0.142 C 
BRANCH  27  28
HETATM   28  O4  UNL     1     -13.887  -2.233  10.627  1.00  0.00    -0.392 OA
HETATM   29  H39 UNL     1     -13.889  -2.117  11.591  1.00  0.00     0.210 HD
ENDBRANCH  27  28
BRANCH  27  30
HETATM   30  C25 UNL     1     -14.553  -3.694   8.916  1.00  0.00     0.018 C 
HETATM   31  C26 UNL     1     -14.293  -4.944   8.480  1.00  0.00     0.010 C 
HETATM   32  C27 UNL     1     -14.256  -6.180   9.326  1.00  0.00     0.055 C 
BRANCH  31  33
HETATM   33  C28 UNL     1     -14.050  -5.098   7.022  1.00  0.00     0.171 C 
HETATM   34  O5  UNL     1     -13.100  -4.674   6.387  1.00  0.00    -0.646 OA
BRANCH  33  35
HETATM   35  O6  UNL     1     -15.031  -5.787   6.416  1.00  0.00    -0.773 OA
HETATM   36  H44 UNL     1     -14.744  -5.813   5.479  1.00  0.00     0.167 HD
ENDBRANCH  33  35
ENDBRANCH  31  33
ENDBRANCH  27  30
ENDBRANCH  26  27
ENDBRANCH  24  26
ENDBRANCH  18  24
BRANCH  16  37
HETATM   37  O3  UNL     1     -14.287  -1.136  15.360  1.00  0.00    -0.394 OA
HETATM   38  H28 UNL     1     -14.620  -1.859  15.924  1.00  0.00     0.210 HD
ENDBRANCH  16  37
BRANCH  11  39
HETATM   39  O2  UNL     1     -14.949   1.309  16.149  1.00  0.00    -0.391 OA
HETATM   40  H20 UNL     1     -14.442   0.495  15.942  1.00  0.00     0.210 HD
ENDBRANCH  11  39
BRANCH   1  41
HETATM   41  C3  UNL     1     -15.751   6.263  15.338  1.00  0.00     0.047 C 
BRANCH  41  42
HETATM   42  C2  UNL     1     -14.399   6.919  15.006  1.00  0.00     0.270 C 
BRANCH  42  43
HETATM   43  N1  UNL     1     -13.396   6.006  14.472  1.00  0.00     0.079 N 
HETATM   44  C1  UNL     1     -12.111   6.681  14.308  1.00  0.00     0.306 C 
HETATM   45  H4  UNL     1     -13.690   5.691  13.552  1.00  0.00     0.315 HD
ENDBRANCH  42  43
ENDBRANCH  41  42
ENDBRANCH   1  41
TORSDOF 12
ENDMDL
MODEL 8
REMARK minimizedAffinity -7.45262432
REMARK CNNscore 0.422219962
REMARK CNNaffinity 6.62625885
REMARK  12 active torsions:
REMARK  status: ('A' for Active; 'I' for Inactive)
REMARK    1  A    between atoms: N1_2  and  C2_3 
REMARK    2  A    between atoms: C2_3  and  C3_4 
REMARK    3  A    between atoms: C3_4  and  C4_5 
REMARK    4  A    between atoms: C13_15  and  O2_16 
REMARK    5  A    between atoms: C18_21  and  O3_22 
REMARK    6  A    between atoms: C20_24  and  C21_25 
REMARK    7  A    between atoms: C21_25  and  C23_27 
REMARK    8  A    between atoms: C23_27  and  C24_28 
REMARK    9  A    between atoms: C24_28  and  O4_29 
REMARK   10  A    between atoms: C24_28  and  C25_30 
REMARK   11  A    between atoms: C26_31  and  C28_33 
REMARK   12  A    between atoms: C28_33  and  O6_35 
ROOT
HETATM    1  C4  UNL     1       1.678   7.210   9.846  1.00  0.00     0.023 C 
HETATM    2  C5  UNL     1       1.284   8.411   8.916  1.00  0.00     0.024 C 
HETATM    3  C6  UNL     1       2.479   6.254   8.938  1.00  0.00     0.135 C 
HETATM    4  O1  UNL     1       2.065   5.963   7.808  1.00  0.00    -0.297 OA
HETATM    5  C7  UNL     1       3.795   5.669   9.391  1.00  0.00     0.080 C 
HETATM    6  C8  UNL     1       4.312   6.147  10.733  1.00  0.00     0.022 C 
HETATM    7  C9  UNL     1       4.055   7.642  10.998  1.00  0.00    -0.008 C 
HETATM    8  C10 UNL     1       4.632   8.526   9.860  1.00  0.00     0.021 C 
HETATM    9  C11 UNL     1       4.737   8.069  12.324  1.00  0.00     0.002 C 
HETATM   10  C12 UNL     1       4.070   8.407  13.459  1.00  0.00    -0.029 C 
HETATM   11  C13 UNL     1       2.569   8.292  13.556  1.00  0.00     0.149 C 
HETATM   12  C14 UNL     1       1.951   7.469  12.431  1.00  0.00     0.043 C 
HETATM   13  C15 UNL     1       2.490   7.850  11.050  1.00  0.00     0.017 C 
HETATM   14  C16 UNL     1       4.830   8.928  14.682  1.00  0.00     0.017 C 
HETATM   15  C17 UNL     1       5.283   7.663  15.479  1.00  0.00     0.023 C 
HETATM   16  C18 UNL     1       4.112   9.914  15.640  1.00  0.00     0.132 C 
HETATM   17  C19 UNL     1       5.247  10.650  16.375  1.00  0.00     0.038 C 
HETATM   18  C20 UNL     1       6.555  10.408  15.562  1.00  0.00     0.001 C 
HETATM   19  C29 UNL     1       6.014   9.854  14.202  1.00  0.00    -0.019 C 
HETATM   20  C30 UNL     1       5.553  11.051  13.307  1.00  0.00     0.017 C 
HETATM   21  C31 UNL     1       6.977   8.991  13.388  1.00  0.00     0.094 C 
HETATM   22  C32 UNL     1       6.258   8.136  12.352  1.00  0.00     0.157 C 
HETATM   23  O7  UNL     1       6.931   7.488  11.548  1.00  0.00    -0.293 OA
ENDROOT
BRANCH  18  24
HETATM   24  C21 UNL     1       7.502  11.648  15.574  1.00  0.00    -0.011 C 
HETATM   25  C22 UNL     1       8.787  11.375  14.780  1.00  0.00     0.010 C 
BRANCH  24  26
HETATM   26  C23 UNL     1       7.877  12.052  17.034  1.00  0.00     0.040 C 
BRANCH  26  27
HETATM   27  C24 UNL     1       8.522  10.944  17.888  1.00  0.00     0.142 C 
BRANCH  27  28
HETATM   28  O4  UNL     1       7.508  10.245  18.606  1.00  0.00    -0.392 OA
HETATM   29  H39 UNL     1       6.995   9.736  17.958  1.00  0.00     0.210 HD
ENDBRANCH  27  28
BRANCH  27  30
HETATM   30  C25 UNL     1       9.517  11.422  18.897  1.00  0.00     0.018 C 
HETATM   31  C26 UNL     1       9.281  12.228  19.953  1.00  0.00     0.010 C 
HETATM   32  C27 UNL     1       7.948  12.783  20.354  1.00  0.00     0.055 C 
BRANCH  31  33
HETATM   33  C28 UNL     1      10.452  12.564  20.802  1.00  0.00     0.171 C 
HETATM   34  O5  UNL     1      11.629  12.436  20.514  1.00  0.00    -0.646 OA
BRANCH  33  35
HETATM   35  O6  UNL     1      10.086  13.054  21.999  1.00  0.00    -0.773 OA
HETATM   36  H44 UNL     1      10.943  13.231  22.442  1.00  0.00     0.167 HD
ENDBRANCH  33  35
ENDBRANCH  31  33
ENDBRANCH  27  30
ENDBRANCH  26  27
ENDBRANCH  24  26
ENDBRANCH  18  24
BRANCH  16  37
HETATM   37  O3  UNL     1       3.212   9.291  16.549  1.00  0.00    -0.394 OA
HETATM   38  H28 UNL     1       3.730   8.868  17.258  1.00  0.00     0.210 HD
ENDBRANCH  16  37
BRANCH  11  39
HETATM   39  O2  UNL     1       2.189   7.626  14.754  1.00  0.00    -0.391 OA
HETATM   40  H20 UNL     1       2.287   8.268  15.490  1.00  0.00     0.210 HD
ENDBRANCH  11  39
BRANCH   1  41
HETATM   41  C3  UNL     1       0.303   6.524  10.164  1.00  0.00     0.047 C 
BRANCH  41  42
HETATM   42  C2  UNL     1       0.188   5.204  10.946  1.00  0.00     0.270 C 
BRANCH  42  43
HETATM   43  N1  UNL     1      -1.106   4.983  11.577  1.00  0.00     0.079 N 
HETATM   44  C1  UNL     1      -1.828   3.895  10.923  1.00  0.00     0.306 C 
HETATM   45  H4  UNL     1      -1.672   5.822  11.478  1.00  0.00     0.315 HD
ENDBRANCH  42  43
ENDBRANCH  41  42
ENDBRANCH   1  41
TORSDOF 12
ENDMDL
MODEL 9
REMARK minimizedAffinity -9.59346581
REMARK CNNscore 0.392930627
REMARK CNNaffinity 6.51590204
REMARK  12 active torsions:
REMARK  status: ('A' for Active; 'I' for Inactive)
REMARK    1  A    between atoms: N1_2  and  C2_3 
REMARK    2  A    between atoms: C2_3  and  C3_4 
REMARK    3  A    between atoms: C3_4  and  C4_5 
REMARK    4  A    between atoms: C13_15  and  O2_16 
REMARK    5  A    between atoms: C18_21  and  O3_22 
REMARK    6  A    between atoms: C20_24  and  C21_25 
REMARK    7  A    between atoms: C21_25  and  C23_27 
REMARK    8  A    between atoms: C23_27  and  C24_28 
REMARK    9  A    between atoms: C24_28  and  O4_29 
REMARK   10  A    between atoms: C24_28  and  C25_30 
REMARK   11  A    between atoms: C26_31  and  C28_33 
REMARK   12  A    between atoms: C28_33  and  O6_35 
ROOT
HETATM    1  C4  UNL     1       2.854   6.564  10.035  1.00  0.00     0.023 C 
HETATM    2  C5  UNL     1       2.613   7.462   8.771  1.00  0.00     0.024 C 
HETATM    3  C6  UNL     1       4.022   7.240  10.783  1.00  0.00     0.135 C 
HETATM    4  O1  UNL     1       5.032   7.610  10.171  1.00  0.00    -0.297 OA
HETATM    5  C7  UNL     1       3.956   7.486  12.271  1.00  0.00     0.080 C 
HETATM    6  C8  UNL     1       2.653   7.117  12.952  1.00  0.00     0.022 C 
HETATM    7  C9  UNL     1       1.403   7.434  12.109  1.00  0.00    -0.008 C 
HETATM    8  C10 UNL     1       1.374   8.925  11.677  1.00  0.00     0.021 C 
HETATM    9  C11 UNL     1       0.122   7.155  12.938  1.00  0.00     0.002 C 
HETATM   10  C12 UNL     1      -0.750   6.142  12.689  1.00  0.00    -0.029 C 
HETATM   11  C13 UNL     1      -0.481   5.114  11.619  1.00  0.00     0.149 C 
HETATM   12  C14 UNL     1       0.958   5.127  11.115  1.00  0.00     0.043 C 
HETATM   13  C15 UNL     1       1.470   6.537  10.811  1.00  0.00     0.017 C 
HETATM   14  C16 UNL     1      -2.049   6.020  13.492  1.00  0.00     0.017 C 
HETATM   15  C17 UNL     1      -1.684   5.218  14.781  1.00  0.00     0.023 C 
HETATM   16  C18 UNL     1      -3.285   5.374  12.812  1.00  0.00     0.132 C 
HETATM   17  C19 UNL     1      -4.494   5.898  13.610  1.00  0.00     0.038 C 
HETATM   18  C20 UNL     1      -4.004   7.129  14.432  1.00  0.00     0.001 C 
HETATM   19  C29 UNL     1      -2.629   7.461  13.763  1.00  0.00    -0.019 C 
HETATM   20  C30 UNL     1      -2.878   8.294  12.463  1.00  0.00     0.017 C 
HETATM   21  C31 UNL     1      -1.618   8.214  14.627  1.00  0.00     0.094 C 
HETATM   22  C32 UNL     1      -0.195   8.092  14.096  1.00  0.00     0.157 C 
HETATM   23  O7  UNL     1       0.697   8.754  14.631  1.00  0.00    -0.293 OA
ENDROOT
BRANCH  18  24
HETATM   24  C21 UNL     1      -5.097   8.236  14.554  1.00  0.00    -0.011 C 
HETATM   25  C22 UNL     1      -4.557   9.475  15.281  1.00  0.00     0.010 C 
BRANCH  24  26
HETATM   26  C23 UNL     1      -6.353   7.703  15.312  1.00  0.00     0.040 C 
BRANCH  26  27
HETATM   27  C24 UNL     1      -7.506   7.202  14.421  1.00  0.00     0.142 C 
BRANCH  27  28
HETATM   28  O4  UNL     1      -8.744   7.370  15.107  1.00  0.00    -0.392 OA
HETATM   29  H39 UNL     1      -8.919   8.324  15.155  1.00  0.00     0.210 HD
ENDBRANCH  27  28
BRANCH  27  30
HETATM   30  C25 UNL     1      -7.420   5.762  14.028  1.00  0.00     0.018 C 
HETATM   31  C26 UNL     1      -7.962   5.183  12.935  1.00  0.00     0.010 C 
HETATM   32  C27 UNL     1      -8.736   5.886  11.862  1.00  0.00     0.055 C 
BRANCH  31  33
HETATM   33  C28 UNL     1      -7.738   3.723  12.781  1.00  0.00     0.171 C 
HETATM   34  O5  UNL     1      -8.562   2.835  12.918  1.00  0.00    -0.646 OA
BRANCH  33  35
HETATM   35  O6  UNL     1      -6.465   3.437  12.460  1.00  0.00    -0.773 OA
HETATM   36  H44 UNL     1      -6.463   2.459  12.390  1.00  0.00     0.167 HD
ENDBRANCH  33  35
ENDBRANCH  31  33
ENDBRANCH  27  30
ENDBRANCH  26  27
ENDBRANCH  24  26
ENDBRANCH  18  24
BRANCH  16  37
HETATM   37  O3  UNL     1      -3.252   3.953  12.775  1.00  0.00    -0.394 OA
HETATM   38  H28 UNL     1      -3.475   3.614  13.662  1.00  0.00     0.210 HD
ENDBRANCH  16  37
BRANCH  11  39
HETATM   39  O2  UNL     1      -0.686   3.798  12.118  1.00  0.00    -0.391 OA
HETATM   40  H20 UNL     1      -1.655   3.648  12.159  1.00  0.00     0.210 HD
ENDBRANCH  11  39
BRANCH   1  41
HETATM   41  C3  UNL     1       3.390   5.218   9.433  1.00  0.00     0.047 C 
BRANCH  41  42
HETATM   42  C2  UNL     1       3.283   4.869   7.937  1.00  0.00     0.270 C 
BRANCH  42  43
HETATM   43  N1  UNL     1       4.079   3.721   7.524  1.00  0.00     0.079 N 
HETATM   44  C1  UNL     1       3.787   3.354   6.141  1.00  0.00     0.306 C 
HETATM   45  H4  UNL     1       3.837   2.923   8.105  1.00  0.00     0.315 HD
ENDBRANCH  42  43
ENDBRANCH  41  42
ENDBRANCH   1  41
TORSDOF 12
ENDMDL
