MODEL 1
REMARK minimizedAffinity -7.38748646
REMARK CNNscore 0.730095804
REMARK CNNaffinity 6.97213745
REMARK  4 active torsions:
REMARK  status: ('A' for Active; 'I' for Inactive)
REMARK    1  A    between atoms: C2_2  and  C4_4 
REMARK    2  A    between atoms: C4_4  and  C5_5 
REMARK    3  A    between atoms: C5_5  and  O1_6 
REMARK    4  A    between atoms: C8_9  and  C9_10 
ROOT
HETATM    1  C9  UNL     1      -1.549  52.688 -11.303  1.00  0.00     0.001 C 
HETATM    2  C10 UNL     1      -2.648  52.649 -10.206  1.00  0.00     0.007 C 
HETATM    3  C11 UNL     1      -2.099  53.405  -8.983  1.00  0.00     0.011 C 
HETATM    4  C12 UNL     1      -0.885  54.191  -9.512  1.00  0.00    -0.032 C 
HETATM    5  C13 UNL     1      -1.452  55.495 -10.158  1.00  0.00     0.016 C 
HETATM    6  C14 UNL     1       0.171  54.540  -8.430  1.00  0.00     0.004 C 
HETATM    7  C15 UNL     1      -0.285  55.603  -7.422  1.00  0.00     0.007 C 
HETATM    8  C16 UNL     1       0.793  55.830  -6.365  1.00  0.00     0.007 C 
HETATM    9  C17 UNL     1       2.011  56.515  -6.997  1.00  0.00     0.010 C 
HETATM   10  C18 UNL     1       3.179  56.825  -6.006  1.00  0.00     0.018 C 
HETATM   11  C19 UNL     1       3.716  55.582  -5.280  1.00  0.00     0.023 C 
HETATM   12  C20 UNL     1       2.729  57.858  -4.957  1.00  0.00     0.023 C 
HETATM   13  C21 UNL     1       4.346  57.454  -6.784  1.00  0.00     0.135 C 
HETATM   14  O2  UNL     1       5.422  57.721  -6.244  1.00  0.00    -0.297 OA
HETATM   15  C22 UNL     1       4.101  57.822  -8.226  1.00  0.00     0.080 C 
HETATM   16  C23 UNL     1       3.586  56.622  -9.006  1.00  0.00     0.018 C 
HETATM   17  C24 UNL     1       2.525  55.809  -8.259  1.00  0.00    -0.026 A 
HETATM   18  C25 UNL     1       2.732  54.312  -8.277  1.00  0.00     0.021 A 
HETATM   19  C26 UNL     1       1.554  54.879  -9.045  1.00  0.00    -0.027 A 
HETATM   20  C27 UNL     1       1.655  54.891 -10.574  1.00  0.00     0.011 C 
HETATM   21  C28 UNL     1       0.793  53.886 -11.362  1.00  0.00     0.011 C 
HETATM   22  C29 UNL     1      -0.273  53.158 -10.531  1.00  0.00    -0.032 C 
HETATM   23  C30 UNL     1       0.412  51.936  -9.859  1.00  0.00     0.016 C 
ENDROOT
BRANCH   1  24
HETATM   24  C8  UNL     1      -1.576  51.462 -12.259  1.00  0.00     0.014 C 
HETATM   25  C7  UNL     1      -2.992  51.096 -12.716  1.00  0.00     0.010 C 
HETATM   26  C6  UNL     1      -2.985  49.790 -13.512  1.00  0.00     0.041 C 
HETATM   27  C4  UNL     1      -1.943  49.769 -14.656  1.00  0.00     0.085 C 
HETATM   28  O3  UNL     1      -0.660  50.206 -14.145  1.00  0.00    -0.377 OA
HETATM   29  C31 UNL     1      -0.640  51.470 -13.472  1.00  0.00     0.174 C 
BRANCH  27  30
HETATM   30  C2  UNL     1      -1.717  48.281 -15.120  1.00  0.00     0.014 C 
HETATM   31  C1  UNL     1      -2.687  47.799 -16.210  1.00  0.00     0.012 C 
HETATM   32  C3  UNL     1      -1.708  47.258 -13.978  1.00  0.00     0.012 C 
ENDBRANCH  27  30
BRANCH  27  33
HETATM   33  C5  UNL     1      -2.384  50.704 -15.816  1.00  0.00     0.202 C 
BRANCH  33  34
HETATM   34  O1  UNL     1      -3.666  51.281 -15.572  1.00  0.00    -0.398 OA
HETATM   35  H10 UNL     1      -4.169  50.608 -15.074  1.00  0.00     0.209 HD
ENDBRANCH  33  34
ENDBRANCH  27  33
ENDBRANCH   1  24
TORSDOF 4
ENDMDL
MODEL 2
REMARK minimizedAffinity -7.74562073
REMARK CNNscore 0.684417248
REMARK CNNaffinity 6.59614801
REMARK  4 active torsions:
REMARK  status: ('A' for Active; 'I' for Inactive)
REMARK    1  A    between atoms: C2_2  and  C4_4 
REMARK    2  A    between atoms: C4_4  and  C5_5 
REMARK    3  A    between atoms: C5_5  and  O1_6 
REMARK    4  A    between atoms: C8_9  and  C9_10 
ROOT
HETATM    1  C9  UNL     1       6.023  55.760  -8.376  1.00  0.00     0.001 C 
HETATM    2  C10 UNL     1       6.686  54.579  -9.137  1.00  0.00     0.007 C 
HETATM    3  C11 UNL     1       5.554  53.740  -9.755  1.00  0.00     0.011 C 
HETATM    4  C12 UNL     1       4.306  54.641  -9.683  1.00  0.00    -0.032 C 
HETATM    5  C13 UNL     1       4.377  55.593 -10.918  1.00  0.00     0.016 C 
HETATM    6  C14 UNL     1       2.960  53.869  -9.673  1.00  0.00     0.004 C 
HETATM    7  C15 UNL     1       2.605  53.205 -11.010  1.00  0.00     0.007 C 
HETATM    8  C16 UNL     1       1.302  52.419 -10.883  1.00  0.00     0.007 C 
HETATM    9  C17 UNL     1       0.123  53.385 -10.701  1.00  0.00     0.010 C 
HETATM   10  C18 UNL     1      -1.276  52.700 -10.584  1.00  0.00     0.018 C 
HETATM   11  C19 UNL     1      -1.371  51.688  -9.431  1.00  0.00     0.023 C 
HETATM   12  C20 UNL     1      -1.635  51.988 -11.901  1.00  0.00     0.023 C 
HETATM   13  C21 UNL     1      -2.347  53.777 -10.350  1.00  0.00     0.135 C 
HETATM   14  O2  UNL     1      -3.529  53.491 -10.146  1.00  0.00    -0.297 OA
HETATM   15  C22 UNL     1      -1.919  55.219 -10.470  1.00  0.00     0.080 C 
HETATM   16  C23 UNL     1      -0.733  55.504  -9.559  1.00  0.00     0.018 C 
HETATM   17  C24 UNL     1       0.337  54.409  -9.578  1.00  0.00    -0.026 A 
HETATM   18  C25 UNL     1       0.836  53.974  -8.221  1.00  0.00     0.021 A 
HETATM   19  C26 UNL     1       1.792  54.728  -9.124  1.00  0.00    -0.027 A 
HETATM   20  C27 UNL     1       2.108  56.181  -8.752  1.00  0.00     0.011 C 
HETATM   21  C28 UNL     1       3.504  56.492  -8.178  1.00  0.00     0.011 C 
HETATM   22  C29 UNL     1       4.518  55.345  -8.289  1.00  0.00    -0.032 C 
HETATM   23  C30 UNL     1       4.302  54.409  -7.068  1.00  0.00     0.016 C 
ENDROOT
BRANCH   1  24
HETATM   24  C8  UNL     1       6.850  56.262  -7.159  1.00  0.00     0.014 C 
HETATM   25  C7  UNL     1       6.122  57.341  -6.350  1.00  0.00     0.010 C 
HETATM   26  C6  UNL     1       7.037  57.922  -5.272  1.00  0.00     0.041 C 
HETATM   27  C4  UNL     1       7.717  56.845  -4.392  1.00  0.00     0.085 C 
HETATM   28  O3  UNL     1       8.305  55.831  -5.243  1.00  0.00    -0.377 OA
HETATM   29  C31 UNL     1       7.433  55.219  -6.200  1.00  0.00     0.174 C 
BRANCH  27  30
HETATM   30  C2  UNL     1       8.929  57.495  -3.626  1.00  0.00     0.014 C 
HETATM   31  C1  UNL     1       8.564  58.724  -2.779  1.00  0.00     0.012 C 
HETATM   32  C3  UNL     1      10.124  57.849  -4.520  1.00  0.00     0.012 C 
ENDBRANCH  27  30
BRANCH  27  33
HETATM   33  C5  UNL     1       6.683  56.184  -3.438  1.00  0.00     0.202 C 
BRANCH  33  34
HETATM   34  O1  UNL     1       5.791  55.321  -4.142  1.00  0.00    -0.398 OA
HETATM   35  H10 UNL     1       5.673  55.724  -5.024  1.00  0.00     0.209 HD
ENDBRANCH  33  34
ENDBRANCH  27  33
ENDBRANCH   1  24
TORSDOF 4
ENDMDL
MODEL 3
REMARK minimizedAffinity -7.45316792
REMARK CNNscore 0.619420946
REMARK CNNaffinity 6.76174593
REMARK  4 active torsions:
REMARK  status: ('A' for Active; 'I' for Inactive)
REMARK    1  A    between atoms: C2_2  and  C4_4 
REMARK    2  A    between atoms: C4_4  and  C5_5 
REMARK    3  A    between atoms: C5_5  and  O1_6 
REMARK    4  A    between atoms: C8_9  and  C9_10 
ROOT
HETATM    1  C9  UNL     1       2.427  52.626 -10.742  1.00  0.00     0.001 C 
HETATM    2  C10 UNL     1       3.488  51.587 -10.287  1.00  0.00     0.007 C 
HETATM    3  C11 UNL     1       4.231  52.191  -9.083  1.00  0.00     0.011 C 
HETATM    4  C12 UNL     1       3.350  53.367  -8.620  1.00  0.00    -0.032 C 
HETATM    5  C13 UNL     1       2.233  52.753  -7.719  1.00  0.00     0.016 C 
HETATM    6  C14 UNL     1       4.116  54.475  -7.849  1.00  0.00     0.004 C 
HETATM    7  C15 UNL     1       4.585  54.060  -6.449  1.00  0.00     0.007 C 
HETATM    8  C16 UNL     1       5.381  55.190  -5.799  1.00  0.00     0.007 C 
HETATM    9  C17 UNL     1       4.451  56.366  -5.472  1.00  0.00     0.010 C 
HETATM   10  C18 UNL     1       5.146  57.580  -4.778  1.00  0.00     0.018 C 
HETATM   11  C19 UNL     1       6.312  58.169  -5.589  1.00  0.00     0.023 C 
HETATM   12  C20 UNL     1       5.665  57.175  -3.386  1.00  0.00     0.023 C 
HETATM   13  C21 UNL     1       4.113  58.698  -4.564  1.00  0.00     0.135 C 
HETATM   14  O2  UNL     1       4.426  59.798  -4.102  1.00  0.00    -0.297 OA
HETATM   15  C22 UNL     1       2.670  58.373  -4.855  1.00  0.00     0.080 C 
HETATM   16  C23 UNL     1       2.516  57.831  -6.268  1.00  0.00     0.018 C 
HETATM   17  C24 UNL     1       3.596  56.820  -6.663  1.00  0.00    -0.026 A 
HETATM   18  C25 UNL     1       4.219  57.042  -8.021  1.00  0.00     0.021 A 
HETATM   19  C26 UNL     1       3.344  55.819  -7.828  1.00  0.00    -0.027 A 
HETATM   20  C27 UNL     1       1.959  55.840  -8.483  1.00  0.00     0.011 C 
HETATM   21  C28 UNL     1       1.731  54.949  -9.719  1.00  0.00     0.011 C 
HETATM   22  C29 UNL     1       2.850  53.936 -10.001  1.00  0.00    -0.032 C 
HETATM   23  C30 UNL     1       3.950  54.669 -10.819  1.00  0.00     0.016 C 
ENDROOT
BRANCH   1  24
HETATM   24  C8  UNL     1       2.101  52.563 -12.261  1.00  0.00     0.014 C 
HETATM   25  C7  UNL     1       2.888  51.471 -12.993  1.00  0.00     0.010 C 
HETATM   26  C6  UNL     1       2.664  51.558 -14.503  1.00  0.00     0.041 C 
HETATM   27  C4  UNL     1       1.170  51.615 -14.904  1.00  0.00     0.085 C 
HETATM   28  O3  UNL     1       0.496  52.616 -14.104  1.00  0.00    -0.377 OA
HETATM   29  C31 UNL     1       0.630  52.494 -12.684  1.00  0.00     0.174 C 
BRANCH  27  30
HETATM   30  C2  UNL     1       1.054  52.124 -16.389  1.00  0.00     0.014 C 
HETATM   31  C1  UNL     1       0.395  51.128 -17.356  1.00  0.00     0.012 C 
HETATM   32  C3  UNL     1       2.377  52.603 -16.998  1.00  0.00     0.012 C 
ENDBRANCH  27  30
BRANCH  27  33
HETATM   33  C5  UNL     1       0.491  50.234 -14.683  1.00  0.00     0.202 C 
BRANCH  33  34
HETATM   34  O1  UNL     1       1.440  49.169 -14.697  1.00  0.00    -0.398 OA
HETATM   35  H10 UNL     1       2.134  49.441 -15.330  1.00  0.00     0.209 HD
ENDBRANCH  33  34
ENDBRANCH  27  33
ENDBRANCH   1  24
TORSDOF 4
ENDMDL
MODEL 4
REMARK minimizedAffinity -6.96740055
REMARK CNNscore 0.490298003
REMARK CNNaffinity 6.21018457
REMARK  4 active torsions:
REMARK  status: ('A' for Active; 'I' for Inactive)
REMARK    1  A    between atoms: C2_2  and  C4_4 
REMARK    2  A    between atoms: C4_4  and  C5_5 
REMARK    3  A    between atoms: C5_5  and  O1_6 
REMARK    4  A    between atoms: C8_9  and  C9_10 
ROOT
HETATM    1  C9  UNL     1       2.857  54.340  -9.541  1.00  0.00     0.001 C 
HETATM    2  C10 UNL     1       3.119  55.825  -9.914  1.00  0.00     0.007 C 
HETATM    3  C11 UNL     1       4.279  56.320  -9.031  1.00  0.00     0.011 C 
HETATM    4  C12 UNL     1       4.918  55.042  -8.459  1.00  0.00    -0.032 C 
HETATM    5  C13 UNL     1       5.886  54.502  -9.560  1.00  0.00     0.016 C 
HETATM    6  C14 UNL     1       5.682  55.251  -7.125  1.00  0.00     0.004 C 
HETATM    7  C15 UNL     1       6.990  56.039  -7.264  1.00  0.00     0.007 C 
HETATM    8  C16 UNL     1       7.633  56.248  -5.894  1.00  0.00     0.007 C 
HETATM    9  C17 UNL     1       8.143  54.909  -5.345  1.00  0.00     0.010 C 
HETATM   10  C18 UNL     1       8.847  54.994  -3.953  1.00  0.00     0.018 C 
HETATM   11  C19 UNL     1       7.962  55.599  -2.852  1.00  0.00     0.023 C 
HETATM   12  C20 UNL     1      10.142  55.820  -4.059  1.00  0.00     0.023 C 
HETATM   13  C21 UNL     1       9.252  53.581  -3.506  1.00  0.00     0.135 C 
HETATM   14  O2  UNL     1       9.757  53.365  -2.402  1.00  0.00    -0.297 OA
HETATM   15  C22 UNL     1       9.093  52.464  -4.506  1.00  0.00     0.080 C 
HETATM   16  C23 UNL     1       7.668  52.417  -5.038  1.00  0.00     0.018 C 
HETATM   17  C24 UNL     1       7.087  53.795  -5.368  1.00  0.00    -0.026 A 
HETATM   18  C25 UNL     1       5.690  54.044  -4.849  1.00  0.00     0.021 A 
HETATM   19  C26 UNL     1       5.884  53.924  -6.348  1.00  0.00    -0.027 A 
HETATM   20  C27 UNL     1       5.385  52.639  -7.017  1.00  0.00     0.011 C 
HETATM   21  C28 UNL     1       4.118  52.725  -7.889  1.00  0.00     0.011 C 
HETATM   22  C29 UNL     1       3.644  54.151  -8.202  1.00  0.00    -0.032 C 
HETATM   23  C30 UNL     1       2.770  54.627  -7.009  1.00  0.00     0.016 C 
ENDROOT
BRANCH   1  24
HETATM   24  C8  UNL     1       1.381  53.895  -9.743  1.00  0.00     0.014 C 
HETATM   25  C7  UNL     1       0.630  54.770 -10.752  1.00  0.00     0.010 C 
HETATM   26  C6  UNL     1      -0.854  54.403 -10.790  1.00  0.00     0.041 C 
HETATM   27  C4  UNL     1      -1.112  52.888 -10.974  1.00  0.00     0.085 C 
HETATM   28  O3  UNL     1      -0.299  52.145 -10.034  1.00  0.00    -0.377 OA
HETATM   29  C31 UNL     1       1.106  52.420 -10.050  1.00  0.00     0.174 C 
BRANCH  27  30
HETATM   30  C2  UNL     1      -2.601  52.567 -10.578  1.00  0.00     0.014 C 
HETATM   31  C1  UNL     1      -3.515  53.797 -10.476  1.00  0.00     0.012 C 
HETATM   32  C3  UNL     1      -2.748  51.734  -9.298  1.00  0.00     0.012 C 
ENDBRANCH  27  30
BRANCH  27  33
HETATM   33  C5  UNL     1      -0.762  52.446 -12.423  1.00  0.00     0.202 C 
BRANCH  33  34
HETATM   34  O1  UNL     1       0.379  53.138 -12.926  1.00  0.00    -0.398 OA
HETATM   35  H10 UNL     1       0.347  54.029 -12.525  1.00  0.00     0.209 HD
ENDBRANCH  33  34
ENDBRANCH  27  33
ENDBRANCH   1  24
TORSDOF 4
ENDMDL
MODEL 5
REMARK minimizedAffinity -7.25325394
REMARK CNNscore 0.435790896
REMARK CNNaffinity 6.45896482
REMARK  4 active torsions:
REMARK  status: ('A' for Active; 'I' for Inactive)
REMARK    1  A    between atoms: C2_2  and  C4_4 
REMARK    2  A    between atoms: C4_4  and  C5_5 
REMARK    3  A    between atoms: C5_5  and  O1_6 
REMARK    4  A    between atoms: C8_9  and  C9_10 
ROOT
HETATM    1  C9  UNL     1      -0.580  52.332 -12.490  1.00  0.00     0.001 C 
HETATM    2  C10 UNL     1       0.003  51.253 -13.443  1.00  0.00     0.007 C 
HETATM    3  C11 UNL     1      -0.939  50.038 -13.388  1.00  0.00     0.011 C 
HETATM    4  C12 UNL     1      -2.230  50.564 -12.732  1.00  0.00    -0.032 C 
HETATM    5  C13 UNL     1      -3.055  51.248 -13.867  1.00  0.00     0.016 C 
HETATM    6  C14 UNL     1      -3.080  49.473 -12.029  1.00  0.00     0.004 C 
HETATM    7  C15 UNL     1      -3.772  48.497 -12.990  1.00  0.00     0.007 C 
HETATM    8  C16 UNL     1      -4.529  47.427 -12.206  1.00  0.00     0.007 C 
HETATM    9  C17 UNL     1      -5.733  48.054 -11.491  1.00  0.00     0.010 C 
HETATM   10  C18 UNL     1      -6.606  47.051 -10.671  1.00  0.00     0.018 C 
HETATM   11  C19 UNL     1      -5.820  46.289  -9.593  1.00  0.00     0.023 C 
HETATM   12  C20 UNL     1      -7.276  46.033 -11.611  1.00  0.00     0.023 C 
HETATM   13  C21 UNL     1      -7.734  47.823  -9.969  1.00  0.00     0.135 C 
HETATM   14  O2  UNL     1      -8.520  47.272  -9.194  1.00  0.00    -0.297 OA
HETATM   15  C22 UNL     1      -7.911  49.276 -10.330  1.00  0.00     0.080 C 
HETATM   16  C23 UNL     1      -6.608  50.039 -10.141  1.00  0.00     0.018 C 
HETATM   17  C24 UNL     1      -5.375  49.291 -10.657  1.00  0.00    -0.026 A 
HETATM   18  C25 UNL     1      -4.194  49.273  -9.716  1.00  0.00     0.021 A 
HETATM   19  C26 UNL     1      -4.071  50.072 -10.998  1.00  0.00    -0.027 A 
HETATM   20  C27 UNL     1      -4.117  51.599 -10.878  1.00  0.00     0.011 C 
HETATM   21  C28 UNL     1      -2.805  52.379 -11.087  1.00  0.00     0.011 C 
HETATM   22  C29 UNL     1      -1.643  51.550 -11.652  1.00  0.00    -0.032 C 
HETATM   23  C30 UNL     1      -0.949  50.840 -10.457  1.00  0.00     0.016 C 
ENDROOT
BRANCH   1  24
HETATM   24  C8  UNL     1       0.498  53.261 -11.864  1.00  0.00     0.014 C 
HETATM   25  C7  UNL     1      -0.066  54.171 -10.767  1.00  0.00     0.010 C 
HETATM   26  C6  UNL     1       0.986  55.178 -10.303  1.00  0.00     0.041 C 
HETATM   27  C4  UNL     1       2.341  54.530  -9.929  1.00  0.00     0.085 C 
HETATM   28  O3  UNL     1       2.750  53.629 -10.987  1.00  0.00    -0.377 OA
HETATM   29  C31 UNL     1       1.803  52.626 -11.372  1.00  0.00     0.174 C 
BRANCH  27  30
HETATM   30  C2  UNL     1       3.452  55.644  -9.883  1.00  0.00     0.014 C 
HETATM   31  C1  UNL     1       3.369  56.579  -8.667  1.00  0.00     0.012 C 
HETATM   32  C3  UNL     1       3.544  56.496 -11.156  1.00  0.00     0.012 C 
ENDBRANCH  27  30
BRANCH  27  33
HETATM   33  C5  UNL     1       2.221  53.740  -8.595  1.00  0.00     0.202 C 
BRANCH  33  34
HETATM   34  O1  UNL     1       1.174  54.250  -7.772  1.00  0.00    -0.398 OA
HETATM   35  H10 UNL     1       1.144  55.211  -7.945  1.00  0.00     0.209 HD
ENDBRANCH  33  34
ENDBRANCH  27  33
ENDBRANCH   1  24
TORSDOF 4
ENDMDL
MODEL 6
REMARK minimizedAffinity -9.62424278
REMARK CNNscore 0.427309453
REMARK CNNaffinity 7.14152145
REMARK  4 active torsions:
REMARK  status: ('A' for Active; 'I' for Inactive)
REMARK    1  A    between atoms: C2_2  and  C4_4 
REMARK    2  A    between atoms: C4_4  and  C5_5 
REMARK    3  A    between atoms: C5_5  and  O1_6 
REMARK    4  A    between atoms: C8_9  and  C9_10 
ROOT
HETATM    1  C9  UNL     1      -1.765  50.992 -21.929  1.00  0.00     0.001 C 
HETATM    2  C10 UNL     1      -3.083  50.172 -21.987  1.00  0.00     0.007 C 
HETATM    3  C11 UNL     1      -3.352  49.638 -20.569  1.00  0.00     0.011 C 
HETATM    4  C12 UNL     1      -2.430  50.463 -19.652  1.00  0.00    -0.032 C 
HETATM    5  C13 UNL     1      -3.174  51.806 -19.370  1.00  0.00     0.016 C 
HETATM    6  C14 UNL     1      -2.061  49.760 -18.318  1.00  0.00     0.004 C 
HETATM    7  C15 UNL     1      -3.222  49.647 -17.322  1.00  0.00     0.007 C 
HETATM    8  C16 UNL     1      -2.779  48.887 -16.074  1.00  0.00     0.007 C 
HETATM    9  C17 UNL     1      -1.777  49.731 -15.275  1.00  0.00     0.010 C 
HETATM   10  C18 UNL     1      -1.265  49.070 -13.956  1.00  0.00     0.018 C 
HETATM   11  C19 UNL     1      -0.598  47.702 -14.171  1.00  0.00     0.023 C 
HETATM   12  C20 UNL     1      -2.424  48.905 -12.956  1.00  0.00     0.023 C 
HETATM   13  C21 UNL     1      -0.232  49.996 -13.295  1.00  0.00     0.135 C 
HETATM   14  O2  UNL     1       0.382  49.669 -12.277  1.00  0.00    -0.297 OA
HETATM   15  C22 UNL     1      -0.055  51.372 -13.886  1.00  0.00     0.080 C 
HETATM   16  C23 UNL     1       0.251  51.282 -15.374  1.00  0.00     0.018 C 
HETATM   17  C24 UNL     1      -0.610  50.260 -16.121  1.00  0.00    -0.026 A 
HETATM   18  C25 UNL     1       0.145  49.344 -17.055  1.00  0.00     0.021 A 
HETATM   19  C26 UNL     1      -0.793  50.368 -17.664  1.00  0.00    -0.027 A 
HETATM   20  C27 UNL     1      -0.155  51.573 -18.363  1.00  0.00     0.011 C 
HETATM   21  C28 UNL     1      -0.214  51.629 -19.901  1.00  0.00     0.011 C 
HETATM   22  C29 UNL     1      -1.143  50.594 -20.551  1.00  0.00    -0.032 C 
HETATM   23  C30 UNL     1      -0.339  49.273 -20.701  1.00  0.00     0.016 C 
ENDROOT
BRANCH   1  24
HETATM   24  C8  UNL     1      -0.971  50.994 -23.265  1.00  0.00     0.014 C 
HETATM   25  C7  UNL     1      -1.875  50.867 -24.495  1.00  0.00     0.010 C 
HETATM   26  C6  UNL     1      -1.043  50.703 -25.767  1.00  0.00     0.041 C 
HETATM   27  C4  UNL     1       0.064  51.773 -25.924  1.00  0.00     0.085 C 
HETATM   28  O3  UNL     1       0.810  51.876 -24.688  1.00  0.00    -0.377 OA
HETATM   29  C31 UNL     1       0.047  52.115 -23.500  1.00  0.00     0.174 C 
BRANCH  27  30
HETATM   30  C2  UNL     1       1.107  51.282 -26.997  1.00  0.00     0.014 C 
HETATM   31  C1  UNL     1       2.576  51.477 -26.594  1.00  0.00     0.012 C 
HETATM   32  C3  UNL     1       0.896  51.872 -28.397  1.00  0.00     0.012 C 
ENDBRANCH  27  30
BRANCH  27  33
HETATM   33  C5  UNL     1      -0.556  53.156 -26.271  1.00  0.00     0.202 C 
BRANCH  33  34
HETATM   34  O1  UNL     1       0.383  54.215 -26.092  1.00  0.00    -0.398 OA
HETATM   35  H10 UNL     1       0.950  53.944 -25.344  1.00  0.00     0.209 HD
ENDBRANCH  33  34
ENDBRANCH  27  33
ENDBRANCH   1  24
TORSDOF 4
ENDMDL
MODEL 7
REMARK minimizedAffinity -9.77752209
REMARK CNNscore 0.414907515
REMARK CNNaffinity 7.28348494
REMARK  4 active torsions:
REMARK  status: ('A' for Active; 'I' for Inactive)
REMARK    1  A    between atoms: C2_2  and  C4_4 
REMARK    2  A    between atoms: C4_4  and  C5_5 
REMARK    3  A    between atoms: C5_5  and  O1_6 
REMARK    4  A    between atoms: C8_9  and  C9_10 
ROOT
HETATM    1  C9  UNL     1      -1.644  49.489 -18.128  1.00  0.00     0.001 C 
HETATM    2  C10 UNL     1      -2.773  48.450 -18.369  1.00  0.00     0.007 C 
HETATM    3  C11 UNL     1      -3.110  48.481 -19.870  1.00  0.00     0.011 C 
HETATM    4  C12 UNL     1      -1.934  49.225 -20.527  1.00  0.00    -0.032 C 
HETATM    5  C13 UNL     1      -0.800  48.170 -20.726  1.00  0.00     0.016 C 
HETATM    6  C14 UNL     1      -2.282  49.904 -21.878  1.00  0.00     0.004 C 
HETATM    7  C15 UNL     1      -2.520  48.923 -23.034  1.00  0.00     0.007 C 
HETATM    8  C16 UNL     1      -2.918  49.680 -24.299  1.00  0.00     0.007 C 
HETATM    9  C17 UNL     1      -1.723  50.485 -24.826  1.00  0.00     0.010 C 
HETATM   10  C18 UNL     1      -1.997  51.287 -26.139  1.00  0.00     0.018 C 
HETATM   11  C19 UNL     1      -3.163  52.282 -26.020  1.00  0.00     0.023 C 
HETATM   12  C20 UNL     1      -2.284  50.323 -27.304  1.00  0.00     0.023 C 
HETATM   13  C21 UNL     1      -0.738  52.084 -26.515  1.00  0.00     0.135 C 
HETATM   14  O2  UNL     1      -0.719  52.862 -27.471  1.00  0.00    -0.297 OA
HETATM   15  C22 UNL     1       0.517  51.814 -25.723  1.00  0.00     0.080 C 
HETATM   16  C23 UNL     1       0.259  51.985 -24.233  1.00  0.00     0.018 C 
HETATM   17  C24 UNL     1      -1.062  51.370 -23.761  1.00  0.00    -0.026 A 
HETATM   18  C25 UNL     1      -1.897  52.252 -22.863  1.00  0.00     0.021 A 
HETATM   19  C26 UNL     1      -1.267  51.013 -22.259  1.00  0.00    -0.027 A 
HETATM   20  C27 UNL     1      -0.074  51.221 -21.320  1.00  0.00     0.011 C 
HETATM   21  C28 UNL     1      -0.295  50.996 -19.812  1.00  0.00     0.011 C 
HETATM   22  C29 UNL     1      -1.629  50.330 -19.446  1.00  0.00    -0.032 C 
HETATM   23  C30 UNL     1      -2.704  51.449 -19.365  1.00  0.00     0.016 C 
ENDROOT
BRANCH   1  24
HETATM   24  C8  UNL     1      -1.663  50.116 -16.706  1.00  0.00     0.014 C 
HETATM   25  C7  UNL     1      -3.080  50.281 -16.148  1.00  0.00     0.010 C 
HETATM   26  C6  UNL     1      -3.058  51.052 -14.828  1.00  0.00     0.041 C 
HETATM   27  C4  UNL     1      -2.052  50.486 -13.797  1.00  0.00     0.085 C 
HETATM   28  O3  UNL     1      -0.768  50.290 -14.438  1.00  0.00    -0.377 OA
HETATM   29  C31 UNL     1      -0.765  49.496 -15.630  1.00  0.00     0.174 C 
BRANCH  27  30
HETATM   30  C2  UNL     1      -1.795  51.565 -12.680  1.00  0.00     0.014 C 
HETATM   31  C1  UNL     1      -2.969  52.526 -12.439  1.00  0.00     0.012 C 
HETATM   32  C3  UNL     1      -0.516  52.387 -12.878  1.00  0.00     0.012 C 
ENDBRANCH  27  30
BRANCH  27  33
HETATM   33  C5  UNL     1      -2.557  49.132 -13.226  1.00  0.00     0.202 C 
BRANCH  33  34
HETATM   34  O1  UNL     1      -3.923  49.204 -12.824  1.00  0.00    -0.398 OA
HETATM   35  H10 UNL     1      -4.058  50.117 -12.504  1.00  0.00     0.209 HD
ENDBRANCH  33  34
ENDBRANCH  27  33
ENDBRANCH   1  24
TORSDOF 4
ENDMDL
MODEL 8
REMARK minimizedAffinity -7.64104366
REMARK CNNscore 0.398598731
REMARK CNNaffinity 6.21267509
REMARK  4 active torsions:
REMARK  status: ('A' for Active; 'I' for Inactive)
REMARK    1  A    between atoms: C2_2  and  C4_4 
REMARK    2  A    between atoms: C4_4  and  C5_5 
REMARK    3  A    between atoms: C5_5  and  O1_6 
REMARK    4  A    between atoms: C8_9  and  C9_10 
ROOT
HETATM    1  C9  UNL     1      -7.209  47.536 -26.625  1.00  0.00     0.001 C 
HETATM    2  C10 UNL     1      -6.804  46.717 -27.881  1.00  0.00     0.007 C 
HETATM    3  C11 UNL     1      -8.018  45.861 -28.281  1.00  0.00     0.011 C 
HETATM    4  C12 UNL     1      -9.206  46.472 -27.514  1.00  0.00    -0.032 C 
HETATM    5  C13 UNL     1      -9.694  47.693 -28.356  1.00  0.00     0.016 C 
HETATM    6  C14 UNL     1     -10.378  45.488 -27.261  1.00  0.00     0.004 C 
HETATM    7  C15 UNL     1     -11.171  45.115 -28.520  1.00  0.00     0.007 C 
HETATM    8  C16 UNL     1     -12.258  44.097 -28.182  1.00  0.00     0.007 C 
HETATM    9  C17 UNL     1     -13.345  44.756 -27.323  1.00  0.00     0.010 C 
HETATM   10  C18 UNL     1     -14.531  43.819 -26.930  1.00  0.00     0.018 C 
HETATM   11  C19 UNL     1     -14.092  42.557 -26.169  1.00  0.00     0.023 C 
HETATM   12  C20 UNL     1     -15.316  43.395 -28.184  1.00  0.00     0.023 C 
HETATM   13  C21 UNL     1     -15.507  44.592 -26.029  1.00  0.00     0.135 C 
HETATM   14  O2  UNL     1     -16.491  44.053 -25.518  1.00  0.00    -0.297 OA
HETATM   15  C22 UNL     1     -15.273  46.072 -25.861  1.00  0.00     0.080 C 
HETATM   16  C23 UNL     1     -13.853  46.340 -25.383  1.00  0.00     0.018 C 
HETATM   17  C24 UNL     1     -12.792  45.498 -26.098  1.00  0.00    -0.026 A 
HETATM   18  C25 UNL     1     -11.773  44.845 -25.194  1.00  0.00     0.021 A 
HETATM   19  C26 UNL     1     -11.305  45.958 -26.110  1.00  0.00    -0.027 A 
HETATM   20  C27 UNL     1     -10.983  47.309 -25.462  1.00  0.00     0.011 C 
HETATM   21  C28 UNL     1      -9.503  47.722 -25.350  1.00  0.00     0.011 C 
HETATM   22  C29 UNL     1      -8.525  46.843 -26.142  1.00  0.00    -0.032 C 
HETATM   23  C30 UNL     1      -8.177  45.615 -25.256  1.00  0.00     0.016 C 
ENDROOT
BRANCH   1  24
HETATM   24  C8  UNL     1      -6.017  47.870 -25.685  1.00  0.00     0.014 C 
HETATM   25  C7  UNL     1      -4.783  48.368 -26.445  1.00  0.00     0.010 C 
HETATM   26  C6  UNL     1      -3.589  48.521 -25.502  1.00  0.00     0.041 C 
HETATM   27  C4  UNL     1      -3.906  49.346 -24.231  1.00  0.00     0.085 C 
HETATM   28  O3  UNL     1      -5.129  48.854 -23.631  1.00  0.00    -0.377 OA
HETATM   29  C31 UNL     1      -6.276  48.788 -24.486  1.00  0.00     0.174 C 
BRANCH  27  30
HETATM   30  C2  UNL     1      -2.785  49.090 -23.156  1.00  0.00     0.014 C 
HETATM   31  C1  UNL     1      -3.208  48.168 -22.001  1.00  0.00     0.012 C 
HETATM   32  C3  UNL     1      -2.168  50.366 -22.570  1.00  0.00     0.012 C 
ENDBRANCH  27  30
BRANCH  27  33
HETATM   33  C5  UNL     1      -4.073  50.851 -24.584  1.00  0.00     0.202 C 
BRANCH  33  34
HETATM   34  O1  UNL     1      -5.406  51.304 -24.354  1.00  0.00    -0.398 OA
HETATM   35  H10 UNL     1      -5.983  50.539 -24.548  1.00  0.00     0.209 HD
ENDBRANCH  33  34
ENDBRANCH  27  33
ENDBRANCH   1  24
TORSDOF 4
ENDMDL
MODEL 9
REMARK minimizedAffinity -9.18602657
REMARK CNNscore 0.388720423
REMARK CNNaffinity 6.74754477
REMARK  4 active torsions:
REMARK  status: ('A' for Active; 'I' for Inactive)
REMARK    1  A    between atoms: C2_2  and  C4_4 
REMARK    2  A    between atoms: C4_4  and  C5_5 
REMARK    3  A    between atoms: C5_5  and  O1_6 
REMARK    4  A    between atoms: C8_9  and  C9_10 
ROOT
HETATM    1  C9  UNL     1      -1.989  51.112 -22.356  1.00  0.00     0.001 C 
HETATM    2  C10 UNL     1      -3.339  51.857 -22.543  1.00  0.00     0.007 C 
HETATM    3  C11 UNL     1      -4.417  51.042 -21.806  1.00  0.00     0.011 C 
HETATM    4  C12 UNL     1      -3.634  50.079 -20.894  1.00  0.00    -0.032 C 
HETATM    5  C13 UNL     1      -3.263  50.889 -19.612  1.00  0.00     0.016 C 
HETATM    6  C14 UNL     1      -4.408  48.790 -20.512  1.00  0.00     0.004 C 
HETATM    7  C15 UNL     1      -5.575  49.018 -19.543  1.00  0.00     0.007 C 
HETATM    8  C16 UNL     1      -6.311  47.706 -19.280  1.00  0.00     0.007 C 
HETATM    9  C17 UNL     1      -5.420  46.761 -18.462  1.00  0.00     0.010 C 
HETATM   10  C18 UNL     1      -6.074  45.388 -18.104  1.00  0.00     0.018 C 
HETATM   11  C19 UNL     1      -6.534  44.586 -19.332  1.00  0.00     0.023 C 
HETATM   12  C20 UNL     1      -7.277  45.596 -17.168  1.00  0.00     0.023 C 
HETATM   13  C21 UNL     1      -5.054  44.529 -17.341  1.00  0.00     0.135 C 
HETATM   14  O2  UNL     1      -5.296  43.366 -17.010  1.00  0.00    -0.297 OA
HETATM   15  C22 UNL     1      -3.764  45.190 -16.922  1.00  0.00     0.080 C 
HETATM   16  C23 UNL     1      -3.070  45.819 -18.121  1.00  0.00     0.018 C 
HETATM   17  C24 UNL     1      -4.019  46.572 -19.058  1.00  0.00    -0.026 A 
HETATM   18  C25 UNL     1      -3.837  46.278 -20.528  1.00  0.00     0.021 A 
HETATM   19  C26 UNL     1      -3.464  47.659 -20.026  1.00  0.00    -0.027 A 
HETATM   20  C27 UNL     1      -1.971  47.988 -19.928  1.00  0.00     0.011 C 
HETATM   21  C28 UNL     1      -1.378  48.966 -20.962  1.00  0.00     0.011 C 
HETATM   22  C29 UNL     1      -2.414  49.706 -21.819  1.00  0.00    -0.032 C 
HETATM   23  C30 UNL     1      -2.784  48.780 -23.011  1.00  0.00     0.016 C 
ENDROOT
BRANCH   1  24
HETATM   24  C8  UNL     1      -0.992  51.321 -23.530  1.00  0.00     0.014 C 
HETATM   25  C7  UNL     1      -1.645  51.139 -24.904  1.00  0.00     0.010 C 
HETATM   26  C6  UNL     1      -0.595  51.186 -26.015  1.00  0.00     0.041 C 
HETATM   27  C4  UNL     1       0.338  52.418 -25.933  1.00  0.00     0.085 C 
HETATM   28  O3  UNL     1       0.839  52.552 -24.581  1.00  0.00    -0.377 OA
HETATM   29  C31 UNL     1      -0.142  52.595 -23.539  1.00  0.00     0.174 C 
BRANCH  27  30
HETATM   30  C2  UNL     1       1.611  52.161 -26.823  1.00  0.00     0.014 C 
HETATM   31  C1  UNL     1       1.307  51.843 -28.295  1.00  0.00     0.012 C 
HETATM   32  C3  UNL     1       2.561  51.092 -26.271  1.00  0.00     0.012 C 
ENDBRANCH  27  30
BRANCH  27  33
HETATM   33  C5  UNL     1      -0.428  53.711 -26.331  1.00  0.00     0.202 C 
BRANCH  33  34
HETATM   34  O1  UNL     1       0.309  54.886 -25.996  1.00  0.00    -0.398 OA
HETATM   35  H10 UNL     1       0.804  54.666 -25.182  1.00  0.00     0.209 HD
ENDBRANCH  33  34
ENDBRANCH  27  33
ENDBRANCH   1  24
TORSDOF 4
ENDMDL
