MODEL 1
REMARK minimizedAffinity -7.15439844
REMARK CNNscore 0.794262588
REMARK CNNaffinity 6.6126442
REMARK  12 active torsions:
REMARK  status: ('A' for Active; 'I' for Inactive)
REMARK    1  A    between atoms: O1_2  and  C2_3 
REMARK    2  A    between atoms: C2_3  and  C3_4 
REMARK    3  A    between atoms: C3_4  and  C4_5 
REMARK    4  A    between atoms: C4_5  and  N1_6 
REMARK    5  A    between atoms: N1_6  and  C5_7 
REMARK    6  A    between atoms: C5_7  and  C6_8 
REMARK    7  A    between atoms: C10_12  and  O2_13 
REMARK    8  A    between atoms: C16_19  and  O3_20 
REMARK    9  A    between atoms: C20_24  and  C21_25 
REMARK   10  A    between atoms: C27_31  and  O4_32 
REMARK   11  A    between atoms: C30_35  and  C31_36 
REMARK   12  A    between atoms: C32_38  and  O6_39 
ROOT
HETATM    1  C6  UNL     1     -12.611 -11.611  23.131  1.00  0.00    -0.022 C 
HETATM    2  C7  UNL     1     -13.491 -10.649  23.505  1.00  0.00    -0.014 C 
HETATM    3  C8  UNL     1     -13.978 -10.533  24.927  1.00  0.00     0.021 C 
HETATM    4  C9  UNL     1     -14.194  -9.139  25.517  1.00  0.00     0.051 C 
HETATM    5  C10 UNL     1     -14.540  -9.472  26.989  1.00  0.00     0.098 C 
HETATM    6  C11 UNL     1     -13.538 -10.653  27.350  1.00  0.00    -0.002 C 
HETATM    7  C12 UNL     1     -14.235 -11.771  28.146  1.00  0.00     0.019 C 
HETATM    8  C13 UNL     1     -12.318 -10.144  28.156  1.00  0.00     0.013 C 
HETATM    9  C14 UNL     1     -12.702  -9.257  29.324  1.00  0.00     0.010 C 
HETATM   10  C15 UNL     1     -13.368  -7.959  28.823  1.00  0.00     0.041 C 
HETATM   11  C16 UNL     1     -14.630  -8.259  28.002  1.00  0.00     0.095 C 
HETATM   12  C17 UNL     1     -15.070  -6.964  27.305  1.00  0.00     0.049 C 
HETATM   13  C18 UNL     1     -14.891  -5.638  28.102  1.00  0.00     0.025 C 
HETATM   14  C19 UNL     1     -16.015  -4.707  27.575  1.00  0.00     0.012 C 
HETATM   15  C20 UNL     1     -16.073  -3.260  28.094  1.00  0.00    -0.011 C 
HETATM   16  C24 UNL     1     -16.659  -3.254  29.508  1.00  0.00     0.005 C 
HETATM   17  C25 UNL     1     -15.646  -3.508  30.615  1.00  0.00     0.010 C 
HETATM   18  C26 UNL     1     -14.433  -4.414  30.306  1.00  0.00     0.050 C 
HETATM   19  C27 UNL     1     -13.608  -4.524  31.601  1.00  0.00     0.125 C 
HETATM   20  C28 UNL     1     -12.237  -5.134  31.330  1.00  0.00     0.033 C 
HETATM   21  C29 UNL     1     -12.247  -6.165  30.198  1.00  0.00     0.023 C 
HETATM   22  C30 UNL     1     -13.606  -6.897  29.987  1.00  0.00     0.051 C 
HETATM   23  C32 UNL     1     -14.746  -5.815  29.653  1.00  0.00     0.082 C 
HETATM   24  C33 UNL     1     -12.993 -11.127  25.950  1.00  0.00     0.036 C 
HETATM   25  C34 UNL     1     -12.684 -12.510  25.479  1.00  0.00    -0.035 C 
HETATM   26  C35 UNL     1     -12.958 -13.733  25.918  1.00  0.00     0.088 C 
HETATM   27  C36 UNL     1     -12.575 -14.648  24.838  1.00  0.00     0.284 C 
HETATM   28  O7  UNL     1     -12.678 -15.860  24.892  1.00  0.00    -0.260 OA
HETATM   29  O8  UNL     1     -12.136 -13.936  23.764  1.00  0.00    -0.304 OA
HETATM   30  C37 UNL     1     -12.010 -12.573  24.145  1.00  0.00     0.192 C 
ENDROOT
BRANCH   1  31
HETATM   31  C5  UNL     1     -12.228 -11.798  21.684  1.00  0.00     0.306 C 
BRANCH  31  32
HETATM   32  N1  UNL     1     -11.631 -10.612  21.078  1.00  0.00     0.087 N 
HETATM   33  H10 UNL     1     -10.812 -10.335  21.617  1.00  0.00     0.316 HD
BRANCH  32  34
HETATM   34  C4  UNL     1     -11.296 -10.721  19.662  1.00  0.00     0.272 C 
BRANCH  34  35
HETATM   35  C3  UNL     1      -9.923 -10.174  19.270  1.00  0.00     0.056 C 
BRANCH  35  36
HETATM   36  C2  UNL     1      -9.214  -9.455  20.412  1.00  0.00     0.168 C 
BRANCH  36  37
HETATM   37  O1  UNL     1      -8.046 -10.204  20.756  1.00  0.00    -0.396 OA
HETATM   38  C1  UNL     1      -8.120 -10.708  22.082  1.00  0.00     0.201 C 
ENDBRANCH  36  37
ENDBRANCH  35  36
ENDBRANCH  34  35
ENDBRANCH  32  34
ENDBRANCH  31  32
ENDBRANCH   1  31
BRANCH   5  39
HETATM   39  O2  UNL     1     -15.881 -10.034  26.934  1.00  0.00    -0.386 OA
HETATM   40  H17 UNL     1     -16.512  -9.299  26.805  1.00  0.00     0.210 HD
ENDBRANCH   5  39
BRANCH  11  41
HETATM   41  O3  UNL     1     -15.699  -8.549  28.922  1.00  0.00    -0.386 OA
HETATM   42  H26 UNL     1     -15.878  -9.512  28.889  1.00  0.00     0.210 HD
ENDBRANCH  11  41
BRANCH  22  43
HETATM   43  C31 UNL     1     -13.916  -7.668  31.295  1.00  0.00     0.244 C 
HETATM   44  O5  UNL     1     -13.078  -8.077  32.093  1.00  0.00    -0.306 OA
ENDBRANCH  22  43
BRANCH  23  45
HETATM   45  O6  UNL     1     -16.011  -6.239  30.161  1.00  0.00    -0.388 OA
HETATM   46  H52 UNL     1     -16.106  -7.201  29.957  1.00  0.00     0.210 HD
ENDBRANCH  23  45
BRANCH  15  47
HETATM   47  C21 UNL     1     -16.894  -2.373  27.103  1.00  0.00    -0.019 C 
HETATM   48  C22 UNL     1     -18.332  -2.851  26.878  1.00  0.00     0.010 C 
HETATM   49  C23 UNL     1     -16.894  -0.898  27.526  1.00  0.00     0.010 C 
ENDBRANCH  15  47
BRANCH  19  50
HETATM   50  O4  UNL     1     -14.259  -5.301  32.603  1.00  0.00    -0.395 OA
HETATM   51  H46 UNL     1     -15.177  -5.491  32.322  1.00  0.00     0.210 HD
ENDBRANCH  19  50
TORSDOF 12
ENDMDL
MODEL 2
REMARK minimizedAffinity -7.59811449
REMARK CNNscore 0.593579769
REMARK CNNaffinity 6.54418421
REMARK  12 active torsions:
REMARK  status: ('A' for Active; 'I' for Inactive)
REMARK    1  A    between atoms: O1_2  and  C2_3 
REMARK    2  A    between atoms: C2_3  and  C3_4 
REMARK    3  A    between atoms: C3_4  and  C4_5 
REMARK    4  A    between atoms: C4_5  and  N1_6 
REMARK    5  A    between atoms: N1_6  and  C5_7 
REMARK    6  A    between atoms: C5_7  and  C6_8 
REMARK    7  A    between atoms: C10_12  and  O2_13 
REMARK    8  A    between atoms: C16_19  and  O3_20 
REMARK    9  A    between atoms: C20_24  and  C21_25 
REMARK   10  A    between atoms: C27_31  and  O4_32 
REMARK   11  A    between atoms: C30_35  and  C31_36 
REMARK   12  A    between atoms: C32_38  and  O6_39 
ROOT
HETATM    1  C6  UNL     1     -10.968   7.713  14.297  1.00  0.00    -0.022 C 
HETATM    2  C7  UNL     1     -10.470   8.689  15.096  1.00  0.00    -0.014 C 
HETATM    3  C8  UNL     1     -11.373   9.566  15.928  1.00  0.00     0.021 C 
HETATM    4  C9  UNL     1     -10.909   9.981  17.325  1.00  0.00     0.051 C 
HETATM    5  C10 UNL     1     -12.157  10.723  17.862  1.00  0.00     0.098 C 
HETATM    6  C11 UNL     1     -13.371   9.833  17.348  1.00  0.00    -0.002 C 
HETATM    7  C12 UNL     1     -14.523  10.697  16.802  1.00  0.00     0.019 C 
HETATM    8  C13 UNL     1     -13.917   8.909  18.463  1.00  0.00     0.013 C 
HETATM    9  C14 UNL     1     -14.170   9.636  19.770  1.00  0.00     0.010 C 
HETATM   10  C15 UNL     1     -12.847  10.168  20.360  1.00  0.00     0.041 C 
HETATM   11  C16 UNL     1     -12.151  11.134  19.390  1.00  0.00     0.095 C 
HETATM   12  C17 UNL     1     -10.729  11.392  19.907  1.00  0.00     0.049 C 
HETATM   13  C18 UNL     1     -10.546  11.486  21.451  1.00  0.00     0.025 C 
HETATM   14  C19 UNL     1      -9.337  12.439  21.646  1.00  0.00     0.012 C 
HETATM   15  C20 UNL     1      -8.818  12.683  23.074  1.00  0.00    -0.011 C 
HETATM   16  C24 UNL     1      -9.763  13.650  23.795  1.00  0.00     0.005 C 
HETATM   17  C25 UNL     1     -10.967  12.988  24.449  1.00  0.00     0.010 C 
HETATM   18  C26 UNL     1     -11.547  11.712  23.798  1.00  0.00     0.050 C 
HETATM   19  C27 UNL     1     -12.766  11.289  24.639  1.00  0.00     0.125 C 
HETATM   20  C28 UNL     1     -13.223   9.880  24.274  1.00  0.00     0.033 C 
HETATM   21  C29 UNL     1     -13.006   9.537  22.797  1.00  0.00     0.023 C 
HETATM   22  C30 UNL     1     -13.019  10.759  21.830  1.00  0.00     0.051 C 
HETATM   23  C32 UNL     1     -11.859  11.786  22.254  1.00  0.00     0.082 C 
HETATM   24  C33 UNL     1     -12.719   8.898  16.260  1.00  0.00     0.036 C 
HETATM   25  C34 UNL     1     -13.286   8.428  14.961  1.00  0.00    -0.035 C 
HETATM   26  C35 UNL     1     -14.321   8.781  14.207  1.00  0.00     0.088 C 
HETATM   27  C36 UNL     1     -14.151   8.080  12.930  1.00  0.00     0.284 C 
HETATM   28  O7  UNL     1     -14.923   8.160  11.992  1.00  0.00    -0.260 OA
HETATM   29  O8  UNL     1     -12.988   7.373  12.943  1.00  0.00    -0.304 OA
HETATM   30  C37 UNL     1     -12.456   7.399  14.260  1.00  0.00     0.192 C 
ENDROOT
BRANCH   1  31
HETATM   31  C5  UNL     1     -10.069   6.927  13.375  1.00  0.00     0.306 C 
BRANCH  31  32
HETATM   32  N1  UNL     1      -9.343   5.850  14.041  1.00  0.00     0.087 N 
HETATM   33  H10 UNL     1      -9.907   5.003  14.024  1.00  0.00     0.316 HD
BRANCH  32  34
HETATM   34  C4  UNL     1      -8.001   5.580  13.536  1.00  0.00     0.272 C 
BRANCH  34  35
HETATM   35  C3  UNL     1      -7.805   4.202  12.903  1.00  0.00     0.056 C 
BRANCH  35  36
HETATM   36  C2  UNL     1      -6.348   3.756  12.872  1.00  0.00     0.168 C 
BRANCH  36  37
HETATM   37  O1  UNL     1      -6.110   3.089  11.630  1.00  0.00    -0.396 OA
HETATM   38  C1  UNL     1      -4.730   3.097  11.290  1.00  0.00     0.201 C 
ENDBRANCH  36  37
ENDBRANCH  35  36
ENDBRANCH  34  35
ENDBRANCH  32  34
ENDBRANCH  31  32
ENDBRANCH   1  31
BRANCH   5  39
HETATM   39  O2  UNL     1     -12.186  11.976  17.122  1.00  0.00    -0.386 OA
HETATM   40  H17 UNL     1     -11.502  12.565  17.496  1.00  0.00     0.210 HD
ENDBRANCH   5  39
BRANCH  11  41
HETATM   41  O3  UNL     1     -12.805  12.412  19.493  1.00  0.00    -0.386 OA
HETATM   42  H26 UNL     1     -13.341  12.547  18.683  1.00  0.00     0.210 HD
ENDBRANCH  11  41
BRANCH  22  43
HETATM   43  C31 UNL     1     -14.422  11.408  21.934  1.00  0.00     0.244 C 
HETATM   44  O5  UNL     1     -14.710  12.540  21.557  1.00  0.00    -0.306 OA
ENDBRANCH  22  43
BRANCH  23  45
HETATM   45  O6  UNL     1     -12.244  13.131  21.969  1.00  0.00    -0.388 OA
HETATM   46  H52 UNL     1     -12.667  13.136  21.077  1.00  0.00     0.210 HD
ENDBRANCH  23  45
BRANCH  15  47
HETATM   47  C21 UNL     1      -7.348  13.212  23.022  1.00  0.00    -0.019 C 
HETATM   48  C22 UNL     1      -6.766  13.308  21.608  1.00  0.00     0.010 C 
HETATM   49  C23 UNL     1      -7.203  14.561  23.739  1.00  0.00     0.010 C 
ENDBRANCH  15  47
BRANCH  19  50
HETATM   50  O4  UNL     1     -13.871  12.176  24.490  1.00  0.00    -0.395 OA
HETATM   51  H46 UNL     1     -13.586  12.970  23.994  1.00  0.00     0.210 HD
ENDBRANCH  19  50
TORSDOF 12
ENDMDL
MODEL 3
REMARK minimizedAffinity -9.30084705
REMARK CNNscore 0.465615481
REMARK CNNaffinity 6.7921524
REMARK  12 active torsions:
REMARK  status: ('A' for Active; 'I' for Inactive)
REMARK    1  A    between atoms: O1_2  and  C2_3 
REMARK    2  A    between atoms: C2_3  and  C3_4 
REMARK    3  A    between atoms: C3_4  and  C4_5 
REMARK    4  A    between atoms: C4_5  and  N1_6 
REMARK    5  A    between atoms: N1_6  and  C5_7 
REMARK    6  A    between atoms: C5_7  and  C6_8 
REMARK    7  A    between atoms: C10_12  and  O2_13 
REMARK    8  A    between atoms: C16_19  and  O3_20 
REMARK    9  A    between atoms: C20_24  and  C21_25 
REMARK   10  A    between atoms: C27_31  and  O4_32 
REMARK   11  A    between atoms: C30_35  and  C31_36 
REMARK   12  A    between atoms: C32_38  and  O6_39 
ROOT
HETATM    1  C6  UNL     1      -6.235   4.966  13.307  1.00  0.00    -0.022 C 
HETATM    2  C7  UNL     1      -6.069   5.712  14.428  1.00  0.00    -0.014 C 
HETATM    3  C8  UNL     1      -4.720   6.263  14.817  1.00  0.00     0.021 C 
HETATM    4  C9  UNL     1      -4.650   7.657  15.442  1.00  0.00     0.051 C 
HETATM    5  C10 UNL     1      -3.121   7.878  15.543  1.00  0.00     0.098 C 
HETATM    6  C11 UNL     1      -2.566   7.279  14.179  1.00  0.00    -0.002 C 
HETATM    7  C12 UNL     1      -1.291   6.443  14.398  1.00  0.00     0.019 C 
HETATM    8  C13 UNL     1      -2.269   8.390  13.143  1.00  0.00     0.013 C 
HETATM    9  C14 UNL     1      -1.454   9.535  13.713  1.00  0.00     0.010 C 
HETATM   10  C15 UNL     1      -2.248  10.272  14.811  1.00  0.00     0.041 C 
HETATM   11  C16 UNL     1      -2.627   9.324  15.958  1.00  0.00     0.095 C 
HETATM   12  C17 UNL     1      -3.643  10.039  16.858  1.00  0.00     0.049 C 
HETATM   13  C18 UNL     1      -3.440  11.568  17.074  1.00  0.00     0.025 C 
HETATM   14  C19 UNL     1      -4.030  11.848  18.481  1.00  0.00     0.012 C 
HETATM   15  C20 UNL     1      -4.077  13.302  18.982  1.00  0.00    -0.011 C 
HETATM   16  C24 UNL     1      -2.674  13.727  19.427  1.00  0.00     0.005 C 
HETATM   17  C25 UNL     1      -1.783  14.243  18.307  1.00  0.00     0.010 C 
HETATM   18  C26 UNL     1      -1.980  13.664  16.888  1.00  0.00     0.050 C 
HETATM   19  C27 UNL     1      -0.932  14.331  15.977  1.00  0.00     0.125 C 
HETATM   20  C28 UNL     1      -1.235  14.070  14.506  1.00  0.00     0.033 C 
HETATM   21  C29 UNL     1      -1.884  12.705  14.255  1.00  0.00     0.023 C 
HETATM   22  C30 UNL     1      -1.530  11.607  15.302  1.00  0.00     0.051 C 
HETATM   23  C32 UNL     1      -1.996  12.093  16.761  1.00  0.00     0.082 C 
HETATM   24  C33 UNL     1      -3.775   6.441  13.615  1.00  0.00     0.036 C 
HETATM   25  C34 UNL     1      -3.760   5.132  12.896  1.00  0.00    -0.035 C 
HETATM   26  C35 UNL     1      -2.858   4.175  12.710  1.00  0.00     0.088 C 
HETATM   27  C36 UNL     1      -3.582   3.042  12.126  1.00  0.00     0.284 C 
HETATM   28  O7  UNL     1      -3.069   1.984  11.811  1.00  0.00    -0.260 OA
HETATM   29  O8  UNL     1      -4.907   3.340  12.033  1.00  0.00    -0.304 OA
HETATM   30  C37 UNL     1      -5.086   4.715  12.344  1.00  0.00     0.192 C 
ENDROOT
BRANCH   1  31
HETATM   31  C5  UNL     1      -7.560   4.314  12.995  1.00  0.00     0.306 C 
BRANCH  31  32
HETATM   32  N1  UNL     1      -8.698   4.962  13.638  1.00  0.00     0.087 N 
HETATM   33  H10 UNL     1      -8.422   5.289  14.562  1.00  0.00     0.316 HD
BRANCH  32  34
HETATM   34  C4  UNL     1      -9.327   6.040  12.882  1.00  0.00     0.272 C 
BRANCH  34  35
HETATM   35  C3  UNL     1     -10.402   6.826  13.635  1.00  0.00     0.056 C 
BRANCH  35  36
HETATM   36  C2  UNL     1      -9.836   7.720  14.732  1.00  0.00     0.168 C 
BRANCH  36  37
HETATM   37  O1  UNL     1      -9.490   6.895  15.847  1.00  0.00    -0.396 OA
HETATM   38  C1  UNL     1      -8.377   7.419  16.557  1.00  0.00     0.201 C 
ENDBRANCH  36  37
ENDBRANCH  35  36
ENDBRANCH  34  35
ENDBRANCH  32  34
ENDBRANCH  31  32
ENDBRANCH   1  31
BRANCH   5  39
HETATM   39  O2  UNL     1      -2.692   6.996  16.618  1.00  0.00    -0.386 OA
HETATM   40  H17 UNL     1      -2.949   7.406  17.467  1.00  0.00     0.210 HD
ENDBRANCH   5  39
BRANCH  11  41
HETATM   41  O3  UNL     1      -1.466   9.155  16.794  1.00  0.00    -0.386 OA
HETATM   42  H26 UNL     1      -1.108   8.256  16.642  1.00  0.00     0.210 HD
ENDBRANCH  11  41
BRANCH  22  43
HETATM   43  C31 UNL     1       0.002  11.391  15.236  1.00  0.00     0.244 C 
HETATM   44  O5  UNL     1       0.675  10.816  16.087  1.00  0.00    -0.306 OA
ENDBRANCH  22  43
BRANCH  23  45
HETATM   45  O6  UNL     1      -1.122  11.584  17.768  1.00  0.00    -0.388 OA
HETATM   46  H52 UNL     1      -0.937  10.639  17.550  1.00  0.00     0.210 HD
ENDBRANCH  23  45
BRANCH  15  47
HETATM   47  C21 UNL     1      -5.133  13.437  20.126  1.00  0.00    -0.019 C 
HETATM   48  C22 UNL     1      -4.786  14.495  21.178  1.00  0.00     0.010 C 
HETATM   49  C23 UNL     1      -6.541  13.693  19.573  1.00  0.00     0.010 C 
ENDBRANCH  15  47
BRANCH  19  50
HETATM   50  O4  UNL     1       0.395  13.889  16.252  1.00  0.00    -0.395 OA
HETATM   51  H46 UNL     1       0.396  13.355  17.072  1.00  0.00     0.210 HD
ENDBRANCH  19  50
TORSDOF 12
ENDMDL
MODEL 4
REMARK minimizedAffinity -10.208519
REMARK CNNscore 0.411392897
REMARK CNNaffinity 7.31018448
REMARK  12 active torsions:
REMARK  status: ('A' for Active; 'I' for Inactive)
REMARK    1  A    between atoms: O1_2  and  C2_3 
REMARK    2  A    between atoms: C2_3  and  C3_4 
REMARK    3  A    between atoms: C3_4  and  C4_5 
REMARK    4  A    between atoms: C4_5  and  N1_6 
REMARK    5  A    between atoms: N1_6  and  C5_7 
REMARK    6  A    between atoms: C5_7  and  C6_8 
REMARK    7  A    between atoms: C10_12  and  O2_13 
REMARK    8  A    between atoms: C16_19  and  O3_20 
REMARK    9  A    between atoms: C20_24  and  C21_25 
REMARK   10  A    between atoms: C27_31  and  O4_32 
REMARK   11  A    between atoms: C30_35  and  C31_36 
REMARK   12  A    between atoms: C32_38  and  O6_39 
ROOT
HETATM    1  C6  UNL     1      -7.401   6.869  14.367  1.00  0.00    -0.022 C 
HETATM    2  C7  UNL     1      -6.292   7.116  15.109  1.00  0.00    -0.014 C 
HETATM    3  C8  UNL     1      -5.001   6.372  14.872  1.00  0.00     0.021 C 
HETATM    4  C9  UNL     1      -3.682   7.132  15.009  1.00  0.00     0.051 C 
HETATM    5  C10 UNL     1      -2.657   6.065  14.552  1.00  0.00     0.098 C 
HETATM    6  C11 UNL     1      -3.375   5.362  13.319  1.00  0.00    -0.002 C 
HETATM    7  C12 UNL     1      -3.209   3.832  13.357  1.00  0.00     0.019 C 
HETATM    8  C13 UNL     1      -2.843   5.895  11.966  1.00  0.00     0.013 C 
HETATM    9  C14 UNL     1      -1.329   5.923  11.889  1.00  0.00     0.010 C 
HETATM   10  C15 UNL     1      -0.751   6.917  12.918  1.00  0.00     0.041 C 
HETATM   11  C16 UNL     1      -1.161   6.541  14.349  1.00  0.00     0.095 C 
HETATM   12  C17 UNL     1      -0.803   7.711  15.275  1.00  0.00     0.049 C 
HETATM   13  C18 UNL     1       0.514   8.482  14.961  1.00  0.00     0.025 C 
HETATM   14  C19 UNL     1       0.998   9.010  16.337  1.00  0.00     0.012 C 
HETATM   15  C20 UNL     1       2.246   9.909  16.381  1.00  0.00    -0.011 C 
HETATM   16  C24 UNL     1       3.498   9.041  16.215  1.00  0.00     0.005 C 
HETATM   17  C25 UNL     1       3.878   8.746  14.771  1.00  0.00     0.010 C 
HETATM   18  C26 UNL     1       2.748   8.649  13.721  1.00  0.00     0.050 C 
HETATM   19  C27 UNL     1       3.412   8.309  12.372  1.00  0.00     0.125 C 
HETATM   20  C28 UNL     1       2.435   8.495  11.216  1.00  0.00     0.033 C 
HETATM   21  C29 UNL     1       0.985   8.178  11.593  1.00  0.00     0.023 C 
HETATM   22  C30 UNL     1       0.816   7.144  12.746  1.00  0.00     0.051 C 
HETATM   23  C32 UNL     1       1.539   7.700  14.069  1.00  0.00     0.082 C 
HETATM   24  C33 UNL     1      -4.874   5.833  13.436  1.00  0.00     0.036 C 
HETATM   25  C34 UNL     1      -6.125   5.066  13.163  1.00  0.00    -0.035 C 
HETATM   26  C35 UNL     1      -6.420   3.782  12.988  1.00  0.00     0.088 C 
HETATM   27  C36 UNL     1      -7.882   3.693  13.021  1.00  0.00     0.284 C 
HETATM   28  O7  UNL     1      -8.513   2.660  12.882  1.00  0.00    -0.260 OA
HETATM   29  O8  UNL     1      -8.415   4.920  13.270  1.00  0.00    -0.304 OA
HETATM   30  C37 UNL     1      -7.376   5.887  13.206  1.00  0.00     0.192 C 
ENDROOT
BRANCH   1  31
HETATM   31  C5  UNL     1      -8.719   7.526  14.694  1.00  0.00     0.306 C 
BRANCH  31  32
HETATM   32  N1  UNL     1      -9.812   6.579  14.890  1.00  0.00     0.087 N 
HETATM   33  H10 UNL     1      -9.795   6.238  15.850  1.00  0.00     0.316 HD
BRANCH  32  34
HETATM   34  C4  UNL     1     -11.145   7.065  14.546  1.00  0.00     0.272 C 
BRANCH  34  35
HETATM   35  C3  UNL     1     -11.331   7.484  13.087  1.00  0.00     0.056 C 
BRANCH  35  36
HETATM   36  C2  UNL     1     -11.584   8.978  12.918  1.00  0.00     0.168 C 
BRANCH  36  37
HETATM   37  O1  UNL     1     -12.759   9.146  12.120  1.00  0.00    -0.396 OA
HETATM   38  C1  UNL     1     -13.937   8.858  12.859  1.00  0.00     0.201 C 
ENDBRANCH  36  37
ENDBRANCH  35  36
ENDBRANCH  34  35
ENDBRANCH  32  34
ENDBRANCH  31  32
ENDBRANCH   1  31
BRANCH   5  39
HETATM   39  O2  UNL     1      -2.616   5.104  15.644  1.00  0.00    -0.386 OA
HETATM   40  H17 UNL     1      -2.095   5.494  16.372  1.00  0.00     0.210 HD
ENDBRANCH   5  39
BRANCH  11  41
HETATM   41  O3  UNL     1      -0.308   5.466  14.786  1.00  0.00    -0.386 OA
HETATM   42  H26 UNL     1      -0.837   4.641  14.797  1.00  0.00     0.210 HD
ENDBRANCH  11  41
BRANCH  22  43
HETATM   43  C31 UNL     1       1.452   5.816  12.264  1.00  0.00     0.244 C 
HETATM   44  O5  UNL     1       1.681   5.522  11.094  1.00  0.00    -0.306 OA
ENDBRANCH  22  43
BRANCH  23  45
HETATM   45  O6  UNL     1       2.063   6.626  14.850  1.00  0.00    -0.388 OA
HETATM   46  H52 UNL     1       1.380   5.912  14.869  1.00  0.00     0.210 HD
ENDBRANCH  23  45
BRANCH  15  47
HETATM   47  C21 UNL     1       2.262  10.733  17.708  1.00  0.00    -0.019 C 
HETATM   48  C22 UNL     1       2.844  12.143  17.564  1.00  0.00     0.010 C 
HETATM   49  C23 UNL     1       0.870  10.805  18.350  1.00  0.00     0.010 C 
ENDBRANCH  15  47
BRANCH  19  50
HETATM   50  O4  UNL     1       3.917   6.978  12.329  1.00  0.00    -0.395 OA
HETATM   51  H46 UNL     1       3.875   6.584  13.225  1.00  0.00     0.210 HD
ENDBRANCH  19  50
TORSDOF 12
ENDMDL
MODEL 5
REMARK minimizedAffinity -7.19509602
REMARK CNNscore 0.399051696
REMARK CNNaffinity 5.60364389
REMARK  12 active torsions:
REMARK  status: ('A' for Active; 'I' for Inactive)
REMARK    1  A    between atoms: O1_2  and  C2_3 
REMARK    2  A    between atoms: C2_3  and  C3_4 
REMARK    3  A    between atoms: C3_4  and  C4_5 
REMARK    4  A    between atoms: C4_5  and  N1_6 
REMARK    5  A    between atoms: N1_6  and  C5_7 
REMARK    6  A    between atoms: C5_7  and  C6_8 
REMARK    7  A    between atoms: C10_12  and  O2_13 
REMARK    8  A    between atoms: C16_19  and  O3_20 
REMARK    9  A    between atoms: C20_24  and  C21_25 
REMARK   10  A    between atoms: C27_31  and  O4_32 
REMARK   11  A    between atoms: C30_35  and  C31_36 
REMARK   12  A    between atoms: C32_38  and  O6_39 
ROOT
HETATM    1  C6  UNL     1     -16.373   0.605  13.016  1.00  0.00    -0.022 C 
HETATM    2  C7  UNL     1     -17.153   1.634  12.599  1.00  0.00    -0.014 C 
HETATM    3  C8  UNL     1     -17.304   2.893  13.416  1.00  0.00     0.021 C 
HETATM    4  C9  UNL     1     -17.391   4.234  12.687  1.00  0.00     0.051 C 
HETATM    5  C10 UNL     1     -17.390   5.234  13.869  1.00  0.00     0.098 C 
HETATM    6  C11 UNL     1     -16.322   4.620  14.875  1.00  0.00    -0.002 C 
HETATM    7  C12 UNL     1     -16.809   4.681  16.335  1.00  0.00     0.019 C 
HETATM    8  C13 UNL     1     -14.955   5.338  14.769  1.00  0.00     0.013 C 
HETATM    9  C14 UNL     1     -15.070   6.850  14.808  1.00  0.00     0.010 C 
HETATM   10  C15 UNL     1     -15.844   7.367  13.578  1.00  0.00     0.041 C 
HETATM   11  C16 UNL     1     -17.257   6.771  13.515  1.00  0.00     0.095 C 
HETATM   12  C17 UNL     1     -17.855   7.094  12.139  1.00  0.00     0.049 C 
HETATM   13  C18 UNL     1     -17.510   8.485  11.530  1.00  0.00     0.025 C 
HETATM   14  C19 UNL     1     -18.733   8.839  10.643  1.00  0.00     0.012 C 
HETATM   15  C20 UNL     1     -18.684  10.130   9.806  1.00  0.00    -0.011 C 
HETATM   16  C24 UNL     1     -18.933  11.333  10.720  1.00  0.00     0.005 C 
HETATM   17  C25 UNL     1     -17.691  11.858  11.427  1.00  0.00     0.010 C 
HETATM   18  C26 UNL     1     -16.573  10.855  11.789  1.00  0.00     0.050 C 
HETATM   19  C27 UNL     1     -15.473  11.647  12.521  1.00  0.00     0.125 C 
HETATM   20  C28 UNL     1     -14.195  10.825  12.646  1.00  0.00     0.033 C 
HETATM   21  C29 UNL     1     -14.454   9.323  12.800  1.00  0.00     0.023 C 
HETATM   22  C30 UNL     1     -15.819   8.955  13.455  1.00  0.00     0.051 C 
HETATM   23  C32 UNL     1     -17.015   9.554  12.563  1.00  0.00     0.082 C 
HETATM   24  C33 UNL     1     -16.107   3.151  14.348  1.00  0.00     0.036 C 
HETATM   25  C34 UNL     1     -15.901   1.893  15.125  1.00  0.00    -0.035 C 
HETATM   26  C35 UNL     1     -16.057   1.538  16.396  1.00  0.00     0.088 C 
HETATM   27  C36 UNL     1     -15.923   0.079  16.430  1.00  0.00     0.284 C 
HETATM   28  O7  UNL     1     -16.000  -0.597  17.440  1.00  0.00    -0.260 OA
HETATM   29  O8  UNL     1     -15.746  -0.399  15.168  1.00  0.00    -0.304 OA
HETATM   30  C37 UNL     1     -15.549   0.701  14.291  1.00  0.00     0.192 C 
ENDROOT
BRANCH   1  31
HETATM   31  C5  UNL     1     -16.329  -0.697  12.256  1.00  0.00     0.306 C 
BRANCH  31  32
HETATM   32  N1  UNL     1     -14.976  -1.191  12.017  1.00  0.00     0.087 N 
HETATM   33  H10 UNL     1     -14.304  -0.526  12.395  1.00  0.00     0.316 HD
BRANCH  32  34
HETATM   34  C4  UNL     1     -14.695  -2.536  12.506  1.00  0.00     0.272 C 
BRANCH  34  35
HETATM   35  C3  UNL     1     -13.809  -3.390  11.599  1.00  0.00     0.056 C 
BRANCH  35  36
HETATM   36  C2  UNL     1     -13.812  -2.926  10.147  1.00  0.00     0.168 C 
BRANCH  36  37
HETATM   37  O1  UNL     1     -15.113  -3.161   9.604  1.00  0.00    -0.396 OA
HETATM   38  C1  UNL     1     -15.385  -4.551   9.484  1.00  0.00     0.201 C 
ENDBRANCH  36  37
ENDBRANCH  35  36
ENDBRANCH  34  35
ENDBRANCH  32  34
ENDBRANCH  31  32
ENDBRANCH   1  31
BRANCH   5  39
HETATM   39  O2  UNL     1     -18.703   5.086  14.478  1.00  0.00    -0.386 OA
HETATM   40  H17 UNL     1     -19.353   5.543  13.910  1.00  0.00     0.210 HD
ENDBRANCH   5  39
BRANCH  11  41
HETATM   41  O3  UNL     1     -18.086   7.496  14.443  1.00  0.00    -0.386 OA
HETATM   42  H26 UNL     1     -18.259   6.918  15.215  1.00  0.00     0.210 HD
ENDBRANCH  11  41
BRANCH  22  43
HETATM   43  C31 UNL     1     -15.817   9.556  14.883  1.00  0.00     0.244 C 
HETATM   44  O5  UNL     1     -14.816   9.892  15.510  1.00  0.00    -0.306 OA
ENDBRANCH  22  43
BRANCH  23  45
HETATM   45  O6  UNL     1     -18.127   9.913  13.383  1.00  0.00    -0.388 OA
HETATM   46  H52 UNL     1     -18.258   9.188  14.041  1.00  0.00     0.210 HD
ENDBRANCH  23  45
BRANCH  15  47
HETATM   47  C21 UNL     1     -19.717  10.045   8.636  1.00  0.00    -0.019 C 
HETATM   48  C22 UNL     1     -19.124  10.339   7.254  1.00  0.00     0.010 C 
HETATM   49  C23 UNL     1     -20.444   8.693   8.616  1.00  0.00     0.010 C 
ENDBRANCH  15  47
BRANCH  19  50
HETATM   50  O4  UNL     1     -15.872  12.066  13.823  1.00  0.00    -0.395 OA
HETATM   51  H46 UNL     1     -16.828  11.895  13.941  1.00  0.00     0.210 HD
ENDBRANCH  19  50
TORSDOF 12
ENDMDL
MODEL 6
REMARK minimizedAffinity -7.11577368
REMARK CNNscore 0.39328739
REMARK CNNaffinity 6.32677841
REMARK  12 active torsions:
REMARK  status: ('A' for Active; 'I' for Inactive)
REMARK    1  A    between atoms: O1_2  and  C2_3 
REMARK    2  A    between atoms: C2_3  and  C3_4 
REMARK    3  A    between atoms: C3_4  and  C4_5 
REMARK    4  A    between atoms: C4_5  and  N1_6 
REMARK    5  A    between atoms: N1_6  and  C5_7 
REMARK    6  A    between atoms: C5_7  and  C6_8 
REMARK    7  A    between atoms: C10_12  and  O2_13 
REMARK    8  A    between atoms: C16_19  and  O3_20 
REMARK    9  A    between atoms: C20_24  and  C21_25 
REMARK   10  A    between atoms: C27_31  and  O4_32 
REMARK   11  A    between atoms: C30_35  and  C31_36 
REMARK   12  A    between atoms: C32_38  and  O6_39 
ROOT
HETATM    1  C6  UNL     1      -2.496  15.324  15.374  1.00  0.00    -0.022 C 
HETATM    2  C7  UNL     1      -1.694  14.326  14.925  1.00  0.00    -0.014 C 
HETATM    3  C8  UNL     1      -1.759  12.936  15.508  1.00  0.00     0.021 C 
HETATM    4  C9  UNL     1      -1.588  11.740  14.572  1.00  0.00     0.051 C 
HETATM    5  C10 UNL     1      -1.863  10.553  15.527  1.00  0.00     0.098 C 
HETATM    6  C11 UNL     1      -3.079  11.063  16.415  1.00  0.00    -0.002 C 
HETATM    7  C12 UNL     1      -2.890  10.712  17.902  1.00  0.00     0.019 C 
HETATM    8  C13 UNL     1      -4.429  10.482  15.927  1.00  0.00     0.013 C 
HETATM    9  C14 UNL     1      -4.388   8.982  15.706  1.00  0.00     0.010 C 
HETATM   10  C15 UNL     1      -3.412   8.629  14.565  1.00  0.00     0.041 C 
HETATM   11  C16 UNL     1      -1.989   9.116  14.876  1.00  0.00     0.095 C 
HETATM   12  C17 UNL     1      -1.148   8.992  13.598  1.00  0.00     0.049 C 
HETATM   13  C18 UNL     1      -1.426   7.758  12.688  1.00  0.00     0.025 C 
HETATM   14  C19 UNL     1      -0.070   7.471  11.991  1.00  0.00     0.012 C 
HETATM   15  C20 UNL     1      -0.010   6.353  10.935  1.00  0.00    -0.011 C 
HETATM   16  C24 UNL     1       0.004   4.993  11.641  1.00  0.00     0.005 C 
HETATM   17  C25 UNL     1      -1.373   4.451  11.997  1.00  0.00     0.010 C 
HETATM   18  C26 UNL     1      -2.496   5.459  12.327  1.00  0.00     0.050 C 
HETATM   19  C27 UNL     1      -3.751   4.640  12.683  1.00  0.00     0.125 C 
HETATM   20  C28 UNL     1      -4.993   5.524  12.721  1.00  0.00     0.033 C 
HETATM   21  C29 UNL     1      -4.705   6.951  13.196  1.00  0.00     0.023 C 
HETATM   22  C30 UNL     1      -3.480   7.093  14.148  1.00  0.00     0.051 C 
HETATM   23  C32 UNL     1      -2.160   6.567  13.396  1.00  0.00     0.082 C 
HETATM   24  C33 UNL     1      -3.125  12.613  16.139  1.00  0.00     0.036 C 
HETATM   25  C34 UNL     1      -3.425  13.730  17.084  1.00  0.00    -0.035 C 
HETATM   26  C35 UNL     1      -3.505  13.844  18.405  1.00  0.00     0.088 C 
HETATM   27  C36 UNL     1      -3.580  15.282  18.685  1.00  0.00     0.284 C 
HETATM   28  O7  UNL     1      -3.673  15.763  19.799  1.00  0.00    -0.260 OA
HETATM   29  O8  UNL     1      -3.487  15.984  17.522  1.00  0.00    -0.304 OA
HETATM   30  C37 UNL     1      -3.556  15.072  16.435  1.00  0.00     0.192 C 
ENDROOT
BRANCH   1  31
HETATM   31  C5  UNL     1      -2.335  16.738  14.874  1.00  0.00     0.306 C 
BRANCH  31  32
HETATM   32  N1  UNL     1      -2.434  16.861  13.423  1.00  0.00     0.087 N 
HETATM   33  H10 UNL     1      -3.327  17.286  13.181  1.00  0.00     0.316 HD
BRANCH  32  34
HETATM   34  C4  UNL     1      -1.339  17.568  12.768  1.00  0.00     0.272 C 
BRANCH  34  35
HETATM   35  C3  UNL     1      -0.971  17.057  11.374  1.00  0.00     0.056 C 
BRANCH  35  36
HETATM   36  C2  UNL     1       0.524  16.821  11.195  1.00  0.00     0.168 C 
BRANCH  36  37
HETATM   37  O1  UNL     1       0.809  15.466  11.551  1.00  0.00    -0.396 OA
HETATM   38  C1  UNL     1       1.885  15.385  12.476  1.00  0.00     0.201 C 
ENDBRANCH  36  37
ENDBRANCH  35  36
ENDBRANCH  34  35
ENDBRANCH  32  34
ENDBRANCH  31  32
ENDBRANCH   1  31
BRANCH   5  39
HETATM   39  O2  UNL     1      -0.688  10.491  16.384  1.00  0.00    -0.386 OA
HETATM   40  H17 UNL     1       0.040  10.091  15.871  1.00  0.00     0.210 HD
ENDBRANCH   5  39
BRANCH  11  41
HETATM   41  O3  UNL     1      -1.390   8.178  15.789  1.00  0.00    -0.386 OA
HETATM   42  H26 UNL     1      -1.346   8.599  16.674  1.00  0.00     0.210 HD
ENDBRANCH  11  41
BRANCH  22  43
HETATM   43  C31 UNL     1      -3.786   6.255  15.414  1.00  0.00     0.244 C 
HETATM   44  O5  UNL     1      -4.908   5.946  15.806  1.00  0.00    -0.306 OA
ENDBRANCH  22  43
BRANCH  23  45
HETATM   45  O6  UNL     1      -1.245   5.987  14.326  1.00  0.00    -0.388 OA
HETATM   46  H52 UNL     1      -1.215   6.574  15.119  1.00  0.00     0.210 HD
ENDBRANCH  23  45
BRANCH  15  47
HETATM   47  C21 UNL     1       1.234   6.560  10.012  1.00  0.00    -0.019 C 
HETATM   48  C22 UNL     1       1.515   8.024   9.658  1.00  0.00     0.010 C 
HETATM   49  C23 UNL     1       2.494   5.915  10.604  1.00  0.00     0.010 C 
ENDBRANCH  15  47
BRANCH  19  50
HETATM   50  O4  UNL     1      -3.632   3.971  13.936  1.00  0.00    -0.395 OA
HETATM   51  H46 UNL     1      -2.711   4.044  14.258  1.00  0.00     0.210 HD
ENDBRANCH  19  50
TORSDOF 12
ENDMDL
MODEL 7
REMARK minimizedAffinity -7.05886078
REMARK CNNscore 0.375681639
REMARK CNNaffinity 6.23580217
REMARK  12 active torsions:
REMARK  status: ('A' for Active; 'I' for Inactive)
REMARK    1  A    between atoms: O1_2  and  C2_3 
REMARK    2  A    between atoms: C2_3  and  C3_4 
REMARK    3  A    between atoms: C3_4  and  C4_5 
REMARK    4  A    between atoms: C4_5  and  N1_6 
REMARK    5  A    between atoms: N1_6  and  C5_7 
REMARK    6  A    between atoms: C5_7  and  C6_8 
REMARK    7  A    between atoms: C10_12  and  O2_13 
REMARK    8  A    between atoms: C16_19  and  O3_20 
REMARK    9  A    between atoms: C20_24  and  C21_25 
REMARK   10  A    between atoms: C27_31  and  O4_32 
REMARK   11  A    between atoms: C30_35  and  C31_36 
REMARK   12  A    between atoms: C32_38  and  O6_39 
ROOT
HETATM    1  C6  UNL     1     -14.059   3.562  24.573  1.00  0.00    -0.022 C 
HETATM    2  C7  UNL     1     -14.012   4.270  23.417  1.00  0.00    -0.014 C 
HETATM    3  C8  UNL     1     -14.273   5.755  23.389  1.00  0.00     0.021 C 
HETATM    4  C9  UNL     1     -13.449   6.627  22.441  1.00  0.00     0.051 C 
HETATM    5  C10 UNL     1     -13.922   8.048  22.831  1.00  0.00     0.098 C 
HETATM    6  C11 UNL     1     -14.031   7.984  24.416  1.00  0.00    -0.002 C 
HETATM    7  C12 UNL     1     -15.308   8.673  24.931  1.00  0.00     0.019 C 
HETATM    8  C13 UNL     1     -12.800   8.623  25.102  1.00  0.00     0.013 C 
HETATM    9  C14 UNL     1     -12.449   9.989  24.544  1.00  0.00     0.010 C 
HETATM   10  C15 UNL     1     -12.018   9.877  23.067  1.00  0.00     0.041 C 
HETATM   11  C16 UNL     1     -13.134   9.269  22.204  1.00  0.00     0.095 C 
HETATM   12  C17 UNL     1     -12.545   8.925  20.830  1.00  0.00     0.049 C 
HETATM   13  C18 UNL     1     -11.486   9.909  20.250  1.00  0.00     0.025 C 
HETATM   14  C19 UNL     1     -11.641   9.790  18.710  1.00  0.00     0.012 C 
HETATM   15  C20 UNL     1     -10.667  10.572  17.812  1.00  0.00    -0.011 C 
HETATM   16  C24 UNL     1     -11.076  12.048  17.791  1.00  0.00     0.005 C 
HETATM   17  C25 UNL     1     -10.524  12.874  18.945  1.00  0.00     0.010 C 
HETATM   18  C26 UNL     1     -10.293  12.175  20.303  1.00  0.00     0.050 C 
HETATM   19  C27 UNL     1      -9.774  13.246  21.282  1.00  0.00     0.125 C 
HETATM   20  C28 UNL     1      -9.222  12.608  22.552  1.00  0.00     0.033 C 
HETATM   21  C29 UNL     1      -9.956  11.326  22.953  1.00  0.00     0.023 C 
HETATM   22  C30 UNL     1     -11.440  11.244  22.487  1.00  0.00     0.051 C 
HETATM   23  C32 UNL     1     -11.499  11.342  20.884  1.00  0.00     0.082 C 
HETATM   24  C33 UNL     1     -13.980   6.442  24.735  1.00  0.00     0.036 C 
HETATM   25  C34 UNL     1     -14.729   5.669  25.771  1.00  0.00    -0.035 C 
HETATM   26  C35 UNL     1     -15.778   5.914  26.547  1.00  0.00     0.088 C 
HETATM   27  C36 UNL     1     -16.150   4.629  27.146  1.00  0.00     0.284 C 
HETATM   28  O7  UNL     1     -17.071   4.472  27.927  1.00  0.00    -0.260 OA
HETATM   29  O8  UNL     1     -15.343   3.644  26.664  1.00  0.00    -0.304 OA
HETATM   30  C37 UNL     1     -14.298   4.243  25.911  1.00  0.00     0.192 C 
ENDROOT
BRANCH   1  31
HETATM   31  C5  UNL     1     -13.922   2.059  24.572  1.00  0.00     0.306 C 
BRANCH  31  32
HETATM   32  N1  UNL     1     -12.552   1.595  24.378  1.00  0.00     0.087 N 
HETATM   33  H10 UNL     1     -12.116   2.133  23.632  1.00  0.00     0.316 HD
BRANCH  32  34
HETATM   34  C4  UNL     1     -11.706   1.595  25.568  1.00  0.00     0.272 C 
BRANCH  34  35
HETATM   35  C3  UNL     1     -12.441   1.391  26.893  1.00  0.00     0.056 C 
BRANCH  35  36
HETATM   36  C2  UNL     1     -11.611   1.789  28.108  1.00  0.00     0.168 C 
BRANCH  36  37
HETATM   37  O1  UNL     1     -12.231   2.921  28.723  1.00  0.00    -0.396 OA
HETATM   38  C1  UNL     1     -13.449   2.566  29.361  1.00  0.00     0.201 C 
ENDBRANCH  36  37
ENDBRANCH  35  36
ENDBRANCH  34  35
ENDBRANCH  32  34
ENDBRANCH  31  32
ENDBRANCH   1  31
BRANCH   5  39
HETATM   39  O2  UNL     1     -15.274   8.144  22.301  1.00  0.00    -0.386 OA
HETATM   40  H17 UNL     1     -15.212   8.279  21.335  1.00  0.00     0.210 HD
ENDBRANCH   5  39
BRANCH  11  41
HETATM   41  O3  UNL     1     -14.096  10.305  21.931  1.00  0.00    -0.386 OA
HETATM   42  H26 UNL     1     -14.898  10.126  22.465  1.00  0.00     0.210 HD
ENDBRANCH  11  41
BRANCH  22  43
HETATM   43  C31 UNL     1     -12.195  12.418  23.158  1.00  0.00     0.244 C 
HETATM   44  O5  UNL     1     -11.812  13.034  24.149  1.00  0.00    -0.306 OA
ENDBRANCH  22  43
BRANCH  23  45
HETATM   45  O6  UNL     1     -12.698  11.993  20.460  1.00  0.00    -0.388 OA
HETATM   46  H52 UNL     1     -13.439  11.633  21.004  1.00  0.00     0.210 HD
ENDBRANCH  23  45
BRANCH  15  47
HETATM   47  C21 UNL     1     -10.638   9.940  16.383  1.00  0.00    -0.019 C 
HETATM   48  C22 UNL     1     -10.096  10.875  15.295  1.00  0.00     0.010 C 
HETATM   49  C23 UNL     1      -9.866   8.614  16.363  1.00  0.00     0.010 C 
ENDBRANCH  15  47
BRANCH  19  50
HETATM   50  O4  UNL     1     -10.778  14.188  21.646  1.00  0.00    -0.395 OA
HETATM   51  H46 UNL     1     -11.568  14.057  21.084  1.00  0.00     0.210 HD
ENDBRANCH  19  50
TORSDOF 12
ENDMDL
MODEL 8
REMARK minimizedAffinity -6.86013985
REMARK CNNscore 0.358173788
REMARK CNNaffinity 5.89845657
REMARK  12 active torsions:
REMARK  status: ('A' for Active; 'I' for Inactive)
REMARK    1  A    between atoms: O1_2  and  C2_3 
REMARK    2  A    between atoms: C2_3  and  C3_4 
REMARK    3  A    between atoms: C3_4  and  C4_5 
REMARK    4  A    between atoms: C4_5  and  N1_6 
REMARK    5  A    between atoms: N1_6  and  C5_7 
REMARK    6  A    between atoms: C5_7  and  C6_8 
REMARK    7  A    between atoms: C10_12  and  O2_13 
REMARK    8  A    between atoms: C16_19  and  O3_20 
REMARK    9  A    between atoms: C20_24  and  C21_25 
REMARK   10  A    between atoms: C27_31  and  O4_32 
REMARK   11  A    between atoms: C30_35  and  C31_36 
REMARK   12  A    between atoms: C32_38  and  O6_39 
ROOT
HETATM    1  C6  UNL     1     -14.086   4.973  23.087  1.00  0.00    -0.022 C 
HETATM    2  C7  UNL     1     -14.593   5.301  21.872  1.00  0.00    -0.014 C 
HETATM    3  C8  UNL     1     -14.583   6.723  21.369  1.00  0.00     0.021 C 
HETATM    4  C9  UNL     1     -14.318   6.974  19.885  1.00  0.00     0.051 C 
HETATM    5  C10 UNL     1     -14.252   8.520  19.835  1.00  0.00     0.098 C 
HETATM    6  C11 UNL     1     -13.449   8.901  21.154  1.00  0.00    -0.002 C 
HETATM    7  C12 UNL     1     -14.077  10.106  21.878  1.00  0.00     0.019 C 
HETATM    8  C13 UNL     1     -11.963   9.213  20.851  1.00  0.00     0.013 C 
HETATM    9  C14 UNL     1     -11.779  10.175  19.693  1.00  0.00     0.010 C 
HETATM   10  C15 UNL     1     -12.289   9.547  18.380  1.00  0.00     0.041 C 
HETATM   11  C16 UNL     1     -13.777   9.179  18.477  1.00  0.00     0.095 C 
HETATM   12  C17 UNL     1     -14.138   8.311  17.263  1.00  0.00     0.049 C 
HETATM   13  C18 UNL     1     -13.456   8.673  15.910  1.00  0.00     0.025 C 
HETATM   14  C19 UNL     1     -14.474   8.231  14.827  1.00  0.00     0.012 C 
HETATM   15  C20 UNL     1     -14.074   8.361  13.346  1.00  0.00    -0.011 C 
HETATM   16  C24 UNL     1     -14.181   9.829  12.923  1.00  0.00     0.005 C 
HETATM   17  C25 UNL     1     -12.949  10.668  13.230  1.00  0.00     0.010 C 
HETATM   18  C26 UNL     1     -12.102  10.300  14.469  1.00  0.00     0.050 C 
HETATM   19  C27 UNL     1     -10.956  11.327  14.555  1.00  0.00     0.125 C 
HETATM   20  C28 UNL     1      -9.890  10.879  15.549  1.00  0.00     0.033 C 
HETATM   21  C29 UNL     1     -10.459  10.088  16.731  1.00  0.00     0.023 C 
HETATM   22  C30 UNL     1     -11.935  10.424  17.097  1.00  0.00     0.051 C 
HETATM   23  C32 UNL     1     -12.878  10.128  15.830  1.00  0.00     0.082 C 
HETATM   24  C33 UNL     1     -13.472   7.577  22.006  1.00  0.00     0.036 C 
HETATM   25  C34 UNL     1     -13.610   7.411  23.484  1.00  0.00    -0.035 C 
HETATM   26  C35 UNL     1     -13.978   8.201  24.487  1.00  0.00     0.088 C 
HETATM   27  C36 UNL     1     -14.142   7.329  25.653  1.00  0.00     0.284 C 
HETATM   28  O7  UNL     1     -14.466   7.713  26.762  1.00  0.00    -0.260 OA
HETATM   29  O8  UNL     1     -13.921   6.034  25.296  1.00  0.00    -0.304 OA
HETATM   30  C37 UNL     1     -13.410   6.010  23.970  1.00  0.00     0.192 C 
ENDROOT
BRANCH   1  31
HETATM   31  C5  UNL     1     -14.216   3.573  23.633  1.00  0.00     0.306 C 
BRANCH  31  32
HETATM   32  N1  UNL     1     -13.097   2.703  23.287  1.00  0.00     0.087 N 
HETATM   33  H10 UNL     1     -12.728   2.974  22.378  1.00  0.00     0.316 HD
BRANCH  32  34
HETATM   34  C4  UNL     1     -12.022   2.626  24.271  1.00  0.00     0.272 C 
BRANCH  34  35
HETATM   35  C3  UNL     1     -12.080   1.421  25.211  1.00  0.00     0.056 C 
BRANCH  35  36
HETATM   36  C2  UNL     1     -12.797   1.715  26.523  1.00  0.00     0.168 C 
BRANCH  36  37
HETATM   37  O1  UNL     1     -11.935   1.339  27.599  1.00  0.00    -0.396 OA
HETATM   38  C1  UNL     1     -11.939   2.311  28.635  1.00  0.00     0.201 C 
ENDBRANCH  36  37
ENDBRANCH  35  36
ENDBRANCH  34  35
ENDBRANCH  32  34
ENDBRANCH  31  32
ENDBRANCH   1  31
BRANCH   5  39
HETATM   39  O2  UNL     1     -15.629   8.953  20.018  1.00  0.00    -0.386 OA
HETATM   40  H17 UNL     1     -16.106   8.807  19.178  1.00  0.00     0.210 HD
ENDBRANCH   5  39
BRANCH  11  41
HETATM   41  O3  UNL     1     -14.544  10.384  18.295  1.00  0.00    -0.386 OA
HETATM   42  H26 UNL     1     -14.916  10.643  19.164  1.00  0.00     0.210 HD
ENDBRANCH  11  41
BRANCH  22  43
HETATM   43  C31 UNL     1     -11.976  11.919  17.501  1.00  0.00     0.244 C 
HETATM   44  O5  UNL     1     -11.005  12.588  17.843  1.00  0.00    -0.306 OA
ENDBRANCH  22  43
BRANCH  23  45
HETATM   45  O6  UNL     1     -13.983  11.032  15.798  1.00  0.00    -0.388 OA
HETATM   46  H52 UNL     1     -14.329  11.110  16.720  1.00  0.00     0.210 HD
ENDBRANCH  23  45
BRANCH  15  47
HETATM   47  C21 UNL     1     -14.964   7.420  12.471  1.00  0.00    -0.019 C 
HETATM   48  C22 UNL     1     -15.584   6.249  13.240  1.00  0.00     0.010 C 
HETATM   49  C23 UNL     1     -16.061   8.199  11.732  1.00  0.00     0.010 C 
ENDBRANCH  15  47
BRANCH  19  50
HETATM   50  O4  UNL     1     -11.409  12.625  14.930  1.00  0.00    -0.395 OA
HETATM   51  H46 UNL     1     -12.388  12.645  14.915  1.00  0.00     0.210 HD
ENDBRANCH  19  50
TORSDOF 12
ENDMDL
MODEL 9
REMARK minimizedAffinity -7.98243189
REMARK CNNscore 0.292451292
REMARK CNNaffinity 6.92620993
REMARK  12 active torsions:
REMARK  status: ('A' for Active; 'I' for Inactive)
REMARK    1  A    between atoms: O1_2  and  C2_3 
REMARK    2  A    between atoms: C2_3  and  C3_4 
REMARK    3  A    between atoms: C3_4  and  C4_5 
REMARK    4  A    between atoms: C4_5  and  N1_6 
REMARK    5  A    between atoms: N1_6  and  C5_7 
REMARK    6  A    between atoms: C5_7  and  C6_8 
REMARK    7  A    between atoms: C10_12  and  O2_13 
REMARK    8  A    between atoms: C16_19  and  O3_20 
REMARK    9  A    between atoms: C20_24  and  C21_25 
REMARK   10  A    between atoms: C27_31  and  O4_32 
REMARK   11  A    between atoms: C30_35  and  C31_36 
REMARK   12  A    between atoms: C32_38  and  O6_39 
ROOT
HETATM    1  C6  UNL     1      -3.157   5.501  13.787  1.00  0.00    -0.022 C 
HETATM    2  C7  UNL     1      -2.330   5.849  14.804  1.00  0.00    -0.014 C 
HETATM    3  C8  UNL     1      -0.884   6.205  14.559  1.00  0.00     0.021 C 
HETATM    4  C9  UNL     1      -0.255   7.326  15.386  1.00  0.00     0.051 C 
HETATM    5  C10 UNL     1       1.142   7.454  14.730  1.00  0.00     0.098 C 
HETATM    6  C11 UNL     1       0.840   7.297  13.177  1.00  0.00    -0.002 C 
HETATM    7  C12 UNL     1       1.874   6.393  12.481  1.00  0.00     0.019 C 
HETATM    8  C13 UNL     1       0.803   8.668  12.459  1.00  0.00     0.013 C 
HETATM    9  C14 UNL     1       1.994   9.547  12.790  1.00  0.00     0.010 C 
HETATM   10  C15 UNL     1       1.990   9.925  14.285  1.00  0.00     0.041 C 
HETATM   11  C16 UNL     1       2.041   8.676  15.178  1.00  0.00     0.095 C 
HETATM   12  C17 UNL     1       1.746   9.105  16.622  1.00  0.00     0.049 C 
HETATM   13  C18 UNL     1       2.316  10.480  17.080  1.00  0.00     0.025 C 
HETATM   14  C19 UNL     1       2.548  10.320  18.606  1.00  0.00     0.012 C 
HETATM   15  C20 UNL     1       3.029  11.542  19.407  1.00  0.00    -0.011 C 
HETATM   16  C24 UNL     1       4.523  11.758  19.149  1.00  0.00     0.005 C 
HETATM   17  C25 UNL     1       4.840  12.572  17.903  1.00  0.00     0.010 C 
HETATM   18  C26 UNL     1       3.873  12.478  16.701  1.00  0.00     0.050 C 
HETATM   19  C27 UNL     1       4.454  13.363  15.581  1.00  0.00     0.125 C 
HETATM   20  C28 UNL     1       3.432  13.589  14.473  1.00  0.00     0.033 C 
HETATM   21  C29 UNL     1       2.496  12.396  14.260  1.00  0.00     0.023 C 
HETATM   22  C30 UNL     1       3.095  11.012  14.652  1.00  0.00     0.051 C 
HETATM   23  C32 UNL     1       3.497  11.028  16.207  1.00  0.00     0.082 C 
HETATM   24  C33 UNL     1      -0.626   6.722  13.133  1.00  0.00     0.036 C 
HETATM   25  C34 UNL     1      -1.211   5.707  12.207  1.00  0.00    -0.035 C 
HETATM   26  C35 UNL     1      -0.715   4.828  11.343  1.00  0.00     0.088 C 
HETATM   27  C36 UNL     1      -1.833   3.962  10.956  1.00  0.00     0.284 C 
HETATM   28  O7  UNL     1      -1.750   3.040  10.165  1.00  0.00    -0.260 OA
HETATM   29  O8  UNL     1      -2.952   4.317  11.645  1.00  0.00    -0.304 OA
HETATM   30  C37 UNL     1      -2.691   5.529  12.339  1.00  0.00     0.192 C 
ENDROOT
BRANCH   1  31
HETATM   31  C5  UNL     1      -4.564   5.025  14.055  1.00  0.00     0.306 C 
BRANCH  31  32
HETATM   32  N1  UNL     1      -5.450   5.133  12.901  1.00  0.00     0.087 N 
HETATM   33  H10 UNL     1      -4.908   5.414  12.086  1.00  0.00     0.316 HD
BRANCH  32  34
HETATM   34  C4  UNL     1      -6.249   3.950  12.599  1.00  0.00     0.272 C 
BRANCH  34  35
HETATM   35  C3  UNL     1      -7.738   4.066  12.924  1.00  0.00     0.056 C 
BRANCH  35  36
HETATM   36  C2  UNL     1      -8.197   5.504  13.135  1.00  0.00     0.168 C 
BRANCH  36  37
HETATM   37  O1  UNL     1      -7.991   5.843  14.509  1.00  0.00    -0.396 OA
HETATM   38  C1  UNL     1      -8.164   7.235  14.734  1.00  0.00     0.201 C 
ENDBRANCH  36  37
ENDBRANCH  35  36
ENDBRANCH  34  35
ENDBRANCH  32  34
ENDBRANCH  31  32
ENDBRANCH   1  31
BRANCH   5  39
HETATM   39  O2  UNL     1       1.860   6.263  15.161  1.00  0.00    -0.386 OA
HETATM   40  H17 UNL     1       2.130   6.393  16.090  1.00  0.00     0.210 HD
ENDBRANCH   5  39
BRANCH  11  41
HETATM   41  O3  UNL     1       3.404   8.214  15.215  1.00  0.00    -0.386 OA
HETATM   42  H26 UNL     1       3.465   7.398  14.676  1.00  0.00     0.210 HD
ENDBRANCH  11  41
BRANCH  22  43
HETATM   43  C31 UNL     1       4.330  10.777  13.746  1.00  0.00     0.244 C 
HETATM   44  O5  UNL     1       4.550  11.350  12.683  1.00  0.00    -0.306 OA
ENDBRANCH  22  43
BRANCH  23  45
HETATM   45  O6  UNL     1       4.634  10.198  16.446  1.00  0.00    -0.388 OA
HETATM   46  H52 UNL     1       4.506   9.365  15.932  1.00  0.00     0.210 HD
ENDBRANCH  23  45
BRANCH  15  47
HETATM   47  C21 UNL     1       2.707  11.344  20.924  1.00  0.00    -0.019 C 
HETATM   48  C22 UNL     1       2.603   9.877  21.356  1.00  0.00     0.010 C 
HETATM   49  C23 UNL     1       3.710  12.083  21.820  1.00  0.00     0.010 C 
ENDBRANCH  15  47
BRANCH  19  50
HETATM   50  O4  UNL     1       5.635  12.813  15.004  1.00  0.00    -0.395 OA
HETATM   51  H46 UNL     1       5.932  12.047  15.537  1.00  0.00     0.210 HD
ENDBRANCH  19  50
TORSDOF 12
ENDMDL
