MODEL 1
REMARK minimizedAffinity -9.06859493
REMARK  10 active torsions:
REMARK  status: ('A' for Active; 'I' for Inactive)
REMARK    1  A    between atoms: C12_14  and  C13_15 
REMARK    2  A    between atoms: C13_15  and  C15_17 
REMARK    3  A    between atoms: C15_17  and  C16_18 
REMARK    4  A    between atoms: C16_18  and  C17_19 
REMARK    5  A    between atoms: C18_20  and  C20_22 
REMARK    6  A    between atoms: C20_22  and  O3_23 
REMARK    7  A    between atoms: C26_29  and  C27_30 
REMARK    8  A    between atoms: C27_30  and  C28_31 
REMARK    9  A    between atoms: C28_31  and  C29_32 
REMARK   10  A    between atoms: C29_32  and  O5_34 
ROOT
HETATM    1  C1  UNL     1       0.672  54.490 -24.015  1.00  0.00     0.025 C 
HETATM    2  C2  UNL     1       0.712  53.452 -23.171  1.00  0.00     0.015 C 
HETATM    3  C3  UNL     1       1.142  53.636 -21.763  1.00  0.00     0.289 C 
HETATM    4  O1  UNL     1       1.714  54.603 -21.298  1.00  0.00    -0.260 OA
HETATM    5  O2  UNL     1       0.810  52.500 -21.084  1.00  0.00    -0.311 OA
HETATM    6  C4  UNL     1      -0.013  51.658 -21.915  1.00  0.00     0.142 C 
HETATM    7  C5  UNL     1      -1.474  51.909 -21.563  1.00  0.00     0.039 C 
HETATM    8  C6  UNL     1      -2.498  51.180 -22.445  1.00  0.00     0.006 C 
HETATM    9  C7  UNL     1      -2.125  51.152 -23.957  1.00  0.00    -0.027 A 
HETATM   10  C8  UNL     1      -3.087  50.312 -24.833  1.00  0.00     0.011 C 
HETATM   11  C9  UNL     1      -3.617  49.003 -24.222  1.00  0.00     0.011 C 
HETATM   12  C10 UNL     1      -4.105  49.214 -22.784  1.00  0.00    -0.032 C 
HETATM   13  C11 UNL     1      -5.328  50.177 -22.818  1.00  0.00     0.016 C 
HETATM   14  C12 UNL     1      -4.481  47.920 -21.995  1.00  0.00    -0.002 C 
HETATM   15  C21 UNL     1      -4.267  48.328 -20.515  1.00  0.00     0.006 C 
HETATM   16  C22 UNL     1      -3.436  49.632 -20.521  1.00  0.00     0.011 C 
HETATM   17  C23 UNL     1      -2.875  49.747 -21.951  1.00  0.00    -0.032 C 
HETATM   18  C24 UNL     1      -1.613  48.828 -22.011  1.00  0.00     0.016 C 
HETATM   19  C25 UNL     1      -1.847  52.479 -24.627  1.00  0.00     0.022 A 
HETATM   20  C26 UNL     1      -0.670  51.566 -24.394  1.00  0.00    -0.021 A 
HETATM   21  C31 UNL     1       0.357  52.009 -23.344  1.00  0.00     0.063 C 
ENDROOT
BRANCH  14  22
HETATM   22  C13 UNL     1      -5.817  47.175 -22.324  1.00  0.00    -0.014 C 
HETATM   23  C14 UNL     1      -5.766  45.781 -21.666  1.00  0.00     0.010 C 
BRANCH  22  24
HETATM   24  C15 UNL     1      -7.109  47.907 -21.882  1.00  0.00     0.008 C 
BRANCH  24  25
HETATM   25  C16 UNL     1      -8.365  47.554 -22.694  1.00  0.00     0.028 C 
BRANCH  25  26
HETATM   26  C17 UNL     1      -8.466  48.218 -24.039  1.00  0.00    -0.022 C 
HETATM   27  C18 UNL     1      -9.416  48.009 -24.975  1.00  0.00    -0.064 C 
HETATM   28  C19 UNL     1     -10.517  46.992 -24.862  1.00  0.00     0.045 C 
BRANCH  27  29
HETATM   29  C20 UNL     1      -9.420  48.789 -26.265  1.00  0.00     0.197 C 
BRANCH  29  30
HETATM   30  O3  UNL     1      -9.633  50.162 -25.972  1.00  0.00    -0.397 OA
HETATM   31  H29 UNL     1      -8.985  50.399 -25.285  1.00  0.00     0.209 HD
ENDBRANCH  29  30
ENDBRANCH  27  29
ENDBRANCH  25  26
ENDBRANCH  24  25
ENDBRANCH  22  24
ENDBRANCH  14  22
BRANCH  20  32
HETATM   32  C27 UNL     1      -0.026  50.826 -25.579  1.00  0.00     0.021 C 
BRANCH  32  33
HETATM   33  C28 UNL     1       1.275  51.442 -26.099  1.00  0.00     0.112 C 
BRANCH  33  34
HETATM   34  C29 UNL     1       1.149  52.254 -27.364  1.00  0.00     0.258 C 
HETATM   35  O4  UNL     1       1.532  51.860 -28.462  1.00  0.00    -0.265 OA
BRANCH  34  36
HETATM   36  O5  UNL     1       0.615  53.480 -27.129  1.00  0.00    -0.326 OA
HETATM   37  C30 UNL     1      -0.518  53.784 -27.942  1.00  0.00     0.213 C 
ENDBRANCH  34  36
ENDBRANCH  33  34
ENDBRANCH  32  33
ENDBRANCH  20  32
TORSDOF 10
ENDMDL
MODEL 2
REMARK minimizedAffinity -9.05675793
REMARK  10 active torsions:
REMARK  status: ('A' for Active; 'I' for Inactive)
REMARK    1  A    between atoms: C12_14  and  C13_15 
REMARK    2  A    between atoms: C13_15  and  C15_17 
REMARK    3  A    between atoms: C15_17  and  C16_18 
REMARK    4  A    between atoms: C16_18  and  C17_19 
REMARK    5  A    between atoms: C18_20  and  C20_22 
REMARK    6  A    between atoms: C20_22  and  O3_23 
REMARK    7  A    between atoms: C26_29  and  C27_30 
REMARK    8  A    between atoms: C27_30  and  C28_31 
REMARK    9  A    between atoms: C28_31  and  C29_32 
REMARK   10  A    between atoms: C29_32  and  O5_34 
ROOT
HETATM    1  C1  UNL     1       1.060  54.317 -22.463  1.00  0.00     0.025 C 
HETATM    2  C2  UNL     1       0.813  53.080 -22.015  1.00  0.00     0.015 C 
HETATM    3  C3  UNL     1       0.988  52.746 -20.579  1.00  0.00     0.289 C 
HETATM    4  O1  UNL     1       1.575  53.408 -19.745  1.00  0.00    -0.260 OA
HETATM    5  O2  UNL     1       0.399  51.534 -20.369  1.00  0.00    -0.311 OA
HETATM    6  C4  UNL     1      -0.348  51.145 -21.538  1.00  0.00     0.142 C 
HETATM    7  C5  UNL     1      -1.808  51.529 -21.331  1.00  0.00     0.039 C 
HETATM    8  C6  UNL     1      -2.727  51.297 -22.540  1.00  0.00     0.006 C 
HETATM    9  C7  UNL     1      -2.081  51.667 -23.907  1.00  0.00    -0.027 A 
HETATM   10  C8  UNL     1      -2.955  51.318 -25.138  1.00  0.00     0.011 C 
HETATM   11  C9  UNL     1      -3.745  49.999 -25.075  1.00  0.00     0.011 C 
HETATM   12  C10 UNL     1      -4.468  49.843 -23.732  1.00  0.00    -0.032 C 
HETATM   13  C11 UNL     1      -5.536  50.970 -23.616  1.00  0.00     0.016 C 
HETATM   14  C12 UNL     1      -5.141  48.457 -23.477  1.00  0.00    -0.002 C 
HETATM   15  C21 UNL     1      -5.162  48.349 -21.931  1.00  0.00     0.006 C 
HETATM   16  C22 UNL     1      -4.194  49.425 -21.388  1.00  0.00     0.011 C 
HETATM   17  C23 UNL     1      -3.362  49.871 -22.606  1.00  0.00    -0.032 C 
HETATM   18  C24 UNL     1      -2.233  48.807 -22.790  1.00  0.00     0.016 C 
HETATM   19  C25 UNL     1      -1.522  53.065 -24.054  1.00  0.00     0.022 A 
HETATM   20  C26 UNL     1      -0.530  51.932 -23.974  1.00  0.00    -0.021 A 
HETATM   21  C31 UNL     1       0.325  51.846 -22.704  1.00  0.00     0.063 C 
ENDROOT
BRANCH  14  22
HETATM   22  C13 UNL     1      -6.470  48.096 -24.218  1.00  0.00    -0.014 C 
HETATM   23  C14 UNL     1      -7.528  49.158 -23.855  1.00  0.00     0.010 C 
BRANCH  22  24
HETATM   24  C15 UNL     1      -6.360  47.983 -25.759  1.00  0.00     0.008 C 
BRANCH  24  25
HETATM   25  C16 UNL     1      -4.924  47.964 -26.307  1.00  0.00     0.028 C 
BRANCH  25  26
HETATM   26  C17 UNL     1      -4.793  48.287 -27.769  1.00  0.00    -0.022 C 
HETATM   27  C18 UNL     1      -5.595  47.859 -28.767  1.00  0.00    -0.064 C 
HETATM   28  C19 UNL     1      -6.737  46.897 -28.592  1.00  0.00     0.045 C 
BRANCH  27  29
HETATM   29  C20 UNL     1      -5.372  48.308 -30.189  1.00  0.00     0.197 C 
BRANCH  29  30
HETATM   30  O3  UNL     1      -4.643  49.526 -30.178  1.00  0.00    -0.397 OA
HETATM   31  H29 UNL     1      -3.867  49.375 -29.609  1.00  0.00     0.209 HD
ENDBRANCH  29  30
ENDBRANCH  27  29
ENDBRANCH  25  26
ENDBRANCH  24  25
ENDBRANCH  22  24
ENDBRANCH  14  22
BRANCH  20  32
HETATM   32  C27 UNL     1       0.232  51.489 -25.235  1.00  0.00     0.021 C 
BRANCH  32  33
HETATM   33  C28 UNL     1      -0.382  51.952 -26.559  1.00  0.00     0.112 C 
BRANCH  33  34
HETATM   34  C29 UNL     1       0.341  53.081 -27.251  1.00  0.00     0.258 C 
HETATM   35  O4  UNL     1      -0.207  54.124 -27.594  1.00  0.00    -0.265 OA
BRANCH  34  36
HETATM   36  O5  UNL     1       1.643  52.779 -27.488  1.00  0.00    -0.326 OA
HETATM   37  C30 UNL     1       2.056  51.526 -26.943  1.00  0.00     0.213 C 
ENDBRANCH  34  36
ENDBRANCH  33  34
ENDBRANCH  32  33
ENDBRANCH  20  32
TORSDOF 10
ENDMDL
MODEL 3
REMARK minimizedAffinity -8.96142197
REMARK  10 active torsions:
REMARK  status: ('A' for Active; 'I' for Inactive)
REMARK    1  A    between atoms: C12_14  and  C13_15 
REMARK    2  A    between atoms: C13_15  and  C15_17 
REMARK    3  A    between atoms: C15_17  and  C16_18 
REMARK    4  A    between atoms: C16_18  and  C17_19 
REMARK    5  A    between atoms: C18_20  and  C20_22 
REMARK    6  A    between atoms: C20_22  and  O3_23 
REMARK    7  A    between atoms: C26_29  and  C27_30 
REMARK    8  A    between atoms: C27_30  and  C28_31 
REMARK    9  A    between atoms: C28_31  and  C29_32 
REMARK   10  A    between atoms: C29_32  and  O5_34 
ROOT
HETATM    1  C1  UNL     1      -2.280  52.485 -26.684  1.00  0.00     0.025 C 
HETATM    2  C2  UNL     1      -1.279  52.106 -25.881  1.00  0.00     0.015 C 
HETATM    3  C3  UNL     1      -0.023  52.894 -25.812  1.00  0.00     0.289 C 
HETATM    4  O1  UNL     1       0.340  53.753 -26.592  1.00  0.00    -0.260 OA
HETATM    5  O2  UNL     1       0.676  52.451 -24.727  1.00  0.00    -0.311 OA
HETATM    6  C4  UNL     1      -0.146  51.563 -23.946  1.00  0.00     0.142 C 
HETATM    7  C5  UNL     1      -0.777  52.359 -22.810  1.00  0.00     0.039 C 
HETATM    8  C6  UNL     1      -1.788  51.588 -21.948  1.00  0.00     0.006 C 
HETATM    9  C7  UNL     1      -2.722  50.645 -22.761  1.00  0.00    -0.027 A 
HETATM   10  C8  UNL     1      -3.658  49.772 -21.888  1.00  0.00     0.011 C 
HETATM   11  C9  UNL     1      -3.065  49.211 -20.584  1.00  0.00     0.011 C 
HETATM   12  C10 UNL     1      -2.311  50.292 -19.801  1.00  0.00    -0.032 C 
HETATM   13  C11 UNL     1      -3.333  51.379 -19.356  1.00  0.00     0.016 C 
HETATM   14  C12 UNL     1      -1.501  49.796 -18.561  1.00  0.00    -0.002 C 
HETATM   15  C21 UNL     1      -0.384  50.861 -18.415  1.00  0.00     0.006 C 
HETATM   16  C22 UNL     1      -0.345  51.661 -19.736  1.00  0.00     0.011 C 
HETATM   17  C23 UNL     1      -1.159  50.823 -20.741  1.00  0.00    -0.032 C 
HETATM   18  C24 UNL     1      -0.201  49.709 -21.273  1.00  0.00     0.016 C 
HETATM   19  C25 UNL     1      -3.508  51.259 -23.899  1.00  0.00     0.022 A 
HETATM   20  C26 UNL     1      -2.375  50.332 -24.264  1.00  0.00    -0.021 A 
HETATM   21  C31 UNL     1      -1.143  50.966 -24.922  1.00  0.00     0.063 C 
ENDROOT
BRANCH  14  22
HETATM   22  C13 UNL     1      -2.259  49.399 -17.252  1.00  0.00    -0.014 C 
HETATM   23  C14 UNL     1      -1.314  48.537 -16.390  1.00  0.00     0.010 C 
BRANCH  22  24
HETATM   24  C15 UNL     1      -2.790  50.585 -16.409  1.00  0.00     0.008 C 
BRANCH  24  25
HETATM   25  C16 UNL     1      -2.286  50.626 -14.958  1.00  0.00     0.028 C 
BRANCH  25  26
HETATM   26  C17 UNL     1      -3.129  51.434 -14.010  1.00  0.00    -0.022 C 
HETATM   27  C18 UNL     1      -2.693  52.169 -12.966  1.00  0.00    -0.064 C 
HETATM   28  C19 UNL     1      -1.261  52.244 -12.512  1.00  0.00     0.045 C 
BRANCH  27  29
HETATM   29  C20 UNL     1      -3.653  52.974 -12.128  1.00  0.00     0.197 C 
BRANCH  29  30
HETATM   30  O3  UNL     1      -4.324  53.905 -12.963  1.00  0.00    -0.397 OA
HETATM   31  H29 UNL     1      -4.675  53.396 -13.715  1.00  0.00     0.209 HD
ENDBRANCH  29  30
ENDBRANCH  27  29
ENDBRANCH  25  26
ENDBRANCH  24  25
ENDBRANCH  22  24
ENDBRANCH  14  22
BRANCH  20  32
HETATM   32  C27 UNL     1      -2.679  48.924 -24.806  1.00  0.00     0.021 C 
BRANCH  32  33
HETATM   33  C28 UNL     1      -2.681  48.803 -26.332  1.00  0.00     0.112 C 
BRANCH  33  34
HETATM   34  C29 UNL     1      -4.008  48.447 -26.954  1.00  0.00     0.258 C 
HETATM   35  O4  UNL     1      -5.004  48.151 -26.301  1.00  0.00    -0.265 OA
BRANCH  34  36
HETATM   36  O5  UNL     1      -3.947  48.446 -28.311  1.00  0.00    -0.326 OA
HETATM   37  C30 UNL     1      -5.201  48.203 -28.948  1.00  0.00     0.213 C 
ENDBRANCH  34  36
ENDBRANCH  33  34
ENDBRANCH  32  33
ENDBRANCH  20  32
TORSDOF 10
ENDMDL
MODEL 4
REMARK minimizedAffinity -8.91906166
REMARK  10 active torsions:
REMARK  status: ('A' for Active; 'I' for Inactive)
REMARK    1  A    between atoms: C12_14  and  C13_15 
REMARK    2  A    between atoms: C13_15  and  C15_17 
REMARK    3  A    between atoms: C15_17  and  C16_18 
REMARK    4  A    between atoms: C16_18  and  C17_19 
REMARK    5  A    between atoms: C18_20  and  C20_22 
REMARK    6  A    between atoms: C20_22  and  O3_23 
REMARK    7  A    between atoms: C26_29  and  C27_30 
REMARK    8  A    between atoms: C27_30  and  C28_31 
REMARK    9  A    between atoms: C28_31  and  C29_32 
REMARK   10  A    between atoms: C29_32  and  O5_34 
ROOT
HETATM    1  C1  UNL     1      -3.303  48.936 -27.320  1.00  0.00     0.025 C 
HETATM    2  C2  UNL     1      -4.049  49.250 -26.254  1.00  0.00     0.015 C 
HETATM    3  C3  UNL     1      -5.238  48.437 -25.895  1.00  0.00     0.289 C 
HETATM    4  O1  UNL     1      -5.798  47.618 -26.598  1.00  0.00    -0.260 OA
HETATM    5  O2  UNL     1      -5.617  48.803 -24.637  1.00  0.00    -0.311 OA
HETATM    6  C4  UNL     1      -4.614  49.659 -24.055  1.00  0.00     0.142 C 
HETATM    7  C5  UNL     1      -3.698  48.810 -23.183  1.00  0.00     0.039 C 
HETATM    8  C6  UNL     1      -2.491  49.548 -22.583  1.00  0.00     0.006 C 
HETATM    9  C7  UNL     1      -1.814  50.553 -23.560  1.00  0.00    -0.027 A 
HETATM   10  C8  UNL     1      -0.677  51.390 -22.921  1.00  0.00     0.011 C 
HETATM   11  C9  UNL     1      -0.894  51.864 -21.474  1.00  0.00     0.011 C 
HETATM   12  C10 UNL     1      -1.407  50.726 -20.583  1.00  0.00    -0.032 C 
HETATM   13  C11 UNL     1      -0.301  49.633 -20.498  1.00  0.00     0.016 C 
HETATM   14  C12 UNL     1      -1.850  51.135 -19.143  1.00  0.00    -0.002 C 
HETATM   15  C21 UNL     1      -2.884  50.044 -18.763  1.00  0.00     0.006 C 
HETATM   16  C22 UNL     1      -3.280  49.321 -20.071  1.00  0.00     0.011 C 
HETATM   17  C23 UNL     1      -2.770  50.230 -21.206  1.00  0.00    -0.032 C 
HETATM   18  C24 UNL     1      -3.838  51.355 -21.390  1.00  0.00     0.016 C 
HETATM   19  C25 UNL     1      -1.367  50.020 -24.903  1.00  0.00     0.022 A 
HETATM   20  C26 UNL     1      -2.557  50.946 -24.890  1.00  0.00    -0.021 A 
HETATM   21  C31 UNL     1      -3.921  50.330 -25.227  1.00  0.00     0.063 C 
ENDROOT
BRANCH  14  22
HETATM   22  C13 UNL     1      -0.765  51.469 -18.066  1.00  0.00    -0.014 C 
HETATM   23  C14 UNL     1      -0.014  50.168 -17.720  1.00  0.00     0.010 C 
BRANCH  22  24
HETATM   24  C15 UNL     1       0.255  52.562 -18.471  1.00  0.00     0.008 C 
BRANCH  24  25
HETATM   25  C16 UNL     1       1.620  52.467 -17.773  1.00  0.00     0.028 C 
BRANCH  25  26
HETATM   26  C17 UNL     1       1.573  52.061 -16.327  1.00  0.00    -0.022 C 
HETATM   27  C18 UNL     1       2.614  51.998 -15.470  1.00  0.00    -0.064 C 
HETATM   28  C19 UNL     1       4.048  52.251 -15.847  1.00  0.00     0.045 C 
BRANCH  27  29
HETATM   29  C20 UNL     1       2.409  51.622 -14.024  1.00  0.00     0.197 C 
BRANCH  29  30
HETATM   30  O3  UNL     1       2.917  52.662 -13.202  1.00  0.00    -0.397 OA
HETATM   31  H29 UNL     1       2.523  53.489 -13.530  1.00  0.00     0.209 HD
ENDBRANCH  29  30
ENDBRANCH  27  29
ENDBRANCH  25  26
ENDBRANCH  24  25
ENDBRANCH  22  24
ENDBRANCH  14  22
BRANCH  20  32
HETATM   32  C27 UNL     1      -2.413  52.388 -25.408  1.00  0.00     0.021 C 
BRANCH  32  33
HETATM   33  C28 UNL     1      -1.315  52.595 -26.454  1.00  0.00     0.112 C 
BRANCH  33  34
HETATM   34  C29 UNL     1      -0.150  53.448 -26.015  1.00  0.00     0.258 C 
HETATM   35  O4  UNL     1      -0.253  54.370 -25.212  1.00  0.00    -0.265 OA
BRANCH  34  36
HETATM   36  O5  UNL     1       0.998  53.103 -26.652  1.00  0.00    -0.326 OA
HETATM   37  C30 UNL     1       1.480  51.803 -26.314  1.00  0.00     0.213 C 
ENDBRANCH  34  36
ENDBRANCH  33  34
ENDBRANCH  32  33
ENDBRANCH  20  32
TORSDOF 10
ENDMDL
MODEL 5
REMARK minimizedAffinity -8.76651096
REMARK  10 active torsions:
REMARK  status: ('A' for Active; 'I' for Inactive)
REMARK    1  A    between atoms: C12_14  and  C13_15 
REMARK    2  A    between atoms: C13_15  and  C15_17 
REMARK    3  A    between atoms: C15_17  and  C16_18 
REMARK    4  A    between atoms: C16_18  and  C17_19 
REMARK    5  A    between atoms: C18_20  and  C20_22 
REMARK    6  A    between atoms: C20_22  and  O3_23 
REMARK    7  A    between atoms: C26_29  and  C27_30 
REMARK    8  A    between atoms: C27_30  and  C28_31 
REMARK    9  A    between atoms: C28_31  and  C29_32 
REMARK   10  A    between atoms: C29_32  and  O5_34 
ROOT
HETATM    1  C1  UNL     1      -3.577  50.008 -16.930  1.00  0.00     0.025 C 
HETATM    2  C2  UNL     1      -3.422  49.035 -17.836  1.00  0.00     0.015 C 
HETATM    3  C3  UNL     1      -4.266  47.815 -17.791  1.00  0.00     0.289 C 
HETATM    4  O1  UNL     1      -4.961  47.446 -16.863  1.00  0.00    -0.260 OA
HETATM    5  O2  UNL     1      -4.093  47.156 -18.972  1.00  0.00    -0.311 OA
HETATM    6  C4  UNL     1      -3.348  47.982 -19.887  1.00  0.00     0.142 C 
HETATM    7  C5  UNL     1      -4.331  48.699 -20.803  1.00  0.00     0.039 C 
HETATM    8  C6  UNL     1      -3.709  49.723 -21.765  1.00  0.00     0.006 C 
HETATM    9  C7  UNL     1      -2.574  50.579 -21.130  1.00  0.00    -0.027 A 
HETATM   10  C8  UNL     1      -1.858  51.524 -22.127  1.00  0.00     0.011 C 
HETATM   11  C9  UNL     1      -1.609  50.977 -23.544  1.00  0.00     0.011 C 
HETATM   12  C10 UNL     1      -2.864  50.305 -24.112  1.00  0.00    -0.032 C 
HETATM   13  C11 UNL     1      -3.970  51.389 -24.277  1.00  0.00     0.016 C 
HETATM   14  C12 UNL     1      -2.676  49.541 -25.461  1.00  0.00    -0.002 C 
HETATM   15  C21 UNL     1      -3.800  48.474 -25.428  1.00  0.00     0.006 C 
HETATM   16  C22 UNL     1      -4.309  48.398 -23.970  1.00  0.00     0.011 C 
HETATM   17  C23 UNL     1      -3.242  49.128 -23.131  1.00  0.00    -0.032 C 
HETATM   18  C24 UNL     1      -2.090  48.102 -22.885  1.00  0.00     0.016 C 
HETATM   19  C25 UNL     1      -2.900  51.328 -19.856  1.00  0.00     0.022 A 
HETATM   20  C26 UNL     1      -1.972  50.143 -19.741  1.00  0.00    -0.021 A 
HETATM   21  C31 UNL     1      -2.514  48.905 -19.018  1.00  0.00     0.063 C 
ENDROOT
BRANCH  14  22
HETATM   22  C13 UNL     1      -2.524  50.349 -26.792  1.00  0.00    -0.014 C 
HETATM   23  C14 UNL     1      -3.526  49.781 -27.817  1.00  0.00     0.010 C 
BRANCH  22  24
HETATM   24  C15 UNL     1      -2.728  51.879 -26.664  1.00  0.00     0.008 C 
BRANCH  24  25
HETATM   25  C16 UNL     1      -1.496  52.729 -27.010  1.00  0.00     0.028 C 
BRANCH  25  26
HETATM   26  C17 UNL     1      -0.203  52.259 -26.405  1.00  0.00    -0.022 C 
HETATM   27  C18 UNL     1       0.908  51.872 -27.068  1.00  0.00    -0.064 C 
HETATM   28  C19 UNL     1       1.016  51.764 -28.564  1.00  0.00     0.045 C 
BRANCH  27  29
HETATM   29  C20 UNL     1       2.156  51.472 -26.324  1.00  0.00     0.197 C 
BRANCH  29  30
HETATM   30  O3  UNL     1       3.239  51.413 -27.241  1.00  0.00    -0.397 OA
HETATM   31  H29 UNL     1       3.234  52.257 -27.725  1.00  0.00     0.209 HD
ENDBRANCH  29  30
ENDBRANCH  27  29
ENDBRANCH  25  26
ENDBRANCH  24  25
ENDBRANCH  22  24
ENDBRANCH  14  22
BRANCH  20  32
HETATM   32  C27 UNL     1      -0.470  50.367 -19.495  1.00  0.00     0.021 C 
BRANCH  32  33
HETATM   33  C28 UNL     1       0.217  51.310 -20.487  1.00  0.00     0.112 C 
BRANCH  33  34
HETATM   34  C29 UNL     1       0.681  52.627 -19.916  1.00  0.00     0.258 C 
HETATM   35  O4  UNL     1       0.137  53.182 -18.967  1.00  0.00    -0.265 OA
BRANCH  34  36
HETATM   36  O5  UNL     1       1.731  53.137 -20.611  1.00  0.00    -0.326 OA
HETATM   37  C30 UNL     1       1.391  54.245 -21.444  1.00  0.00     0.213 C 
ENDBRANCH  34  36
ENDBRANCH  33  34
ENDBRANCH  32  33
ENDBRANCH  20  32
TORSDOF 10
ENDMDL
MODEL 6
REMARK minimizedAffinity -8.52248192
REMARK  10 active torsions:
REMARK  status: ('A' for Active; 'I' for Inactive)
REMARK    1  A    between atoms: C12_14  and  C13_15 
REMARK    2  A    between atoms: C13_15  and  C15_17 
REMARK    3  A    between atoms: C15_17  and  C16_18 
REMARK    4  A    between atoms: C16_18  and  C17_19 
REMARK    5  A    between atoms: C18_20  and  C20_22 
REMARK    6  A    between atoms: C20_22  and  O3_23 
REMARK    7  A    between atoms: C26_29  and  C27_30 
REMARK    8  A    between atoms: C27_30  and  C28_31 
REMARK    9  A    between atoms: C28_31  and  C29_32 
REMARK   10  A    between atoms: C29_32  and  O5_34 
ROOT
HETATM    1  C1  UNL     1      -2.592  52.186 -27.350  1.00  0.00     0.025 C 
HETATM    2  C2  UNL     1      -1.613  51.908 -26.480  1.00  0.00     0.015 C 
HETATM    3  C3  UNL     1      -0.408  52.770 -26.394  1.00  0.00     0.289 C 
HETATM    4  O1  UNL     1      -0.054  53.607 -27.202  1.00  0.00    -0.260 OA
HETATM    5  O2  UNL     1       0.259  52.426 -25.255  1.00  0.00    -0.311 OA
HETATM    6  C4  UNL     1      -0.552  51.533 -24.466  1.00  0.00     0.142 C 
HETATM    7  C5  UNL     1      -1.283  52.349 -23.407  1.00  0.00     0.039 C 
HETATM    8  C6  UNL     1      -2.293  51.566 -22.554  1.00  0.00     0.006 C 
HETATM    9  C7  UNL     1      -3.131  50.530 -23.358  1.00  0.00    -0.027 A 
HETATM   10  C8  UNL     1      -4.060  49.650 -22.484  1.00  0.00     0.011 C 
HETATM   11  C9  UNL     1      -3.504  49.193 -21.124  1.00  0.00     0.011 C 
HETATM   12  C10 UNL     1      -2.851  50.355 -20.367  1.00  0.00    -0.032 C 
HETATM   13  C11 UNL     1      -3.954  51.403 -20.031  1.00  0.00     0.016 C 
HETATM   14  C12 UNL     1      -2.080  49.972 -19.064  1.00  0.00    -0.002 C 
HETATM   15  C21 UNL     1      -1.032  51.106 -18.923  1.00  0.00     0.006 C 
HETATM   16  C22 UNL     1      -0.970  51.838 -20.283  1.00  0.00     0.011 C 
HETATM   17  C23 UNL     1      -1.684  50.903 -21.278  1.00  0.00    -0.032 C 
HETATM   18  C24 UNL     1      -0.640  49.821 -21.701  1.00  0.00     0.016 C 
HETATM   19  C25 UNL     1      -3.890  51.037 -24.564  1.00  0.00     0.022 A 
HETATM   20  C26 UNL     1      -2.690  50.160 -24.823  1.00  0.00    -0.021 A 
HETATM   21  C31 UNL     1      -1.463  50.829 -25.455  1.00  0.00     0.063 C 
ENDROOT
BRANCH  14  22
HETATM   22  C13 UNL     1      -2.881  49.600 -17.773  1.00  0.00    -0.014 C 
HETATM   23  C14 UNL     1      -3.961  48.569 -18.156  1.00  0.00     0.010 C 
BRANCH  22  24
HETATM   24  C15 UNL     1      -2.029  49.047 -16.603  1.00  0.00     0.008 C 
BRANCH  24  25
HETATM   25  C16 UNL     1      -0.524  49.339 -16.701  1.00  0.00     0.028 C 
BRANCH  25  26
HETATM   26  C17 UNL     1       0.076  50.013 -15.499  1.00  0.00    -0.022 C 
HETATM   27  C18 UNL     1       0.897  51.085 -15.499  1.00  0.00    -0.064 C 
HETATM   28  C19 UNL     1       1.428  51.755 -16.736  1.00  0.00     0.045 C 
BRANCH  27  29
HETATM   29  C20 UNL     1       1.384  51.690 -14.207  1.00  0.00     0.197 C 
BRANCH  29  30
HETATM   30  O3  UNL     1       0.653  52.880 -13.952  1.00  0.00    -0.397 OA
HETATM   31  H29 UNL     1      -0.288  52.645 -14.031  1.00  0.00     0.209 HD
ENDBRANCH  29  30
ENDBRANCH  27  29
ENDBRANCH  25  26
ENDBRANCH  24  25
ENDBRANCH  22  24
ENDBRANCH  14  22
BRANCH  20  32
HETATM   32  C27 UNL     1      -2.889  48.710 -25.301  1.00  0.00     0.021 C 
BRANCH  32  33
HETATM   33  C28 UNL     1      -4.261  48.410 -25.908  1.00  0.00     0.112 C 
BRANCH  33  34
HETATM   34  C29 UNL     1      -4.329  48.447 -27.414  1.00  0.00     0.258 C 
HETATM   35  O4  UNL     1      -3.459  48.951 -28.118  1.00  0.00    -0.265 OA
BRANCH  34  36
HETATM   36  O5  UNL     1      -5.483  47.905 -27.883  1.00  0.00    -0.326 OA
HETATM   37  C30 UNL     1      -5.600  47.934 -29.305  1.00  0.00     0.213 C 
ENDBRANCH  34  36
ENDBRANCH  33  34
ENDBRANCH  32  33
ENDBRANCH  20  32
TORSDOF 10
ENDMDL
MODEL 7
REMARK minimizedAffinity -8.4611845
REMARK  10 active torsions:
REMARK  status: ('A' for Active; 'I' for Inactive)
REMARK    1  A    between atoms: C12_14  and  C13_15 
REMARK    2  A    between atoms: C13_15  and  C15_17 
REMARK    3  A    between atoms: C15_17  and  C16_18 
REMARK    4  A    between atoms: C16_18  and  C17_19 
REMARK    5  A    between atoms: C18_20  and  C20_22 
REMARK    6  A    between atoms: C20_22  and  O3_23 
REMARK    7  A    between atoms: C26_29  and  C27_30 
REMARK    8  A    between atoms: C27_30  and  C28_31 
REMARK    9  A    between atoms: C28_31  and  C29_32 
REMARK   10  A    between atoms: C29_32  and  O5_34 
ROOT
HETATM    1  C1  UNL     1       0.204  53.433 -20.685  1.00  0.00     0.025 C 
HETATM    2  C2  UNL     1      -0.022  52.118 -20.577  1.00  0.00     0.015 C 
HETATM    3  C3  UNL     1       0.012  51.449 -19.253  1.00  0.00     0.289 C 
HETATM    4  O1  UNL     1       0.467  51.903 -18.221  1.00  0.00    -0.260 OA
HETATM    5  O2  UNL     1      -0.530  50.207 -19.410  1.00  0.00    -0.311 OA
HETATM    6  C4  UNL     1      -1.122  50.095 -20.719  1.00  0.00     0.142 C 
HETATM    7  C5  UNL     1      -2.614  50.378 -20.603  1.00  0.00     0.039 C 
HETATM    8  C6  UNL     1      -3.381  50.423 -21.933  1.00  0.00     0.006 C 
HETATM    9  C7  UNL     1      -2.610  51.132 -23.084  1.00  0.00    -0.027 A 
HETATM   10  C8  UNL     1      -3.323  51.071 -24.458  1.00  0.00     0.011 C 
HETATM   11  C9  UNL     1      -4.043  49.756 -24.808  1.00  0.00     0.011 C 
HETATM   12  C10 UNL     1      -4.899  49.258 -23.637  1.00  0.00    -0.032 C 
HETATM   13  C11 UNL     1      -6.033  50.294 -23.384  1.00  0.00     0.016 C 
HETATM   14  C12 UNL     1      -5.518  47.835 -23.804  1.00  0.00    -0.002 C 
HETATM   15  C21 UNL     1      -5.704  47.353 -22.342  1.00  0.00     0.006 C 
HETATM   16  C22 UNL     1      -4.861  48.289 -21.446  1.00  0.00     0.011 C 
HETATM   17  C23 UNL     1      -3.926  49.040 -22.414  1.00  0.00    -0.032 C 
HETATM   18  C24 UNL     1      -2.727  48.084 -22.710  1.00  0.00     0.016 C 
HETATM   19  C25 UNL     1      -2.116  52.539 -22.825  1.00  0.00     0.022 A 
HETATM   20  C26 UNL     1      -1.078  51.446 -22.900  1.00  0.00    -0.021 A 
HETATM   21  C31 UNL     1      -0.364  51.076 -21.595  1.00  0.00     0.063 C 
ENDROOT
BRANCH  14  22
HETATM   22  C13 UNL     1      -6.737  47.630 -24.763  1.00  0.00    -0.014 C 
HETATM   23  C14 UNL     1      -7.886  48.539 -24.282  1.00  0.00     0.010 C 
BRANCH  22  24
HETATM   24  C15 UNL     1      -6.454  47.904 -26.261  1.00  0.00     0.008 C 
BRANCH  24  25
HETATM   25  C16 UNL     1      -7.432  47.236 -27.239  1.00  0.00     0.028 C 
BRANCH  25  26
HETATM   26  C17 UNL     1      -7.820  48.072 -28.427  1.00  0.00    -0.022 C 
HETATM   27  C18 UNL     1      -8.695  47.738 -29.400  1.00  0.00    -0.064 C 
HETATM   28  C19 UNL     1      -9.386  46.407 -29.507  1.00  0.00     0.045 C 
BRANCH  27  29
HETATM   29  C20 UNL     1      -9.028  48.703 -30.509  1.00  0.00     0.197 C 
BRANCH  29  30
HETATM   30  O3  UNL     1      -8.777  50.026 -30.059  1.00  0.00    -0.397 OA
HETATM   31  H29 UNL     1      -7.874  50.026 -29.696  1.00  0.00     0.209 HD
ENDBRANCH  29  30
ENDBRANCH  27  29
ENDBRANCH  25  26
ENDBRANCH  24  25
ENDBRANCH  22  24
ENDBRANCH  14  22
BRANCH  20  32
HETATM   32  C27 UNL     1      -0.159  51.344 -24.131  1.00  0.00     0.021 C 
BRANCH  32  33
HETATM   33  C28 UNL     1       0.550  52.644 -24.519  1.00  0.00     0.112 C 
BRANCH  33  34
HETATM   34  C29 UNL     1       0.637  52.920 -25.999  1.00  0.00     0.258 C 
HETATM   35  O4  UNL     1       1.542  52.500 -26.714  1.00  0.00    -0.265 OA
BRANCH  34  36
HETATM   36  O5  UNL     1      -0.372  53.724 -26.424  1.00  0.00    -0.326 OA
HETATM   37  C30 UNL     1      -0.960  53.313 -27.658  1.00  0.00     0.213 C 
ENDBRANCH  34  36
ENDBRANCH  33  34
ENDBRANCH  32  33
ENDBRANCH  20  32
TORSDOF 10
ENDMDL
MODEL 8
REMARK minimizedAffinity -8.45987797
REMARK  10 active torsions:
REMARK  status: ('A' for Active; 'I' for Inactive)
REMARK    1  A    between atoms: C12_14  and  C13_15 
REMARK    2  A    between atoms: C13_15  and  C15_17 
REMARK    3  A    between atoms: C15_17  and  C16_18 
REMARK    4  A    between atoms: C16_18  and  C17_19 
REMARK    5  A    between atoms: C18_20  and  C20_22 
REMARK    6  A    between atoms: C20_22  and  O3_23 
REMARK    7  A    between atoms: C26_29  and  C27_30 
REMARK    8  A    between atoms: C27_30  and  C28_31 
REMARK    9  A    between atoms: C28_31  and  C29_32 
REMARK   10  A    between atoms: C29_32  and  O5_34 
ROOT
HETATM    1  C1  UNL     1      -2.102  52.530 -27.161  1.00  0.00     0.025 C 
HETATM    2  C2  UNL     1      -1.256  52.109 -26.213  1.00  0.00     0.015 C 
HETATM    3  C3  UNL     1      -0.045  52.896 -25.873  1.00  0.00     0.289 C 
HETATM    4  O1  UNL     1       0.440  53.801 -26.525  1.00  0.00    -0.260 OA
HETATM    5  O2  UNL     1       0.454  52.394 -24.707  1.00  0.00    -0.311 OA
HETATM    6  C4  UNL     1      -0.483  51.458 -24.139  1.00  0.00     0.142 C 
HETATM    7  C5  UNL     1      -1.319  52.183 -23.093  1.00  0.00     0.039 C 
HETATM    8  C6  UNL     1      -2.458  51.359 -22.473  1.00  0.00     0.006 C 
HETATM    9  C7  UNL     1      -3.217  50.462 -23.494  1.00  0.00    -0.027 A 
HETATM   10  C8  UNL     1      -4.282  49.535 -22.855  1.00  0.00     0.011 C 
HETATM   11  C9  UNL     1      -3.925  48.901 -21.499  1.00  0.00     0.011 C 
HETATM   12  C10 UNL     1      -3.340  49.937 -20.533  1.00  0.00    -0.032 C 
HETATM   13  C11 UNL     1      -4.441  50.992 -20.218  1.00  0.00     0.016 C 
HETATM   14  C12 UNL     1      -2.760  49.373 -19.197  1.00  0.00    -0.002 C 
HETATM   15  C21 UNL     1      -1.703  50.432 -18.791  1.00  0.00     0.006 C 
HETATM   16  C22 UNL     1      -1.438  51.308 -20.036  1.00  0.00     0.011 C 
HETATM   17  C23 UNL     1      -2.045  50.527 -21.217  1.00  0.00    -0.032 C 
HETATM   18  C24 UNL     1      -0.991  49.451 -21.630  1.00  0.00     0.016 C 
HETATM   19  C25 UNL     1      -3.793  51.138 -24.718  1.00  0.00     0.022 A 
HETATM   20  C26 UNL     1      -2.600  50.238 -24.924  1.00  0.00    -0.021 A 
HETATM   21  C31 UNL     1      -1.279  50.915 -25.311  1.00  0.00     0.063 C 
ENDROOT
BRANCH  14  22
HETATM   22  C13 UNL     1      -3.735  48.897 -18.071  1.00  0.00    -0.014 C 
HETATM   23  C14 UNL     1      -3.996  47.389 -18.265  1.00  0.00     0.010 C 
BRANCH  22  24
HETATM   24  C15 UNL     1      -3.250  49.155 -16.623  1.00  0.00     0.008 C 
BRANCH  24  25
HETATM   25  C16 UNL     1      -2.513  50.486 -16.413  1.00  0.00     0.028 C 
BRANCH  25  26
HETATM   26  C17 UNL     1      -3.070  51.363 -15.327  1.00  0.00    -0.022 C 
HETATM   27  C18 UNL     1      -2.796  51.289 -14.007  1.00  0.00    -0.064 C 
HETATM   28  C19 UNL     1      -1.925  50.240 -13.373  1.00  0.00     0.045 C 
BRANCH  27  29
HETATM   29  C20 UNL     1      -3.392  52.273 -13.034  1.00  0.00     0.197 C 
BRANCH  29  30
HETATM   30  O3  UNL     1      -4.019  53.318 -13.761  1.00  0.00    -0.397 OA
HETATM   31  H29 UNL     1      -4.606  52.888 -14.408  1.00  0.00     0.209 HD
ENDBRANCH  29  30
ENDBRANCH  27  29
ENDBRANCH  25  26
ENDBRANCH  24  25
ENDBRANCH  22  24
ENDBRANCH  14  22
BRANCH  20  32
HETATM   32  C27 UNL     1      -2.781  48.864 -25.591  1.00  0.00     0.021 C 
BRANCH  32  33
HETATM   33  C28 UNL     1      -4.136  48.647 -26.271  1.00  0.00     0.112 C 
BRANCH  33  34
HETATM   34  C29 UNL     1      -4.133  48.754 -27.776  1.00  0.00     0.258 C 
HETATM   35  O4  UNL     1      -3.479  49.589 -28.393  1.00  0.00    -0.265 OA
BRANCH  34  36
HETATM   36  O5  UNL     1      -4.975  47.855 -28.349  1.00  0.00    -0.326 OA
HETATM   37  C30 UNL     1      -5.358  48.189 -29.682  1.00  0.00     0.213 C 
ENDBRANCH  34  36
ENDBRANCH  33  34
ENDBRANCH  32  33
ENDBRANCH  20  32
TORSDOF 10
ENDMDL
MODEL 9
REMARK minimizedAffinity -8.39119053
REMARK  10 active torsions:
REMARK  status: ('A' for Active; 'I' for Inactive)
REMARK    1  A    between atoms: C12_14  and  C13_15 
REMARK    2  A    between atoms: C13_15  and  C15_17 
REMARK    3  A    between atoms: C15_17  and  C16_18 
REMARK    4  A    between atoms: C16_18  and  C17_19 
REMARK    5  A    between atoms: C18_20  and  C20_22 
REMARK    6  A    between atoms: C20_22  and  O3_23 
REMARK    7  A    between atoms: C26_29  and  C27_30 
REMARK    8  A    between atoms: C27_30  and  C28_31 
REMARK    9  A    between atoms: C28_31  and  C29_32 
REMARK   10  A    between atoms: C29_32  and  O5_34 
ROOT
HETATM    1  C1  UNL     1      -6.736  47.329 -24.809  1.00  0.00     0.025 C 
HETATM    2  C2  UNL     1      -6.778  48.456 -24.088  1.00  0.00     0.015 C 
HETATM    3  C3  UNL     1      -7.921  48.734 -23.183  1.00  0.00     0.289 C 
HETATM    4  O1  UNL     1      -8.996  48.164 -23.173  1.00  0.00    -0.260 OA
HETATM    5  O2  UNL     1      -7.562  49.779 -22.383  1.00  0.00    -0.311 OA
HETATM    6  C4  UNL     1      -6.162  50.068 -22.558  1.00  0.00     0.142 C 
HETATM    7  C5  UNL     1      -5.381  49.371 -21.451  1.00  0.00     0.039 C 
HETATM    8  C6  UNL     1      -3.851  49.473 -21.560  1.00  0.00     0.006 C 
HETATM    9  C7  UNL     1      -3.310  49.330 -23.012  1.00  0.00    -0.027 A 
HETATM   10  C8  UNL     1      -1.783  49.558 -23.145  1.00  0.00     0.011 C 
HETATM   11  C9  UNL     1      -1.170  50.672 -22.280  1.00  0.00     0.011 C 
HETATM   12  C10 UNL     1      -1.665  50.591 -20.831  1.00  0.00    -0.032 C 
HETATM   13  C11 UNL     1      -1.152  49.258 -20.211  1.00  0.00     0.016 C 
HETATM   14  C12 UNL     1      -1.265  51.785 -19.907  1.00  0.00    -0.002 C 
HETATM   15  C21 UNL     1      -2.382  51.795 -18.832  1.00  0.00     0.006 C 
HETATM   16  C22 UNL     1      -3.537  50.920 -19.371  1.00  0.00     0.011 C 
HETATM   17  C23 UNL     1      -3.236  50.733 -20.871  1.00  0.00    -0.032 C 
HETATM   18  C24 UNL     1      -3.746  52.021 -21.592  1.00  0.00     0.016 C 
HETATM   19  C25 UNL     1      -3.714  48.094 -23.784  1.00  0.00     0.022 A 
HETATM   20  C26 UNL     1      -4.320  49.406 -24.217  1.00  0.00    -0.021 A 
HETATM   21  C31 UNL     1      -5.820  49.597 -23.959  1.00  0.00     0.063 C 
ENDROOT
BRANCH  14  22
HETATM   22  C13 UNL     1       0.204  51.898 -19.383  1.00  0.00    -0.014 C 
HETATM   23  C14 UNL     1       0.730  53.307 -19.724  1.00  0.00     0.010 C 
BRANCH  22  24
HETATM   24  C15 UNL     1       0.389  51.631 -17.868  1.00  0.00     0.008 C 
BRANCH  24  25
HETATM   25  C16 UNL     1       1.439  52.515 -17.176  1.00  0.00     0.028 C 
BRANCH  25  26
HETATM   26  C17 UNL     1       1.808  52.097 -15.780  1.00  0.00    -0.022 C 
HETATM   27  C18 UNL     1       3.052  52.012 -15.264  1.00  0.00    -0.064 C 
HETATM   28  C19 UNL     1       4.318  52.250 -16.040  1.00  0.00     0.045 C 
BRANCH  27  29
HETATM   29  C20 UNL     1       3.270  51.626 -13.823  1.00  0.00     0.197 C 
BRANCH  29  30
HETATM   30  O3  UNL     1       2.392  52.384 -13.005  1.00  0.00    -0.397 OA
HETATM   31  H29 UNL     1       1.503  52.279 -13.387  1.00  0.00     0.209 HD
ENDBRANCH  29  30
ENDBRANCH  27  29
ENDBRANCH  25  26
ENDBRANCH  24  25
ENDBRANCH  22  24
ENDBRANCH  14  22
BRANCH  20  32
HETATM   32  C27 UNL     1      -3.851  50.074 -25.522  1.00  0.00     0.021 C 
BRANCH  32  33
HETATM   33  C28 UNL     1      -3.154  49.141 -26.514  1.00  0.00     0.112 C 
BRANCH  33  34
HETATM   34  C29 UNL     1      -3.547  49.317 -27.960  1.00  0.00     0.258 C 
HETATM   35  O4  UNL     1      -3.482  50.391 -28.552  1.00  0.00    -0.265 OA
BRANCH  34  36
HETATM   36  O5  UNL     1      -4.024  48.166 -28.499  1.00  0.00    -0.326 OA
HETATM   37  C30 UNL     1      -5.445  48.133 -28.630  1.00  0.00     0.213 C 
ENDBRANCH  34  36
ENDBRANCH  33  34
ENDBRANCH  32  33
ENDBRANCH  20  32
TORSDOF 10
ENDMDL
