MODEL 1
REMARK minimizedAffinity -9.1144619
REMARK CNNscore 0.427436441
REMARK CNNaffinity 7.39663124
REMARK  12 active torsions:
REMARK  status: ('A' for Active; 'I' for Inactive)
REMARK    1  A    between atoms: C3_3  and  O1_4 
REMARK    2  A    between atoms: N1_14  and  O2_16 
REMARK    3  A    between atoms: O2_16  and  C13_17 
REMARK    4  A    between atoms: C13_17  and  C14_18 
REMARK       I    between atoms: C14_18  and  N2_20 
REMARK    5  A    between atoms: N2_20  and  C15_21 
REMARK    6  A    between atoms: C15_21  and  C16_22 
REMARK    7  A    between atoms: C15_21  and  C26_36 
REMARK       I    between atoms: C16_22  and  N3_24 
REMARK    8  A    between atoms: N3_24  and  C17_25 
REMARK    9  A    between atoms: C17_25  and  C18_26 
REMARK   10  A    between atoms: C17_25  and  C25_33 
REMARK   11  A    between atoms: C18_26  and  C19_27 
REMARK   12  A    between atoms: C25_33  and  O6_35 
ROOT
HETATM    1  C1  UNL     1      -2.688  49.884  -8.339  1.00  0.00     0.015 C 
HETATM    2  C2  UNL     1      -2.084  50.523  -9.159  1.00  0.00    -0.078 C 
HETATM    3  C3  UNL     1      -1.338  51.339 -10.143  1.00  0.00     0.128 C 
HETATM    4  C4  UNL     1       0.167  51.110  -9.979  1.00  0.00     0.052 C 
HETATM    5  C5  UNL     1       0.413  49.810 -10.727  1.00  0.00     0.010 C 
HETATM    6  C6  UNL     1      -0.491  49.887 -11.968  1.00  0.00     0.002 C 
HETATM    7  C7  UNL     1       0.265  50.070 -13.316  1.00  0.00    -0.004 C 
HETATM    8  C8  UNL     1       1.502  50.992 -13.320  1.00  0.00     0.010 C 
HETATM    9  C9  UNL     1       2.185  51.030 -14.691  1.00  0.00     0.035 C 
HETATM   10  C10 UNL     1       1.238  51.302 -15.841  1.00  0.00    -0.069 C 
HETATM   11  C11 UNL     1       1.570  52.191 -16.794  1.00  0.00     0.030 C 
HETATM   12  C12 UNL     1       0.742  52.379 -18.015  1.00  0.00     0.032 C 
HETATM   13  N1  UNL     1       1.078  53.327 -18.842  1.00  0.00    -0.271 N 
ATOM     14  H1  UNL     1       1.852  53.974 -18.689  1.00  0.00     0.194 HD
HETATM   15  C29 UNL     1      -0.404  51.411 -18.241  1.00  0.00     0.060 C 
HETATM   16  C30 UNL     1      -1.058  51.061 -16.911  1.00  0.00     0.020 C 
HETATM   17  C31 UNL     1      -0.059  50.494 -15.860  1.00  0.00    -0.016 C 
HETATM   18  C32 UNL     1       0.281  49.039 -16.277  1.00  0.00     0.020 C 
HETATM   19  C33 UNL     1      -0.721  50.502 -14.427  1.00  0.00     0.002 C 
HETATM   20  C34 UNL     1      -1.375  51.860 -14.062  1.00  0.00     0.007 C 
HETATM   21  C35 UNL     1      -1.456  52.184 -12.568  1.00  0.00     0.014 C 
HETATM   22  C36 UNL     1      -1.595  50.952 -11.646  1.00  0.00     0.003 C 
HETATM   23  C37 UNL     1      -3.013  50.368 -11.866  1.00  0.00     0.020 C 
ENDROOT
BRANCH   3  24
HETATM   24  O1  UNL     1      -1.631  52.705  -9.879  1.00  0.00    -0.377 OA
HETATM   25  H2  UNL     1      -2.599  52.791  -9.905  1.00  0.00     0.211 HD
ENDBRANCH   3  24
BRANCH  13  26
HETATM   26  O2  UNL     1       0.244  53.349 -19.968  1.00  0.00    -0.271 OA
BRANCH  26  27
HETATM   27  C13 UNL     1       1.035  53.559 -21.134  1.00  0.00     0.303 C 
BRANCH  27  28
HETATM   28  C14 UNL     1       0.621  52.577 -22.229  1.00  0.00     0.244 C 
HETATM   29  O3  UNL     1       0.553  51.368 -22.024  1.00  0.00    -0.271 OA
HETATM   30  N2  UNL     1       0.337  53.176 -23.442  1.00  0.00    -0.346 N 
HETATM   31  H16 UNL     1       0.244  54.185 -23.399  1.00  0.00     0.163 HD
BRANCH  30  32
HETATM   32  C15 UNL     1      -0.306  52.500 -24.572  1.00  0.00     0.180 C 
BRANCH  32  33
HETATM   33  C16 UNL     1      -1.637  51.880 -24.071  1.00  0.00     0.241 C 
HETATM   34  O4  UNL     1      -2.698  52.496 -24.000  1.00  0.00    -0.271 OA
HETATM   35  N3  UNL     1      -1.554  50.549 -23.724  1.00  0.00    -0.345 N 
HETATM   36  H18 UNL     1      -0.669  50.053 -23.766  1.00  0.00     0.163 HD
BRANCH  35  37
HETATM   37  C17 UNL     1      -2.702  49.821 -23.166  1.00  0.00     0.186 C 
BRANCH  37  38
HETATM   38  C18 UNL     1      -4.004  50.249 -23.856  1.00  0.00     0.074 C 
BRANCH  38  39
HETATM   39  C19 UNL     1      -4.319  49.442 -25.091  1.00  0.00    -0.056 A 
HETATM   40  C20 UNL     1      -5.447  48.610 -25.116  1.00  0.00     0.007 A 
HETATM   41  C21 UNL     1      -5.752  47.866 -26.257  1.00  0.00     0.001 A 
HETATM   42  C22 UNL     1      -4.937  47.951 -27.383  1.00  0.00     0.000 A 
HETATM   43  C23 UNL     1      -3.813  48.777 -27.369  1.00  0.00     0.001 A 
HETATM   44  C24 UNL     1      -3.503  49.519 -26.228  1.00  0.00     0.007 A 
ENDBRANCH  38  39
ENDBRANCH  37  38
BRANCH  37  45
HETATM   45  C25 UNL     1      -2.749  50.167 -21.682  1.00  0.00     0.163 C 
HETATM   46  O5  UNL     1      -2.102  49.612 -20.803  1.00  0.00    -0.648 OA
BRANCH  45  47
HETATM   47  O6  UNL     1      -3.596  51.169 -21.380  1.00  0.00    -0.775 OA
HETATM   48  H27 UNL     1      -3.511  51.298 -20.413  1.00  0.00     0.167 HD
ENDBRANCH  45  47
ENDBRANCH  37  45
ENDBRANCH  35  37
ENDBRANCH  32  33
BRANCH  32  49
HETATM   49  C26 UNL     1       0.593  51.513 -25.362  1.00  0.00     0.009 C 
HETATM   50  C27 UNL     1      -0.187  50.704 -26.406  1.00  0.00     0.012 C 
HETATM   51  C28 UNL     1       1.729  52.251 -26.082  1.00  0.00     0.012 C 
ENDBRANCH  32  49
ENDBRANCH  30  32
ENDBRANCH  27  28
ENDBRANCH  26  27
ENDBRANCH  13  26
TORSDOF 12
ENDMDL
MODEL 2
REMARK minimizedAffinity -9.39805222
REMARK CNNscore 0.379386127
REMARK CNNaffinity 7.43648577
REMARK  12 active torsions:
REMARK  status: ('A' for Active; 'I' for Inactive)
REMARK    1  A    between atoms: C3_3  and  O1_4 
REMARK    2  A    between atoms: N1_14  and  O2_16 
REMARK    3  A    between atoms: O2_16  and  C13_17 
REMARK    4  A    between atoms: C13_17  and  C14_18 
REMARK       I    between atoms: C14_18  and  N2_20 
REMARK    5  A    between atoms: N2_20  and  C15_21 
REMARK    6  A    between atoms: C15_21  and  C16_22 
REMARK    7  A    between atoms: C15_21  and  C26_36 
REMARK       I    between atoms: C16_22  and  N3_24 
REMARK    8  A    between atoms: N3_24  and  C17_25 
REMARK    9  A    between atoms: C17_25  and  C18_26 
REMARK   10  A    between atoms: C17_25  and  C25_33 
REMARK   11  A    between atoms: C18_26  and  C19_27 
REMARK   12  A    between atoms: C25_33  and  O6_35 
ROOT
HETATM    1  C1  UNL     1      -3.244  50.148  -8.941  1.00  0.00     0.015 C 
HETATM    2  C2  UNL     1      -2.743  50.781  -9.830  1.00  0.00    -0.078 C 
HETATM    3  C3  UNL     1      -2.130  51.594 -10.904  1.00  0.00     0.128 C 
HETATM    4  C4  UNL     1      -0.631  51.762 -10.645  1.00  0.00     0.052 C 
HETATM    5  C5  UNL     1      -0.033  50.461 -11.156  1.00  0.00     0.010 C 
HETATM    6  C6  UNL     1      -0.830  50.129 -12.427  1.00  0.00     0.002 C 
HETATM    7  C7  UNL     1      -0.032  50.282 -13.756  1.00  0.00    -0.004 C 
HETATM    8  C8  UNL     1       0.954  51.464 -13.863  1.00  0.00     0.010 C 
HETATM    9  C9  UNL     1       1.715  51.457 -15.193  1.00  0.00     0.035 C 
HETATM   10  C10 UNL     1       0.824  51.315 -16.409  1.00  0.00    -0.069 C 
HETATM   11  C11 UNL     1       1.016  52.103 -17.482  1.00  0.00     0.030 C 
HETATM   12  C12 UNL     1       0.265  51.898 -18.750  1.00  0.00     0.032 C 
HETATM   13  N1  UNL     1       0.437  52.763 -19.709  1.00  0.00    -0.271 N 
ATOM     14  H1  UNL     1       1.026  53.592 -19.634  1.00  0.00     0.194 HD
HETATM   15  C29 UNL     1      -0.604  50.660 -18.858  1.00  0.00     0.060 C 
HETATM   16  C30 UNL     1      -1.262  50.368 -17.516  1.00  0.00     0.020 C 
HETATM   17  C31 UNL     1      -0.245  50.225 -16.346  1.00  0.00    -0.016 C 
HETATM   18  C32 UNL     1       0.454  48.849 -16.502  1.00  0.00     0.020 C 
HETATM   19  C33 UNL     1      -1.001  50.290 -14.962  1.00  0.00     0.002 C 
HETATM   20  C34 UNL     1      -1.979  51.490 -14.854  1.00  0.00     0.007 C 
HETATM   21  C35 UNL     1      -2.250  52.008 -13.439  1.00  0.00     0.014 C 
HETATM   22  C36 UNL     1      -2.172  50.934 -12.332  1.00  0.00     0.003 C 
HETATM   23  C37 UNL     1      -3.394  49.999 -12.509  1.00  0.00     0.020 C 
ENDROOT
BRANCH   3  24
HETATM   24  O1  UNL     1      -2.751  52.873 -10.883  1.00  0.00    -0.377 OA
HETATM   25  H2  UNL     1      -3.708  52.718 -10.962  1.00  0.00     0.211 HD
ENDBRANCH   3  24
BRANCH  13  26
HETATM   26  O2  UNL     1      -0.288  52.412 -20.855  1.00  0.00    -0.271 OA
BRANCH  26  27
HETATM   27  C13 UNL     1       0.168  53.192 -21.957  1.00  0.00     0.303 C 
BRANCH  27  28
HETATM   28  C14 UNL     1      -0.148  52.476 -23.269  1.00  0.00     0.244 C 
HETATM   29  O3  UNL     1      -0.504  51.301 -23.297  1.00  0.00    -0.271 OA
HETATM   30  N2  UNL     1       0.005  53.269 -24.391  1.00  0.00    -0.346 N 
HETATM   31  H16 UNL     1       0.108  54.257 -24.195  1.00  0.00     0.163 HD
BRANCH  30  32
HETATM   32  C15 UNL     1      -0.458  52.905 -25.734  1.00  0.00     0.180 C 
BRANCH  32  33
HETATM   33  C16 UNL     1      -1.812  52.161 -25.593  1.00  0.00     0.241 C 
HETATM   34  O4  UNL     1      -2.793  52.625 -25.017  1.00  0.00    -0.271 OA
HETATM   35  N3  UNL     1      -1.850  50.923 -26.196  1.00  0.00    -0.345 N 
HETATM   36  H18 UNL     1      -1.029  50.539 -26.653  1.00  0.00     0.163 HD
BRANCH  35  37
HETATM   37  C17 UNL     1      -3.031  50.053 -26.104  1.00  0.00     0.186 C 
BRANCH  37  38
HETATM   38  C18 UNL     1      -2.704  48.776 -25.319  1.00  0.00     0.074 C 
BRANCH  38  39
HETATM   39  C19 UNL     1      -3.552  48.600 -24.083  1.00  0.00    -0.056 A 
HETATM   40  C20 UNL     1      -4.934  48.405 -24.203  1.00  0.00     0.007 A 
HETATM   41  C21 UNL     1      -5.726  48.233 -23.066  1.00  0.00     0.001 A 
HETATM   42  C22 UNL     1      -5.142  48.249 -21.802  1.00  0.00     0.000 A 
HETATM   43  C23 UNL     1      -3.766  48.440 -21.671  1.00  0.00     0.001 A 
HETATM   44  C24 UNL     1      -2.973  48.617 -22.807  1.00  0.00     0.007 A 
ENDBRANCH  38  39
ENDBRANCH  37  38
BRANCH  37  45
HETATM   45  C25 UNL     1      -3.424  49.711 -27.536  1.00  0.00     0.163 C 
HETATM   46  O5  UNL     1      -3.257  50.434 -28.510  1.00  0.00    -0.648 OA
BRANCH  45  47
HETATM   47  O6  UNL     1      -4.003  48.503 -27.670  1.00  0.00    -0.775 OA
HETATM   48  H27 UNL     1      -4.181  48.406 -28.629  1.00  0.00     0.167 HD
ENDBRANCH  45  47
ENDBRANCH  37  45
ENDBRANCH  35  37
ENDBRANCH  32  33
BRANCH  32  49
HETATM   49  C26 UNL     1       0.578  52.169 -26.623  1.00  0.00     0.009 C 
HETATM   50  C27 UNL     1       0.676  50.671 -26.307  1.00  0.00     0.012 C 
HETATM   51  C28 UNL     1       0.239  52.321 -28.112  1.00  0.00     0.012 C 
ENDBRANCH  32  49
ENDBRANCH  30  32
ENDBRANCH  27  28
ENDBRANCH  26  27
ENDBRANCH  13  26
TORSDOF 12
ENDMDL
MODEL 3
REMARK minimizedAffinity -8.50804806
REMARK CNNscore 0.37091881
REMARK CNNaffinity 6.50361061
REMARK  12 active torsions:
REMARK  status: ('A' for Active; 'I' for Inactive)
REMARK    1  A    between atoms: C3_3  and  O1_4 
REMARK    2  A    between atoms: N1_14  and  O2_16 
REMARK    3  A    between atoms: O2_16  and  C13_17 
REMARK    4  A    between atoms: C13_17  and  C14_18 
REMARK       I    between atoms: C14_18  and  N2_20 
REMARK    5  A    between atoms: N2_20  and  C15_21 
REMARK    6  A    between atoms: C15_21  and  C16_22 
REMARK    7  A    between atoms: C15_21  and  C26_36 
REMARK       I    between atoms: C16_22  and  N3_24 
REMARK    8  A    between atoms: N3_24  and  C17_25 
REMARK    9  A    between atoms: C17_25  and  C18_26 
REMARK   10  A    between atoms: C17_25  and  C25_33 
REMARK   11  A    between atoms: C18_26  and  C19_27 
REMARK   12  A    between atoms: C25_33  and  O6_35 
ROOT
HETATM    1  C1  UNL     1       0.581  51.943 -27.910  1.00  0.00     0.015 C 
HETATM    2  C2  UNL     1      -0.513  51.825 -27.429  1.00  0.00    -0.078 C 
HETATM    3  C3  UNL     1      -1.874  51.706 -26.861  1.00  0.00     0.128 C 
HETATM    4  C4  UNL     1      -2.679  50.662 -27.642  1.00  0.00     0.052 C 
HETATM    5  C5  UNL     1      -2.213  49.340 -27.052  1.00  0.00     0.010 C 
HETATM    6  C6  UNL     1      -2.056  49.609 -25.547  1.00  0.00     0.002 C 
HETATM    7  C7  UNL     1      -3.117  48.913 -24.646  1.00  0.00    -0.004 C 
HETATM    8  C8  UNL     1      -4.565  48.842 -25.175  1.00  0.00     0.010 C 
HETATM    9  C9  UNL     1      -5.488  48.078 -24.219  1.00  0.00     0.035 C 
HETATM   10  C10 UNL     1      -5.402  48.542 -22.781  1.00  0.00    -0.069 C 
HETATM   11  C11 UNL     1      -6.526  48.738 -22.067  1.00  0.00     0.030 C 
HETATM   12  C12 UNL     1      -6.487  49.048 -20.613  1.00  0.00     0.032 C 
HETATM   13  N1  UNL     1      -7.612  49.321 -20.015  1.00  0.00    -0.271 N 
ATOM     14  H1  UNL     1      -8.515  49.371 -20.487  1.00  0.00     0.194 HD
HETATM   15  C29 UNL     1      -5.144  48.966 -19.913  1.00  0.00     0.060 C 
HETATM   16  C30 UNL     1      -4.045  49.470 -20.839  1.00  0.00     0.020 C 
HETATM   17  C31 UNL     1      -3.999  48.728 -22.207  1.00  0.00    -0.016 C 
HETATM   18  C32 UNL     1      -3.387  47.325 -21.956  1.00  0.00     0.020 C 
HETATM   19  C33 UNL     1      -3.101  49.531 -23.227  1.00  0.00     0.002 C 
HETATM   20  C34 UNL     1      -3.454  51.040 -23.298  1.00  0.00     0.007 C 
HETATM   21  C35 UNL     1      -3.138  51.740 -24.622  1.00  0.00     0.014 C 
HETATM   22  C36 UNL     1      -1.925  51.163 -25.385  1.00  0.00     0.003 C 
HETATM   23  C37 UNL     1      -0.654  51.533 -24.581  1.00  0.00     0.020 C 
ENDROOT
BRANCH   3  24
HETATM   24  O1  UNL     1      -2.507  52.972 -26.992  1.00  0.00    -0.377 OA
HETATM   25  H2  UNL     1      -1.925  53.620 -26.561  1.00  0.00     0.211 HD
ENDBRANCH   3  24
BRANCH  13  26
HETATM   26  O2  UNL     1      -7.428  49.537 -18.643  1.00  0.00    -0.271 OA
BRANCH  26  27
HETATM   27  C13 UNL     1      -8.691  49.784 -18.033  1.00  0.00     0.303 C 
BRANCH  27  28
HETATM   28  C14 UNL     1      -9.606  48.574 -18.218  1.00  0.00     0.244 C 
HETATM   29  O3  UNL     1     -10.197  48.364 -19.275  1.00  0.00    -0.271 OA
HETATM   30  N2  UNL     1      -9.696  47.763 -17.103  1.00  0.00    -0.346 N 
HETATM   31  H16 UNL     1      -9.004  47.955 -16.388  1.00  0.00     0.163 HD
BRANCH  30  32
HETATM   32  C15 UNL     1     -10.305  46.429 -17.093  1.00  0.00     0.180 C 
BRANCH  32  33
HETATM   33  C16 UNL     1     -11.843  46.601 -16.984  1.00  0.00     0.241 C 
HETATM   34  O4  UNL     1     -12.392  47.611 -16.550  1.00  0.00    -0.271 OA
HETATM   35  N3  UNL     1     -12.573  45.526 -17.442  1.00  0.00    -0.345 N 
HETATM   36  H18 UNL     1     -12.111  44.688 -17.781  1.00  0.00     0.163 HD
BRANCH  35  37
HETATM   37  C17 UNL     1     -14.039  45.491 -17.352  1.00  0.00     0.186 C 
BRANCH  37  38
HETATM   38  C18 UNL     1     -14.642  46.835 -17.781  1.00  0.00     0.074 C 
BRANCH  38  39
HETATM   39  C19 UNL     1     -15.059  46.868 -19.231  1.00  0.00    -0.056 A 
HETATM   40  C20 UNL     1     -14.143  47.265 -20.215  1.00  0.00     0.007 A 
HETATM   41  C21 UNL     1     -14.517  47.291 -21.560  1.00  0.00     0.001 A 
HETATM   42  C22 UNL     1     -15.805  46.915 -21.932  1.00  0.00     0.000 A 
HETATM   43  C23 UNL     1     -16.723  46.517 -20.961  1.00  0.00     0.001 A 
HETATM   44  C24 UNL     1     -16.354  46.494 -19.615  1.00  0.00     0.007 A 
ENDBRANCH  38  39
ENDBRANCH  37  38
BRANCH  37  45
HETATM   45  C25 UNL     1     -14.372  45.202 -15.892  1.00  0.00     0.163 C 
HETATM   46  O5  UNL     1     -14.638  44.099 -15.431  1.00  0.00    -0.648 OA
BRANCH  45  47
HETATM   47  O6  UNL     1     -14.362  46.291 -15.103  1.00  0.00    -0.775 OA
HETATM   48  H27 UNL     1     -14.567  45.962 -14.204  1.00  0.00     0.167 HD
ENDBRANCH  45  47
ENDBRANCH  37  45
ENDBRANCH  35  37
ENDBRANCH  32  33
BRANCH  32  49
HETATM   49  C26 UNL     1      -9.707  45.427 -16.071  1.00  0.00     0.009 C 
HETATM   50  C27 UNL     1      -9.762  45.946 -14.628  1.00  0.00     0.012 C 
HETATM   51  C28 UNL     1     -10.439  44.079 -16.121  1.00  0.00     0.012 C 
ENDBRANCH  32  49
ENDBRANCH  30  32
ENDBRANCH  27  28
ENDBRANCH  26  27
ENDBRANCH  13  26
TORSDOF 12
ENDMDL
MODEL 4
REMARK minimizedAffinity -10.0425014
REMARK CNNscore 0.355628222
REMARK CNNaffinity 6.78907633
REMARK  12 active torsions:
REMARK  status: ('A' for Active; 'I' for Inactive)
REMARK    1  A    between atoms: C3_3  and  O1_4 
REMARK    2  A    between atoms: N1_14  and  O2_16 
REMARK    3  A    between atoms: O2_16  and  C13_17 
REMARK    4  A    between atoms: C13_17  and  C14_18 
REMARK       I    between atoms: C14_18  and  N2_20 
REMARK    5  A    between atoms: N2_20  and  C15_21 
REMARK    6  A    between atoms: C15_21  and  C16_22 
REMARK    7  A    between atoms: C15_21  and  C26_36 
REMARK       I    between atoms: C16_22  and  N3_24 
REMARK    8  A    between atoms: N3_24  and  C17_25 
REMARK    9  A    between atoms: C17_25  and  C18_26 
REMARK   10  A    between atoms: C17_25  and  C25_33 
REMARK   11  A    between atoms: C18_26  and  C19_27 
REMARK   12  A    between atoms: C25_33  and  O6_35 
ROOT
HETATM    1  C1  UNL     1       0.655  52.282 -28.599  1.00  0.00     0.015 C 
HETATM    2  C2  UNL     1       0.063  52.505 -27.577  1.00  0.00    -0.078 C 
HETATM    3  C3  UNL     1      -0.671  52.816 -26.331  1.00  0.00     0.128 C 
HETATM    4  C4  UNL     1      -2.170  52.578 -26.531  1.00  0.00     0.052 C 
HETATM    5  C5  UNL     1      -2.317  51.075 -26.356  1.00  0.00     0.010 C 
HETATM    6  C6  UNL     1      -1.358  50.711 -25.212  1.00  0.00     0.002 C 
HETATM    7  C7  UNL     1      -2.055  50.298 -23.882  1.00  0.00    -0.004 C 
HETATM    8  C8  UNL     1      -3.332  51.064 -23.479  1.00  0.00     0.010 C 
HETATM    9  C9  UNL     1      -3.946  50.513 -22.188  1.00  0.00     0.035 C 
HETATM   10  C10 UNL     1      -2.957  50.367 -21.051  1.00  0.00    -0.069 C 
HETATM   11  C11 UNL     1      -3.284  50.783 -19.814  1.00  0.00     0.030 C 
HETATM   12  C12 UNL     1      -2.406  50.525 -18.642  1.00  0.00     0.032 C 
HETATM   13  N1  UNL     1      -2.745  51.045 -17.497  1.00  0.00    -0.271 N 
ATOM     14  H1  UNL     1      -3.554  51.649 -17.359  1.00  0.00     0.194 HD
HETATM   15  C29 UNL     1      -1.206  49.620 -18.850  1.00  0.00     0.060 C 
HETATM   16  C30 UNL     1      -0.603  49.866 -20.227  1.00  0.00     0.020 C 
HETATM   17  C31 UNL     1      -1.625  49.700 -21.389  1.00  0.00    -0.016 C 
HETATM   18  C32 UNL     1      -1.876  48.181 -21.576  1.00  0.00     0.020 C 
HETATM   19  C33 UNL     1      -1.036  50.316 -22.718  1.00  0.00     0.002 C 
HETATM   20  C34 UNL     1      -0.465  51.746 -22.530  1.00  0.00     0.007 C 
HETATM   21  C35 UNL     1      -0.473  52.639 -23.773  1.00  0.00     0.014 C 
HETATM   22  C36 UNL     1      -0.322  51.884 -25.113  1.00  0.00     0.003 C 
HETATM   23  C37 UNL     1       1.130  51.350 -25.181  1.00  0.00     0.020 C 
ENDROOT
BRANCH   3  24
HETATM   24  O1  UNL     1      -0.455  54.191 -26.036  1.00  0.00    -0.377 OA
HETATM   25  H2  UNL     1       0.508  54.320 -26.004  1.00  0.00     0.211 HD
ENDBRANCH   3  24
BRANCH  13  26
HETATM   26  O2  UNL     1      -1.858  50.672 -16.478  1.00  0.00    -0.271 OA
BRANCH  26  27
HETATM   27  C13 UNL     1      -2.602  50.259 -15.336  1.00  0.00     0.303 C 
BRANCH  27  28
HETATM   28  C14 UNL     1      -2.906  51.464 -14.447  1.00  0.00     0.244 C 
HETATM   29  O3  UNL     1      -3.859  52.207 -14.666  1.00  0.00    -0.271 OA
HETATM   30  N2  UNL     1      -2.019  51.625 -13.398  1.00  0.00    -0.346 N 
HETATM   31  H16 UNL     1      -1.415  50.829 -13.235  1.00  0.00     0.163 HD
BRANCH  30  32
HETATM   32  C15 UNL     1      -2.221  52.545 -12.275  1.00  0.00     0.180 C 
BRANCH  32  33
HETATM   33  C16 UNL     1      -0.860  52.732 -11.553  1.00  0.00     0.241 C 
HETATM   34  O4  UNL     1      -0.102  51.808 -11.268  1.00  0.00    -0.271 OA
HETATM   35  N3  UNL     1      -0.537  54.041 -11.269  1.00  0.00    -0.345 N 
HETATM   36  H18 UNL     1      -1.178  54.796 -11.491  1.00  0.00     0.163 HD
BRANCH  35  37
HETATM   37  C17 UNL     1       0.682  54.394 -10.529  1.00  0.00     0.186 C 
BRANCH  37  38
HETATM   38  C18 UNL     1       1.801  53.384 -10.813  1.00  0.00     0.074 C 
BRANCH  38  39
HETATM   39  C19 UNL     1       3.169  53.878 -10.411  1.00  0.00    -0.056 A 
HETATM   40  C20 UNL     1       3.989  53.085  -9.596  1.00  0.00     0.007 A 
HETATM   41  C21 UNL     1       5.260  53.530  -9.226  1.00  0.00     0.001 A 
HETATM   42  C22 UNL     1       5.723  54.766  -9.671  1.00  0.00     0.000 A 
HETATM   43  C23 UNL     1       4.915  55.561 -10.484  1.00  0.00     0.001 A 
HETATM   44  C24 UNL     1       3.643  55.121 -10.852  1.00  0.00     0.007 A 
ENDBRANCH  38  39
ENDBRANCH  37  38
BRANCH  37  45
HETATM   45  C25 UNL     1       0.309  54.372  -9.051  1.00  0.00     0.163 C 
HETATM   46  O5  UNL     1       0.854  55.027  -8.172  1.00  0.00    -0.648 OA
BRANCH  45  47
HETATM   47  O6  UNL     1      -0.706  53.539  -8.756  1.00  0.00    -0.775 OA
HETATM   48  H27 UNL     1      -0.853  53.640  -7.793  1.00  0.00     0.167 HD
ENDBRANCH  45  47
ENDBRANCH  37  45
ENDBRANCH  35  37
ENDBRANCH  32  33
BRANCH  32  49
HETATM   49  C26 UNL     1      -3.397  52.196 -11.326  1.00  0.00     0.009 C 
HETATM   50  C27 UNL     1      -3.026  51.132 -10.285  1.00  0.00     0.012 C 
HETATM   51  C28 UNL     1      -3.895  53.441 -10.578  1.00  0.00     0.012 C 
ENDBRANCH  32  49
ENDBRANCH  30  32
ENDBRANCH  27  28
ENDBRANCH  26  27
ENDBRANCH  13  26
TORSDOF 12
ENDMDL
MODEL 5
REMARK minimizedAffinity -7.85819864
REMARK CNNscore 0.326686651
REMARK CNNaffinity 6.43229866
REMARK  12 active torsions:
REMARK  status: ('A' for Active; 'I' for Inactive)
REMARK    1  A    between atoms: C3_3  and  O1_4 
REMARK    2  A    between atoms: N1_14  and  O2_16 
REMARK    3  A    between atoms: O2_16  and  C13_17 
REMARK    4  A    between atoms: C13_17  and  C14_18 
REMARK       I    between atoms: C14_18  and  N2_20 
REMARK    5  A    between atoms: N2_20  and  C15_21 
REMARK    6  A    between atoms: C15_21  and  C16_22 
REMARK    7  A    between atoms: C15_21  and  C26_36 
REMARK       I    between atoms: C16_22  and  N3_24 
REMARK    8  A    between atoms: N3_24  and  C17_25 
REMARK    9  A    between atoms: C17_25  and  C18_26 
REMARK   10  A    between atoms: C17_25  and  C25_33 
REMARK   11  A    between atoms: C18_26  and  C19_27 
REMARK   12  A    between atoms: C25_33  and  O6_35 
ROOT
HETATM    1  C1  UNL     1      -0.401  48.624 -15.598  1.00  0.00     0.015 C 
HETATM    2  C2  UNL     1      -1.282  49.090 -16.269  1.00  0.00    -0.078 C 
HETATM    3  C3  UNL     1      -2.379  49.683 -17.066  1.00  0.00     0.128 C 
HETATM    4  C4  UNL     1      -1.940  51.031 -17.642  1.00  0.00     0.052 C 
HETATM    5  C5  UNL     1      -1.129  50.646 -18.869  1.00  0.00     0.010 C 
HETATM    6  C6  UNL     1      -1.880  49.455 -19.485  1.00  0.00     0.002 C 
HETATM    7  C7  UNL     1      -2.594  49.762 -20.834  1.00  0.00    -0.004 C 
HETATM    8  C8  UNL     1      -3.269  51.141 -20.985  1.00  0.00     0.010 C 
HETATM    9  C9  UNL     1      -3.877  51.332 -22.379  1.00  0.00     0.035 C 
HETATM   10  C10 UNL     1      -4.759  50.187 -22.826  1.00  0.00    -0.069 C 
HETATM   11  C11 UNL     1      -5.951  50.436 -23.398  1.00  0.00     0.030 C 
HETATM   12  C12 UNL     1      -6.782  49.351 -23.985  1.00  0.00     0.032 C 
HETATM   13  N1  UNL     1      -7.966  49.660 -24.432  1.00  0.00    -0.271 N 
ATOM     14  H1  UNL     1      -8.376  50.592 -24.372  1.00  0.00     0.194 HD
HETATM   15  C29 UNL     1      -6.166  47.968 -24.079  1.00  0.00     0.060 C 
HETATM   16  C30 UNL     1      -5.302  47.701 -22.853  1.00  0.00     0.020 C 
HETATM   17  C31 UNL     1      -4.202  48.779 -22.624  1.00  0.00    -0.016 C 
HETATM   18  C32 UNL     1      -3.090  48.540 -23.679  1.00  0.00     0.020 C 
HETATM   19  C33 UNL     1      -3.603  48.639 -21.170  1.00  0.00     0.002 C 
HETATM   20  C34 UNL     1      -4.690  48.549 -20.067  1.00  0.00     0.007 C 
HETATM   21  C35 UNL     1      -4.277  49.043 -18.678  1.00  0.00     0.014 C 
HETATM   22  C36 UNL     1      -2.779  48.862 -18.346  1.00  0.00     0.003 C 
HETATM   23  C37 UNL     1      -2.525  47.344 -18.173  1.00  0.00     0.020 C 
ENDROOT
BRANCH   3  24
HETATM   24  O1  UNL     1      -3.482  49.889 -16.191  1.00  0.00    -0.377 OA
HETATM   25  H2  UNL     1      -3.674  49.030 -15.780  1.00  0.00     0.211 HD
ENDBRANCH   3  24
BRANCH  13  26
HETATM   26  O2  UNL     1      -8.607  48.554 -25.004  1.00  0.00    -0.271 OA
BRANCH  26  27
HETATM   27  C13 UNL     1      -9.529  49.004 -25.993  1.00  0.00     0.303 C 
BRANCH  27  28
HETATM   28  C14 UNL     1      -9.170  48.405 -27.352  1.00  0.00     0.244 C 
HETATM   29  O3  UNL     1      -8.066  47.915 -27.573  1.00  0.00    -0.271 OA
HETATM   30  N2  UNL     1     -10.192  48.470 -28.281  1.00  0.00    -0.346 N 
HETATM   31  H16 UNL     1     -11.095  48.716 -27.893  1.00  0.00     0.163 HD
BRANCH  30  32
HETATM   32  C15 UNL     1     -10.193  47.763 -29.564  1.00  0.00     0.180 C 
BRANCH  32  33
HETATM   33  C16 UNL     1     -10.534  46.273 -29.295  1.00  0.00     0.241 C 
HETATM   34  O4  UNL     1     -10.167  45.654 -28.299  1.00  0.00    -0.271 OA
HETATM   35  N3  UNL     1     -11.318  45.681 -30.262  1.00  0.00    -0.345 N 
HETATM   36  H18 UNL     1     -11.600  46.194 -31.091  1.00  0.00     0.163 HD
BRANCH  35  37
HETATM   37  C17 UNL     1     -11.679  44.258 -30.201  1.00  0.00     0.186 C 
BRANCH  37  38
HETATM   38  C18 UNL     1     -11.953  43.830 -28.753  1.00  0.00     0.074 C 
BRANCH  38  39
HETATM   39  C19 UNL     1     -13.382  44.055 -28.323  1.00  0.00    -0.056 A 
HETATM   40  C20 UNL     1     -14.281  42.980 -28.287  1.00  0.00     0.007 A 
HETATM   41  C21 UNL     1     -15.602  43.176 -27.882  1.00  0.00     0.001 A 
HETATM   42  C22 UNL     1     -16.034  44.446 -27.506  1.00  0.00     0.000 A 
HETATM   43  C23 UNL     1     -15.147  45.522 -27.536  1.00  0.00     0.001 A 
HETATM   44  C24 UNL     1     -13.826  45.329 -27.945  1.00  0.00     0.007 A 
ENDBRANCH  38  39
ENDBRANCH  37  38
BRANCH  37  45
HETATM   45  C25 UNL     1     -10.491  43.489 -30.766  1.00  0.00     0.163 C 
HETATM   46  O5  UNL     1      -9.332  43.596 -30.387  1.00  0.00    -0.648 OA
BRANCH  45  47
HETATM   47  O6  UNL     1     -10.811  42.646 -31.765  1.00  0.00    -0.775 OA
HETATM   48  H27 UNL     1      -9.970  42.209 -32.015  1.00  0.00     0.167 HD
ENDBRANCH  45  47
ENDBRANCH  37  45
ENDBRANCH  35  37
ENDBRANCH  32  33
BRANCH  32  49
HETATM   49  C26 UNL     1      -8.935  47.974 -30.447  1.00  0.00     0.009 C 
HETATM   50  C27 UNL     1      -9.030  47.253 -31.798  1.00  0.00     0.012 C 
HETATM   51  C28 UNL     1      -8.690  49.464 -30.718  1.00  0.00     0.012 C 
ENDBRANCH  32  49
ENDBRANCH  30  32
ENDBRANCH  27  28
ENDBRANCH  26  27
ENDBRANCH  13  26
TORSDOF 12
ENDMDL
MODEL 6
REMARK minimizedAffinity -8.50452518
REMARK CNNscore 0.319459021
REMARK CNNaffinity 7.3066864
REMARK  12 active torsions:
REMARK  status: ('A' for Active; 'I' for Inactive)
REMARK    1  A    between atoms: C3_3  and  O1_4 
REMARK    2  A    between atoms: N1_14  and  O2_16 
REMARK    3  A    between atoms: O2_16  and  C13_17 
REMARK    4  A    between atoms: C13_17  and  C14_18 
REMARK       I    between atoms: C14_18  and  N2_20 
REMARK    5  A    between atoms: N2_20  and  C15_21 
REMARK    6  A    between atoms: C15_21  and  C16_22 
REMARK    7  A    between atoms: C15_21  and  C26_36 
REMARK       I    between atoms: C16_22  and  N3_24 
REMARK    8  A    between atoms: N3_24  and  C17_25 
REMARK    9  A    between atoms: C17_25  and  C18_26 
REMARK   10  A    between atoms: C17_25  and  C25_33 
REMARK   11  A    between atoms: C18_26  and  C19_27 
REMARK   12  A    between atoms: C25_33  and  O6_35 
ROOT
HETATM    1  C1  UNL     1      -1.079  52.170 -28.005  1.00  0.00     0.015 C 
HETATM    2  C2  UNL     1      -1.749  52.016 -27.020  1.00  0.00    -0.078 C 
HETATM    3  C3  UNL     1      -2.600  51.847 -25.821  1.00  0.00     0.128 C 
HETATM    4  C4  UNL     1      -3.516  50.633 -25.996  1.00  0.00     0.052 C 
HETATM    5  C5  UNL     1      -2.620  49.457 -25.641  1.00  0.00     0.010 C 
HETATM    6  C6  UNL     1      -1.769  49.948 -24.459  1.00  0.00     0.002 C 
HETATM    7  C7  UNL     1      -2.110  49.287 -23.091  1.00  0.00    -0.004 C 
HETATM    8  C8  UNL     1      -3.595  49.005 -22.786  1.00  0.00     0.010 C 
HETATM    9  C9  UNL     1      -3.780  48.297 -21.440  1.00  0.00     0.035 C 
HETATM   10  C10 UNL     1      -3.054  48.964 -20.291  1.00  0.00    -0.069 C 
HETATM   11  C11 UNL     1      -3.679  49.150 -19.114  1.00  0.00     0.030 C 
HETATM   12  C12 UNL     1      -2.961  49.663 -17.917  1.00  0.00     0.032 C 
HETATM   13  N1  UNL     1      -3.658  49.908 -16.844  1.00  0.00    -0.271 N 
ATOM     14  H1  UNL     1      -4.671  49.805 -16.782  1.00  0.00     0.194 HD
HETATM   15  C29 UNL     1      -1.454  49.809 -18.011  1.00  0.00     0.060 C 
HETATM   16  C30 UNL     1      -1.065  50.281 -19.406  1.00  0.00     0.020 C 
HETATM   17  C31 UNL     1      -1.601  49.362 -20.543  1.00  0.00    -0.016 C 
HETATM   18  C32 UNL     1      -0.738  48.073 -20.546  1.00  0.00     0.020 C 
HETATM   19  C33 UNL     1      -1.476  50.096 -21.935  1.00  0.00     0.002 C 
HETATM   20  C34 UNL     1      -2.044  51.540 -21.919  1.00  0.00     0.007 C 
HETATM   21  C35 UNL     1      -2.551  52.074 -23.261  1.00  0.00     0.014 C 
HETATM   22  C36 UNL     1      -1.816  51.515 -24.499  1.00  0.00     0.003 C 
HETATM   23  C37 UNL     1      -0.388  52.114 -24.498  1.00  0.00     0.020 C 
ENDROOT
BRANCH   3  24
HETATM   24  O1  UNL     1      -3.400  53.017 -25.694  1.00  0.00    -0.377 OA
HETATM   25  H2  UNL     1      -2.787  53.771 -25.675  1.00  0.00     0.211 HD
ENDBRANCH   3  24
BRANCH  13  26
HETATM   26  O2  UNL     1      -2.843  50.331 -15.785  1.00  0.00    -0.271 OA
BRANCH  26  27
HETATM   27  C13 UNL     1      -2.749  49.288 -14.819  1.00  0.00     0.303 C 
BRANCH  27  28
HETATM   28  C14 UNL     1      -1.809  49.706 -13.690  1.00  0.00     0.244 C 
HETATM   29  O3  UNL     1      -1.677  49.032 -12.672  1.00  0.00    -0.271 OA
HETATM   30  N2  UNL     1      -1.138  50.891 -13.929  1.00  0.00    -0.346 N 
HETATM   31  H16 UNL     1      -1.198  51.221 -14.885  1.00  0.00     0.163 HD
BRANCH  30  32
HETATM   32  C15 UNL     1      -0.014  51.385 -13.128  1.00  0.00     0.180 C 
BRANCH  32  33
HETATM   33  C16 UNL     1      -0.582  52.290 -12.003  1.00  0.00     0.241 C 
HETATM   34  O4  UNL     1      -1.743  52.689 -11.965  1.00  0.00    -0.271 OA
HETATM   35  N3  UNL     1       0.320  52.605 -11.010  1.00  0.00    -0.345 N 
HETATM   36  H18 UNL     1       1.283  52.287 -11.061  1.00  0.00     0.163 HD
BRANCH  35  37
HETATM   37  C17 UNL     1      -0.029  53.506  -9.904  1.00  0.00     0.186 C 
BRANCH  37  38
HETATM   38  C18 UNL     1       0.355  54.953 -10.241  1.00  0.00     0.074 C 
BRANCH  38  39
HETATM   39  C19 UNL     1       1.822  55.245 -10.038  1.00  0.00    -0.056 A 
HETATM   40  C20 UNL     1       2.247  55.939  -8.897  1.00  0.00     0.007 A 
HETATM   41  C21 UNL     1       3.602  56.206  -8.696  1.00  0.00     0.001 A 
HETATM   42  C22 UNL     1       4.543  55.779  -9.631  1.00  0.00     0.000 A 
HETATM   43  C23 UNL     1       4.130  55.086 -10.769  1.00  0.00     0.001 A 
HETATM   44  C24 UNL     1       2.775  54.821 -10.974  1.00  0.00     0.007 A 
ENDBRANCH  38  39
ENDBRANCH  37  38
BRANCH  37  45
HETATM   45  C25 UNL     1       0.752  53.018  -8.690  1.00  0.00     0.163 C 
HETATM   46  O5  UNL     1       0.534  53.343  -7.529  1.00  0.00    -0.648 OA
BRANCH  45  47
HETATM   47  O6  UNL     1       1.751  52.168  -8.988  1.00  0.00    -0.775 OA
HETATM   48  H27 UNL     1       2.148  51.922  -8.127  1.00  0.00     0.167 HD
ENDBRANCH  45  47
ENDBRANCH  37  45
ENDBRANCH  35  37
ENDBRANCH  32  33
BRANCH  32  49
HETATM   49  C26 UNL     1       1.149  52.028 -13.929  1.00  0.00     0.009 C 
HETATM   50  C27 UNL     1       2.530  51.585 -13.431  1.00  0.00     0.012 C 
HETATM   51  C28 UNL     1       1.049  51.687 -15.423  1.00  0.00     0.012 C 
ENDBRANCH  32  49
ENDBRANCH  30  32
ENDBRANCH  27  28
ENDBRANCH  26  27
ENDBRANCH  13  26
TORSDOF 12
ENDMDL
MODEL 7
REMARK minimizedAffinity -8.67741585
REMARK CNNscore 0.287891358
REMARK CNNaffinity 6.88352633
REMARK  12 active torsions:
REMARK  status: ('A' for Active; 'I' for Inactive)
REMARK    1  A    between atoms: C3_3  and  O1_4 
REMARK    2  A    between atoms: N1_14  and  O2_16 
REMARK    3  A    between atoms: O2_16  and  C13_17 
REMARK    4  A    between atoms: C13_17  and  C14_18 
REMARK       I    between atoms: C14_18  and  N2_20 
REMARK    5  A    between atoms: N2_20  and  C15_21 
REMARK    6  A    between atoms: C15_21  and  C16_22 
REMARK    7  A    between atoms: C15_21  and  C26_36 
REMARK       I    between atoms: C16_22  and  N3_24 
REMARK    8  A    between atoms: N3_24  and  C17_25 
REMARK    9  A    between atoms: C17_25  and  C18_26 
REMARK   10  A    between atoms: C17_25  and  C25_33 
REMARK   11  A    between atoms: C18_26  and  C19_27 
REMARK   12  A    between atoms: C25_33  and  O6_35 
ROOT
HETATM    1  C1  UNL     1       2.308  52.619 -17.275  1.00  0.00     0.015 C 
HETATM    2  C2  UNL     1       1.425  52.774 -18.074  1.00  0.00    -0.078 C 
HETATM    3  C3  UNL     1       0.336  53.002 -19.050  1.00  0.00     0.128 C 
HETATM    4  C4  UNL     1       0.924  53.381 -20.412  1.00  0.00     0.052 C 
HETATM    5  C5  UNL     1       1.314  52.041 -21.016  1.00  0.00     0.010 C 
HETATM    6  C6  UNL     1       0.188  51.078 -20.609  1.00  0.00     0.002 C 
HETATM    7  C7  UNL     1      -0.734  50.621 -21.777  1.00  0.00    -0.004 C 
HETATM    8  C8  UNL     1      -1.092  51.668 -22.853  1.00  0.00     0.010 C 
HETATM    9  C9  UNL     1      -1.950  51.069 -23.973  1.00  0.00     0.035 C 
HETATM   10  C10 UNL     1      -3.151  50.292 -23.476  1.00  0.00    -0.069 C 
HETATM   11  C11 UNL     1      -4.355  50.470 -24.051  1.00  0.00     0.030 C 
HETATM   12  C12 UNL     1      -5.525  49.623 -23.697  1.00  0.00     0.032 C 
HETATM   13  N1  UNL     1      -6.678  49.922 -24.225  1.00  0.00    -0.271 N 
ATOM     14  H1  UNL     1      -6.838  50.722 -24.837  1.00  0.00     0.194 HD
HETATM   15  C29 UNL     1      -5.281  48.430 -22.793  1.00  0.00     0.060 C 
HETATM   16  C30 UNL     1      -4.238  48.782 -21.740  1.00  0.00     0.020 C 
HETATM   17  C31 UNL     1      -2.898  49.298 -22.344  1.00  0.00    -0.016 C 
HETATM   18  C32 UNL     1      -2.150  48.073 -22.931  1.00  0.00     0.020 C 
HETATM   19  C33 UNL     1      -2.023  49.974 -21.218  1.00  0.00     0.002 C 
HETATM   20  C34 UNL     1      -2.811  51.003 -20.365  1.00  0.00     0.007 C 
HETATM   21  C35 UNL     1      -1.982  52.123 -19.732  1.00  0.00     0.014 C 
HETATM   22  C36 UNL     1      -0.530  51.731 -19.377  1.00  0.00     0.003 C 
HETATM   23  C37 UNL     1      -0.596  50.744 -18.185  1.00  0.00     0.020 C 
ENDROOT
BRANCH   3  24
HETATM   24  O1  UNL     1      -0.453  54.083 -18.569  1.00  0.00    -0.377 OA
HETATM   25  H2  UNL     1      -0.734  53.843 -17.670  1.00  0.00     0.211 HD
ENDBRANCH   3  24
BRANCH  13  26
HETATM   26  O2  UNL     1      -7.671  49.008 -23.847  1.00  0.00    -0.271 OA
BRANCH  26  27
HETATM   27  C13 UNL     1      -7.320  47.711 -24.319  1.00  0.00     0.303 C 
BRANCH  27  28
HETATM   28  C14 UNL     1      -8.196  47.335 -25.513  1.00  0.00     0.244 C 
HETATM   29  O3  UNL     1      -8.580  46.183 -25.699  1.00  0.00    -0.271 OA
HETATM   30  N2  UNL     1      -8.503  48.400 -26.341  1.00  0.00    -0.346 N 
HETATM   31  H16 UNL     1      -8.284  49.309 -25.951  1.00  0.00     0.163 HD
BRANCH  30  32
HETATM   32  C15 UNL     1      -9.510  48.360 -27.405  1.00  0.00     0.180 C 
BRANCH  32  33
HETATM   33  C16 UNL     1     -10.884  48.040 -26.759  1.00  0.00     0.241 C 
HETATM   34  O4  UNL     1     -11.650  48.893 -26.318  1.00  0.00    -0.271 OA
HETATM   35  N3  UNL     1     -11.207  46.701 -26.736  1.00  0.00    -0.345 N 
HETATM   36  H18 UNL     1     -10.559  46.001 -27.085  1.00  0.00     0.163 HD
BRANCH  35  37
HETATM   37  C17 UNL     1     -12.439  46.213 -26.101  1.00  0.00     0.186 C 
BRANCH  37  38
HETATM   38  C18 UNL     1     -13.675  46.695 -26.872  1.00  0.00     0.074 C 
BRANCH  38  39
HETATM   39  C19 UNL     1     -14.627  45.582 -27.234  1.00  0.00    -0.056 A 
HETATM   40  C20 UNL     1     -15.999  45.726 -26.986  1.00  0.00     0.007 A 
HETATM   41  C21 UNL     1     -16.889  44.705 -27.325  1.00  0.00     0.001 A 
HETATM   42  C22 UNL     1     -16.417  43.536 -27.917  1.00  0.00     0.000 A 
HETATM   43  C23 UNL     1     -15.053  43.385 -28.170  1.00  0.00     0.001 A 
HETATM   44  C24 UNL     1     -14.161  44.402 -27.829  1.00  0.00     0.007 A 
ENDBRANCH  38  39
ENDBRANCH  37  38
BRANCH  37  45
HETATM   45  C25 UNL     1     -12.444  46.775 -24.684  1.00  0.00     0.163 C 
HETATM   46  O5  UNL     1     -11.455  46.933 -23.981  1.00  0.00    -0.648 OA
BRANCH  45  47
HETATM   47  O6  UNL     1     -13.668  47.100 -24.229  1.00  0.00    -0.775 OA
HETATM   48  H27 UNL     1     -13.523  47.463 -23.331  1.00  0.00     0.167 HD
ENDBRANCH  45  47
ENDBRANCH  37  45
ENDBRANCH  35  37
ENDBRANCH  32  33
BRANCH  32  49
HETATM   49  C26 UNL     1      -9.161  47.468 -28.624  1.00  0.00     0.009 C 
HETATM   50  C27 UNL     1      -9.884  47.903 -29.906  1.00  0.00     0.012 C 
HETATM   51  C28 UNL     1      -7.652  47.473 -28.903  1.00  0.00     0.012 C 
ENDBRANCH  32  49
ENDBRANCH  30  32
ENDBRANCH  27  28
ENDBRANCH  26  27
ENDBRANCH  13  26
TORSDOF 12
ENDMDL
MODEL 8
REMARK minimizedAffinity -9.22493935
REMARK CNNscore 0.248144239
REMARK CNNaffinity 6.23481607
REMARK  12 active torsions:
REMARK  status: ('A' for Active; 'I' for Inactive)
REMARK    1  A    between atoms: C3_3  and  O1_4 
REMARK    2  A    between atoms: N1_14  and  O2_16 
REMARK    3  A    between atoms: O2_16  and  C13_17 
REMARK    4  A    between atoms: C13_17  and  C14_18 
REMARK       I    between atoms: C14_18  and  N2_20 
REMARK    5  A    between atoms: N2_20  and  C15_21 
REMARK    6  A    between atoms: C15_21  and  C16_22 
REMARK    7  A    between atoms: C15_21  and  C26_36 
REMARK       I    between atoms: C16_22  and  N3_24 
REMARK    8  A    between atoms: N3_24  and  C17_25 
REMARK    9  A    between atoms: C17_25  and  C18_26 
REMARK   10  A    between atoms: C17_25  and  C25_33 
REMARK   11  A    between atoms: C18_26  and  C19_27 
REMARK   12  A    between atoms: C25_33  and  O6_35 
ROOT
HETATM    1  C1  UNL     1       0.226  51.735 -27.566  1.00  0.00     0.015 C 
HETATM    2  C2  UNL     1      -0.867  51.609 -27.084  1.00  0.00    -0.078 C 
HETATM    3  C3  UNL     1      -2.226  51.481 -26.512  1.00  0.00     0.128 C 
HETATM    4  C4  UNL     1      -3.054  50.497 -27.344  1.00  0.00     0.052 C 
HETATM    5  C5  UNL     1      -2.608  49.137 -26.833  1.00  0.00     0.010 C 
HETATM    6  C6  UNL     1      -2.435  49.317 -25.317  1.00  0.00     0.002 C 
HETATM    7  C7  UNL     1      -3.502  48.589 -24.448  1.00  0.00    -0.004 C 
HETATM    8  C8  UNL     1      -4.955  48.574 -24.968  1.00  0.00     0.010 C 
HETATM    9  C9  UNL     1      -5.884  47.772 -24.050  1.00  0.00     0.035 C 
HETATM   10  C10 UNL     1      -5.780  48.154 -22.588  1.00  0.00    -0.069 C 
HETATM   11  C11 UNL     1      -6.895  48.328 -21.856  1.00  0.00     0.030 C 
HETATM   12  C12 UNL     1      -6.840  48.555 -20.387  1.00  0.00     0.032 C 
HETATM   13  N1  UNL     1      -7.956  48.813 -19.765  1.00  0.00    -0.271 N 
ATOM     14  H1  UNL     1      -8.861  48.905 -20.227  1.00  0.00     0.194 HD
HETATM   15  C29 UNL     1      -5.494  48.410 -19.704  1.00  0.00     0.060 C 
HETATM   16  C30 UNL     1      -4.393  48.947 -20.609  1.00  0.00     0.020 C 
HETATM   17  C31 UNL     1      -4.369  48.282 -22.017  1.00  0.00    -0.016 C 
HETATM   18  C32 UNL     1      -3.781  46.857 -21.849  1.00  0.00     0.020 C 
HETATM   19  C33 UNL     1      -3.465  49.126 -22.997  1.00  0.00     0.002 C 
HETATM   20  C34 UNL     1      -3.792  50.642 -22.980  1.00  0.00     0.007 C 
HETATM   21  C35 UNL     1      -3.473  51.411 -24.265  1.00  0.00     0.014 C 
HETATM   22  C36 UNL     1      -2.276  50.857 -25.069  1.00  0.00     0.003 C 
HETATM   23  C37 UNL     1      -0.993  51.159 -24.255  1.00  0.00     0.020 C 
ENDROOT
BRANCH   3  24
HETATM   24  O1  UNL     1      -2.838  52.764 -26.566  1.00  0.00    -0.377 OA
HETATM   25  H2  UNL     1      -2.240  53.376 -26.105  1.00  0.00     0.211 HD
ENDBRANCH   3  24
BRANCH  13  26
HETATM   26  O2  UNL     1      -7.759  48.948 -18.385  1.00  0.00    -0.271 OA
BRANCH  26  27
HETATM   27  C13 UNL     1      -8.966  49.401 -17.780  1.00  0.00     0.303 C 
BRANCH  27  28
HETATM   28  C14 UNL     1     -10.113  48.456 -18.133  1.00  0.00     0.244 C 
HETATM   29  O3  UNL     1     -10.680  48.502 -19.222  1.00  0.00    -0.271 OA
HETATM   30  N2  UNL     1     -10.439  47.567 -17.126  1.00  0.00    -0.346 N 
HETATM   31  H16 UNL     1      -9.759  47.518 -16.375  1.00  0.00     0.163 HD
BRANCH  30  32
HETATM   32  C15 UNL     1     -11.326  46.412 -17.292  1.00  0.00     0.180 C 
BRANCH  32  33
HETATM   33  C16 UNL     1     -12.746  46.937 -17.628  1.00  0.00     0.241 C 
HETATM   34  O4  UNL     1     -13.470  47.521 -16.826  1.00  0.00    -0.271 OA
HETATM   35  N3  UNL     1     -13.142  46.723 -18.931  1.00  0.00    -0.345 N 
HETATM   36  H18 UNL     1     -12.545  46.222 -19.582  1.00  0.00     0.163 HD
BRANCH  35  37
HETATM   37  C17 UNL     1     -14.482  47.096 -19.403  1.00  0.00     0.186 C 
BRANCH  37  38
HETATM   38  C18 UNL     1     -15.246  45.861 -19.898  1.00  0.00     0.074 C 
BRANCH  38  39
HETATM   39  C19 UNL     1     -16.713  45.884 -19.546  1.00  0.00    -0.056 A 
HETATM   40  C20 UNL     1     -17.457  47.059 -19.717  1.00  0.00     0.007 A 
HETATM   41  C21 UNL     1     -18.817  47.088 -19.401  1.00  0.00     0.001 A 
HETATM   42  C22 UNL     1     -19.444  45.942 -18.919  1.00  0.00     0.000 A 
HETATM   43  C23 UNL     1     -18.714  44.767 -18.747  1.00  0.00     0.001 A 
HETATM   44  C24 UNL     1     -17.353  44.736 -19.057  1.00  0.00     0.007 A 
ENDBRANCH  38  39
ENDBRANCH  37  38
BRANCH  37  45
HETATM   45  C25 UNL     1     -14.275  48.085 -20.545  1.00  0.00     0.163 C 
HETATM   46  O5  UNL     1     -14.649  47.923 -21.700  1.00  0.00    -0.648 OA
BRANCH  45  47
HETATM   47  O6  UNL     1     -13.615  49.202 -20.188  1.00  0.00    -0.775 OA
HETATM   48  H27 UNL     1     -13.573  49.748 -20.999  1.00  0.00     0.167 HD
ENDBRANCH  45  47
ENDBRANCH  37  45
ENDBRANCH  35  37
ENDBRANCH  32  33
BRANCH  32  49
HETATM   49  C26 UNL     1     -11.293  45.371 -16.141  1.00  0.00     0.009 C 
HETATM   50  C27 UNL     1     -10.732  44.014 -16.583  1.00  0.00     0.012 C 
HETATM   51  C28 UNL     1     -10.451  45.874 -14.961  1.00  0.00     0.012 C 
ENDBRANCH  32  49
ENDBRANCH  30  32
ENDBRANCH  27  28
ENDBRANCH  26  27
ENDBRANCH  13  26
TORSDOF 12
ENDMDL
MODEL 9
REMARK minimizedAffinity -8.41121006
REMARK CNNscore 0.240510851
REMARK CNNaffinity 6.65538168
REMARK  12 active torsions:
REMARK  status: ('A' for Active; 'I' for Inactive)
REMARK    1  A    between atoms: C3_3  and  O1_4 
REMARK    2  A    between atoms: N1_14  and  O2_16 
REMARK    3  A    between atoms: O2_16  and  C13_17 
REMARK    4  A    between atoms: C13_17  and  C14_18 
REMARK       I    between atoms: C14_18  and  N2_20 
REMARK    5  A    between atoms: N2_20  and  C15_21 
REMARK    6  A    between atoms: C15_21  and  C16_22 
REMARK    7  A    between atoms: C15_21  and  C26_36 
REMARK       I    between atoms: C16_22  and  N3_24 
REMARK    8  A    between atoms: N3_24  and  C17_25 
REMARK    9  A    between atoms: C17_25  and  C18_26 
REMARK   10  A    between atoms: C17_25  and  C25_33 
REMARK   11  A    between atoms: C18_26  and  C19_27 
REMARK   12  A    between atoms: C25_33  and  O6_35 
ROOT
HETATM    1  C1  UNL     1       0.348  51.122 -16.991  1.00  0.00     0.015 C 
HETATM    2  C2  UNL     1      -0.219  51.196 -18.047  1.00  0.00    -0.078 C 
HETATM    3  C3  UNL     1      -0.899  51.320 -19.356  1.00  0.00     0.128 C 
HETATM    4  C4  UNL     1      -0.036  50.697 -20.457  1.00  0.00     0.052 C 
HETATM    5  C5  UNL     1      -0.327  49.209 -20.338  1.00  0.00     0.010 C 
HETATM    6  C6  UNL     1      -1.830  49.121 -20.030  1.00  0.00     0.002 C 
HETATM    7  C7  UNL     1      -2.701  48.556 -21.191  1.00  0.00    -0.004 C 
HETATM    8  C8  UNL     1      -2.327  48.968 -22.629  1.00  0.00     0.010 C 
HETATM    9  C9  UNL     1      -3.224  48.292 -23.672  1.00  0.00     0.035 C 
HETATM   10  C10 UNL     1      -4.704  48.421 -23.383  1.00  0.00    -0.069 C 
HETATM   11  C11 UNL     1      -5.558  48.752 -24.369  1.00  0.00     0.030 C 
HETATM   12  C12 UNL     1      -7.031  48.744 -24.166  1.00  0.00     0.032 C 
HETATM   13  N1  UNL     1      -7.785  49.172 -25.139  1.00  0.00    -0.271 N 
ATOM     14  H1  UNL     1      -7.428  49.546 -26.018  1.00  0.00     0.194 HD
HETATM   15  C29 UNL     1      -7.557  48.180 -22.860  1.00  0.00     0.060 C 
HETATM   16  C30 UNL     1      -6.623  48.559 -21.718  1.00  0.00     0.020 C 
HETATM   17  C31 UNL     1      -5.148  48.120 -21.953  1.00  0.00    -0.016 C 
HETATM   18  C32 UNL     1      -5.079  46.586 -21.735  1.00  0.00     0.020 C 
HETATM   19  C33 UNL     1      -4.197  48.852 -20.927  1.00  0.00     0.002 C 
HETATM   20  C34 UNL     1      -4.435  50.383 -20.858  1.00  0.00     0.007 C 
HETATM   21  C35 UNL     1      -3.231  51.229 -20.436  1.00  0.00     0.014 C 
HETATM   22  C36 UNL     1      -2.251  50.524 -19.471  1.00  0.00     0.003 C 
HETATM   23  C37 UNL     1      -2.968  50.385 -18.105  1.00  0.00     0.020 C 
ENDROOT
BRANCH   3  24
HETATM   24  O1  UNL     1      -1.064  52.706 -19.625  1.00  0.00    -0.377 OA
HETATM   25  H2  UNL     1      -1.539  53.082 -18.864  1.00  0.00     0.211 HD
ENDBRANCH   3  24
BRANCH  13  26
HETATM   26  O2  UNL     1      -9.146  49.054 -24.828  1.00  0.00    -0.271 OA
BRANCH  26  27
HETATM   27  C13 UNL     1      -9.588  47.738 -25.146  1.00  0.00     0.303 C 
BRANCH  27  28
HETATM   28  C14 UNL     1     -10.789  47.805 -26.087  1.00  0.00     0.244 C 
HETATM   29  O3  UNL     1     -11.356  48.865 -26.342  1.00  0.00    -0.271 OA
HETATM   30  N2  UNL     1     -11.163  46.580 -26.609  1.00  0.00    -0.346 N 
HETATM   31  H16 UNL     1     -10.485  45.840 -26.466  1.00  0.00     0.163 HD
BRANCH  30  32
HETATM   32  C15 UNL     1     -12.115  46.401 -27.708  1.00  0.00     0.180 C 
BRANCH  32  33
HETATM   33  C16 UNL     1     -13.377  45.696 -27.144  1.00  0.00     0.241 C 
HETATM   34  O4  UNL     1     -13.343  44.778 -26.328  1.00  0.00    -0.271 OA
HETATM   35  N3  UNL     1     -14.572  46.197 -27.614  1.00  0.00    -0.345 N 
HETATM   36  H18 UNL     1     -14.590  46.942 -28.303  1.00  0.00     0.163 HD
BRANCH  35  37
HETATM   37  C17 UNL     1     -15.862  45.604 -27.236  1.00  0.00     0.186 C 
BRANCH  37  38
HETATM   38  C18 UNL     1     -15.845  45.157 -25.769  1.00  0.00     0.074 C 
BRANCH  38  39
HETATM   39  C19 UNL     1     -17.132  45.451 -25.039  1.00  0.00    -0.056 A 
HETATM   40  C20 UNL     1     -17.780  44.434 -24.323  1.00  0.00     0.007 A 
HETATM   41  C21 UNL     1     -18.967  44.698 -23.638  1.00  0.00     0.001 A 
HETATM   42  C22 UNL     1     -19.513  45.980 -23.657  1.00  0.00     0.000 A 
HETATM   43  C23 UNL     1     -18.875  46.999 -24.364  1.00  0.00     0.001 A 
HETATM   44  C24 UNL     1     -17.690  46.736 -25.054  1.00  0.00     0.007 A 
ENDBRANCH  38  39
ENDBRANCH  37  38
BRANCH  37  45
HETATM   45  C25 UNL     1     -16.068  44.405 -28.155  1.00  0.00     0.163 C 
HETATM   46  O5  UNL     1     -17.148  43.892 -28.419  1.00  0.00    -0.648 OA
BRANCH  45  47
HETATM   47  O6  UNL     1     -14.930  43.917 -28.680  1.00  0.00    -0.775 OA
HETATM   48  H27 UNL     1     -15.208  43.176 -29.257  1.00  0.00     0.167 HD
ENDBRANCH  45  47
ENDBRANCH  37  45
ENDBRANCH  35  37
ENDBRANCH  32  33
BRANCH  32  49
HETATM   49  C26 UNL     1     -11.543  45.742 -28.991  1.00  0.00     0.009 C 
HETATM   50  C27 UNL     1     -11.602  46.668 -30.212  1.00  0.00     0.012 C 
HETATM   51  C28 UNL     1     -10.084  45.311 -28.789  1.00  0.00     0.012 C 
ENDBRANCH  32  49
ENDBRANCH  30  32
ENDBRANCH  27  28
ENDBRANCH  26  27
ENDBRANCH  13  26
TORSDOF 12
ENDMDL
