MODEL 1
REMARK minimizedAffinity -9.56798744
REMARK  8 active torsions:
REMARK  status: ('A' for Active; 'I' for Inactive)
REMARK    1  A    between atoms: C2_2  and  C3_3 
REMARK    2  A    between atoms: C2_2  and  C27_30 
REMARK    3  A    between atoms: C3_3  and  C4_4 
REMARK    4  A    between atoms: C4_4  and  C5_5 
REMARK    5  A    between atoms: C5_5  and  C7_7 
REMARK    6  A    between atoms: C26_28  and  O3_29 
REMARK    7  A    between atoms: C27_30  and  C29_32 
REMARK    8  A    between atoms: C29_32  and  O5_34 
ROOT
HETATM    1  C7  UNL     1      -1.147  48.947 -19.235  1.00  0.00    -0.002 C 
HETATM    2  C8  UNL     1      -1.752  47.676 -19.857  1.00  0.00     0.006 C 
HETATM    3  C9  UNL     1      -1.624  47.900 -21.355  1.00  0.00     0.010 C 
HETATM    4  C10 UNL     1      -2.069  49.356 -21.495  1.00  0.00     0.027 C 
HETATM    5  C11 UNL     1      -1.860  49.957 -22.872  1.00  0.00    -0.036 C 
HETATM    6  C12 UNL     1      -1.002  50.969 -23.138  1.00  0.00     0.002 C 
HETATM    7  C13 UNL     1      -0.041  51.384 -22.054  1.00  0.00     0.157 C 
HETATM    8  O1  UNL     1       0.794  52.268 -22.246  1.00  0.00    -0.293 OA
HETATM    9  C14 UNL     1      -0.006  50.609 -20.759  1.00  0.00     0.093 C 
HETATM   10  C15 UNL     1      -1.379  50.085 -20.307  1.00  0.00    -0.026 C 
HETATM   11  C16 UNL     1      -2.248  51.279 -19.877  1.00  0.00     0.016 C 
HETATM   12  C17 UNL     1      -0.926  51.709 -24.497  1.00  0.00    -0.008 C 
HETATM   13  C18 UNL     1      -1.166  53.230 -24.252  1.00  0.00     0.021 C 
HETATM   14  C19 UNL     1       0.494  51.508 -25.115  1.00  0.00     0.022 C 
HETATM   15  C20 UNL     1       0.553  50.893 -26.506  1.00  0.00     0.080 C 
HETATM   16  C21 UNL     1      -0.446  51.503 -27.447  1.00  0.00     0.131 C 
HETATM   17  O2  UNL     1      -0.131  51.774 -28.611  1.00  0.00    -0.298 OA
HETATM   18  C22 UNL     1      -1.855  51.743 -26.931  1.00  0.00     0.056 C 
HETATM   19  C23 UNL     1      -2.878  51.195 -27.928  1.00  0.00     0.018 C 
HETATM   20  C24 UNL     1      -2.066  51.241 -25.479  1.00  0.00     0.012 C 
HETATM   21  C25 UNL     1      -2.321  49.730 -25.361  1.00  0.00     0.042 C 
HETATM   22  C26 UNL     1      -2.750  49.371 -23.940  1.00  0.00     0.148 C 
ENDROOT
BRANCH   1  23
HETATM   23  C5  UNL     1      -1.501  49.115 -17.731  1.00  0.00    -0.014 C 
HETATM   24  C6  UNL     1      -2.552  50.185 -17.426  1.00  0.00     0.010 C 
BRANCH  23  25
HETATM   25  C4  UNL     1      -0.223  49.288 -16.870  1.00  0.00     0.009 C 
BRANCH  25  26
HETATM   26  C3  UNL     1      -0.099  50.654 -16.163  1.00  0.00     0.034 C 
BRANCH  26  27
HETATM   27  C2  UNL     1       0.984  51.612 -16.625  1.00  0.00    -0.075 C 
HETATM   28  C1  UNL     1       0.829  52.393 -17.711  1.00  0.00     0.015 C 
BRANCH  27  29
HETATM   29  C27 UNL     1       2.303  51.622 -15.851  1.00  0.00     0.107 C 
HETATM   30  C28 UNL     1       3.247  52.728 -16.321  1.00  0.00     0.026 C 
BRANCH  29  31
HETATM   31  C29 UNL     1       2.097  51.708 -14.338  1.00  0.00     0.147 C 
HETATM   32  O4  UNL     1       2.583  51.007 -13.466  1.00  0.00    -0.650 OA
BRANCH  31  33
HETATM   33  O5  UNL     1       1.252  52.705 -13.994  1.00  0.00    -0.776 OA
HETATM   34  H42 UNL     1       1.216  52.648 -13.015  1.00  0.00     0.167 HD
ENDBRANCH  31  33
ENDBRANCH  29  31
ENDBRANCH  27  29
ENDBRANCH  26  27
ENDBRANCH  25  26
ENDBRANCH  23  25
ENDBRANCH   1  23
BRANCH  22  35
HETATM   35  O3  UNL     1      -4.074  49.833 -23.693  1.00  0.00    -0.391 OA
HETATM   36  H37 UNL     1      -4.667  49.373 -24.311  1.00  0.00     0.210 HD
ENDBRANCH  22  35
TORSDOF 8
ENDMDL
MODEL 2
REMARK minimizedAffinity -9.43946457
REMARK  8 active torsions:
REMARK  status: ('A' for Active; 'I' for Inactive)
REMARK    1  A    between atoms: C2_2  and  C3_3 
REMARK    2  A    between atoms: C2_2  and  C27_30 
REMARK    3  A    between atoms: C3_3  and  C4_4 
REMARK    4  A    between atoms: C4_4  and  C5_5 
REMARK    5  A    between atoms: C5_5  and  C7_7 
REMARK    6  A    between atoms: C26_28  and  O3_29 
REMARK    7  A    between atoms: C27_30  and  C29_32 
REMARK    8  A    between atoms: C29_32  and  O5_34 
ROOT
HETATM    1  C7  UNL     1      -0.727  51.103 -22.876  1.00  0.00    -0.002 C 
HETATM    2  C8  UNL     1       0.518  52.005 -22.791  1.00  0.00     0.006 C 
HETATM    3  C9  UNL     1       1.004  51.830 -21.361  1.00  0.00     0.010 C 
HETATM    4  C10 UNL     1      -0.304  51.901 -20.573  1.00  0.00     0.027 C 
HETATM    5  C11 UNL     1      -0.180  51.554 -19.102  1.00  0.00    -0.036 C 
HETATM    6  C12 UNL     1      -0.754  50.473 -18.524  1.00  0.00     0.002 C 
HETATM    7  C13 UNL     1      -1.374  49.436 -19.426  1.00  0.00     0.157 C 
HETATM    8  O1  UNL     1      -1.874  48.409 -18.967  1.00  0.00    -0.293 OA
HETATM    9  C14 UNL     1      -1.255  49.590 -20.922  1.00  0.00     0.093 C 
HETATM   10  C15 UNL     1      -1.303  51.049 -21.406  1.00  0.00    -0.026 C 
HETATM   11  C16 UNL     1      -2.725  51.595 -21.196  1.00  0.00     0.016 C 
HETATM   12  C17 UNL     1      -0.790  50.220 -16.996  1.00  0.00    -0.008 C 
HETATM   13  C18 UNL     1      -2.276  50.076 -16.547  1.00  0.00     0.021 C 
HETATM   14  C19 UNL     1      -0.028  48.895 -16.674  1.00  0.00     0.022 C 
HETATM   15  C20 UNL     1       1.128  48.994 -15.689  1.00  0.00     0.080 C 
HETATM   16  C21 UNL     1       0.784  49.814 -14.479  1.00  0.00     0.131 C 
HETATM   17  O2  UNL     1       1.125  49.444 -13.350  1.00  0.00    -0.298 OA
HETATM   18  C22 UNL     1       0.034  51.118 -14.693  1.00  0.00     0.056 C 
HETATM   19  C23 UNL     1       0.718  52.247 -13.920  1.00  0.00     0.018 C 
HETATM   20  C24 UNL     1      -0.209  51.443 -16.190  1.00  0.00     0.012 C 
HETATM   21  C25 UNL     1       1.000  52.063 -16.908  1.00  0.00     0.042 C 
HETATM   22  C26 UNL     1       0.598  52.564 -18.294  1.00  0.00     0.148 C 
ENDROOT
BRANCH   1  23
HETATM   23  C5  UNL     1      -1.608  51.400 -24.122  1.00  0.00    -0.014 C 
HETATM   24  C6  UNL     1      -1.777  50.231 -25.093  1.00  0.00     0.010 C 
BRANCH  23  25
HETATM   25  C4  UNL     1      -1.145  52.695 -24.839  1.00  0.00     0.009 C 
BRANCH  25  26
HETATM   26  C3  UNL     1       0.374  52.786 -25.092  1.00  0.00     0.034 C 
BRANCH  26  27
HETATM   27  C2  UNL     1       0.920  52.266 -26.410  1.00  0.00    -0.075 C 
HETATM   28  C1  UNL     1       2.049  51.536 -26.475  1.00  0.00     0.015 C 
BRANCH  27  29
HETATM   29  C27 UNL     1       0.178  52.654 -27.691  1.00  0.00     0.107 C 
HETATM   30  C28 UNL     1      -0.911  51.649 -28.061  1.00  0.00     0.026 C 
BRANCH  29  31
HETATM   31  C29 UNL     1      -0.402  54.068 -27.629  1.00  0.00     0.147 C 
HETATM   32  O4  UNL     1       0.086  55.066 -27.127  1.00  0.00    -0.650 OA
BRANCH  31  33
HETATM   33  O5  UNL     1      -1.616  54.147 -28.220  1.00  0.00    -0.776 OA
HETATM   34  H42 UNL     1      -1.862  55.091 -28.113  1.00  0.00     0.167 HD
ENDBRANCH  31  33
ENDBRANCH  29  31
ENDBRANCH  27  29
ENDBRANCH  26  27
ENDBRANCH  25  26
ENDBRANCH  23  25
ENDBRANCH   1  23
BRANCH  22  35
HETATM   35  O3  UNL     1      -0.209  53.732 -18.181  1.00  0.00    -0.391 OA
HETATM   36  H37 UNL     1       0.329  54.421 -17.757  1.00  0.00     0.210 HD
ENDBRANCH  22  35
TORSDOF 8
ENDMDL
MODEL 3
REMARK minimizedAffinity -9.27825832
REMARK  8 active torsions:
REMARK  status: ('A' for Active; 'I' for Inactive)
REMARK    1  A    between atoms: C2_2  and  C3_3 
REMARK    2  A    between atoms: C2_2  and  C27_30 
REMARK    3  A    between atoms: C3_3  and  C4_4 
REMARK    4  A    between atoms: C4_4  and  C5_5 
REMARK    5  A    between atoms: C5_5  and  C7_7 
REMARK    6  A    between atoms: C26_28  and  O3_29 
REMARK    7  A    between atoms: C27_30  and  C29_32 
REMARK    8  A    between atoms: C29_32  and  O5_34 
ROOT
HETATM    1  C7  UNL     1      -0.613  51.394 -23.212  1.00  0.00    -0.002 C 
HETATM    2  C8  UNL     1       0.728  52.130 -23.043  1.00  0.00     0.006 C 
HETATM    3  C9  UNL     1       1.120  51.858 -21.600  1.00  0.00     0.010 C 
HETATM    4  C10 UNL     1      -0.206  52.072 -20.868  1.00  0.00     0.027 C 
HETATM    5  C11 UNL     1      -0.197  51.674 -19.405  1.00  0.00    -0.036 C 
HETATM    6  C12 UNL     1      -0.928  50.660 -18.888  1.00  0.00     0.002 C 
HETATM    7  C13 UNL     1      -1.629  49.733 -19.849  1.00  0.00     0.157 C 
HETATM    8  O1  UNL     1      -2.274  48.766 -19.445  1.00  0.00    -0.293 OA
HETATM    9  C14 UNL     1      -1.420  49.910 -21.333  1.00  0.00     0.093 C 
HETATM   10  C15 UNL     1      -1.262  51.376 -21.772  1.00  0.00    -0.026 C 
HETATM   11  C16 UNL     1      -2.613  52.090 -21.608  1.00  0.00     0.016 C 
HETATM   12  C17 UNL     1      -1.068  50.374 -17.372  1.00  0.00    -0.008 C 
HETATM   13  C18 UNL     1      -2.580  50.407 -16.994  1.00  0.00     0.021 C 
HETATM   14  C19 UNL     1      -0.494  48.956 -17.059  1.00  0.00     0.022 C 
HETATM   15  C20 UNL     1       0.616  48.882 -16.021  1.00  0.00     0.080 C 
HETATM   16  C21 UNL     1       0.320  49.707 -14.802  1.00  0.00     0.131 C 
HETATM   17  O2  UNL     1       0.558  49.268 -13.671  1.00  0.00    -0.298 OA
HETATM   18  C22 UNL     1      -0.251  51.101 -15.007  1.00  0.00     0.056 C 
HETATM   19  C23 UNL     1       0.531  52.115 -14.170  1.00  0.00     0.018 C 
HETATM   20  C24 UNL     1      -0.379  51.493 -16.503  1.00  0.00     0.012 C 
HETATM   21  C25 UNL     1       0.931  51.973 -17.147  1.00  0.00     0.042 C 
HETATM   22  C26 UNL     1       0.661  52.557 -18.532  1.00  0.00     0.148 C 
ENDROOT
BRANCH   1  23
HETATM   23  C5  UNL     1      -1.391  51.833 -24.486  1.00  0.00    -0.014 C 
HETATM   24  C6  UNL     1      -0.908  53.136 -25.125  1.00  0.00     0.010 C 
BRANCH  23  25
HETATM   25  C4  UNL     1      -2.921  51.835 -24.235  1.00  0.00     0.009 C 
BRANCH  25  26
HETATM   26  C3  UNL     1      -3.743  51.008 -25.246  1.00  0.00     0.034 C 
BRANCH  26  27
HETATM   27  C2  UNL     1      -3.344  49.565 -25.495  1.00  0.00    -0.075 C 
HETATM   28  C1  UNL     1      -3.121  48.703 -24.484  1.00  0.00     0.015 C 
BRANCH  27  29
HETATM   29  C27 UNL     1      -3.133  49.124 -26.944  1.00  0.00     0.107 C 
HETATM   30  C28 UNL     1      -4.325  48.342 -27.495  1.00  0.00     0.026 C 
BRANCH  29  31
HETATM   31  C29 UNL     1      -2.790  50.291 -27.870  1.00  0.00     0.147 C 
HETATM   32  O4  UNL     1      -1.879  51.095 -27.770  1.00  0.00    -0.650 OA
BRANCH  31  33
HETATM   33  O5  UNL     1      -3.651  50.389 -28.908  1.00  0.00    -0.776 OA
HETATM   34  H42 UNL     1      -3.316  51.161 -29.412  1.00  0.00     0.167 HD
ENDBRANCH  31  33
ENDBRANCH  29  31
ENDBRANCH  27  29
ENDBRANCH  26  27
ENDBRANCH  25  26
ENDBRANCH  23  25
ENDBRANCH   1  23
BRANCH  22  35
HETATM   35  O3  UNL     1       0.002  53.814 -18.418  1.00  0.00    -0.391 OA
HETATM   36  H37 UNL     1       0.601  54.419 -17.949  1.00  0.00     0.210 HD
ENDBRANCH  22  35
TORSDOF 8
ENDMDL
MODEL 4
REMARK minimizedAffinity -9.26093483
REMARK  8 active torsions:
REMARK  status: ('A' for Active; 'I' for Inactive)
REMARK    1  A    between atoms: C2_2  and  C3_3 
REMARK    2  A    between atoms: C2_2  and  C27_30 
REMARK    3  A    between atoms: C3_3  and  C4_4 
REMARK    4  A    between atoms: C4_4  and  C5_5 
REMARK    5  A    between atoms: C5_5  and  C7_7 
REMARK    6  A    between atoms: C26_28  and  O3_29 
REMARK    7  A    between atoms: C27_30  and  C29_32 
REMARK    8  A    between atoms: C29_32  and  O5_34 
ROOT
HETATM    1  C7  UNL     1      -2.868  50.995 -25.310  1.00  0.00    -0.002 C 
HETATM    2  C8  UNL     1      -3.808  52.198 -25.112  1.00  0.00     0.006 C 
HETATM    3  C9  UNL     1      -4.585  51.856 -23.851  1.00  0.00     0.010 C 
HETATM    4  C10 UNL     1      -4.925  50.383 -24.080  1.00  0.00     0.027 C 
HETATM    5  C11 UNL     1      -5.540  49.678 -22.886  1.00  0.00    -0.036 C 
HETATM    6  C12 UNL     1      -4.945  48.668 -22.211  1.00  0.00     0.002 C 
HETATM    7  C13 UNL     1      -3.501  48.364 -22.521  1.00  0.00     0.157 C 
HETATM    8  O1  UNL     1      -2.890  47.488 -21.912  1.00  0.00    -0.293 OA
HETATM    9  C14 UNL     1      -2.753  49.242 -23.494  1.00  0.00     0.093 C 
HETATM   10  C15 UNL     1      -3.616  49.770 -24.652  1.00  0.00    -0.026 C 
HETATM   11  C16 UNL     1      -3.975  48.595 -25.577  1.00  0.00     0.016 C 
HETATM   12  C17 UNL     1      -5.645  47.823 -21.118  1.00  0.00    -0.008 C 
HETATM   13  C18 UNL     1      -5.589  46.321 -21.535  1.00  0.00     0.021 C 
HETATM   14  C19 UNL     1      -4.892  48.005 -19.762  1.00  0.00     0.022 C 
HETATM   15  C20 UNL     1      -5.716  48.506 -18.585  1.00  0.00     0.080 C 
HETATM   16  C21 UNL     1      -7.035  47.800 -18.464  1.00  0.00     0.131 C 
HETATM   17  O2  UNL     1      -7.459  47.442 -17.359  1.00  0.00    -0.298 OA
HETATM   18  C22 UNL     1      -7.838  47.569 -19.734  1.00  0.00     0.056 C 
HETATM   19  C23 UNL     1      -9.287  48.012 -19.523  1.00  0.00     0.018 C 
HETATM   20  C24 UNL     1      -7.174  48.182 -20.994  1.00  0.00     0.012 C 
HETATM   21  C25 UNL     1      -7.409  49.692 -21.163  1.00  0.00     0.042 C 
HETATM   22  C26 UNL     1      -6.928  50.155 -22.537  1.00  0.00     0.148 C 
ENDROOT
BRANCH   1  23
HETATM   23  C5  UNL     1      -2.242  50.942 -26.733  1.00  0.00    -0.014 C 
HETATM   24  C6  UNL     1      -3.144  50.349 -27.817  1.00  0.00     0.010 C 
BRANCH  23  25
HETATM   25  C4  UNL     1      -0.843  50.274 -26.704  1.00  0.00     0.009 C 
BRANCH  25  26
HETATM   26  C3  UNL     1       0.306  51.200 -26.254  1.00  0.00     0.034 C 
BRANCH  26  27
HETATM   27  C2  UNL     1       0.105  52.701 -26.347  1.00  0.00    -0.075 C 
HETATM   28  C1  UNL     1       0.219  53.363 -27.514  1.00  0.00     0.015 C 
BRANCH  27  29
HETATM   29  C27 UNL     1      -0.171  53.465 -25.052  1.00  0.00     0.107 C 
HETATM   30  C28 UNL     1       0.188  52.654 -23.808  1.00  0.00     0.026 C 
BRANCH  29  31
HETATM   31  C29 UNL     1       0.520  54.829 -25.014  1.00  0.00     0.147 C 
HETATM   32  O4  UNL     1       0.348  55.785 -25.750  1.00  0.00    -0.650 OA
BRANCH  31  33
HETATM   33  O5  UNL     1       1.430  54.912 -24.017  1.00  0.00    -0.776 OA
HETATM   34  H42 UNL     1       1.785  55.822 -24.107  1.00  0.00     0.167 HD
ENDBRANCH  31  33
ENDBRANCH  29  31
ENDBRANCH  27  29
ENDBRANCH  26  27
ENDBRANCH  25  26
ENDBRANCH  23  25
ENDBRANCH   1  23
BRANCH  22  35
HETATM   35  O3  UNL     1      -7.809  49.684 -23.552  1.00  0.00    -0.391 OA
HETATM   36  H37 UNL     1      -8.682  50.079 -23.391  1.00  0.00     0.210 HD
ENDBRANCH  22  35
TORSDOF 8
ENDMDL
MODEL 5
REMARK minimizedAffinity -9.24388885
REMARK  8 active torsions:
REMARK  status: ('A' for Active; 'I' for Inactive)
REMARK    1  A    between atoms: C2_2  and  C3_3 
REMARK    2  A    between atoms: C2_2  and  C27_30 
REMARK    3  A    between atoms: C3_3  and  C4_4 
REMARK    4  A    between atoms: C4_4  and  C5_5 
REMARK    5  A    between atoms: C5_5  and  C7_7 
REMARK    6  A    between atoms: C26_28  and  O3_29 
REMARK    7  A    between atoms: C27_30  and  C29_32 
REMARK    8  A    between atoms: C29_32  and  O5_34 
ROOT
HETATM    1  C7  UNL     1      -1.853  51.811 -22.707  1.00  0.00    -0.002 C 
HETATM    2  C8  UNL     1      -2.853  52.555 -23.611  1.00  0.00     0.006 C 
HETATM    3  C9  UNL     1      -4.212  52.065 -23.139  1.00  0.00     0.010 C 
HETATM    4  C10 UNL     1      -3.970  50.563 -22.987  1.00  0.00     0.027 C 
HETATM    5  C11 UNL     1      -5.101  49.799 -22.325  1.00  0.00    -0.036 C 
HETATM    6  C12 UNL     1      -5.004  49.184 -21.124  1.00  0.00     0.002 C 
HETATM    7  C13 UNL     1      -3.774  49.449 -20.292  1.00  0.00     0.157 C 
HETATM    8  O1  UNL     1      -3.644  48.956 -19.173  1.00  0.00    -0.293 OA
HETATM    9  C14 UNL     1      -2.752  50.446 -20.781  1.00  0.00     0.093 C 
HETATM   10  C15 UNL     1      -2.575  50.464 -22.308  1.00  0.00    -0.026 C 
HETATM   11  C16 UNL     1      -1.895  49.155 -22.743  1.00  0.00     0.016 C 
HETATM   12  C17 UNL     1      -6.089  48.248 -20.536  1.00  0.00    -0.008 C 
HETATM   13  C18 UNL     1      -5.445  46.858 -20.244  1.00  0.00     0.021 C 
HETATM   14  C19 UNL     1      -6.625  48.853 -19.200  1.00  0.00     0.022 C 
HETATM   15  C20 UNL     1      -8.124  49.105 -19.118  1.00  0.00     0.080 C 
HETATM   16  C21 UNL     1      -8.930  47.949 -19.635  1.00  0.00     0.131 C 
HETATM   17  O2  UNL     1      -9.942  47.568 -19.035  1.00  0.00    -0.298 OA
HETATM   18  C22 UNL     1      -8.479  47.288 -20.927  1.00  0.00     0.056 C 
HETATM   19  C23 UNL     1      -9.667  47.137 -21.879  1.00  0.00     0.018 C 
HETATM   20  C24 UNL     1      -7.249  47.981 -21.569  1.00  0.00     0.012 C 
HETATM   21  C25 UNL     1      -7.582  49.247 -22.374  1.00  0.00     0.042 C 
HETATM   22  C26 UNL     1      -6.358  49.718 -23.157  1.00  0.00     0.148 C 
ENDROOT
BRANCH   1  23
HETATM   23  C5  UNL     1      -0.394  51.864 -23.244  1.00  0.00    -0.014 C 
HETATM   24  C6  UNL     1       0.520  52.872 -22.545  1.00  0.00     0.010 C 
BRANCH  23  25
HETATM   25  C4  UNL     1      -0.371  52.023 -24.786  1.00  0.00     0.009 C 
BRANCH  25  26
HETATM   26  C3  UNL     1       1.019  51.850 -25.433  1.00  0.00     0.034 C 
BRANCH  26  27
HETATM   27  C2  UNL     1       1.124  51.892 -26.947  1.00  0.00    -0.075 C 
HETATM   28  C1  UNL     1       2.306  51.791 -27.582  1.00  0.00     0.015 C 
BRANCH  27  29
HETATM   29  C27 UNL     1      -0.162  52.121 -27.743  1.00  0.00     0.107 C 
HETATM   30  C28 UNL     1      -1.269  51.141 -27.358  1.00  0.00     0.026 C 
BRANCH  29  31
HETATM   31  C29 UNL     1      -0.668  53.560 -27.643  1.00  0.00     0.147 C 
HETATM   32  O4  UNL     1      -0.086  54.539 -27.208  1.00  0.00    -0.650 OA
BRANCH  31  33
HETATM   33  O5  UNL     1      -1.931  53.691 -28.108  1.00  0.00    -0.776 OA
HETATM   34  H42 UNL     1      -2.121  54.646 -27.990  1.00  0.00     0.167 HD
ENDBRANCH  31  33
ENDBRANCH  29  31
ENDBRANCH  27  29
ENDBRANCH  26  27
ENDBRANCH  25  26
ENDBRANCH  23  25
ENDBRANCH   1  23
BRANCH  22  35
HETATM   35  O3  UNL     1      -6.096  48.834 -24.242  1.00  0.00    -0.391 OA
HETATM   36  H37 UNL     1      -6.862  48.863 -24.838  1.00  0.00     0.210 HD
ENDBRANCH  22  35
TORSDOF 8
ENDMDL
MODEL 6
REMARK minimizedAffinity -9.12867355
REMARK  8 active torsions:
REMARK  status: ('A' for Active; 'I' for Inactive)
REMARK    1  A    between atoms: C2_2  and  C3_3 
REMARK    2  A    between atoms: C2_2  and  C27_30 
REMARK    3  A    between atoms: C3_3  and  C4_4 
REMARK    4  A    between atoms: C4_4  and  C5_5 
REMARK    5  A    between atoms: C5_5  and  C7_7 
REMARK    6  A    between atoms: C26_28  and  O3_29 
REMARK    7  A    between atoms: C27_30  and  C29_32 
REMARK    8  A    between atoms: C29_32  and  O5_34 
ROOT
HETATM    1  C7  UNL     1      -1.578  52.020 -22.446  1.00  0.00    -0.002 C 
HETATM    2  C8  UNL     1      -2.184  52.531 -23.766  1.00  0.00     0.006 C 
HETATM    3  C9  UNL     1      -3.531  51.831 -23.850  1.00  0.00     0.010 C 
HETATM    4  C10 UNL     1      -3.171  50.405 -23.434  1.00  0.00     0.027 C 
HETATM    5  C11 UNL     1      -4.357  49.485 -23.220  1.00  0.00    -0.036 C 
HETATM    6  C12 UNL     1      -4.702  48.954 -22.024  1.00  0.00     0.002 C 
HETATM    7  C13 UNL     1      -4.002  49.471 -20.793  1.00  0.00     0.157 C 
HETATM    8  O1  UNL     1      -4.300  49.062 -19.672  1.00  0.00    -0.293 OA
HETATM    9  C14 UNL     1      -3.020  50.610 -20.924  1.00  0.00     0.093 C 
HETATM   10  C15 UNL     1      -2.206  50.587 -22.229  1.00  0.00    -0.026 C 
HETATM   11  C16 UNL     1      -1.230  49.399 -22.182  1.00  0.00     0.016 C 
HETATM   12  C17 UNL     1      -5.792  47.869 -21.836  1.00  0.00    -0.008 C 
HETATM   13  C18 UNL     1      -5.150  46.631 -21.141  1.00  0.00     0.021 C 
HETATM   14  C19 UNL     1      -6.931  48.433 -20.928  1.00  0.00     0.022 C 
HETATM   15  C20 UNL     1      -8.338  48.419 -21.509  1.00  0.00     0.080 C 
HETATM   16  C21 UNL     1      -8.672  47.115 -22.175  1.00  0.00     0.131 C 
HETATM   17  O2  UNL     1      -9.779  46.590 -22.012  1.00  0.00    -0.298 OA
HETATM   18  C22 UNL     1      -7.620  46.485 -23.073  1.00  0.00     0.056 C 
HETATM   19  C23 UNL     1      -8.247  46.081 -24.409  1.00  0.00     0.018 C 
HETATM   20  C24 UNL     1      -6.344  47.353 -23.219  1.00  0.00     0.012 C 
HETATM   21  C25 UNL     1      -6.470  48.500 -24.234  1.00  0.00     0.042 C 
HETATM   22  C26 UNL     1      -5.108  49.143 -24.484  1.00  0.00     0.148 C 
ENDROOT
BRANCH   1  23
HETATM   23  C5  UNL     1      -0.054  52.305 -22.327  1.00  0.00    -0.014 C 
HETATM   24  C6  UNL     1       0.331  53.364 -21.293  1.00  0.00     0.010 C 
BRANCH  23  25
HETATM   25  C4  UNL     1       0.572  52.588 -23.718  1.00  0.00     0.009 C 
BRANCH  25  26
HETATM   26  C3  UNL     1       0.446  51.432 -24.731  1.00  0.00     0.034 C 
BRANCH  26  27
HETATM   27  C2  UNL     1       0.944  51.654 -26.148  1.00  0.00    -0.075 C 
HETATM   28  C1  UNL     1       2.255  51.626 -26.454  1.00  0.00     0.015 C 
BRANCH  27  29
HETATM   29  C27 UNL     1      -0.092  51.980 -27.225  1.00  0.00     0.107 C 
HETATM   30  C28 UNL     1      -1.292  51.035 -27.184  1.00  0.00     0.026 C 
BRANCH  29  31
HETATM   31  C29 UNL     1      -0.559  53.435 -27.171  1.00  0.00     0.147 C 
HETATM   32  O4  UNL     1       0.086  54.427 -26.877  1.00  0.00    -0.650 OA
BRANCH  31  33
HETATM   33  O5  UNL     1      -1.865  53.564 -27.496  1.00  0.00    -0.776 OA
HETATM   34  H42 UNL     1      -2.024  54.529 -27.426  1.00  0.00     0.167 HD
ENDBRANCH  31  33
ENDBRANCH  29  31
ENDBRANCH  27  29
ENDBRANCH  26  27
ENDBRANCH  25  26
ENDBRANCH  23  25
ENDBRANCH   1  23
BRANCH  22  35
HETATM   35  O3  UNL     1      -4.282  48.270 -25.247  1.00  0.00    -0.391 OA
HETATM   36  H37 UNL     1      -4.713  48.134 -26.108  1.00  0.00     0.210 HD
ENDBRANCH  22  35
TORSDOF 8
ENDMDL
MODEL 7
REMARK minimizedAffinity -8.99482155
REMARK  8 active torsions:
REMARK  status: ('A' for Active; 'I' for Inactive)
REMARK    1  A    between atoms: C2_2  and  C3_3 
REMARK    2  A    between atoms: C2_2  and  C27_30 
REMARK    3  A    between atoms: C3_3  and  C4_4 
REMARK    4  A    between atoms: C4_4  and  C5_5 
REMARK    5  A    between atoms: C5_5  and  C7_7 
REMARK    6  A    between atoms: C26_28  and  O3_29 
REMARK    7  A    between atoms: C27_30  and  C29_32 
REMARK    8  A    between atoms: C29_32  and  O5_34 
ROOT
HETATM    1  C7  UNL     1      -0.726  51.242 -23.275  1.00  0.00    -0.002 C 
HETATM    2  C8  UNL     1       0.566  52.069 -23.136  1.00  0.00     0.006 C 
HETATM    3  C9  UNL     1       0.992  51.849 -21.694  1.00  0.00     0.010 C 
HETATM    4  C10 UNL     1      -0.336  51.988 -20.948  1.00  0.00     0.027 C 
HETATM    5  C11 UNL     1      -0.283  51.617 -19.479  1.00  0.00    -0.036 C 
HETATM    6  C12 UNL     1      -0.939  50.565 -18.935  1.00  0.00     0.002 C 
HETATM    7  C13 UNL     1      -1.587  49.577 -19.871  1.00  0.00     0.157 C 
HETATM    8  O1  UNL     1      -2.160  48.576 -19.443  1.00  0.00    -0.293 OA
HETATM    9  C14 UNL     1      -1.408  49.742 -21.361  1.00  0.00     0.093 C 
HETATM   10  C15 UNL     1      -1.354  51.206 -21.826  1.00  0.00    -0.026 C 
HETATM   11  C16 UNL     1      -2.748  51.832 -21.656  1.00  0.00     0.016 C 
HETATM   12  C17 UNL     1      -1.041  50.297 -17.413  1.00  0.00    -0.008 C 
HETATM   13  C18 UNL     1      -2.547  50.236 -17.016  1.00  0.00     0.021 C 
HETATM   14  C19 UNL     1      -0.369  48.926 -17.084  1.00  0.00     0.022 C 
HETATM   15  C20 UNL     1       0.757  48.946 -16.059  1.00  0.00     0.080 C 
HETATM   16  C21 UNL     1       0.420  49.770 -14.851  1.00  0.00     0.131 C 
HETATM   17  O2  UNL     1       0.700  49.369 -13.716  1.00  0.00    -0.298 OA
HETATM   18  C22 UNL     1      -0.245  51.119 -15.072  1.00  0.00     0.056 C 
HETATM   19  C23 UNL     1       0.477  52.197 -14.262  1.00  0.00     0.018 C 
HETATM   20  C24 UNL     1      -0.418  51.475 -16.572  1.00  0.00     0.012 C 
HETATM   21  C25 UNL     1       0.850  52.031 -17.241  1.00  0.00     0.042 C 
HETATM   22  C26 UNL     1       0.525  52.570 -18.632  1.00  0.00     0.148 C 
ENDROOT
BRANCH   1  23
HETATM   23  C5  UNL     1      -1.546  51.606 -24.546  1.00  0.00    -0.014 C 
HETATM   24  C6  UNL     1      -2.748  52.520 -24.304  1.00  0.00     0.010 C 
BRANCH  23  25
HETATM   25  C4  UNL     1      -1.928  50.335 -25.347  1.00  0.00     0.009 C 
BRANCH  25  26
HETATM   26  C3  UNL     1      -2.628  49.236 -24.521  1.00  0.00     0.034 C 
BRANCH  26  27
HETATM   27  C2  UNL     1      -3.964  48.704 -25.007  1.00  0.00    -0.075 C 
HETATM   28  C1  UNL     1      -4.195  48.441 -26.308  1.00  0.00     0.015 C 
BRANCH  27  29
HETATM   29  C27 UNL     1      -5.081  48.534 -23.977  1.00  0.00     0.107 C 
HETATM   30  C28 UNL     1      -4.555  48.084 -22.615  1.00  0.00     0.026 C 
BRANCH  29  31
HETATM   31  C29 UNL     1      -5.938  49.792 -23.825  1.00  0.00     0.147 C 
HETATM   32  O4  UNL     1      -5.698  50.799 -23.183  1.00  0.00    -0.650 OA
BRANCH  31  33
HETATM   33  O5  UNL     1      -7.099  49.704 -24.513  1.00  0.00    -0.776 OA
HETATM   34  H42 UNL     1      -7.538  50.563 -24.334  1.00  0.00     0.167 HD
ENDBRANCH  31  33
ENDBRANCH  29  31
ENDBRANCH  27  29
ENDBRANCH  26  27
ENDBRANCH  25  26
ENDBRANCH  23  25
ENDBRANCH   1  23
BRANCH  22  35
HETATM   35  O3  UNL     1      -0.216  53.782 -18.530  1.00  0.00    -0.391 OA
HETATM   36  H37 UNL     1       0.346  54.434 -18.079  1.00  0.00     0.210 HD
ENDBRANCH  22  35
TORSDOF 8
ENDMDL
MODEL 8
REMARK minimizedAffinity -8.9831028
REMARK  8 active torsions:
REMARK  status: ('A' for Active; 'I' for Inactive)
REMARK    1  A    between atoms: C2_2  and  C3_3 
REMARK    2  A    between atoms: C2_2  and  C27_30 
REMARK    3  A    between atoms: C3_3  and  C4_4 
REMARK    4  A    between atoms: C4_4  and  C5_5 
REMARK    5  A    between atoms: C5_5  and  C7_7 
REMARK    6  A    between atoms: C26_28  and  O3_29 
REMARK    7  A    between atoms: C27_30  and  C29_32 
REMARK    8  A    between atoms: C29_32  and  O5_34 
ROOT
HETATM    1  C7  UNL     1      -4.796  48.153 -25.764  1.00  0.00    -0.002 C 
HETATM    2  C8  UNL     1      -3.484  48.471 -26.503  1.00  0.00     0.006 C 
HETATM    3  C9  UNL     1      -2.516  48.849 -25.393  1.00  0.00     0.010 C 
HETATM    4  C10 UNL     1      -3.382  49.755 -24.516  1.00  0.00     0.027 C 
HETATM    5  C11 UNL     1      -2.756  50.145 -23.191  1.00  0.00    -0.036 C 
HETATM    6  C12 UNL     1      -3.235  49.767 -21.983  1.00  0.00     0.002 C 
HETATM    7  C13 UNL     1      -4.323  48.724 -21.949  1.00  0.00     0.157 C 
HETATM    8  O1  UNL     1      -4.770  48.304 -20.882  1.00  0.00    -0.293 OA
HETATM    9  C14 UNL     1      -4.771  48.080 -23.238  1.00  0.00     0.093 C 
HETATM   10  C15 UNL     1      -4.755  49.028 -24.449  1.00  0.00    -0.026 C 
HETATM   11  C16 UNL     1      -5.869  50.074 -24.274  1.00  0.00     0.016 C 
HETATM   12  C17 UNL     1      -2.715  50.317 -20.631  1.00  0.00    -0.008 C 
HETATM   13  C18 UNL     1      -3.910  50.950 -19.856  1.00  0.00     0.021 C 
HETATM   14  C19 UNL     1      -2.124  49.142 -19.788  1.00  0.00     0.022 C 
HETATM   15  C20 UNL     1      -0.678  49.285 -19.338  1.00  0.00     0.080 C 
HETATM   16  C21 UNL     1      -0.380  50.649 -18.784  1.00  0.00     0.131 C 
HETATM   17  O2  UNL     1       0.306  50.778 -17.764  1.00  0.00    -0.298 OA
HETATM   18  C22 UNL     1      -0.921  51.855 -19.533  1.00  0.00     0.056 C 
HETATM   19  C23 UNL     1       0.190  52.887 -19.736  1.00  0.00     0.018 C 
HETATM   20  C24 UNL     1      -1.669  51.477 -20.839  1.00  0.00     0.012 C 
HETATM   21  C25 UNL     1      -0.748  51.192 -22.036  1.00  0.00     0.042 C 
HETATM   22  C26 UNL     1      -1.567  51.065 -23.319  1.00  0.00     0.148 C 
ENDROOT
BRANCH   1  23
HETATM   23  C5  UNL     1      -6.029  48.103 -26.710  1.00  0.00    -0.014 C 
HETATM   24  C6  UNL     1      -7.141  47.146 -26.278  1.00  0.00     0.010 C 
BRANCH  23  25
HETATM   25  C4  UNL     1      -5.596  47.873 -28.182  1.00  0.00     0.009 C 
BRANCH  25  26
HETATM   26  C3  UNL     1      -6.613  47.092 -29.040  1.00  0.00     0.034 C 
BRANCH  26  27
HETATM   27  C2  UNL     1      -7.061  47.696 -30.359  1.00  0.00    -0.075 C 
HETATM   28  C1  UNL     1      -8.025  48.633 -30.422  1.00  0.00     0.015 C 
BRANCH  27  29
HETATM   29  C27 UNL     1      -6.425  47.157 -31.641  1.00  0.00     0.107 C 
HETATM   30  C28 UNL     1      -7.138  47.651 -32.899  1.00  0.00     0.026 C 
BRANCH  29  31
HETATM   31  C29 UNL     1      -4.928  47.458 -31.727  1.00  0.00     0.147 C 
HETATM   32  O4  UNL     1      -4.005  46.676 -31.881  1.00  0.00    -0.650 OA
BRANCH  31  33
HETATM   33  O5  UNL     1      -4.665  48.779 -31.602  1.00  0.00    -0.776 OA
HETATM   34  H42 UNL     1      -3.688  48.827 -31.679  1.00  0.00     0.167 HD
ENDBRANCH  31  33
ENDBRANCH  29  31
ENDBRANCH  27  29
ENDBRANCH  26  27
ENDBRANCH  25  26
ENDBRANCH  23  25
ENDBRANCH   1  23
BRANCH  22  35
HETATM   35  O3  UNL     1      -2.056  52.341 -23.720  1.00  0.00    -0.391 OA
HETATM   36  H37 UNL     1      -1.287  52.905 -23.909  1.00  0.00     0.210 HD
ENDBRANCH  22  35
TORSDOF 8
ENDMDL
MODEL 9
REMARK minimizedAffinity -8.98050308
REMARK  8 active torsions:
REMARK  status: ('A' for Active; 'I' for Inactive)
REMARK    1  A    between atoms: C2_2  and  C3_3 
REMARK    2  A    between atoms: C2_2  and  C27_30 
REMARK    3  A    between atoms: C3_3  and  C4_4 
REMARK    4  A    between atoms: C4_4  and  C5_5 
REMARK    5  A    between atoms: C5_5  and  C7_7 
REMARK    6  A    between atoms: C26_28  and  O3_29 
REMARK    7  A    between atoms: C27_30  and  C29_32 
REMARK    8  A    between atoms: C29_32  and  O5_34 
ROOT
HETATM    1  C7  UNL     1      -1.032  50.282 -22.619  1.00  0.00    -0.002 C 
HETATM    2  C8  UNL     1      -0.870  49.868 -21.145  1.00  0.00     0.006 C 
HETATM    3  C9  UNL     1      -2.108  49.033 -20.858  1.00  0.00     0.010 C 
HETATM    4  C10 UNL     1      -3.208  49.864 -21.520  1.00  0.00     0.027 C 
HETATM    5  C11 UNL     1      -4.565  49.188 -21.585  1.00  0.00    -0.036 C 
HETATM    6  C12 UNL     1      -5.178  48.821 -22.734  1.00  0.00     0.002 C 
HETATM    7  C13 UNL     1      -4.382  48.890 -24.013  1.00  0.00     0.157 C 
HETATM    8  O1  UNL     1      -4.866  48.530 -25.085  1.00  0.00    -0.293 OA
HETATM    9  C14 UNL     1      -2.923  49.272 -23.956  1.00  0.00     0.093 C 
HETATM   10  C15 UNL     1      -2.590  50.313 -22.874  1.00  0.00    -0.026 C 
HETATM   11  C16 UNL     1      -3.202  51.664 -23.282  1.00  0.00     0.016 C 
HETATM   12  C17 UNL     1      -6.637  48.309 -22.815  1.00  0.00    -0.008 C 
HETATM   13  C18 UNL     1      -7.438  49.230 -23.785  1.00  0.00     0.021 C 
HETATM   14  C19 UNL     1      -6.642  46.850 -23.375  1.00  0.00     0.022 C 
HETATM   15  C20 UNL     1      -7.303  45.789 -22.508  1.00  0.00     0.080 C 
HETATM   16  C21 UNL     1      -8.625  46.238 -21.955  1.00  0.00     0.131 C 
HETATM   17  O2  UNL     1      -9.594  45.472 -21.938  1.00  0.00    -0.298 OA
HETATM   18  C22 UNL     1      -8.720  47.648 -21.395  1.00  0.00     0.056 C 
HETATM   19  C23 UNL     1      -9.383  47.620 -20.017  1.00  0.00     0.018 C 
HETATM   20  C24 UNL     1      -7.367  48.407 -21.422  1.00  0.00     0.012 C 
HETATM   21  C25 UNL     1      -6.417  48.051 -20.267  1.00  0.00     0.042 C 
HETATM   22  C26 UNL     1      -5.228  49.008 -20.241  1.00  0.00     0.148 C 
ENDROOT
BRANCH   1  23
HETATM   23  C5  UNL     1      -0.082  51.443 -23.030  1.00  0.00    -0.014 C 
HETATM   24  C6  UNL     1      -0.096  52.656 -22.098  1.00  0.00     0.010 C 
BRANCH  23  25
HETATM   25  C4  UNL     1      -0.296  51.842 -24.514  1.00  0.00     0.009 C 
BRANCH  25  26
HETATM   26  C3  UNL     1       0.930  52.488 -25.193  1.00  0.00     0.034 C 
BRANCH  26  27
HETATM   27  C2  UNL     1       1.243  52.111 -26.629  1.00  0.00    -0.075 C 
HETATM   28  C1  UNL     1       2.447  51.629 -26.992  1.00  0.00     0.015 C 
BRANCH  27  29
HETATM   29  C27 UNL     1       0.162  52.357 -27.682  1.00  0.00     0.107 C 
HETATM   30  C28 UNL     1      -0.882  51.242 -27.719  1.00  0.00     0.026 C 
BRANCH  29  31
HETATM   31  C29 UNL     1      -0.519  53.717 -27.519  1.00  0.00     0.147 C 
HETATM   32  O4  UNL     1      -0.048  54.752 -27.081  1.00  0.00    -0.650 OA
BRANCH  31  33
HETATM   33  O5  UNL     1      -1.808  53.694 -27.927  1.00  0.00    -0.776 OA
HETATM   34  H42 UNL     1      -2.114  54.613 -27.774  1.00  0.00     0.167 HD
ENDBRANCH  31  33
ENDBRANCH  29  31
ENDBRANCH  27  29
ENDBRANCH  26  27
ENDBRANCH  25  26
ENDBRANCH  23  25
ENDBRANCH   1  23
BRANCH  22  35
HETATM   35  O3  UNL     1      -5.640  50.295 -19.793  1.00  0.00    -0.391 OA
HETATM   36  H37 UNL     1      -5.969  50.200 -18.884  1.00  0.00     0.210 HD
ENDBRANCH  22  35
TORSDOF 8
ENDMDL
