MODEL 1
REMARK minimizedAffinity -6.47871876
REMARK CNNscore 0.55470407
REMARK CNNaffinity 6.47044754
REMARK  8 active torsions:
REMARK  status: ('A' for Active; 'I' for Inactive)
REMARK    1  A    between atoms: O1_2  and  C2_3 
REMARK    2  A    between atoms: C2_3  and  C5_6 
REMARK    3  A    between atoms: C6_7  and  C7_8 
REMARK    4  A    between atoms: C7_8  and  C8_9 
REMARK    5  A    between atoms: C8_9  and  C10_11 
REMARK    6  A    between atoms: C16_17  and  O2_18 
REMARK    7  A    between atoms: C19_21  and  C21_23 
REMARK    8  A    between atoms: C21_23  and  O3_24 
ROOT
HETATM    1  C10 UNL     1      -2.540  12.214  17.132  1.00  0.00    -0.002 C 
HETATM    2  C11 UNL     1      -3.447  12.096  15.921  1.00  0.00     0.006 C 
HETATM    3  C12 UNL     1      -2.476  12.086  14.749  1.00  0.00     0.011 C 
HETATM    4  C13 UNL     1      -1.106  11.491  15.252  1.00  0.00    -0.030 C 
HETATM    5  C14 UNL     1      -0.034  12.555  14.909  1.00  0.00     0.016 C 
HETATM    6  C15 UNL     1      -0.800  10.175  14.450  1.00  0.00     0.032 C 
HETATM    7  C16 UNL     1       0.655   9.627  14.442  1.00  0.00     0.124 C 
HETATM    8  C17 UNL     1       0.787   8.169  13.956  1.00  0.00     0.038 C 
HETATM    9  C18 UNL     1      -0.382   7.677  13.079  1.00  0.00     0.015 C 
HETATM   10  C19 UNL     1      -0.105   6.268  12.448  1.00  0.00     0.042 C 
HETATM   11  C20 UNL     1       0.713   5.301  13.335  1.00  0.00     0.026 C 
HETATM   12  C22 UNL     1      -1.423   5.559  12.136  1.00  0.00     0.137 C 
HETATM   13  O4  UNL     1      -1.601   4.955  11.071  1.00  0.00    -0.297 OA
HETATM   14  C23 UNL     1      -2.501   5.526  13.198  1.00  0.00     0.080 C 
HETATM   15  C24 UNL     1      -2.198   6.418  14.393  1.00  0.00     0.018 C 
HETATM   16  C25 UNL     1      -1.669   7.748  13.920  1.00  0.00    -0.026 A 
HETATM   17  C26 UNL     1      -2.749   8.743  13.585  1.00  0.00     0.021 A 
HETATM   18  C27 UNL     1      -1.807   9.051  14.735  1.00  0.00    -0.025 A 
HETATM   19  C28 UNL     1      -2.324   8.963  16.155  1.00  0.00     0.011 C 
HETATM   20  C29 UNL     1      -1.524   9.787  17.155  1.00  0.00     0.011 C 
HETATM   21  C30 UNL     1      -1.315  11.285  16.811  1.00  0.00    -0.032 C 
HETATM   22  C31 UNL     1      -0.135  11.781  17.689  1.00  0.00     0.016 C 
ENDROOT
BRANCH   1  23
HETATM   23  C8  UNL     1      -3.225  12.048  18.522  1.00  0.00    -0.010 C 
HETATM   24  C9  UNL     1      -3.683  10.622  18.855  1.00  0.00     0.010 C 
BRANCH  23  25
HETATM   25  C7  UNL     1      -4.456  12.978  18.674  1.00  0.00     0.031 C 
BRANCH  25  26
HETATM   26  C6  UNL     1      -4.754  13.339  20.102  1.00  0.00    -0.027 C 
HETATM   27  C5  UNL     1      -5.986  13.627  20.564  1.00  0.00     0.006 C 
BRANCH  27  28
HETATM   28  C2  UNL     1      -6.356  14.032  21.979  1.00  0.00     0.070 C 
HETATM   29  C3  UNL     1      -5.098  14.615  22.641  1.00  0.00     0.050 C 
HETATM   30  C4  UNL     1      -7.465  15.090  21.891  1.00  0.00     0.050 C 
BRANCH  28  31
HETATM   31  O1  UNL     1      -6.806  12.862  22.675  1.00  0.00    -0.382 OA
HETATM   32  C1  UNL     1      -7.989  12.980  23.447  1.00  0.00     0.202 C 
ENDBRANCH  28  31
ENDBRANCH  27  28
ENDBRANCH  25  26
ENDBRANCH  23  25
ENDBRANCH   1  23
BRANCH   7  33
HETATM   33  O2  UNL     1       1.286   9.712  15.717  1.00  0.00    -0.395 OA
HETATM   34  H28 UNL     1       2.222   9.475  15.600  1.00  0.00     0.210 HD
ENDBRANCH   7  33
BRANCH  10  35
HETATM   35  C21 UNL     1       0.698   6.426  11.133  1.00  0.00     0.181 C 
BRANCH  35  36
HETATM   36  O3  UNL     1       0.103   7.364  10.248  1.00  0.00    -0.400 OA
HETATM   37  H37 UNL     1      -0.435   6.850   9.611  1.00  0.00     0.209 HD
ENDBRANCH  35  36
ENDBRANCH  10  35
TORSDOF 8
ENDMDL
MODEL 2
REMARK minimizedAffinity -6.53918028
REMARK CNNscore 0.498109758
REMARK CNNaffinity 6.28755808
REMARK  8 active torsions:
REMARK  status: ('A' for Active; 'I' for Inactive)
REMARK    1  A    between atoms: O1_2  and  C2_3 
REMARK    2  A    between atoms: C2_3  and  C5_6 
REMARK    3  A    between atoms: C6_7  and  C7_8 
REMARK    4  A    between atoms: C7_8  and  C8_9 
REMARK    5  A    between atoms: C8_9  and  C10_11 
REMARK    6  A    between atoms: C16_17  and  O2_18 
REMARK    7  A    between atoms: C19_21  and  C21_23 
REMARK    8  A    between atoms: C21_23  and  O3_24 
ROOT
HETATM    1  C10 UNL     1      -3.434 -11.823   2.765  1.00  0.00    -0.002 C 
HETATM    2  C11 UNL     1      -2.567 -10.765   3.421  1.00  0.00     0.006 C 
HETATM    3  C12 UNL     1      -3.522  -9.596   3.621  1.00  0.00     0.011 C 
HETATM    4  C13 UNL     1      -4.981 -10.173   3.766  1.00  0.00    -0.030 C 
HETATM    5  C14 UNL     1      -5.828  -9.456   2.686  1.00  0.00     0.016 C 
HETATM    6  C15 UNL     1      -5.536  -9.799   5.187  1.00  0.00     0.032 C 
HETATM    7  C16 UNL     1      -7.069  -9.872   5.434  1.00  0.00     0.124 C 
HETATM    8  C17 UNL     1      -7.479  -9.851   6.920  1.00  0.00     0.038 C 
HETATM    9  C18 UNL     1      -6.427  -9.241   7.868  1.00  0.00     0.015 C 
HETATM   10  C19 UNL     1      -6.971  -9.058   9.329  1.00  0.00     0.042 C 
HETATM   11  C20 UNL     1      -7.961 -10.148   9.801  1.00  0.00     0.026 C 
HETATM   12  C22 UNL     1      -5.814  -9.060  10.328  1.00  0.00     0.137 C 
HETATM   13  O4  UNL     1      -5.757  -8.245  11.258  1.00  0.00    -0.297 OA
HETATM   14  C23 UNL     1      -4.764 -10.144  10.223  1.00  0.00     0.080 C 
HETATM   15  C24 UNL     1      -4.888 -10.985   8.962  1.00  0.00     0.018 C 
HETATM   16  C25 UNL     1      -5.151 -10.095   7.774  1.00  0.00    -0.026 A 
HETATM   17  C26 UNL     1      -3.899  -9.536   7.150  1.00  0.00     0.021 A 
HETATM   18  C27 UNL     1      -4.764 -10.476   6.329  1.00  0.00    -0.025 A 
HETATM   19  C28 UNL     1      -4.274 -11.882   6.061  1.00  0.00     0.011 C 
HETATM   20  C29 UNL     1      -4.900 -12.530   4.833  1.00  0.00     0.011 C 
HETATM   21  C30 UNL     1      -4.815 -11.730   3.508  1.00  0.00    -0.032 C 
HETATM   22  C31 UNL     1      -5.878 -12.340   2.553  1.00  0.00     0.016 C 
ENDROOT
BRANCH   1  23
HETATM   23  C8  UNL     1      -2.795 -13.236   2.609  1.00  0.00    -0.010 C 
HETATM   24  C9  UNL     1      -3.772 -14.411   2.750  1.00  0.00     0.010 C 
BRANCH  23  25
HETATM   25  C7  UNL     1      -1.645 -13.464   3.625  1.00  0.00     0.031 C 
BRANCH  25  26
HETATM   26  C6  UNL     1      -0.287 -13.504   2.983  1.00  0.00    -0.027 C 
HETATM   27  C5  UNL     1       0.094 -12.693   1.978  1.00  0.00     0.006 C 
BRANCH  27  28
HETATM   28  C2  UNL     1       1.432 -12.699   1.261  1.00  0.00     0.070 C 
HETATM   29  C3  UNL     1       2.303 -11.600   1.888  1.00  0.00     0.050 C 
HETATM   30  C4  UNL     1       2.069 -14.081   1.466  1.00  0.00     0.050 C 
BRANCH  28  31
HETATM   31  O1  UNL     1       1.195 -12.436  -0.128  1.00  0.00    -0.382 OA
HETATM   32  C1  UNL     1       0.395 -13.365  -0.839  1.00  0.00     0.202 C 
ENDBRANCH  28  31
ENDBRANCH  27  28
ENDBRANCH  25  26
ENDBRANCH  23  25
ENDBRANCH   1  23
BRANCH   7  33
HETATM   33  O2  UNL     1      -7.671 -11.017   4.839  1.00  0.00    -0.395 OA
HETATM   34  H28 UNL     1      -8.636 -10.923   4.925  1.00  0.00     0.210 HD
ENDBRANCH   7  33
BRANCH  10  35
HETATM   35  C21 UNL     1      -7.729  -7.712   9.447  1.00  0.00     0.181 C 
BRANCH  35  36
HETATM   36  O3  UNL     1      -9.094  -7.829   9.072  1.00  0.00    -0.400 OA
HETATM   37  H37 UNL     1      -9.156  -7.541   8.138  1.00  0.00     0.209 HD
ENDBRANCH  35  36
ENDBRANCH  10  35
TORSDOF 8
ENDMDL
MODEL 3
REMARK minimizedAffinity -7.34206152
REMARK CNNscore 0.464511961
REMARK CNNaffinity 5.77937126
REMARK  8 active torsions:
REMARK  status: ('A' for Active; 'I' for Inactive)
REMARK    1  A    between atoms: O1_2  and  C2_3 
REMARK    2  A    between atoms: C2_3  and  C5_6 
REMARK    3  A    between atoms: C6_7  and  C7_8 
REMARK    4  A    between atoms: C7_8  and  C8_9 
REMARK    5  A    between atoms: C8_9  and  C10_11 
REMARK    6  A    between atoms: C16_17  and  O2_18 
REMARK    7  A    between atoms: C19_21  and  C21_23 
REMARK    8  A    between atoms: C21_23  and  O3_24 
ROOT
HETATM    1  C10 UNL     1       7.586   9.032  12.906  1.00  0.00    -0.002 C 
HETATM    2  C11 UNL     1       7.385   8.096  14.083  1.00  0.00     0.006 C 
HETATM    3  C12 UNL     1       8.767   8.017  14.714  1.00  0.00     0.011 C 
HETATM    4  C13 UNL     1       9.528   9.360  14.401  1.00  0.00    -0.030 C 
HETATM    5  C14 UNL     1      10.853   8.944  13.715  1.00  0.00     0.016 C 
HETATM    6  C15 UNL     1       9.856  10.086  15.755  1.00  0.00     0.032 C 
HETATM    7  C16 UNL     1      10.948  11.192  15.765  1.00  0.00     0.124 C 
HETATM    8  C17 UNL     1      10.940  12.087  17.021  1.00  0.00     0.038 C 
HETATM    9  C18 UNL     1      10.266  11.456  18.255  1.00  0.00     0.015 C 
HETATM   10  C19 UNL     1      10.463  12.316  19.552  1.00  0.00     0.042 C 
HETATM   11  C20 UNL     1      10.484  13.846  19.326  1.00  0.00     0.026 C 
HETATM   12  C22 UNL     1       9.336  12.040  20.547  1.00  0.00     0.137 C 
HETATM   13  O4  UNL     1       9.559  11.884  21.755  1.00  0.00    -0.297 OA
HETATM   14  C23 UNL     1       7.908  12.046  20.049  1.00  0.00     0.080 C 
HETATM   15  C24 UNL     1       7.797  12.116  18.534  1.00  0.00     0.018 C 
HETATM   16  C25 UNL     1       8.795  11.178  17.902  1.00  0.00    -0.026 A 
HETATM   17  C26 UNL     1       8.292   9.763  17.768  1.00  0.00     0.021 A 
HETATM   18  C27 UNL     1       8.599  10.550  16.505  1.00  0.00    -0.025 A 
HETATM   19  C28 UNL     1       7.453  11.041  15.648  1.00  0.00     0.011 C 
HETATM   20  C29 UNL     1       7.838  11.310  14.199  1.00  0.00     0.011 C 
HETATM   21  C30 UNL     1       8.544  10.155  13.443  1.00  0.00    -0.032 C 
HETATM   22  C31 UNL     1       9.228  10.790  12.202  1.00  0.00     0.016 C 
ENDROOT
BRANCH   1  23
HETATM   23  C8  UNL     1       6.295   9.485  12.160  1.00  0.00    -0.010 C 
HETATM   24  C9  UNL     1       4.980   8.982  12.771  1.00  0.00     0.010 C 
BRANCH  23  25
HETATM   25  C7  UNL     1       6.309   9.054  10.670  1.00  0.00     0.031 C 
BRANCH  25  26
HETATM   26  C6  UNL     1       4.935   8.951  10.070  1.00  0.00    -0.027 C 
HETATM   27  C5  UNL     1       4.299   7.786   9.844  1.00  0.00     0.006 C 
BRANCH  27  28
HETATM   28  C2  UNL     1       2.930   7.604   9.212  1.00  0.00     0.070 C 
HETATM   29  C3  UNL     1       2.872   8.492   7.960  1.00  0.00     0.050 C 
HETATM   30  C4  UNL     1       2.780   6.123   8.835  1.00  0.00     0.050 C 
BRANCH  28  31
HETATM   31  O1  UNL     1       1.940   8.001  10.169  1.00  0.00    -0.382 OA
HETATM   32  C1  UNL     1       0.597   8.077   9.722  1.00  0.00     0.202 C 
ENDBRANCH  28  31
ENDBRANCH  27  28
ENDBRANCH  25  26
ENDBRANCH  23  25
ENDBRANCH   1  23
BRANCH   7  33
HETATM   33  O2  UNL     1      10.878  12.049  14.629  1.00  0.00    -0.395 OA
HETATM   34  H28 UNL     1      11.663  12.624  14.642  1.00  0.00     0.210 HD
ENDBRANCH   7  33
BRANCH  10  35
HETATM   35  C21 UNL     1      11.816  11.964  20.221  1.00  0.00     0.181 C 
BRANCH  35  36
HETATM   36  O3  UNL     1      12.067  10.566  20.220  1.00  0.00    -0.400 OA
HETATM   37  H37 UNL     1      11.787  10.229  21.096  1.00  0.00     0.209 HD
ENDBRANCH  35  36
ENDBRANCH  10  35
TORSDOF 8
ENDMDL
MODEL 4
REMARK minimizedAffinity -6.1658144
REMARK CNNscore 0.442458004
REMARK CNNaffinity 6.03437948
REMARK  8 active torsions:
REMARK  status: ('A' for Active; 'I' for Inactive)
REMARK    1  A    between atoms: O1_2  and  C2_3 
REMARK    2  A    between atoms: C2_3  and  C5_6 
REMARK    3  A    between atoms: C6_7  and  C7_8 
REMARK    4  A    between atoms: C7_8  and  C8_9 
REMARK    5  A    between atoms: C8_9  and  C10_11 
REMARK    6  A    between atoms: C16_17  and  O2_18 
REMARK    7  A    between atoms: C19_21  and  C21_23 
REMARK    8  A    between atoms: C21_23  and  O3_24 
ROOT
HETATM    1  C10 UNL     1      -3.201 -11.840   3.164  1.00  0.00    -0.002 C 
HETATM    2  C11 UNL     1      -2.513 -10.621   3.751  1.00  0.00     0.006 C 
HETATM    3  C12 UNL     1      -3.638  -9.605   3.878  1.00  0.00     0.011 C 
HETATM    4  C13 UNL     1      -4.991 -10.390   4.062  1.00  0.00    -0.030 C 
HETATM    5  C14 UNL     1      -5.931  -9.881   2.941  1.00  0.00     0.016 C 
HETATM    6  C15 UNL     1      -5.609 -10.018   5.458  1.00  0.00     0.032 C 
HETATM    7  C16 UNL     1      -7.114 -10.312   5.712  1.00  0.00     0.124 C 
HETATM    8  C17 UNL     1      -7.535 -10.262   7.195  1.00  0.00     0.038 C 
HETATM    9  C18 UNL     1      -6.597  -9.439   8.101  1.00  0.00     0.015 C 
HETATM   10  C19 UNL     1      -7.174  -9.251   9.547  1.00  0.00     0.042 C 
HETATM   11  C20 UNL     1      -7.987 -10.450  10.089  1.00  0.00     0.026 C 
HETATM   12  C22 UNL     1      -6.039  -9.011  10.543  1.00  0.00     0.137 C 
HETATM   13  O4  UNL     1      -6.116  -8.141  11.419  1.00  0.00    -0.297 OA
HETATM   14  C23 UNL     1      -4.833  -9.924  10.505  1.00  0.00     0.080 C 
HETATM   15  C24 UNL     1      -4.816 -10.852   9.299  1.00  0.00     0.018 C 
HETATM   16  C25 UNL     1      -5.204 -10.089   8.058  1.00  0.00    -0.026 A 
HETATM   17  C26 UNL     1      -4.048  -9.383   7.397  1.00  0.00     0.021 A 
HETATM   18  C27 UNL     1      -4.751 -10.495   6.639  1.00  0.00    -0.025 A 
HETATM   19  C28 UNL     1      -4.047 -11.822   6.459  1.00  0.00     0.011 C 
HETATM   20  C29 UNL     1      -4.555 -12.635   5.276  1.00  0.00     0.011 C 
HETATM   21  C30 UNL     1      -4.585 -11.916   3.902  1.00  0.00    -0.032 C 
HETATM   22  C31 UNL     1      -5.533 -12.741   2.990  1.00  0.00     0.016 C 
ENDROOT
BRANCH   1  23
HETATM   23  C8  UNL     1      -2.349 -13.143   3.097  1.00  0.00    -0.010 C 
HETATM   24  C9  UNL     1      -1.602 -13.500   4.389  1.00  0.00     0.010 C 
BRANCH  23  25
HETATM   25  C7  UNL     1      -1.302 -13.089   1.954  1.00  0.00     0.031 C 
BRANCH  25  26
HETATM   26  C6  UNL     1      -1.915 -12.892   0.596  1.00  0.00    -0.027 C 
HETATM   27  C5  UNL     1      -3.130 -13.356   0.246  1.00  0.00     0.006 C 
BRANCH  27  28
HETATM   28  C2  UNL     1      -3.796 -13.225  -1.112  1.00  0.00     0.070 C 
HETATM   29  C3  UNL     1      -4.346 -14.607  -1.497  1.00  0.00     0.050 C 
HETATM   30  C4  UNL     1      -4.935 -12.204  -0.981  1.00  0.00     0.050 C 
BRANCH  28  31
HETATM   31  O1  UNL     1      -2.809 -12.786  -2.054  1.00  0.00    -0.382 OA
HETATM   32  C1  UNL     1      -3.053 -13.052  -3.424  1.00  0.00     0.202 C 
ENDBRANCH  28  31
ENDBRANCH  27  28
ENDBRANCH  25  26
ENDBRANCH  23  25
ENDBRANCH   1  23
BRANCH   7  33
HETATM   33  O2  UNL     1      -7.528 -11.572   5.192  1.00  0.00    -0.395 OA
HETATM   34  H28 UNL     1      -8.496 -11.623   5.273  1.00  0.00     0.210 HD
ENDBRANCH   7  33
BRANCH  10  35
HETATM   35  C21 UNL     1      -8.132  -8.034   9.582  1.00  0.00     0.181 C 
BRANCH  35  36
HETATM   36  O3  UNL     1      -7.440  -6.801   9.441  1.00  0.00    -0.400 OA
HETATM   37  H37 UNL     1      -7.301  -6.451  10.346  1.00  0.00     0.209 HD
ENDBRANCH  35  36
ENDBRANCH  10  35
TORSDOF 8
ENDMDL
MODEL 5
REMARK minimizedAffinity -6.91393852
REMARK CNNscore 0.435693502
REMARK CNNaffinity 6.72268438
REMARK  8 active torsions:
REMARK  status: ('A' for Active; 'I' for Inactive)
REMARK    1  A    between atoms: O1_2  and  C2_3 
REMARK    2  A    between atoms: C2_3  and  C5_6 
REMARK    3  A    between atoms: C6_7  and  C7_8 
REMARK    4  A    between atoms: C7_8  and  C8_9 
REMARK    5  A    between atoms: C8_9  and  C10_11 
REMARK    6  A    between atoms: C16_17  and  O2_18 
REMARK    7  A    between atoms: C19_21  and  C21_23 
REMARK    8  A    between atoms: C21_23  and  O3_24 
ROOT
HETATM    1  C10 UNL     1     -12.510   8.821  14.942  1.00  0.00    -0.002 C 
HETATM    2  C11 UNL     1     -13.287   8.566  16.220  1.00  0.00     0.006 C 
HETATM    3  C12 UNL     1     -14.735   8.783  15.805  1.00  0.00     0.011 C 
HETATM    4  C13 UNL     1     -14.861   8.453  14.270  1.00  0.00    -0.030 C 
HETATM    5  C14 UNL     1     -15.473   9.717  13.616  1.00  0.00     0.016 C 
HETATM    6  C15 UNL     1     -15.854   7.249  14.089  1.00  0.00     0.032 C 
HETATM    7  C16 UNL     1     -16.476   6.997  12.687  1.00  0.00     0.124 C 
HETATM    8  C17 UNL     1     -17.127   5.610  12.516  1.00  0.00     0.038 C 
HETATM    9  C18 UNL     1     -17.537   4.926  13.836  1.00  0.00     0.015 C 
HETATM   10  C19 UNL     1     -18.372   3.619  13.599  1.00  0.00     0.042 C 
HETATM   11  C20 UNL     1     -17.974   2.804  12.347  1.00  0.00     0.026 C 
HETATM   12  C22 UNL     1     -18.229   2.675  14.794  1.00  0.00     0.137 C 
HETATM   13  O4  UNL     1     -19.204   2.082  15.274  1.00  0.00    -0.297 OA
HETATM   14  C23 UNL     1     -16.846   2.398  15.341  1.00  0.00     0.080 C 
HETATM   15  C24 UNL     1     -15.771   3.294  14.744  1.00  0.00     0.018 C 
HETATM   16  C25 UNL     1     -16.266   4.717  14.676  1.00  0.00    -0.026 A 
HETATM   17  C26 UNL     1     -16.055   5.491  15.952  1.00  0.00     0.021 A 
HETATM   18  C27 UNL     1     -15.326   5.941  14.698  1.00  0.00    -0.025 A 
HETATM   19  C28 UNL     1     -13.835   5.709  14.588  1.00  0.00     0.011 C 
HETATM   20  C29 UNL     1     -13.136   6.641  13.608  1.00  0.00     0.011 C 
HETATM   21  C30 UNL     1     -13.372   8.161  13.807  1.00  0.00    -0.032 C 
HETATM   22  C31 UNL     1     -12.965   8.851  12.477  1.00  0.00     0.016 C 
ENDROOT
BRANCH   1  23
HETATM   23  C8  UNL     1     -10.991   8.480  14.982  1.00  0.00    -0.010 C 
HETATM   24  C9  UNL     1     -10.070   9.653  15.347  1.00  0.00     0.010 C 
BRANCH  23  25
HETATM   25  C7  UNL     1     -10.493   7.902  13.632  1.00  0.00     0.031 C 
BRANCH  25  26
HETATM   26  C6  UNL     1      -9.661   6.660  13.789  1.00  0.00    -0.027 C 
HETATM   27  C5  UNL     1      -8.385   6.660  14.220  1.00  0.00     0.006 C 
BRANCH  27  28
HETATM   28  C2  UNL     1      -7.476   5.453  14.370  1.00  0.00     0.070 C 
HETATM   29  C3  UNL     1      -6.079   5.857  13.874  1.00  0.00     0.050 C 
HETATM   30  C4  UNL     1      -7.437   5.076  15.857  1.00  0.00     0.050 C 
BRANCH  28  31
HETATM   31  O1  UNL     1      -8.013   4.388  13.576  1.00  0.00    -0.382 OA
HETATM   32  C1  UNL     1      -7.091   3.571  12.875  1.00  0.00     0.202 C 
ENDBRANCH  28  31
ENDBRANCH  27  28
ENDBRANCH  25  26
ENDBRANCH  23  25
ENDBRANCH   1  23
BRANCH   7  33
HETATM   33  O2  UNL     1     -15.539   7.164  11.627  1.00  0.00    -0.395 OA
HETATM   34  H28 UNL     1     -16.029   7.119  10.788  1.00  0.00     0.210 HD
ENDBRANCH   7  33
BRANCH  10  35
HETATM   35  C21 UNL     1     -19.870   3.973  13.420  1.00  0.00     0.181 C 
BRANCH  35  36
HETATM   36  O3  UNL     1     -20.410   4.617  14.565  1.00  0.00    -0.400 OA
HETATM   37  H37 UNL     1     -20.854   3.923  15.096  1.00  0.00     0.209 HD
ENDBRANCH  35  36
ENDBRANCH  10  35
TORSDOF 8
ENDMDL
MODEL 6
REMARK minimizedAffinity -8.70376396
REMARK CNNscore 0.426664203
REMARK CNNaffinity 6.74880981
REMARK  8 active torsions:
REMARK  status: ('A' for Active; 'I' for Inactive)
REMARK    1  A    between atoms: O1_2  and  C2_3 
REMARK    2  A    between atoms: C2_3  and  C5_6 
REMARK    3  A    between atoms: C6_7  and  C7_8 
REMARK    4  A    between atoms: C7_8  and  C8_9 
REMARK    5  A    between atoms: C8_9  and  C10_11 
REMARK    6  A    between atoms: C16_17  and  O2_18 
REMARK    7  A    between atoms: C19_21  and  C21_23 
REMARK    8  A    between atoms: C21_23  and  O3_24 
ROOT
HETATM    1  C10 UNL     1      -3.787   7.514  14.225  1.00  0.00    -0.002 C 
HETATM    2  C11 UNL     1      -3.445   8.873  13.643  1.00  0.00     0.006 C 
HETATM    3  C12 UNL     1      -2.030   9.128  14.142  1.00  0.00     0.011 C 
HETATM    4  C13 UNL     1      -1.327   7.735  14.360  1.00  0.00    -0.030 C 
HETATM    5  C14 UNL     1      -0.833   7.737  15.828  1.00  0.00     0.016 C 
HETATM    6  C15 UNL     1      -0.087   7.637  13.400  1.00  0.00     0.032 C 
HETATM    7  C16 UNL     1       1.007   6.575  13.700  1.00  0.00     0.124 C 
HETATM    8  C17 UNL     1       1.973   6.303  12.529  1.00  0.00     0.038 C 
HETATM    9  C18 UNL     1       2.061   7.441  11.492  1.00  0.00     0.015 C 
HETATM   10  C19 UNL     1       3.199   7.205  10.438  1.00  0.00     0.042 C 
HETATM   11  C20 UNL     1       3.436   5.727  10.050  1.00  0.00     0.026 C 
HETATM   12  C22 UNL     1       2.882   7.948   9.140  1.00  0.00     0.137 C 
HETATM   13  O4  UNL     1       3.746   8.589   8.530  1.00  0.00    -0.297 OA
HETATM   14  C23 UNL     1       1.495   7.818   8.548  1.00  0.00     0.080 C 
HETATM   15  C24 UNL     1       0.508   7.117   9.469  1.00  0.00     0.018 C 
HETATM   16  C25 UNL     1       0.664   7.632  10.878  1.00  0.00    -0.026 A 
HETATM   17  C26 UNL     1      -0.130   8.883  11.154  1.00  0.00     0.021 A 
HETATM   18  C27 UNL     1      -0.479   7.616  11.915  1.00  0.00    -0.025 A 
HETATM   19  C28 UNL     1      -1.755   6.878  11.572  1.00  0.00     0.011 C 
HETATM   20  C29 UNL     1      -2.277   5.994  12.696  1.00  0.00     0.011 C 
HETATM   21  C30 UNL     1      -2.469   6.670  14.079  1.00  0.00    -0.032 C 
HETATM   22  C31 UNL     1      -2.553   5.526  15.125  1.00  0.00     0.016 C 
ENDROOT
BRANCH   1  23
HETATM   23  C8  UNL     1      -5.114   6.867  13.727  1.00  0.00    -0.010 C 
HETATM   24  C9  UNL     1      -6.395   7.500  14.286  1.00  0.00     0.010 C 
BRANCH  23  25
HETATM   25  C7  UNL     1      -5.170   5.350  14.042  1.00  0.00     0.031 C 
BRANCH  25  26
HETATM   26  C6  UNL     1      -4.803   4.487  12.868  1.00  0.00    -0.027 C 
HETATM   27  C5  UNL     1      -5.452   3.355  12.534  1.00  0.00     0.006 C 
BRANCH  27  28
HETATM   28  C2  UNL     1      -5.117   2.418  11.387  1.00  0.00     0.070 C 
HETATM   29  C3  UNL     1      -3.728   1.823  11.661  1.00  0.00     0.050 C 
HETATM   30  C4  UNL     1      -6.184   1.315  11.354  1.00  0.00     0.050 C 
BRANCH  28  31
HETATM   31  O1  UNL     1      -5.117   3.180  10.173  1.00  0.00    -0.382 OA
HETATM   32  C1  UNL     1      -3.859   3.553   9.639  1.00  0.00     0.202 C 
ENDBRANCH  28  31
ENDBRANCH  27  28
ENDBRANCH  25  26
ENDBRANCH  23  25
ENDBRANCH   1  23
BRANCH   7  33
HETATM   33  O2  UNL     1       0.466   5.322  14.108  1.00  0.00    -0.395 OA
HETATM   34  H28 UNL     1       1.205   4.761  14.400  1.00  0.00     0.210 HD
ENDBRANCH   7  33
BRANCH  10  35
HETATM   35  C21 UNL     1       4.550   7.724  10.992  1.00  0.00     0.181 C 
BRANCH  35  36
HETATM   36  O3  UNL     1       5.661   7.051  10.416  1.00  0.00    -0.400 OA
HETATM   37  H37 UNL     1       5.917   6.343  11.042  1.00  0.00     0.209 HD
ENDBRANCH  35  36
ENDBRANCH  10  35
TORSDOF 8
ENDMDL
MODEL 7
REMARK minimizedAffinity -6.46819687
REMARK CNNscore 0.403160512
REMARK CNNaffinity 6.41467047
REMARK  8 active torsions:
REMARK  status: ('A' for Active; 'I' for Inactive)
REMARK    1  A    between atoms: O1_2  and  C2_3 
REMARK    2  A    between atoms: C2_3  and  C5_6 
REMARK    3  A    between atoms: C6_7  and  C7_8 
REMARK    4  A    between atoms: C7_8  and  C8_9 
REMARK    5  A    between atoms: C8_9  and  C10_11 
REMARK    6  A    between atoms: C16_17  and  O2_18 
REMARK    7  A    between atoms: C19_21  and  C21_23 
REMARK    8  A    between atoms: C21_23  and  O3_24 
ROOT
HETATM    1  C10 UNL     1      -0.355  12.515  18.475  1.00  0.00    -0.002 C 
HETATM    2  C11 UNL     1      -0.212  11.113  19.038  1.00  0.00     0.006 C 
HETATM    3  C12 UNL     1      -1.652  10.651  19.210  1.00  0.00     0.011 C 
HETATM    4  C13 UNL     1      -2.540  11.403  18.148  1.00  0.00    -0.030 C 
HETATM    5  C14 UNL     1      -3.663  12.101  18.955  1.00  0.00     0.016 C 
HETATM    6  C15 UNL     1      -3.183  10.345  17.181  1.00  0.00     0.032 C 
HETATM    7  C16 UNL     1      -4.411  10.764  16.325  1.00  0.00     0.124 C 
HETATM    8  C17 UNL     1      -4.736   9.805  15.161  1.00  0.00     0.038 C 
HETATM    9  C18 UNL     1      -4.185   8.376  15.334  1.00  0.00     0.015 C 
HETATM   10  C19 UNL     1      -4.711   7.393  14.230  1.00  0.00     0.042 C 
HETATM   11  C20 UNL     1      -4.917   8.026  12.834  1.00  0.00     0.026 C 
HETATM   12  C22 UNL     1      -3.731   6.235  14.040  1.00  0.00     0.137 C 
HETATM   13  O4  UNL     1      -4.120   5.066  13.930  1.00  0.00    -0.297 OA
HETATM   14  C23 UNL     1      -2.257   6.545  13.897  1.00  0.00     0.080 C 
HETATM   15  C24 UNL     1      -1.915   7.999  14.186  1.00  0.00     0.018 C 
HETATM   16  C25 UNL     1      -2.651   8.466  15.417  1.00  0.00    -0.026 A 
HETATM   17  C26 UNL     1      -1.934   8.151  16.705  1.00  0.00     0.021 A 
HETATM   18  C27 UNL     1      -2.144   9.606  16.325  1.00  0.00    -0.025 A 
HETATM   19  C28 UNL     1      -0.959  10.424  15.861  1.00  0.00     0.011 C 
HETATM   20  C29 UNL     1      -1.140  11.927  16.034  1.00  0.00     0.011 C 
HETATM   21  C30 UNL     1      -1.541  12.419  17.449  1.00  0.00    -0.032 C 
HETATM   22  C31 UNL     1      -2.101  13.856  17.276  1.00  0.00     0.016 C 
ENDROOT
BRANCH   1  23
HETATM   23  C8  UNL     1       0.959  13.200  17.994  1.00  0.00    -0.010 C 
HETATM   24  C9  UNL     1       0.930  13.722  16.552  1.00  0.00     0.010 C 
BRANCH  23  25
HETATM   25  C7  UNL     1       2.182  12.254  18.121  1.00  0.00     0.031 C 
BRANCH  25  26
HETATM   26  C6  UNL     1       2.472  11.847  19.538  1.00  0.00    -0.027 C 
HETATM   27  C5  UNL     1       3.693  11.902  20.102  1.00  0.00     0.006 C 
BRANCH  27  28
HETATM   28  C2  UNL     1       4.066  11.477  21.511  1.00  0.00     0.070 C 
HETATM   29  C3  UNL     1       3.273  12.356  22.489  1.00  0.00     0.050 C 
HETATM   30  C4  UNL     1       3.681   9.999  21.673  1.00  0.00     0.050 C 
BRANCH  28  31
HETATM   31  O1  UNL     1       5.477  11.668  21.676  1.00  0.00    -0.382 OA
HETATM   32  C1  UNL     1       5.922  12.177  22.922  1.00  0.00     0.202 C 
ENDBRANCH  28  31
ENDBRANCH  27  28
ENDBRANCH  25  26
ENDBRANCH  23  25
ENDBRANCH   1  23
BRANCH   7  33
HETATM   33  O2  UNL     1      -4.285  12.073  15.779  1.00  0.00    -0.395 OA
HETATM   34  H28 UNL     1      -5.136  12.308  15.372  1.00  0.00     0.210 HD
ENDBRANCH   7  33
BRANCH  10  35
HETATM   35  C21 UNL     1      -6.088   6.817  14.646  1.00  0.00     0.181 C 
BRANCH  35  36
HETATM   36  O3  UNL     1      -6.090   6.346  15.986  1.00  0.00    -0.400 OA
HETATM   37  H37 UNL     1      -5.934   5.380  15.945  1.00  0.00     0.209 HD
ENDBRANCH  35  36
ENDBRANCH  10  35
TORSDOF 8
ENDMDL
MODEL 8
REMARK minimizedAffinity -6.25428152
REMARK CNNscore 0.392310977
REMARK CNNaffinity 5.81783295
REMARK  8 active torsions:
REMARK  status: ('A' for Active; 'I' for Inactive)
REMARK    1  A    between atoms: O1_2  and  C2_3 
REMARK    2  A    between atoms: C2_3  and  C5_6 
REMARK    3  A    between atoms: C6_7  and  C7_8 
REMARK    4  A    between atoms: C7_8  and  C8_9 
REMARK    5  A    between atoms: C8_9  and  C10_11 
REMARK    6  A    between atoms: C16_17  and  O2_18 
REMARK    7  A    between atoms: C19_21  and  C21_23 
REMARK    8  A    between atoms: C21_23  and  O3_24 
ROOT
HETATM    1  C10 UNL     1      -7.469 -11.241   2.905  1.00  0.00    -0.002 C 
HETATM    2  C11 UNL     1      -8.336 -12.193   3.708  1.00  0.00     0.006 C 
HETATM    3  C12 UNL     1      -7.428 -12.623   4.850  1.00  0.00     0.011 C 
HETATM    4  C13 UNL     1      -6.397 -11.464   5.122  1.00  0.00    -0.030 C 
HETATM    5  C14 UNL     1      -4.994 -12.112   5.016  1.00  0.00     0.016 C 
HETATM    6  C15 UNL     1      -6.606 -10.930   6.584  1.00  0.00     0.032 C 
HETATM    7  C16 UNL     1      -5.472 -10.097   7.246  1.00  0.00     0.124 C 
HETATM    8  C17 UNL     1      -5.903  -9.317   8.505  1.00  0.00     0.038 C 
HETATM    9  C18 UNL     1      -7.159  -9.872   9.205  1.00  0.00     0.015 C 
HETATM   10  C19 UNL     1      -7.435  -9.173  10.583  1.00  0.00     0.042 C 
HETATM   11  C20 UNL     1      -7.060  -7.674  10.645  1.00  0.00     0.026 C 
HETATM   12  C22 UNL     1      -8.920  -9.264  10.935  1.00  0.00     0.137 C 
HETATM   13  O4  UNL     1      -9.301  -9.554  12.077  1.00  0.00    -0.297 OA
HETATM   14  C23 UNL     1      -9.941  -8.905   9.879  1.00  0.00     0.080 C 
HETATM   15  C24 UNL     1      -9.336  -8.702   8.498  1.00  0.00     0.018 C 
HETATM   16  C25 UNL     1      -8.331  -9.789   8.212  1.00  0.00    -0.026 A 
HETATM   17  C26 UNL     1      -8.944 -11.043   7.644  1.00  0.00     0.021 A 
HETATM   18  C27 UNL     1      -7.971 -10.254   6.785  1.00  0.00    -0.025 A 
HETATM   19  C28 UNL     1      -8.501  -9.459   5.612  1.00  0.00     0.011 C 
HETATM   20  C29 UNL     1      -7.460  -9.177   4.537  1.00  0.00     0.011 C 
HETATM   21  C30 UNL     1      -6.689 -10.402   3.980  1.00  0.00    -0.032 C 
HETATM   22  C31 UNL     1      -5.421  -9.846   3.278  1.00  0.00     0.016 C 
ENDROOT
BRANCH   1  23
HETATM   23  C8  UNL     1      -8.183 -10.460   1.761  1.00  0.00    -0.010 C 
HETATM   24  C9  UNL     1      -7.277  -9.528   0.946  1.00  0.00     0.010 C 
BRANCH  23  25
HETATM   25  C7  UNL     1      -9.365  -9.608   2.295  1.00  0.00     0.031 C 
BRANCH  25  26
HETATM   26  C6  UNL     1     -10.019  -8.771   1.232  1.00  0.00    -0.027 C 
HETATM   27  C5  UNL     1     -11.234  -8.204   1.363  1.00  0.00     0.006 C 
BRANCH  27  28
HETATM   28  C2  UNL     1     -11.970  -7.378   0.323  1.00  0.00     0.070 C 
HETATM   29  C3  UNL     1     -11.724  -8.027  -1.048  1.00  0.00     0.050 C 
HETATM   30  C4  UNL     1     -13.464  -7.401   0.676  1.00  0.00     0.050 C 
BRANCH  28  31
HETATM   31  O1  UNL     1     -11.446  -6.045   0.360  1.00  0.00    -0.382 OA
HETATM   32  C1  UNL     1     -11.387  -5.404   1.623  1.00  0.00     0.202 C 
ENDBRANCH  28  31
ENDBRANCH  27  28
ENDBRANCH  25  26
ENDBRANCH  23  25
ENDBRANCH   1  23
BRANCH   7  33
HETATM   33  O2  UNL     1      -4.874  -9.166   6.349  1.00  0.00    -0.395 OA
HETATM   34  H28 UNL     1      -4.098  -8.783   6.794  1.00  0.00     0.210 HD
ENDBRANCH   7  33
BRANCH  10  35
HETATM   35  C21 UNL     1      -6.615  -9.866  11.701  1.00  0.00     0.181 C 
BRANCH  35  36
HETATM   36  O3  UNL     1      -5.785  -8.951  12.403  1.00  0.00    -0.400 OA
HETATM   37  H37 UNL     1      -4.893  -9.014  12.000  1.00  0.00     0.209 HD
ENDBRANCH  35  36
ENDBRANCH  10  35
TORSDOF 8
ENDMDL
MODEL 9
REMARK minimizedAffinity -6.2192421
REMARK CNNscore 0.380093068
REMARK CNNaffinity 5.88126421
REMARK  8 active torsions:
REMARK  status: ('A' for Active; 'I' for Inactive)
REMARK    1  A    between atoms: O1_2  and  C2_3 
REMARK    2  A    between atoms: C2_3  and  C5_6 
REMARK    3  A    between atoms: C6_7  and  C7_8 
REMARK    4  A    between atoms: C7_8  and  C8_9 
REMARK    5  A    between atoms: C8_9  and  C10_11 
REMARK    6  A    between atoms: C16_17  and  O2_18 
REMARK    7  A    between atoms: C19_21  and  C21_23 
REMARK    8  A    between atoms: C21_23  and  O3_24 
ROOT
HETATM    1  C10 UNL     1      -0.780  11.513  17.272  1.00  0.00    -0.002 C 
HETATM    2  C11 UNL     1       0.130  10.302  17.369  1.00  0.00     0.006 C 
HETATM    3  C12 UNL     1       1.505  10.864  17.038  1.00  0.00     0.011 C 
HETATM    4  C13 UNL     1       1.528  12.384  17.451  1.00  0.00    -0.030 C 
HETATM    5  C14 UNL     1       1.945  13.161  16.177  1.00  0.00     0.016 C 
HETATM    6  C15 UNL     1       2.619  12.593  18.561  1.00  0.00     0.032 C 
HETATM    7  C16 UNL     1       3.136  14.032  18.839  1.00  0.00     0.124 C 
HETATM    8  C17 UNL     1       3.909  14.190  20.165  1.00  0.00     0.038 C 
HETATM    9  C18 UNL     1       4.503  12.880  20.721  1.00  0.00     0.015 C 
HETATM   10  C19 UNL     1       5.444  13.124  21.952  1.00  0.00     0.042 C 
HETATM   11  C20 UNL     1       5.022  14.287  22.879  1.00  0.00     0.026 C 
HETATM   12  C22 UNL     1       5.506  11.872  22.828  1.00  0.00     0.137 C 
HETATM   13  O4  UNL     1       6.575  11.455  23.291  1.00  0.00    -0.297 OA
HETATM   14  C23 UNL     1       4.213  11.182  23.203  1.00  0.00     0.080 C 
HETATM   15  C24 UNL     1       3.002  11.721  22.456  1.00  0.00     0.018 C 
HETATM   16  C25 UNL     1       3.340  11.912  20.999  1.00  0.00    -0.026 A 
HETATM   17  C26 UNL     1       3.164  10.666  20.170  1.00  0.00     0.021 A 
HETATM   18  C27 UNL     1       2.285  11.868  19.873  1.00  0.00    -0.025 A 
HETATM   19  C28 UNL     1       0.822  11.823  20.257  1.00  0.00     0.011 C 
HETATM   20  C29 UNL     1      -0.054  12.781  19.461  1.00  0.00     0.011 C 
HETATM   21  C30 UNL     1       0.041  12.687  17.916  1.00  0.00    -0.032 C 
HETATM   22  C31 UNL     1      -0.552  14.008  17.355  1.00  0.00     0.016 C 
ENDROOT
BRANCH   1  23
HETATM   23  C8  UNL     1      -2.247  11.311  17.757  1.00  0.00    -0.010 C 
HETATM   24  C9  UNL     1      -2.478  10.071  18.631  1.00  0.00     0.010 C 
BRANCH  23  25
HETATM   25  C7  UNL     1      -3.241  11.233  16.569  1.00  0.00     0.031 C 
BRANCH  25  26
HETATM   26  C6  UNL     1      -3.360   9.854  15.984  1.00  0.00    -0.027 C 
HETATM   27  C5  UNL     1      -4.389   9.449  15.216  1.00  0.00     0.006 C 
BRANCH  27  28
HETATM   28  C2  UNL     1      -4.592   8.067  14.622  1.00  0.00     0.070 C 
HETATM   29  C3  UNL     1      -5.734   7.390  15.394  1.00  0.00     0.050 C 
HETATM   30  C4  UNL     1      -4.965   8.241  13.142  1.00  0.00     0.050 C 
BRANCH  28  31
HETATM   31  O1  UNL     1      -3.369   7.334  14.768  1.00  0.00    -0.382 OA
HETATM   32  C1  UNL     1      -3.460   5.920  14.812  1.00  0.00     0.202 C 
ENDBRANCH  28  31
ENDBRANCH  27  28
ENDBRANCH  25  26
ENDBRANCH  23  25
ENDBRANCH   1  23
BRANCH   7  33
HETATM   33  O2  UNL     1       2.096  15.006  18.832  1.00  0.00    -0.395 OA
HETATM   34  H28 UNL     1       2.512  15.884  18.882  1.00  0.00     0.210 HD
ENDBRANCH   7  33
BRANCH  10  35
HETATM   35  C21 UNL     1       6.876  13.463  21.466  1.00  0.00     0.181 C 
BRANCH  35  36
HETATM   36  O3  UNL     1       7.427  12.432  20.658  1.00  0.00    -0.400 OA
HETATM   37  H37 UNL     1       7.984  11.881  21.246  1.00  0.00     0.209 HD
ENDBRANCH  35  36
ENDBRANCH  10  35
TORSDOF 8
ENDMDL
