MODEL 1
REMARK minimizedAffinity -9.8122406
REMARK CNNscore 0.349971503
REMARK CNNaffinity 7.91371679
REMARK  13 active torsions:
REMARK  status: ('A' for Active; 'I' for Inactive)
REMARK    1  A    between atoms: C2_2  and  C3_3 
REMARK    2  A    between atoms: C6_6  and  C7_7 
REMARK    3  A    between atoms: C7_7  and  C8_8 
REMARK    4  A    between atoms: C14_17  and  C15_18 
REMARK    5  A    between atoms: C15_18  and  O3_20 
REMARK    6  A    between atoms: C19_24  and  C20_25 
REMARK    7  A    between atoms: C20_25  and  C21_26 
REMARK    8  A    between atoms: C22_27  and  C23_28 
REMARK    9  A    between atoms: C27_32  and  C28_33 
REMARK   10  A    between atoms: C29_37  and  C30_38 
REMARK   11  A    between atoms: C30_38  and  C31_39 
REMARK   12  A    between atoms: C31_39  and  C32_40 
REMARK   13  A    between atoms: C32_40  and  O6_42 
ROOT
HETATM    1  C8  UNL     1      -0.180   5.911  12.992  1.00  0.00     0.016 C 
HETATM    2  N1  UNL     1      -1.158   5.626  12.184  1.00  0.00    -0.362 N 
ATOM      3  H1  UNL     1      -1.081   5.444  11.183  1.00  0.00     0.165 HD
HETATM    4  C9  UNL     1      -2.319   5.615  12.928  1.00  0.00     0.024 C 
HETATM    5  C10 UNL     1      -3.412   4.973  12.485  1.00  0.00     0.014 A 
HETATM    6  C11 UNL     1      -4.652   4.837  13.136  1.00  0.00     0.056 A 
HETATM    7  C12 UNL     1      -5.543   4.074  12.442  1.00  0.00     0.046 A 
HETATM    8  C13 UNL     1      -4.931   3.636  11.203  1.00  0.00     0.180 A 
HETATM    9  O1  UNL     1      -5.477   2.937  10.360  1.00  0.00    -0.291 OA
HETATM   10  C14 UNL     1      -3.490   4.207  11.131  1.00  0.00     0.197 A 
HETATM   11  C17 UNL     1      -6.728   3.984  13.190  1.00  0.00    -0.023 A 
HETATM   12  C18 UNL     1      -7.954   3.232  12.826  1.00  0.00     0.051 C 
HETATM   13  C19 UNL     1      -6.504   4.756  14.338  1.00  0.00     0.022 A 
HETATM   14  N3  UNL     1      -5.215   5.272  14.279  1.00  0.00    -0.357 N 
HETATM   15  C29 UNL     1      -2.106   6.323  14.248  1.00  0.00     0.046 C 
HETATM   16  C34 UNL     1      -0.605   6.054  14.441  1.00  0.00     0.041 C 
HETATM   17  C35 UNL     1       0.155   7.010  15.337  1.00  0.00     0.017 C 
HETATM   18  H27 UNL     1      -4.818   5.897  14.965  1.00  0.00     0.166 HD
ENDROOT
BRANCH  10  19
HETATM   19  C15 UNL     1      -2.490   3.083  11.046  1.00  0.00     0.274 C 
HETATM   20  O2  UNL     1      -1.595   2.993  10.211  1.00  0.00    -0.264 OA
BRANCH  19  21
HETATM   21  O3  UNL     1      -2.715   2.181  12.044  1.00  0.00    -0.326 OA
HETATM   22  C16 UNL     1      -2.950   0.844  11.596  1.00  0.00     0.213 C 
ENDBRANCH  19  21
ENDBRANCH  10  19
BRANCH  15  23
HETATM   23  C30 UNL     1      -2.593   7.794  14.246  1.00  0.00     0.021 C 
BRANCH  23  24
HETATM   24  C31 UNL     1      -1.743   8.849  13.535  1.00  0.00     0.112 C 
BRANCH  24  25
HETATM   25  C32 UNL     1      -1.695  10.169  14.257  1.00  0.00     0.258 C 
HETATM   26  O5  UNL     1      -1.624  11.259  13.706  1.00  0.00    -0.265 OA
BRANCH  25  27
HETATM   27  O6  UNL     1      -1.704   9.968  15.604  1.00  0.00    -0.326 OA
HETATM   28  C33 UNL     1      -2.551  10.862  16.323  1.00  0.00     0.213 C 
ENDBRANCH  25  27
ENDBRANCH  24  25
ENDBRANCH  23  24
ENDBRANCH  15  23
BRANCH   1  29
HETATM   29  C7  UNL     1       1.247   6.016  12.599  1.00  0.00     0.055 C 
BRANCH  29  30
HETATM   30  C6  UNL     1       1.643   6.113  11.326  1.00  0.00     0.043 A 
HETATM   31  C4  UNL     1       1.346   7.150  10.353  1.00  0.00    -0.019 A 
HETATM   32  C3  UNL     1       1.938   6.877   9.168  1.00  0.00     0.039 A 
HETATM   33  C5  UNL     1       0.498   8.326  10.714  1.00  0.00     0.052 C 
HETATM   34  C36 UNL     1       2.674   5.584   9.375  1.00  0.00     0.256 A 
HETATM   35  N4  UNL     1       2.436   5.223  10.677  1.00  0.00    -0.322 N 
HETATM   36  O7  UNL     1       3.357   4.978   8.571  1.00  0.00    -0.267 OA
HETATM   37  H40 UNL     1       2.786   4.369  11.101  1.00  0.00     0.169 HD
BRANCH  32  38
HETATM   38  C2  UNL     1       1.887   7.645   7.946  1.00  0.00     0.007 C 
HETATM   39  C1  UNL     1       1.775   7.155   6.705  1.00  0.00     0.012 C 
ENDBRANCH  32  38
ENDBRANCH  29  30
ENDBRANCH   1  29
BRANCH  13  40
HETATM   40  C20 UNL     1      -7.408   5.049  15.498  1.00  0.00     0.115 C 
BRANCH  40  41
HETATM   41  C21 UNL     1      -8.244   6.274  15.283  1.00  0.00     0.022 A 
HETATM   42  C22 UNL     1      -7.948   7.620  15.443  1.00  0.00    -0.027 A 
HETATM   43  C25 UNL     1      -9.123   8.355  15.070  1.00  0.00    -0.024 A 
HETATM   44  C26 UNL     1      -9.278   9.841  15.064  1.00  0.00     0.051 C 
HETATM   45  C27 UNL     1     -10.096   7.432  14.707  1.00  0.00     0.077 A 
HETATM   46  N2  UNL     1      -9.533   6.182  14.822  1.00  0.00    -0.356 N 
HETATM   47  H26 UNL     1     -10.001   5.314  14.594  1.00  0.00     0.166 HD
BRANCH  42  48
HETATM   48  C23 UNL     1      -6.639   8.195  15.904  1.00  0.00     0.036 C 
HETATM   49  C24 UNL     1      -5.809   8.733  14.749  1.00  0.00     0.010 C 
ENDBRANCH  42  48
BRANCH  45  50
HETATM   50  C28 UNL     1     -11.457   7.653  14.266  1.00  0.00     0.288 C 
HETATM   51  O4  UNL     1     -11.805   8.430  13.382  1.00  0.00    -0.300 OA
ENDBRANCH  45  50
ENDBRANCH  40  41
ENDBRANCH  13  40
TORSDOF 13
ENDMDL
MODEL 2
REMARK minimizedAffinity -9.39863682
REMARK CNNscore 0.161226988
REMARK CNNaffinity 7.67215157
REMARK  13 active torsions:
REMARK  status: ('A' for Active; 'I' for Inactive)
REMARK    1  A    between atoms: C2_2  and  C3_3 
REMARK    2  A    between atoms: C6_6  and  C7_7 
REMARK    3  A    between atoms: C7_7  and  C8_8 
REMARK    4  A    between atoms: C14_17  and  C15_18 
REMARK    5  A    between atoms: C15_18  and  O3_20 
REMARK    6  A    between atoms: C19_24  and  C20_25 
REMARK    7  A    between atoms: C20_25  and  C21_26 
REMARK    8  A    between atoms: C22_27  and  C23_28 
REMARK    9  A    between atoms: C27_32  and  C28_33 
REMARK   10  A    between atoms: C29_37  and  C30_38 
REMARK   11  A    between atoms: C30_38  and  C31_39 
REMARK   12  A    between atoms: C31_39  and  C32_40 
REMARK   13  A    between atoms: C32_40  and  O6_42 
ROOT
HETATM    1  C8  UNL     1      -0.173   6.977  12.628  1.00  0.00     0.016 C 
HETATM    2  N1  UNL     1      -1.033   6.313  11.913  1.00  0.00    -0.362 N 
ATOM      3  H1  UNL     1      -0.873   5.925  10.983  1.00  0.00     0.165 HD
HETATM    4  C9  UNL     1      -2.201   6.231  12.640  1.00  0.00     0.024 C 
HETATM    5  C10 UNL     1      -3.116   5.289  12.365  1.00  0.00     0.014 A 
HETATM    6  C11 UNL     1      -4.332   5.049  13.032  1.00  0.00     0.056 A 
HETATM    7  C12 UNL     1      -5.013   3.976  12.541  1.00  0.00     0.046 A 
HETATM    8  C13 UNL     1      -4.266   3.402  11.439  1.00  0.00     0.180 A 
HETATM    9  O1  UNL     1      -4.618   2.429  10.787  1.00  0.00    -0.291 OA
HETATM   10  C14 UNL     1      -2.972   4.231  11.231  1.00  0.00     0.197 A 
HETATM   11  C17 UNL     1      -6.189   3.815  13.292  1.00  0.00    -0.023 A 
HETATM   12  C18 UNL     1      -7.216   2.759  13.119  1.00  0.00     0.051 C 
HETATM   13  C19 UNL     1      -6.183   4.861  14.224  1.00  0.00     0.022 A 
HETATM   14  N3  UNL     1      -5.026   5.609  14.042  1.00  0.00    -0.357 N 
HETATM   15  C29 UNL     1      -2.200   7.255  13.756  1.00  0.00     0.046 C 
HETATM   16  C34 UNL     1      -0.686   7.359  14.002  1.00  0.00     0.041 C 
HETATM   17  C35 UNL     1      -0.182   8.635  14.645  1.00  0.00     0.017 C 
HETATM   18  H27 UNL     1      -4.797   6.445  14.560  1.00  0.00     0.166 HD
ENDROOT
BRANCH  10  19
HETATM   19  C15 UNL     1      -1.760   3.354  11.411  1.00  0.00     0.274 C 
HETATM   20  O2  UNL     1      -1.039   3.338  12.405  1.00  0.00    -0.264 OA
BRANCH  19  21
HETATM   21  O3  UNL     1      -1.586   2.565  10.313  1.00  0.00    -0.326 OA
HETATM   22  C16 UNL     1      -0.866   1.355  10.557  1.00  0.00     0.213 C 
ENDBRANCH  19  21
ENDBRANCH  10  19
BRANCH  15  23
HETATM   23  C30 UNL     1      -2.977   8.548  13.407  1.00  0.00     0.021 C 
BRANCH  23  24
HETATM   24  C31 UNL     1      -4.493   8.578  13.624  1.00  0.00     0.112 C 
BRANCH  24  25
HETATM   25  C32 UNL     1      -4.894   9.053  14.994  1.00  0.00     0.258 C 
HETATM   26  O5  UNL     1      -5.821   8.590  15.646  1.00  0.00    -0.265 OA
BRANCH  25  27
HETATM   27  O6  UNL     1      -4.102  10.090  15.383  1.00  0.00    -0.326 OA
HETATM   28  C33 UNL     1      -3.664  10.017  16.738  1.00  0.00     0.213 C 
ENDBRANCH  25  27
ENDBRANCH  24  25
ENDBRANCH  23  24
ENDBRANCH  15  23
BRANCH   1  29
HETATM   29  C7  UNL     1       1.219   7.286  12.217  1.00  0.00     0.055 C 
BRANCH  29  30
HETATM   30  C6  UNL     1       1.784   6.768  11.122  1.00  0.00     0.043 A 
HETATM   31  C4  UNL     1       1.621   7.165   9.735  1.00  0.00    -0.019 A 
HETATM   32  C3  UNL     1       2.369   6.383   8.923  1.00  0.00     0.039 A 
HETATM   33  C5  UNL     1       0.729   8.303   9.358  1.00  0.00     0.052 C 
HETATM   34  C36 UNL     1       3.072   5.416   9.832  1.00  0.00     0.256 A 
HETATM   35  N4  UNL     1       2.659   5.731  11.103  1.00  0.00    -0.322 N 
HETATM   36  O7  UNL     1       3.859   4.541   9.525  1.00  0.00    -0.267 OA
HETATM   37  H40 UNL     1       2.951   5.225  11.934  1.00  0.00     0.169 HD
BRANCH  32  38
HETATM   38  C2  UNL     1       2.483   6.441   7.484  1.00  0.00     0.007 C 
HETATM   39  C1  UNL     1       1.626   7.032   6.643  1.00  0.00     0.012 C 
ENDBRANCH  32  38
ENDBRANCH  29  30
ENDBRANCH   1  29
BRANCH  13  40
HETATM   40  C20 UNL     1      -7.181   5.218  15.285  1.00  0.00     0.115 C 
BRANCH  40  41
HETATM   41  C21 UNL     1      -8.178   6.236  14.819  1.00  0.00     0.022 A 
HETATM   42  C22 UNL     1      -9.009   6.255  13.708  1.00  0.00    -0.027 A 
HETATM   43  C25 UNL     1      -9.772   7.470  13.776  1.00  0.00    -0.024 A 
HETATM   44  C26 UNL     1     -10.812   7.924  12.804  1.00  0.00     0.051 C 
HETATM   45  C27 UNL     1      -9.371   8.151  14.919  1.00  0.00     0.077 A 
HETATM   46  N2  UNL     1      -8.424   7.374  15.544  1.00  0.00    -0.356 N 
HETATM   47  H26 UNL     1      -7.973   7.605  16.421  1.00  0.00     0.166 HD
BRANCH  42  48
HETATM   48  C23 UNL     1      -9.102   5.198  12.645  1.00  0.00     0.036 C 
HETATM   49  C24 UNL     1      -8.882   5.764  11.251  1.00  0.00     0.010 C 
ENDBRANCH  42  48
BRANCH  45  50
HETATM   50  C28 UNL     1      -9.820   9.427  15.436  1.00  0.00     0.288 C 
HETATM   51  O4  UNL     1      -9.625  10.519  14.911  1.00  0.00    -0.300 OA
ENDBRANCH  45  50
ENDBRANCH  40  41
ENDBRANCH  13  40
TORSDOF 13
ENDMDL
MODEL 3
REMARK minimizedAffinity -7.3953042
REMARK CNNscore 0.137105972
REMARK CNNaffinity 5.58511162
REMARK  13 active torsions:
REMARK  status: ('A' for Active; 'I' for Inactive)
REMARK    1  A    between atoms: C2_2  and  C3_3 
REMARK    2  A    between atoms: C6_6  and  C7_7 
REMARK    3  A    between atoms: C7_7  and  C8_8 
REMARK    4  A    between atoms: C14_17  and  C15_18 
REMARK    5  A    between atoms: C15_18  and  O3_20 
REMARK    6  A    between atoms: C19_24  and  C20_25 
REMARK    7  A    between atoms: C20_25  and  C21_26 
REMARK    8  A    between atoms: C22_27  and  C23_28 
REMARK    9  A    between atoms: C27_32  and  C28_33 
REMARK   10  A    between atoms: C29_37  and  C30_38 
REMARK   11  A    between atoms: C30_38  and  C31_39 
REMARK   12  A    between atoms: C31_39  and  C32_40 
REMARK   13  A    between atoms: C32_40  and  O6_42 
ROOT
HETATM    1  C8  UNL     1     -14.253   5.727  23.116  1.00  0.00     0.016 C 
HETATM    2  N1  UNL     1     -13.943   6.989  23.171  1.00  0.00    -0.362 N 
ATOM      3  H1  UNL     1     -13.905   7.565  24.012  1.00  0.00     0.165 HD
HETATM    4  C9  UNL     1     -13.674   7.406  21.885  1.00  0.00     0.024 C 
HETATM    5  C10 UNL     1     -12.950   8.513  21.659  1.00  0.00     0.014 A 
HETATM    6  C11 UNL     1     -12.559   9.047  20.417  1.00  0.00     0.056 A 
HETATM    7  C12 UNL     1     -11.777  10.157  20.530  1.00  0.00     0.046 A 
HETATM    8  C13 UNL     1     -11.593  10.468  21.935  1.00  0.00     0.180 A 
HETATM    9  O1  UNL     1     -10.941  11.410  22.364  1.00  0.00    -0.291 OA
HETATM   10  C14 UNL     1     -12.363   9.421  22.781  1.00  0.00     0.197 A 
HETATM   11  C17 UNL     1     -11.427  10.588  19.240  1.00  0.00    -0.023 A 
HETATM   12  C18 UNL     1     -10.566  11.745  18.893  1.00  0.00     0.051 C 
HETATM   13  C19 UNL     1     -12.066   9.701  18.364  1.00  0.00     0.022 A 
HETATM   14  N3  UNL     1     -12.760   8.760  19.117  1.00  0.00    -0.357 N 
HETATM   15  C29 UNL     1     -14.228   6.415  20.883  1.00  0.00     0.046 C 
HETATM   16  C34 UNL     1     -14.147   5.131  21.726  1.00  0.00     0.041 C 
HETATM   17  C35 UNL     1     -15.075   3.997  21.340  1.00  0.00     0.017 C 
HETATM   18  H27 UNL     1     -13.339   8.031  18.727  1.00  0.00     0.166 HD
ENDROOT
BRANCH  10  19
HETATM   19  C15 UNL     1     -11.409   8.679  23.682  1.00  0.00     0.274 C 
HETATM   20  O2  UNL     1     -10.319   8.231  23.342  1.00  0.00    -0.264 OA
BRANCH  19  21
HETATM   21  O3  UNL     1     -11.928   8.590  24.939  1.00  0.00    -0.326 OA
HETATM   22  C16 UNL     1     -12.821   9.650  25.291  1.00  0.00     0.213 C 
ENDBRANCH  19  21
ENDBRANCH  10  19
BRANCH  15  23
HETATM   23  C30 UNL     1     -15.604   6.826  20.303  1.00  0.00     0.021 C 
BRANCH  23  24
HETATM   24  C31 UNL     1     -15.768   6.909  18.783  1.00  0.00     0.112 C 
BRANCH  24  25
HETATM   25  C32 UNL     1     -17.006   6.222  18.274  1.00  0.00     0.258 C 
HETATM   26  O5  UNL     1     -17.924   5.830  18.983  1.00  0.00    -0.265 OA
BRANCH  25  27
HETATM   27  O6  UNL     1     -16.938   6.070  16.923  1.00  0.00    -0.326 OA
HETATM   28  C33 UNL     1     -15.661   6.373  16.363  1.00  0.00     0.213 C 
ENDBRANCH  25  27
ENDBRANCH  24  25
ENDBRANCH  23  24
ENDBRANCH  15  23
BRANCH   1  29
HETATM   29  C7  UNL     1     -14.607   4.885  24.284  1.00  0.00     0.055 C 
BRANCH  29  30
HETATM   30  C6  UNL     1     -13.796   3.937  24.767  1.00  0.00     0.043 A 
HETATM   31  C4  UNL     1     -13.793   3.321  26.082  1.00  0.00    -0.019 A 
HETATM   32  C3  UNL     1     -12.805   2.401  26.177  1.00  0.00     0.039 A 
HETATM   33  C5  UNL     1     -14.795   3.712  27.120  1.00  0.00     0.052 C 
HETATM   34  C36 UNL     1     -12.120   2.409  24.840  1.00  0.00     0.256 A 
HETATM   35  N4  UNL     1     -12.781   3.346  24.087  1.00  0.00    -0.322 N 
HETATM   36  O7  UNL     1     -11.182   1.724  24.479  1.00  0.00    -0.267 OA
HETATM   37  H40 UNL     1     -12.523   3.593  23.136  1.00  0.00     0.169 HD
BRANCH  32  38
HETATM   38  C2  UNL     1     -12.458   1.576  27.310  1.00  0.00     0.007 C 
HETATM   39  C1  UNL     1     -11.753   1.957  28.382  1.00  0.00     0.012 C 
ENDBRANCH  32  38
ENDBRANCH  29  30
ENDBRANCH   1  29
BRANCH  13  40
HETATM   40  C20 UNL     1     -12.078   9.661  16.866  1.00  0.00     0.115 C 
BRANCH  40  41
HETATM   41  C21 UNL     1     -11.025   8.754  16.305  1.00  0.00     0.022 A 
HETATM   42  C22 UNL     1     -10.946   8.092  15.088  1.00  0.00    -0.027 A 
HETATM   43  C25 UNL     1      -9.700   7.378  15.078  1.00  0.00    -0.024 A 
HETATM   44  C26 UNL     1      -9.167   6.532  13.968  1.00  0.00     0.051 C 
HETATM   45  C27 UNL     1      -9.070   7.622  16.293  1.00  0.00     0.077 A 
HETATM   46  N2  UNL     1      -9.879   8.475  17.006  1.00  0.00    -0.356 N 
HETATM   47  H26 UNL     1      -9.661   8.849  17.921  1.00  0.00     0.166 HD
BRANCH  42  48
HETATM   48  C23 UNL     1     -11.966   8.129  13.985  1.00  0.00     0.036 C 
HETATM   49  C24 UNL     1     -11.783   9.333  13.075  1.00  0.00     0.010 C 
ENDBRANCH  42  48
BRANCH  45  50
HETATM   50  C28 UNL     1      -7.802   7.131  16.787  1.00  0.00     0.288 C 
HETATM   51  O4  UNL     1      -6.702   7.370  16.297  1.00  0.00    -0.300 OA
ENDBRANCH  45  50
ENDBRANCH  40  41
ENDBRANCH  13  40
TORSDOF 13
ENDMDL
MODEL 4
REMARK minimizedAffinity -9.65661812
REMARK CNNscore 0.124063641
REMARK CNNaffinity 7.55377722
REMARK  13 active torsions:
REMARK  status: ('A' for Active; 'I' for Inactive)
REMARK    1  A    between atoms: C2_2  and  C3_3 
REMARK    2  A    between atoms: C6_6  and  C7_7 
REMARK    3  A    between atoms: C7_7  and  C8_8 
REMARK    4  A    between atoms: C14_17  and  C15_18 
REMARK    5  A    between atoms: C15_18  and  O3_20 
REMARK    6  A    between atoms: C19_24  and  C20_25 
REMARK    7  A    between atoms: C20_25  and  C21_26 
REMARK    8  A    between atoms: C22_27  and  C23_28 
REMARK    9  A    between atoms: C27_32  and  C28_33 
REMARK   10  A    between atoms: C29_37  and  C30_38 
REMARK   11  A    between atoms: C30_38  and  C31_39 
REMARK   12  A    between atoms: C31_39  and  C32_40 
REMARK   13  A    between atoms: C32_40  and  O6_42 
ROOT
HETATM    1  C8  UNL     1      -6.752   5.299  13.439  1.00  0.00     0.016 C 
HETATM    2  N1  UNL     1      -5.830   4.422  13.169  1.00  0.00    -0.362 N 
ATOM      3  H1  UNL     1      -5.979   3.433  12.969  1.00  0.00     0.165 HD
HETATM    4  C9  UNL     1      -4.616   5.074  13.202  1.00  0.00     0.024 C 
HETATM    5  C10 UNL     1      -3.542   4.557  12.584  1.00  0.00     0.014 A 
HETATM    6  C11 UNL     1      -2.252   5.112  12.493  1.00  0.00     0.056 A 
HETATM    7  C12 UNL     1      -1.395   4.362  11.744  1.00  0.00     0.046 A 
HETATM    8  C13 UNL     1      -2.088   3.180  11.269  1.00  0.00     0.180 A 
HETATM    9  O1  UNL     1      -1.587   2.307  10.573  1.00  0.00    -0.291 OA
HETATM   10  C14 UNL     1      -3.546   3.212  11.799  1.00  0.00     0.197 A 
HETATM   11  C17 UNL     1      -0.154   5.018  11.700  1.00  0.00    -0.023 A 
HETATM   12  C18 UNL     1       1.062   4.571  10.977  1.00  0.00     0.051 C 
HETATM   13  C19 UNL     1      -0.311   6.169  12.483  1.00  0.00     0.022 A 
HETATM   14  N3  UNL     1      -1.616   6.202  12.962  1.00  0.00    -0.357 N 
HETATM   15  C29 UNL     1      -4.747   6.397  13.925  1.00  0.00     0.046 C 
HETATM   16  C34 UNL     1      -6.222   6.708  13.617  1.00  0.00     0.041 C 
HETATM   17  C35 UNL     1      -6.938   7.647  14.566  1.00  0.00     0.017 C 
HETATM   18  H27 UNL     1      -1.978   6.908  13.587  1.00  0.00     0.166 HD
ENDROOT
BRANCH  10  19
HETATM   19  C15 UNL     1      -4.516   3.220  10.646  1.00  0.00     0.274 C 
HETATM   20  O2  UNL     1      -4.281   3.664   9.526  1.00  0.00    -0.264 OA
BRANCH  19  21
HETATM   21  O3  UNL     1      -5.694   2.646  11.022  1.00  0.00    -0.326 OA
HETATM   22  C16 UNL     1      -5.620   1.239  11.263  1.00  0.00     0.213 C 
ENDBRANCH  19  21
ENDBRANCH  10  19
BRANCH  15  23
HETATM   23  C30 UNL     1      -4.305   6.336  15.409  1.00  0.00     0.021 C 
BRANCH  23  24
HETATM   24  C31 UNL     1      -2.946   6.924  15.796  1.00  0.00     0.112 C 
BRANCH  24  25
HETATM   25  C32 UNL     1      -2.850   8.410  15.578  1.00  0.00     0.258 C 
HETATM   26  O5  UNL     1      -3.744   9.208  15.826  1.00  0.00    -0.265 OA
BRANCH  25  27
HETATM   27  O6  UNL     1      -1.642   8.728  15.035  1.00  0.00    -0.326 OA
HETATM   28  C33 UNL     1      -0.572   8.781  15.976  1.00  0.00     0.213 C 
ENDBRANCH  25  27
ENDBRANCH  24  25
ENDBRANCH  23  24
ENDBRANCH  15  23
BRANCH   1  29
HETATM   29  C7  UNL     1      -8.207   5.016  13.498  1.00  0.00     0.055 C 
BRANCH  29  30
HETATM   30  C6  UNL     1      -9.128   5.977  13.626  1.00  0.00     0.043 A 
HETATM   31  C4  UNL     1      -9.835   6.707  12.589  1.00  0.00    -0.019 A 
HETATM   32  C3  UNL     1     -10.689   7.604  13.133  1.00  0.00     0.039 A 
HETATM   33  C5  UNL     1      -9.588   6.426  11.142  1.00  0.00     0.052 C 
HETATM   34  C36 UNL     1     -10.539   7.450  14.620  1.00  0.00     0.256 A 
HETATM   35  N4  UNL     1      -9.598   6.467  14.801  1.00  0.00    -0.322 N 
HETATM   36  O7  UNL     1     -11.131   8.052  15.496  1.00  0.00    -0.267 OA
HETATM   37  H40 UNL     1      -9.267   6.161  15.710  1.00  0.00     0.169 HD
BRANCH  32  38
HETATM   38  C2  UNL     1     -11.567   8.528  12.455  1.00  0.00     0.007 C 
HETATM   39  C1  UNL     1     -12.864   8.730  12.720  1.00  0.00     0.012 C 
ENDBRANCH  32  38
ENDBRANCH  29  30
ENDBRANCH   1  29
BRANCH  13  40
HETATM   40  C20 UNL     1       0.669   7.251  12.820  1.00  0.00     0.115 C 
BRANCH  40  41
HETATM   41  C21 UNL     1       1.683   7.469  11.738  1.00  0.00     0.022 A 
HETATM   42  C22 UNL     1       1.558   8.014  10.468  1.00  0.00    -0.027 A 
HETATM   43  C25 UNL     1       2.865   7.994   9.873  1.00  0.00    -0.024 A 
HETATM   44  C26 UNL     1       3.231   8.493   8.513  1.00  0.00     0.051 C 
HETATM   45  C27 UNL     1       3.736   7.428  10.796  1.00  0.00     0.077 A 
HETATM   46  N2  UNL     1       3.003   7.141  11.923  1.00  0.00    -0.356 N 
HETATM   47  H26 UNL     1       3.381   6.745  12.775  1.00  0.00     0.166 HD
BRANCH  42  48
HETATM   48  C23 UNL     1       0.297   8.539   9.844  1.00  0.00     0.036 C 
HETATM   49  C24 UNL     1       0.081   7.994   8.440  1.00  0.00     0.010 C 
ENDBRANCH  42  48
BRANCH  45  50
HETATM   50  C28 UNL     1       5.155   7.168  10.684  1.00  0.00     0.288 C 
HETATM   51  O4  UNL     1       5.669   6.066  10.512  1.00  0.00    -0.300 OA
ENDBRANCH  45  50
ENDBRANCH  40  41
ENDBRANCH  13  40
TORSDOF 13
ENDMDL
MODEL 5
REMARK minimizedAffinity -8.29483891
REMARK CNNscore 0.107996792
REMARK CNNaffinity 6.52625465
REMARK  13 active torsions:
REMARK  status: ('A' for Active; 'I' for Inactive)
REMARK    1  A    between atoms: C2_2  and  C3_3 
REMARK    2  A    between atoms: C6_6  and  C7_7 
REMARK    3  A    between atoms: C7_7  and  C8_8 
REMARK    4  A    between atoms: C14_17  and  C15_18 
REMARK    5  A    between atoms: C15_18  and  O3_20 
REMARK    6  A    between atoms: C19_24  and  C20_25 
REMARK    7  A    between atoms: C20_25  and  C21_26 
REMARK    8  A    between atoms: C22_27  and  C23_28 
REMARK    9  A    between atoms: C27_32  and  C28_33 
REMARK   10  A    between atoms: C29_37  and  C30_38 
REMARK   11  A    between atoms: C30_38  and  C31_39 
REMARK   12  A    between atoms: C31_39  and  C32_40 
REMARK   13  A    between atoms: C32_40  and  O6_42 
ROOT
HETATM    1  C8  UNL     1      -8.384   5.939  14.578  1.00  0.00     0.016 C 
HETATM    2  N1  UNL     1      -9.139   6.792  13.952  1.00  0.00    -0.362 N 
ATOM      3  H1  UNL     1      -9.593   6.648  13.050  1.00  0.00     0.165 HD
HETATM    4  C9  UNL     1      -9.215   7.928  14.730  1.00  0.00     0.024 C 
HETATM    5  C10 UNL     1     -10.215   8.808  14.566  1.00  0.00     0.014 A 
HETATM    6  C11 UNL     1     -10.453   9.985  15.298  1.00  0.00     0.056 A 
HETATM    7  C12 UNL     1     -11.591  10.633  14.920  1.00  0.00     0.046 A 
HETATM    8  C13 UNL     1     -12.218   9.901  13.837  1.00  0.00     0.180 A 
HETATM    9  O1  UNL     1     -13.255  10.230  13.277  1.00  0.00    -0.291 OA
HETATM   10  C14 UNL     1     -11.352   8.655  13.513  1.00  0.00     0.197 A 
HETATM   11  C17 UNL     1     -11.743  11.772  15.728  1.00  0.00    -0.023 A 
HETATM   12  C18 UNL     1     -12.854  12.754  15.680  1.00  0.00     0.051 C 
HETATM   13  C19 UNL     1     -10.627  11.781  16.575  1.00  0.00     0.022 A 
HETATM   14  N3  UNL     1      -9.846  10.667  16.288  1.00  0.00    -0.357 N 
HETATM   15  C29 UNL     1      -8.106   7.935  15.761  1.00  0.00     0.046 C 
HETATM   16  C34 UNL     1      -7.916   6.419  15.938  1.00  0.00     0.041 C 
HETATM   17  C35 UNL     1      -6.572   5.952  16.458  1.00  0.00     0.017 C 
HETATM   18  H27 UNL     1      -8.962  10.460  16.730  1.00  0.00     0.166 HD
ENDROOT
BRANCH  10  19
HETATM   19  C15 UNL     1     -12.158   7.398  13.713  1.00  0.00     0.274 C 
HETATM   20  O2  UNL     1     -12.154   6.708  14.728  1.00  0.00    -0.264 OA
BRANCH  19  21
HETATM   21  O3  UNL     1     -12.908   7.142  12.603  1.00  0.00    -0.326 OA
HETATM   22  C16 UNL     1     -14.285   6.863  12.866  1.00  0.00     0.213 C 
ENDBRANCH  19  21
ENDBRANCH  10  19
BRANCH  15  23
HETATM   23  C30 UNL     1      -6.880   8.784  15.344  1.00  0.00     0.021 C 
BRANCH  23  24
HETATM   24  C31 UNL     1      -5.928   8.230  14.280  1.00  0.00     0.112 C 
BRANCH  24  25
HETATM   25  C32 UNL     1      -4.654   9.018  14.144  1.00  0.00     0.258 C 
HETATM   26  O5  UNL     1      -4.151   9.683  15.040  1.00  0.00    -0.265 OA
BRANCH  25  27
HETATM   27  O6  UNL     1      -4.167   8.911  12.877  1.00  0.00    -0.326 OA
HETATM   28  C33 UNL     1      -2.799   8.513  12.806  1.00  0.00     0.213 C 
ENDBRANCH  25  27
ENDBRANCH  24  25
ENDBRANCH  23  24
ENDBRANCH  15  23
BRANCH   1  29
HETATM   29  C7  UNL     1      -8.047   4.579  14.089  1.00  0.00     0.055 C 
BRANCH  29  30
HETATM   30  C6  UNL     1      -6.923   4.307  13.419  1.00  0.00     0.043 A 
HETATM   31  C4  UNL     1      -6.567   3.108  12.681  1.00  0.00    -0.019 A 
HETATM   32  C3  UNL     1      -5.331   3.226  12.144  1.00  0.00     0.039 A 
HETATM   33  C5  UNL     1      -7.512   1.955  12.580  1.00  0.00     0.052 C 
HETATM   34  C36 UNL     1      -4.846   4.590  12.549  1.00  0.00     0.256 A 
HETATM   35  N4  UNL     1      -5.858   5.140  13.293  1.00  0.00    -0.322 N 
HETATM   36  O7  UNL     1      -3.785   5.117  12.270  1.00  0.00    -0.267 OA
HETATM   37  H40 UNL     1      -5.807   6.056  13.729  1.00  0.00     0.169 HD
BRANCH  32  38
HETATM   38  C2  UNL     1      -4.605   2.262  11.351  1.00  0.00     0.007 C 
HETATM   39  C1  UNL     1      -3.519   1.579  11.730  1.00  0.00     0.012 C 
ENDBRANCH  32  38
ENDBRANCH  29  30
ENDBRANCH   1  29
BRANCH  13  40
HETATM   40  C20 UNL     1     -10.230  12.755  17.643  1.00  0.00     0.115 C 
BRANCH  40  41
HETATM   41  C21 UNL     1     -10.378  12.190  19.023  1.00  0.00     0.022 A 
HETATM   42  C22 UNL     1      -9.867  12.615  20.241  1.00  0.00    -0.027 A 
HETATM   43  C25 UNL     1     -10.351  11.703  21.240  1.00  0.00    -0.024 A 
HETATM   44  C26 UNL     1     -10.078  11.763  22.707  1.00  0.00     0.051 C 
HETATM   45  C27 UNL     1     -11.129  10.750  20.593  1.00  0.00     0.077 A 
HETATM   46  N2  UNL     1     -11.149  11.080  19.258  1.00  0.00    -0.356 N 
HETATM   47  H26 UNL     1     -11.664  10.578  18.545  1.00  0.00     0.166 HD
BRANCH  42  48
HETATM   48  C23 UNL     1      -8.987  13.811  20.471  1.00  0.00     0.036 C 
HETATM   49  C24 UNL     1      -7.510  13.447  20.462  1.00  0.00     0.010 C 
ENDBRANCH  42  48
BRANCH  45  50
HETATM   50  C28 UNL     1     -11.832   9.610  21.140  1.00  0.00     0.288 C 
HETATM   51  O4  UNL     1     -12.270   8.662  20.493  1.00  0.00    -0.300 OA
ENDBRANCH  45  50
ENDBRANCH  40  41
ENDBRANCH  13  40
TORSDOF 13
ENDMDL
MODEL 6
REMARK minimizedAffinity -7.54219341
REMARK CNNscore 0.0911135375
REMARK CNNaffinity 6.68951416
REMARK  13 active torsions:
REMARK  status: ('A' for Active; 'I' for Inactive)
REMARK    1  A    between atoms: C2_2  and  C3_3 
REMARK    2  A    between atoms: C6_6  and  C7_7 
REMARK    3  A    between atoms: C7_7  and  C8_8 
REMARK    4  A    between atoms: C14_17  and  C15_18 
REMARK    5  A    between atoms: C15_18  and  O3_20 
REMARK    6  A    between atoms: C19_24  and  C20_25 
REMARK    7  A    between atoms: C20_25  and  C21_26 
REMARK    8  A    between atoms: C22_27  and  C23_28 
REMARK    9  A    between atoms: C27_32  and  C28_33 
REMARK   10  A    between atoms: C29_37  and  C30_38 
REMARK   11  A    between atoms: C30_38  and  C31_39 
REMARK   12  A    between atoms: C31_39  and  C32_40 
REMARK   13  A    between atoms: C32_40  and  O6_42 
ROOT
HETATM    1  C8  UNL     1      -8.376   5.979  14.460  1.00  0.00     0.016 C 
HETATM    2  N1  UNL     1      -9.176   6.855  13.926  1.00  0.00    -0.362 N 
ATOM      3  H1  UNL     1      -9.622   6.785  13.011  1.00  0.00     0.165 HD
HETATM    4  C9  UNL     1      -9.311   7.893  14.823  1.00  0.00     0.024 C 
HETATM    5  C10 UNL     1     -10.357   8.731  14.750  1.00  0.00     0.014 A 
HETATM    6  C11 UNL     1     -10.657   9.808  15.604  1.00  0.00     0.056 A 
HETATM    7  C12 UNL     1     -11.828  10.433  15.293  1.00  0.00     0.046 A 
HETATM    8  C13 UNL     1     -12.416   9.790  14.133  1.00  0.00     0.180 A 
HETATM    9  O1  UNL     1     -13.469  10.122  13.607  1.00  0.00    -0.291 OA
HETATM   10  C14 UNL     1     -11.485   8.634  13.680  1.00  0.00     0.197 A 
HETATM   11  C17 UNL     1     -12.040  11.467  16.219  1.00  0.00    -0.023 A 
HETATM   12  C18 UNL     1     -13.201  12.388  16.271  1.00  0.00     0.051 C 
HETATM   13  C19 UNL     1     -10.925  11.443  17.067  1.00  0.00     0.022 A 
HETATM   14  N3  UNL     1     -10.086  10.410  16.666  1.00  0.00    -0.357 N 
HETATM   15  C29 UNL     1      -8.204   7.846  15.854  1.00  0.00     0.046 C 
HETATM   16  C34 UNL     1      -7.933   6.333  15.867  1.00  0.00     0.041 C 
HETATM   17  C35 UNL     1      -6.566   5.883  16.340  1.00  0.00     0.017 C 
HETATM   18  H27 UNL     1      -9.192  10.203  17.087  1.00  0.00     0.166 HD
ENDROOT
BRANCH  10  19
HETATM   19  C15 UNL     1     -12.223   7.322  13.738  1.00  0.00     0.274 C 
HETATM   20  O2  UNL     1     -12.202   6.539  14.683  1.00  0.00    -0.264 OA
BRANCH  19  21
HETATM   21  O3  UNL     1     -12.933   7.134  12.589  1.00  0.00    -0.326 OA
HETATM   22  C16 UNL     1     -14.317   6.836  12.787  1.00  0.00     0.213 C 
ENDBRANCH  19  21
ENDBRANCH  10  19
BRANCH  15  23
HETATM   23  C30 UNL     1      -7.025   8.800  15.538  1.00  0.00     0.021 C 
BRANCH  23  24
HETATM   24  C31 UNL     1      -5.609   8.222  15.470  1.00  0.00     0.112 C 
BRANCH  24  25
HETATM   25  C32 UNL     1      -4.836   8.665  14.257  1.00  0.00     0.258 C 
HETATM   26  O5  UNL     1      -5.223   8.537  13.103  1.00  0.00    -0.265 OA
BRANCH  25  27
HETATM   27  O6  UNL     1      -3.637   9.193  14.630  1.00  0.00    -0.326 OA
HETATM   28  C33 UNL     1      -2.665   8.222  15.013  1.00  0.00     0.213 C 
ENDBRANCH  25  27
ENDBRANCH  24  25
ENDBRANCH  23  24
ENDBRANCH  15  23
BRANCH   1  29
HETATM   29  C7  UNL     1      -7.968   4.701  13.828  1.00  0.00     0.055 C 
BRANCH  29  30
HETATM   30  C6  UNL     1      -6.772   4.523  13.257  1.00  0.00     0.043 A 
HETATM   31  C4  UNL     1      -6.275   3.378  12.514  1.00  0.00    -0.019 A 
HETATM   32  C3  UNL     1      -5.006   3.590  12.100  1.00  0.00     0.039 A 
HETATM   33  C5  UNL     1      -7.134   2.176  12.285  1.00  0.00     0.052 C 
HETATM   34  C36 UNL     1      -4.646   4.963  12.596  1.00  0.00     0.256 A 
HETATM   35  N4  UNL     1      -5.755   5.421  13.261  1.00  0.00    -0.322 N 
HETATM   36  O7  UNL     1      -3.599   5.562  12.437  1.00  0.00    -0.267 OA
HETATM   37  H40 UNL     1      -5.801   6.320  13.732  1.00  0.00     0.169 HD
BRANCH  32  38
HETATM   38  C2  UNL     1      -4.152   2.704  11.345  1.00  0.00     0.007 C 
HETATM   39  C1  UNL     1      -3.550   1.600  11.803  1.00  0.00     0.012 C 
ENDBRANCH  32  38
ENDBRANCH  29  30
ENDBRANCH   1  29
BRANCH  13  40
HETATM   40  C20 UNL     1     -10.580  12.315  18.237  1.00  0.00     0.115 C 
BRANCH  40  41
HETATM   41  C21 UNL     1      -9.496  13.301  17.922  1.00  0.00     0.022 A 
HETATM   42  C22 UNL     1      -8.596  13.961  18.747  1.00  0.00    -0.027 A 
HETATM   43  C25 UNL     1      -7.768  14.772  17.899  1.00  0.00    -0.024 A 
HETATM   44  C26 UNL     1      -6.643  15.653  18.335  1.00  0.00     0.051 C 
HETATM   45  C27 UNL     1      -8.200  14.586  16.591  1.00  0.00     0.077 A 
HETATM   46  N2  UNL     1      -9.230  13.675  16.629  1.00  0.00    -0.356 N 
HETATM   47  H26 UNL     1      -9.722  13.324  15.817  1.00  0.00     0.166 HD
BRANCH  42  48
HETATM   48  C23 UNL     1      -8.500  13.836  20.241  1.00  0.00     0.036 C 
HETATM   49  C24 UNL     1      -7.126  13.361  20.689  1.00  0.00     0.010 C 
ENDBRANCH  42  48
BRANCH  45  50
HETATM   50  C28 UNL     1      -7.710  15.181  15.366  1.00  0.00     0.288 C 
HETATM   51  O4  UNL     1      -7.968  14.793  14.230  1.00  0.00    -0.300 OA
ENDBRANCH  45  50
ENDBRANCH  40  41
ENDBRANCH  13  40
TORSDOF 13
ENDMDL
MODEL 7
REMARK minimizedAffinity -7.50814724
REMARK CNNscore 0.0747351125
REMARK CNNaffinity 6.23011589
REMARK  13 active torsions:
REMARK  status: ('A' for Active; 'I' for Inactive)
REMARK    1  A    between atoms: C2_2  and  C3_3 
REMARK    2  A    between atoms: C6_6  and  C7_7 
REMARK    3  A    between atoms: C7_7  and  C8_8 
REMARK    4  A    between atoms: C14_17  and  C15_18 
REMARK    5  A    between atoms: C15_18  and  O3_20 
REMARK    6  A    between atoms: C19_24  and  C20_25 
REMARK    7  A    between atoms: C20_25  and  C21_26 
REMARK    8  A    between atoms: C22_27  and  C23_28 
REMARK    9  A    between atoms: C27_32  and  C28_33 
REMARK   10  A    between atoms: C29_37  and  C30_38 
REMARK   11  A    between atoms: C30_38  and  C31_39 
REMARK   12  A    between atoms: C31_39  and  C32_40 
REMARK   13  A    between atoms: C32_40  and  O6_42 
ROOT
HETATM    1  C8  UNL     1      -1.647   7.227  13.882  1.00  0.00     0.016 C 
HETATM    2  N1  UNL     1      -0.447   6.887  13.515  1.00  0.00    -0.362 N 
ATOM      3  H1  UNL     1      -0.159   5.973  13.167  1.00  0.00     0.165 HD
HETATM    4  C9  UNL     1       0.365   7.989  13.683  1.00  0.00     0.024 C 
HETATM    5  C10 UNL     1       1.534   8.086  13.030  1.00  0.00     0.014 A 
HETATM    6  C11 UNL     1       2.451   9.152  13.063  1.00  0.00     0.056 A 
HETATM    7  C12 UNL     1       3.521   8.968  12.239  1.00  0.00     0.046 A 
HETATM    8  C13 UNL     1       3.393   7.686  11.573  1.00  0.00     0.180 A 
HETATM    9  O1  UNL     1       4.197   7.229  10.772  1.00  0.00    -0.291 OA
HETATM   10  C14 UNL     1       2.086   7.004  12.055  1.00  0.00     0.197 A 
HETATM   11  C17 UNL     1       4.353  10.095  12.331  1.00  0.00    -0.023 A 
HETATM   12  C18 UNL     1       5.615  10.331  11.589  1.00  0.00     0.051 C 
HETATM   13  C19 UNL     1       3.740  10.935  13.271  1.00  0.00     0.022 A 
HETATM   14  N3  UNL     1       2.568  10.329  13.708  1.00  0.00    -0.357 N 
HETATM   15  C29 UNL     1      -0.301   9.002  14.589  1.00  0.00     0.046 C 
HETATM   16  C34 UNL     1      -1.774   8.684  14.284  1.00  0.00     0.041 C 
HETATM   17  C35 UNL     1      -2.793   9.069  15.337  1.00  0.00     0.017 C 
HETATM   18  H27 UNL     1       1.959  10.708  14.418  1.00  0.00     0.166 HD
ENDROOT
BRANCH  10  19
HETATM   19  C15 UNL     1       1.167   6.759  10.885  1.00  0.00     0.274 C 
HETATM   20  O2  UNL     1       0.451   5.774  10.743  1.00  0.00    -0.264 OA
BRANCH  19  21
HETATM   21  O3  UNL     1       1.237   7.803  10.011  1.00  0.00    -0.326 OA
HETATM   22  C16 UNL     1      -0.018   8.423   9.723  1.00  0.00     0.213 C 
ENDBRANCH  19  21
ENDBRANCH  10  19
BRANCH  15  23
HETATM   23  C30 UNL     1       0.176   8.922  16.060  1.00  0.00     0.021 C 
BRANCH  23  24
HETATM   24  C31 UNL     1       0.671  10.200  16.744  1.00  0.00     0.112 C 
BRANCH  24  25
HETATM   25  C32 UNL     1      -0.104  10.557  17.983  1.00  0.00     0.258 C 
HETATM   26  O5  UNL     1      -1.275  10.911  17.991  1.00  0.00    -0.265 OA
BRANCH  25  27
HETATM   27  O6  UNL     1       0.696  10.465  19.081  1.00  0.00    -0.326 OA
HETATM   28  C33 UNL     1       0.837  11.684  19.808  1.00  0.00     0.213 C 
ENDBRANCH  25  27
ENDBRANCH  24  25
ENDBRANCH  23  24
ENDBRANCH  15  23
BRANCH   1  29
HETATM   29  C7  UNL     1      -2.832   6.336  13.853  1.00  0.00     0.055 C 
BRANCH  29  30
HETATM   30  C6  UNL     1      -3.018   5.406  12.910  1.00  0.00     0.043 A 
HETATM   31  C4  UNL     1      -4.239   4.715  12.537  1.00  0.00    -0.019 A 
HETATM   32  C3  UNL     1      -4.006   3.841  11.531  1.00  0.00     0.039 A 
HETATM   33  C5  UNL     1      -5.532   5.007  13.227  1.00  0.00     0.052 C 
HETATM   34  C36 UNL     1      -2.542   3.970  11.219  1.00  0.00     0.256 A 
HETATM   35  N4  UNL     1      -2.057   4.917  12.086  1.00  0.00    -0.322 N 
HETATM   36  O7  UNL     1      -1.906   3.377  10.368  1.00  0.00    -0.267 OA
HETATM   37  H40 UNL     1      -1.083   5.199  12.129  1.00  0.00     0.169 HD
BRANCH  32  38
HETATM   38  C2  UNL     1      -4.944   2.958  10.879  1.00  0.00     0.007 C 
HETATM   39  C1  UNL     1      -5.359   1.768  11.331  1.00  0.00     0.012 C 
ENDBRANCH  32  38
ENDBRANCH  29  30
ENDBRANCH   1  29
BRANCH  13  40
HETATM   40  C20 UNL     1       4.166  12.274  13.795  1.00  0.00     0.115 C 
BRANCH  40  41
HETATM   41  C21 UNL     1       3.920  13.382  12.816  1.00  0.00     0.022 A 
HETATM   42  C22 UNL     1       4.793  14.091  12.003  1.00  0.00    -0.027 A 
HETATM   43  C25 UNL     1       4.002  15.024  11.252  1.00  0.00    -0.024 A 
HETATM   44  C26 UNL     1       4.501  15.996  10.232  1.00  0.00     0.051 C 
HETATM   45  C27 UNL     1       2.678  14.859  11.642  1.00  0.00     0.077 A 
HETATM   46  N2  UNL     1       2.652  13.845  12.570  1.00  0.00    -0.356 N 
HETATM   47  H26 UNL     1       1.814  13.484  13.010  1.00  0.00     0.166 HD
BRANCH  42  48
HETATM   48  C23 UNL     1       6.281  13.904  11.917  1.00  0.00     0.036 C 
HETATM   49  C24 UNL     1       6.958  14.057  13.270  1.00  0.00     0.010 C 
ENDBRANCH  42  48
BRANCH  45  50
HETATM   50  C28 UNL     1       1.493  15.560  11.198  1.00  0.00     0.288 C 
HETATM   51  O4  UNL     1       0.427  15.619  11.806  1.00  0.00    -0.300 OA
ENDBRANCH  45  50
ENDBRANCH  40  41
ENDBRANCH  13  40
TORSDOF 13
ENDMDL
MODEL 8
REMARK minimizedAffinity -9.38620186
REMARK CNNscore 0.0677937344
REMARK CNNaffinity 7.02272415
REMARK  13 active torsions:
REMARK  status: ('A' for Active; 'I' for Inactive)
REMARK    1  A    between atoms: C2_2  and  C3_3 
REMARK    2  A    between atoms: C6_6  and  C7_7 
REMARK    3  A    between atoms: C7_7  and  C8_8 
REMARK    4  A    between atoms: C14_17  and  C15_18 
REMARK    5  A    between atoms: C15_18  and  O3_20 
REMARK    6  A    between atoms: C19_24  and  C20_25 
REMARK    7  A    between atoms: C20_25  and  C21_26 
REMARK    8  A    between atoms: C22_27  and  C23_28 
REMARK    9  A    between atoms: C27_32  and  C28_33 
REMARK   10  A    between atoms: C29_37  and  C30_38 
REMARK   11  A    between atoms: C30_38  and  C31_39 
REMARK   12  A    between atoms: C31_39  and  C32_40 
REMARK   13  A    between atoms: C32_40  and  O6_42 
ROOT
HETATM    1  C8  UNL     1      -6.638   5.311  13.513  1.00  0.00     0.016 C 
HETATM    2  N1  UNL     1      -5.667   4.482  13.266  1.00  0.00    -0.362 N 
ATOM      3  H1  UNL     1      -5.757   3.479  13.101  1.00  0.00     0.165 HD
HETATM    4  C9  UNL     1      -4.494   5.205  13.267  1.00  0.00     0.024 C 
HETATM    5  C10 UNL     1      -3.395   4.732  12.659  1.00  0.00     0.014 A 
HETATM    6  C11 UNL     1      -2.141   5.359  12.539  1.00  0.00     0.056 A 
HETATM    7  C12 UNL     1      -1.245   4.636  11.810  1.00  0.00     0.046 A 
HETATM    8  C13 UNL     1      -1.868   3.399  11.382  1.00  0.00     0.180 A 
HETATM    9  O1  UNL     1      -1.320   2.534  10.712  1.00  0.00    -0.291 OA
HETATM   10  C14 UNL     1      -3.322   3.362  11.921  1.00  0.00     0.197 A 
HETATM   11  C17 UNL     1      -0.045   5.363  11.734  1.00  0.00    -0.023 A 
HETATM   12  C18 UNL     1       1.191   4.964  11.017  1.00  0.00     0.051 C 
HETATM   13  C19 UNL     1      -0.267   6.529  12.478  1.00  0.00     0.022 A 
HETATM   14  N3  UNL     1      -1.568   6.501  12.966  1.00  0.00    -0.357 N 
HETATM   15  C29 UNL     1      -4.700   6.543  13.946  1.00  0.00     0.046 C 
HETATM   16  C34 UNL     1      -6.192   6.755  13.639  1.00  0.00     0.041 C 
HETATM   17  C35 UNL     1      -6.958   7.682  14.560  1.00  0.00     0.017 C 
HETATM   18  H27 UNL     1      -1.968   7.206  13.568  1.00  0.00     0.166 HD
ENDROOT
BRANCH  10  19
HETATM   19  C15 UNL     1      -4.298   3.272  10.776  1.00  0.00     0.274 C 
HETATM   20  O2  UNL     1      -4.098   3.696   9.642  1.00  0.00    -0.264 OA
BRANCH  19  21
HETATM   21  O3  UNL     1      -5.434   2.637  11.179  1.00  0.00    -0.326 OA
HETATM   22  C16 UNL     1      -5.314   1.217  11.294  1.00  0.00     0.213 C 
ENDBRANCH  19  21
ENDBRANCH  10  19
BRANCH  15  23
HETATM   23  C30 UNL     1      -4.247   6.560  15.427  1.00  0.00     0.021 C 
BRANCH  23  24
HETATM   24  C31 UNL     1      -3.076   7.462  15.828  1.00  0.00     0.112 C 
BRANCH  24  25
HETATM   25  C32 UNL     1      -3.145   8.839  15.225  1.00  0.00     0.258 C 
HETATM   26  O5  UNL     1      -2.614   9.162  14.171  1.00  0.00    -0.265 OA
BRANCH  25  27
HETATM   27  O6  UNL     1      -3.848   9.674  16.039  1.00  0.00    -0.326 OA
HETATM   28  C33 UNL     1      -4.006  10.996  15.527  1.00  0.00     0.213 C 
ENDBRANCH  25  27
ENDBRANCH  24  25
ENDBRANCH  23  24
ENDBRANCH  15  23
BRANCH   1  29
HETATM   29  C7  UNL     1      -8.073   4.944  13.593  1.00  0.00     0.055 C 
BRANCH  29  30
HETATM   30  C6  UNL     1      -9.054   5.852  13.608  1.00  0.00     0.043 A 
HETATM   31  C4  UNL     1      -9.709   6.507  12.489  1.00  0.00    -0.019 A 
HETATM   32  C3  UNL     1     -10.655   7.368  12.926  1.00  0.00     0.039 A 
HETATM   33  C5  UNL     1      -9.322   6.196  11.079  1.00  0.00     0.052 C 
HETATM   34  C36 UNL     1     -10.626   7.270  14.425  1.00  0.00     0.256 A 
HETATM   35  N4  UNL     1      -9.651   6.350  14.720  1.00  0.00    -0.322 N 
HETATM   36  O7  UNL     1     -11.325   7.863  15.225  1.00  0.00    -0.267 OA
HETATM   37  H40 UNL     1      -9.384   6.092  15.665  1.00  0.00     0.169 HD
BRANCH  32  38
HETATM   38  C2  UNL     1     -11.522   8.217  12.143  1.00  0.00     0.007 C 
HETATM   39  C1  UNL     1     -12.115   9.344  12.557  1.00  0.00     0.012 C 
ENDBRANCH  32  38
ENDBRANCH  29  30
ENDBRANCH   1  29
BRANCH  13  40
HETATM   40  C20 UNL     1       0.650   7.679  12.770  1.00  0.00     0.115 C 
BRANCH  40  41
HETATM   41  C21 UNL     1       1.725   7.837  11.738  1.00  0.00     0.022 A 
HETATM   42  C22 UNL     1       3.106   7.889  11.861  1.00  0.00    -0.027 A 
HETATM   43  C25 UNL     1       3.640   8.029  10.535  1.00  0.00    -0.024 A 
HETATM   44  C26 UNL     1       5.084   8.112  10.162  1.00  0.00     0.051 C 
HETATM   45  C27 UNL     1       2.566   8.067   9.654  1.00  0.00     0.077 A 
HETATM   46  N2  UNL     1       1.421   7.926  10.403  1.00  0.00    -0.356 N 
HETATM   47  H26 UNL     1       0.482   7.888  10.024  1.00  0.00     0.166 HD
BRANCH  42  48
HETATM   48  C23 UNL     1       3.891   7.800  13.139  1.00  0.00     0.036 C 
HETATM   49  C24 UNL     1       4.043   9.155  13.814  1.00  0.00     0.010 C 
ENDBRANCH  42  48
BRANCH  45  50
HETATM   50  C28 UNL     1       2.560   8.209   8.214  1.00  0.00     0.288 C 
HETATM   51  O4  UNL     1       3.121   9.100   7.581  1.00  0.00    -0.300 OA
ENDBRANCH  45  50
ENDBRANCH  40  41
ENDBRANCH  13  40
TORSDOF 13
ENDMDL
MODEL 9
REMARK minimizedAffinity -7.0117135
REMARK CNNscore 0.0609326698
REMARK CNNaffinity 6.08515739
REMARK  13 active torsions:
REMARK  status: ('A' for Active; 'I' for Inactive)
REMARK    1  A    between atoms: C2_2  and  C3_3 
REMARK    2  A    between atoms: C6_6  and  C7_7 
REMARK    3  A    between atoms: C7_7  and  C8_8 
REMARK    4  A    between atoms: C14_17  and  C15_18 
REMARK    5  A    between atoms: C15_18  and  O3_20 
REMARK    6  A    between atoms: C19_24  and  C20_25 
REMARK    7  A    between atoms: C20_25  and  C21_26 
REMARK    8  A    between atoms: C22_27  and  C23_28 
REMARK    9  A    between atoms: C27_32  and  C28_33 
REMARK   10  A    between atoms: C29_37  and  C30_38 
REMARK   11  A    between atoms: C30_38  and  C31_39 
REMARK   12  A    between atoms: C31_39  and  C32_40 
REMARK   13  A    between atoms: C32_40  and  O6_42 
ROOT
HETATM    1  C8  UNL     1      -3.486   7.245  15.012  1.00  0.00     0.016 C 
HETATM    2  N1  UNL     1      -3.126   8.007  16.003  1.00  0.00    -0.362 N 
ATOM      3  H1  UNL     1      -2.473   7.760  16.747  1.00  0.00     0.165 HD
HETATM    4  C9  UNL     1      -3.788   9.208  15.864  1.00  0.00     0.024 C 
HETATM    5  C10 UNL     1      -3.337  10.315  16.473  1.00  0.00     0.014 A 
HETATM    6  C11 UNL     1      -3.872  11.614  16.403  1.00  0.00     0.056 A 
HETATM    7  C12 UNL     1      -3.144  12.535  17.096  1.00  0.00     0.046 A 
HETATM    8  C13 UNL     1      -2.018  11.874  17.726  1.00  0.00     0.180 A 
HETATM    9  O1  UNL     1      -1.179  12.430  18.422  1.00  0.00    -0.291 OA
HETATM   10  C14 UNL     1      -2.069  10.364  17.377  1.00  0.00     0.197 A 
HETATM   11  C17 UNL     1      -3.750  13.792  16.936  1.00  0.00    -0.023 A 
HETATM   12  C18 UNL     1      -3.281  15.082  17.498  1.00  0.00     0.051 C 
HETATM   13  C19 UNL     1      -4.884  13.562  16.146  1.00  0.00     0.022 A 
HETATM   14  N3  UNL     1      -4.937  12.209  15.831  1.00  0.00    -0.357 N 
HETATM   15  C29 UNL     1      -4.956   9.059  14.912  1.00  0.00     0.046 C 
HETATM   16  C34 UNL     1      -4.416   7.924  14.025  1.00  0.00     0.041 C 
HETATM   17  C35 UNL     1      -5.437   7.086  13.284  1.00  0.00     0.017 C 
HETATM   18  H27 UNL     1      -5.680  11.773  15.304  1.00  0.00     0.166 HD
ENDROOT
BRANCH  10  19
HETATM   19  C15 UNL     1      -0.819   9.959  16.639  1.00  0.00     0.274 C 
HETATM   20  O2  UNL     1      -0.716   9.865  15.420  1.00  0.00    -0.264 OA
BRANCH  19  21
HETATM   21  O3  UNL     1       0.191   9.726  17.524  1.00  0.00    -0.326 OA
HETATM   22  C16 UNL     1       1.504   9.804  16.964  1.00  0.00     0.213 C 
ENDBRANCH  19  21
ENDBRANCH  10  19
BRANCH  15  23
HETATM   23  C30 UNL     1      -6.313   8.848  15.627  1.00  0.00     0.021 C 
BRANCH  23  24
HETATM   24  C31 UNL     1      -7.053   7.522  15.427  1.00  0.00     0.112 C 
BRANCH  24  25
HETATM   25  C32 UNL     1      -8.519   7.691  15.136  1.00  0.00     0.258 C 
HETATM   26  O5  UNL     1      -9.125   8.751  15.211  1.00  0.00    -0.265 OA
BRANCH  25  27
HETATM   27  O6  UNL     1      -9.076   6.490  14.814  1.00  0.00    -0.326 OA
HETATM   28  C33 UNL     1      -9.061   6.192  13.419  1.00  0.00     0.213 C 
ENDBRANCH  25  27
ENDBRANCH  24  25
ENDBRANCH  23  24
ENDBRANCH  15  23
BRANCH   1  29
HETATM   29  C7  UNL     1      -2.998   5.864  14.777  1.00  0.00     0.055 C 
BRANCH  29  30
HETATM   30  C6  UNL     1      -2.507   5.458  13.602  1.00  0.00     0.043 A 
HETATM   31  C4  UNL     1      -3.040   4.467  12.683  1.00  0.00    -0.019 A 
HETATM   32  C3  UNL     1      -2.241   4.343  11.599  1.00  0.00     0.039 A 
HETATM   33  C5  UNL     1      -4.313   3.743  12.982  1.00  0.00     0.052 C 
HETATM   34  C36 UNL     1      -1.117   5.315  11.814  1.00  0.00     0.256 A 
HETATM   35  N4  UNL     1      -1.371   5.919  13.020  1.00  0.00    -0.322 N 
HETATM   36  O7  UNL     1      -0.176   5.544  11.077  1.00  0.00    -0.267 OA
HETATM   37  H40 UNL     1      -0.763   6.611  13.446  1.00  0.00     0.169 HD
BRANCH  32  38
HETATM   38  C2  UNL     1      -2.407   3.467  10.462  1.00  0.00     0.007 C 
HETATM   39  C1  UNL     1      -3.438   3.462   9.608  1.00  0.00     0.012 C 
ENDBRANCH  32  38
ENDBRANCH  29  30
ENDBRANCH   1  29
BRANCH  13  40
HETATM   40  C20 UNL     1      -5.931  14.517  15.655  1.00  0.00     0.115 C 
BRANCH  40  41
HETATM   41  C21 UNL     1      -7.278  14.257  16.259  1.00  0.00     0.022 A 
HETATM   42  C22 UNL     1      -8.544  14.246  15.692  1.00  0.00    -0.027 A 
HETATM   43  C25 UNL     1      -9.469  13.915  16.740  1.00  0.00    -0.024 A 
HETATM   44  C26 UNL     1     -10.950  13.769  16.606  1.00  0.00     0.051 C 
HETATM   45  C27 UNL     1      -8.735  13.747  17.908  1.00  0.00     0.077 A 
HETATM   46  N2  UNL     1      -7.411  13.936  17.586  1.00  0.00    -0.356 N 
HETATM   47  H26 UNL     1      -6.640  13.848  18.236  1.00  0.00     0.166 HD
BRANCH  42  48
HETATM   48  C23 UNL     1      -8.879  14.515  14.253  1.00  0.00     0.036 C 
HETATM   49  C24 UNL     1      -9.245  15.971  14.011  1.00  0.00     0.010 C 
ENDBRANCH  42  48
BRANCH  45  50
HETATM   50  C28 UNL     1      -9.190  13.421  19.242  1.00  0.00     0.288 C 
HETATM   51  O4  UNL     1      -8.654  13.778  20.288  1.00  0.00    -0.300 OA
ENDBRANCH  45  50
ENDBRANCH  40  41
ENDBRANCH  13  40
TORSDOF 13
ENDMDL
