MODEL 1
REMARK minimizedAffinity -8.15752411
REMARK CNNscore 0.584092438
REMARK CNNaffinity 8.15209866
REMARK  10 active torsions:
REMARK  status: ('A' for Active; 'I' for Inactive)
REMARK    1  A    between atoms: C2_2  and  C3_3 
REMARK    2  A    between atoms: C5_5  and  S1_6 
REMARK    3  A    between atoms: C14_18  and  C15_19 
REMARK    4  A    between atoms: C15_19  and  O4_20 
REMARK    5  A    between atoms: C21_26  and  O5_27 
REMARK    6  A    between atoms: C33_40  and  C34_41 
REMARK    7  A    between atoms: C33_40  and  N1_45 
REMARK    8  A    between atoms: C34_41  and  C35_42 
REMARK    9  A    between atoms: C35_42  and  C36_43 
REMARK   10  A    between atoms: C36_43  and  O7_44 
REMARK       I    between atoms: N1_45  and  C37_47 
REMARK       I    between atoms: C37_47  and  N3_49 
ROOT
HETATM    1  C3  UNL     1       4.433  54.767  -7.904  1.00  0.00     0.019 C 
HETATM    2  C4  UNL     1       3.279  55.276  -6.987  1.00  0.00     0.034 C 
HETATM    3  C5  UNL     1       3.474  55.996  -5.637  1.00  0.00     0.157 C 
HETATM    4  C6  UNL     1       2.267  55.652  -4.678  1.00  0.00     0.121 A 
HETATM    5  C7  UNL     1       2.607  55.959  -3.224  1.00  0.00     0.005 C 
HETATM    6  C8  UNL     1       1.625  55.929  -2.302  1.00  0.00    -0.048 C 
HETATM    7  C9  UNL     1       0.303  55.348  -2.710  1.00  0.00     0.044 C 
HETATM    8  C10 UNL     1      -0.222  56.186  -3.884  1.00  0.00     0.019 C 
HETATM    9  C11 UNL     1      -0.704  57.598  -3.416  1.00  0.00     0.039 C 
HETATM   10  C12 UNL     1       0.244  58.369  -2.463  1.00  0.00     0.123 C 
HETATM   11  C13 UNL     1      -0.306  59.762  -2.078  1.00  0.00     0.039 C 
HETATM   12  C14 UNL     1      -1.454  59.766  -1.022  1.00  0.00     0.023 C 
HETATM   13  C16 UNL     1      -0.977  60.167   0.403  1.00  0.00     0.101 C 
HETATM   14  C17 UNL     1      -0.117  59.150   1.019  1.00  0.00    -0.101 C 
HETATM   15  C18 UNL     1       0.592  58.228   1.319  1.00  0.00    -0.066 C 
HETATM   16  C19 UNL     1       1.394  57.042   1.409  1.00  0.00     0.029 A 
HETATM   17  C20 UNL     1       1.713  56.562   2.686  1.00  0.00     0.057 A 
HETATM   18  C21 UNL     1       2.494  55.418   2.821  1.00  0.00     0.067 A 
HETATM   19  C22 UNL     1       2.950  54.726   1.706  1.00  0.00     0.037 A 
HETATM   20  C23 UNL     1       2.627  55.190   0.429  1.00  0.00     0.014 A 
HETATM   21  C24 UNL     1       1.844  56.357   0.248  1.00  0.00    -0.006 A 
HETATM   22  C25 UNL     1       1.640  56.915  -1.158  1.00  0.00     0.185 C 
HETATM   23  O6  UNL     1       0.394  57.614  -1.258  1.00  0.00    -0.371 OA
HETATM   24  C26 UNL     1       0.839  56.267  -5.060  1.00  0.00     0.115 A 
HETATM   25  C27 UNL     1       0.220  55.644  -6.320  1.00  0.00    -0.035 A 
HETATM   26  C28 UNL     1      -0.099  54.283  -6.400  1.00  0.00     0.010 A 
HETATM   27  C29 UNL     1      -0.527  53.713  -7.611  1.00  0.00     0.012 A 
HETATM   28  C30 UNL     1      -0.667  54.483  -8.782  1.00  0.00    -0.003 A 
HETATM   29  C31 UNL     1      -0.412  55.863  -8.673  1.00  0.00     0.012 A 
HETATM   30  C32 UNL     1       0.024  56.429  -7.467  1.00  0.00     0.010 A 
HETATM   31  C33 UNL     1      -0.981  53.820 -10.163  1.00  0.00     0.171 C 
HETATM   32  O8  UNL     1       0.079  54.066 -11.163  1.00  0.00    -0.316 OA
HETATM   33  C38 UNL     1       1.366  54.012 -10.694  1.00  0.00     0.072 C 
HETATM   34  C39 UNL     1       2.128  55.166 -10.871  1.00  0.00     0.037 C 
HETATM   35  C40 UNL     1       3.272  55.348 -10.100  1.00  0.00     0.010 C 
HETATM   36  C41 UNL     1       3.666  54.358  -9.183  1.00  0.00    -0.054 C 
HETATM   37  C42 UNL     1       3.034  53.103  -9.221  1.00  0.00     0.010 C 
HETATM   38  C43 UNL     1       1.874  52.931  -9.979  1.00  0.00     0.037 C 
HETATM   39 NA1  UNL     1       0.762  55.785  -5.504  1.00  0.00    -0.404 Na
ATOM     40  HA1 UNL     1       0.151  55.381  -6.215  1.00  0.00     0.154 HD
ENDROOT
BRANCH  31  41
HETATM   41  C34 UNL     1      -2.220  54.548 -10.794  1.00  0.00     0.069 C 
BRANCH  41  42
HETATM   42  C35 UNL     1      -3.621  53.951 -10.557  1.00  0.00     0.031 C 
BRANCH  42  43
HETATM   43  C36 UNL     1      -4.200  53.120 -11.694  1.00  0.00     0.164 C 
BRANCH  43  44
HETATM   44  O7  UNL     1      -4.204  53.877 -12.900  1.00  0.00    -0.401 OA
HETATM   45  H42 UNL     1      -4.478  53.267 -13.602  1.00  0.00     0.209 HD
ENDBRANCH  43  44
ENDBRANCH  42  43
ENDBRANCH  41  42
ENDBRANCH  31  41
BRANCH  31  46
HETATM   46  N1  UNL     1      -1.362  52.399  -9.978  1.00  0.00    -0.331 N 
HETATM   47  C37 UNL     1      -1.297  51.553 -10.938  1.00  0.00     0.146 C 
HETATM   48  N2  UNL     1      -1.643  50.270 -10.708  1.00  0.00    -0.376 N 
HETATM   49  N3  UNL     1      -0.865  51.710 -12.210  1.00  0.00    -0.274 NA
HETATM   50  H43 UNL     1      -2.014  49.739 -11.477  1.00  0.00     0.158 HD
HETATM   51  H44 UNL     1      -2.093  50.132  -9.809  1.00  0.00     0.158 HD
HETATM   52  H45 UNL     1      -0.570  52.661 -12.410  1.00  0.00     0.127 HD
HETATM   53  H46 UNL     1      -1.504  51.381 -12.923  1.00  0.00     0.127 HD
ATOM     54  H1  UNL     1      -1.686  52.087  -9.061  1.00  0.00     0.165 HD
ENDBRANCH  31  46
BRANCH   1  55
HETATM   55  C2  UNL     1       5.602  55.722  -8.187  1.00  0.00     0.005 C 
HETATM   56  C1  UNL     1       6.705  55.056  -9.003  1.00  0.00     0.006 C 
ENDBRANCH   1  55
BRANCH   3  57
HETATM   57  S1  UNL     1       3.723  57.801  -5.835  1.00  0.00     0.108 S 
HETATM   58  O1  UNL     1       2.932  58.414  -4.765  1.00  0.00    -0.595 OA
HETATM   59  O2  UNL     1       5.165  58.019  -5.704  1.00  0.00    -0.595 OA
HETATM   60  O3  UNL     1       3.227  58.063  -7.185  1.00  0.00    -0.595 OA
ENDBRANCH   3  57
BRANCH  12  61
HETATM   61  C15 UNL     1      -2.571  60.729  -1.461  1.00  0.00     0.169 C 
BRANCH  61  62
HETATM   62  O4  UNL     1      -3.386  60.179  -2.489  1.00  0.00    -0.400 OA
HETATM   63  H23 UNL     1      -3.678  59.298  -2.215  1.00  0.00     0.209 HD
ENDBRANCH  61  62
ENDBRANCH  12  61
BRANCH  18  64
HETATM   64  O5  UNL     1       2.807  54.992   4.084  1.00  0.00    -0.361 OA
HETATM   65  H27 UNL     1       3.420  54.247   4.017  1.00  0.00     0.217 HD
ENDBRANCH  18  64
TORSDOF 10
ENDMDL
MODEL 2
REMARK minimizedAffinity -6.72484493
REMARK CNNscore 0.31409055
REMARK CNNaffinity 6.58560514
REMARK  10 active torsions:
REMARK  status: ('A' for Active; 'I' for Inactive)
REMARK    1  A    between atoms: C2_2  and  C3_3 
REMARK    2  A    between atoms: C5_5  and  S1_6 
REMARK    3  A    between atoms: C14_18  and  C15_19 
REMARK    4  A    between atoms: C15_19  and  O4_20 
REMARK    5  A    between atoms: C21_26  and  O5_27 
REMARK    6  A    between atoms: C33_40  and  C34_41 
REMARK    7  A    between atoms: C33_40  and  N1_45 
REMARK    8  A    between atoms: C34_41  and  C35_42 
REMARK    9  A    between atoms: C35_42  and  C36_43 
REMARK   10  A    between atoms: C36_43  and  O7_44 
REMARK       I    between atoms: N1_45  and  C37_47 
REMARK       I    between atoms: C37_47  and  N3_49 
ROOT
HETATM    1  C3  UNL     1     -11.891  46.313 -17.737  1.00  0.00     0.019 C 
HETATM    2  C4  UNL     1     -11.692  46.224 -19.281  1.00  0.00     0.034 C 
HETATM    3  C5  UNL     1     -12.826  46.032 -20.309  1.00  0.00     0.157 C 
HETATM    4  C6  UNL     1     -12.281  45.221 -21.550  1.00  0.00     0.121 A 
HETATM    5  C7  UNL     1     -13.418  44.628 -22.371  1.00  0.00     0.005 C 
HETATM    6  C8  UNL     1     -13.146  44.091 -23.576  1.00  0.00    -0.048 C 
HETATM    7  C9  UNL     1     -11.704  43.877 -23.934  1.00  0.00     0.044 C 
HETATM    8  C10 UNL     1     -11.015  45.248 -23.896  1.00  0.00     0.019 C 
HETATM    9  C11 UNL     1     -11.440  46.141 -25.107  1.00  0.00     0.039 C 
HETATM   10  C12 UNL     1     -12.957  46.205 -25.416  1.00  0.00     0.123 C 
HETATM   11  C13 UNL     1     -13.281  47.132 -26.610  1.00  0.00     0.039 C 
HETATM   12  C14 UNL     1     -12.965  46.549 -28.022  1.00  0.00     0.023 C 
HETATM   13  C16 UNL     1     -14.229  46.048 -28.777  1.00  0.00     0.101 C 
HETATM   14  C17 UNL     1     -14.810  44.845 -28.170  1.00  0.00    -0.101 C 
HETATM   15  C18 UNL     1     -15.149  43.905 -27.503  1.00  0.00    -0.066 C 
HETATM   16  C19 UNL     1     -15.346  42.868 -26.531  1.00  0.00     0.029 A 
HETATM   17  C20 UNL     1     -16.072  41.735 -26.920  1.00  0.00     0.057 A 
HETATM   18  C21 UNL     1     -16.292  40.707 -26.007  1.00  0.00     0.067 A 
HETATM   19  C22 UNL     1     -15.786  40.775 -24.716  1.00  0.00     0.037 A 
HETATM   20  C23 UNL     1     -15.051  41.896 -24.323  1.00  0.00     0.014 A 
HETATM   21  C24 UNL     1     -14.814  42.968 -25.216  1.00  0.00    -0.006 A 
HETATM   22  C25 UNL     1     -14.138  44.238 -24.706  1.00  0.00     0.185 C 
HETATM   23  O6  UNL     1     -13.410  44.891 -25.753  1.00  0.00    -0.371 OA
HETATM   24  C26 UNL     1     -11.234  45.971 -22.502  1.00  0.00     0.115 A 
HETATM   25  C27 UNL     1      -9.864  46.199 -21.848  1.00  0.00    -0.035 A 
HETATM   26  C28 UNL     1      -9.053  45.139 -21.425  1.00  0.00     0.010 A 
HETATM   27  C29 UNL     1      -7.872  45.378 -20.700  1.00  0.00     0.012 A 
HETATM   28  C30 UNL     1      -7.451  46.685 -20.386  1.00  0.00    -0.003 A 
HETATM   29  C31 UNL     1      -8.235  47.745 -20.877  1.00  0.00     0.012 A 
HETATM   30  C32 UNL     1      -9.417  47.505 -21.591  1.00  0.00     0.010 A 
HETATM   31  C33 UNL     1      -6.233  46.943 -19.440  1.00  0.00     0.171 C 
HETATM   32  O8  UNL     1      -6.608  47.700 -18.227  1.00  0.00    -0.316 OA
HETATM   33  C38 UNL     1      -7.809  47.362 -17.661  1.00  0.00     0.072 C 
HETATM   34  C39 UNL     1      -8.741  48.392 -17.547  1.00  0.00     0.037 C 
HETATM   35  C40 UNL     1     -10.083  48.075 -17.363  1.00  0.00     0.010 C 
HETATM   36  C41 UNL     1     -10.480  46.731 -17.259  1.00  0.00    -0.054 C 
HETATM   37  C42 UNL     1      -9.495  45.739 -17.111  1.00  0.00     0.010 C 
HETATM   38  C43 UNL     1      -8.151  46.056 -17.318  1.00  0.00     0.037 C 
HETATM   39 NA1  UNL     1     -10.757  45.833 -22.068  1.00  0.00    -0.404 Na
ATOM     40  HA1 UNL     1      -9.765  45.925 -21.847  1.00  0.00     0.154 HD
ENDROOT
BRANCH  31  41
HETATM   41  C34 UNL     1      -5.243  47.925 -20.162  1.00  0.00     0.069 C 
BRANCH  41  42
HETATM   42  C35 UNL     1      -5.173  49.386 -19.675  1.00  0.00     0.031 C 
BRANCH  42  43
HETATM   43  C36 UNL     1      -5.868  50.420 -20.548  1.00  0.00     0.164 C 
BRANCH  43  44
HETATM   44  O7  UNL     1      -4.952  51.448 -20.914  1.00  0.00    -0.401 OA
HETATM   45  H42 UNL     1      -5.417  52.011 -21.551  1.00  0.00     0.209 HD
ENDBRANCH  43  44
ENDBRANCH  42  43
ENDBRANCH  41  42
ENDBRANCH  31  41
BRANCH  31  46
HETATM   46  N1  UNL     1      -5.491  45.682 -19.198  1.00  0.00    -0.331 N 
HETATM   47  C37 UNL     1      -4.631  45.577 -18.254  1.00  0.00     0.146 C 
HETATM   48  N2  UNL     1      -3.996  44.401 -18.071  1.00  0.00    -0.376 N 
HETATM   49  N3  UNL     1      -4.257  46.472 -17.312  1.00  0.00    -0.274 NA
HETATM   50  H43 UNL     1      -3.070  44.424 -17.680  1.00  0.00     0.158 HD
HETATM   51  H44 UNL     1      -4.147  43.743 -18.829  1.00  0.00     0.158 HD
HETATM   52  H45 UNL     1      -4.738  47.363 -17.403  1.00  0.00     0.127 HD
HETATM   53  H46 UNL     1      -3.259  46.617 -17.229  1.00  0.00     0.127 HD
ATOM     54  H1  UNL     1      -5.669  44.878 -19.800  1.00  0.00     0.165 HD
ENDBRANCH  31  46
BRANCH   1  55
HETATM   55  C2  UNL     1     -12.998  47.235 -17.206  1.00  0.00     0.005 C 
HETATM   56  C1  UNL     1     -14.225  46.455 -16.745  1.00  0.00     0.006 C 
ENDBRANCH   1  55
BRANCH   3  57
HETATM   57  S1  UNL     1     -13.610  47.616 -20.793  1.00  0.00     0.108 S 
HETATM   58  O1  UNL     1     -13.580  47.623 -22.258  1.00  0.00    -0.595 OA
HETATM   59  O2  UNL     1     -14.961  47.579 -20.229  1.00  0.00    -0.595 OA
HETATM   60  O3  UNL     1     -12.756  48.619 -20.162  1.00  0.00    -0.595 OA
ENDBRANCH   3  57
BRANCH  12  61
HETATM   61  C15 UNL     1     -12.260  47.610 -28.886  1.00  0.00     0.169 C 
BRANCH  61  62
HETATM   62  O4  UNL     1     -11.257  48.317 -28.164  1.00  0.00    -0.400 OA
HETATM   63  H23 UNL     1     -10.675  47.674 -27.734  1.00  0.00     0.209 HD
ENDBRANCH  61  62
ENDBRANCH  12  61
BRANCH  18  64
HETATM   64  O5  UNL     1     -17.026  39.626 -26.414  1.00  0.00    -0.361 OA
HETATM   65  H27 UNL     1     -17.169  39.044 -25.655  1.00  0.00     0.217 HD
ENDBRANCH  18  64
TORSDOF 10
ENDMDL
MODEL 3
REMARK minimizedAffinity -7.36637259
REMARK CNNscore 0.294825763
REMARK CNNaffinity 7.35187197
REMARK  10 active torsions:
REMARK  status: ('A' for Active; 'I' for Inactive)
REMARK    1  A    between atoms: C2_2  and  C3_3 
REMARK    2  A    between atoms: C5_5  and  S1_6 
REMARK    3  A    between atoms: C14_18  and  C15_19 
REMARK    4  A    between atoms: C15_19  and  O4_20 
REMARK    5  A    between atoms: C21_26  and  O5_27 
REMARK    6  A    between atoms: C33_40  and  C34_41 
REMARK    7  A    between atoms: C33_40  and  N1_45 
REMARK    8  A    between atoms: C34_41  and  C35_42 
REMARK    9  A    between atoms: C35_42  and  C36_43 
REMARK   10  A    between atoms: C36_43  and  O7_44 
REMARK       I    between atoms: N1_45  and  C37_47 
REMARK       I    between atoms: C37_47  and  N3_49 
ROOT
HETATM    1  C3  UNL     1       0.401  55.836  -7.364  1.00  0.00     0.019 C 
HETATM    2  C4  UNL     1       1.860  55.294  -7.271  1.00  0.00     0.034 C 
HETATM    3  C5  UNL     1       2.897  55.723  -6.213  1.00  0.00     0.157 C 
HETATM    4  C6  UNL     1       4.347  55.649  -6.836  1.00  0.00     0.121 A 
HETATM    5  C7  UNL     1       5.347  56.458  -6.019  1.00  0.00     0.005 C 
HETATM    6  C8  UNL     1       6.662  56.331  -6.281  1.00  0.00    -0.048 C 
HETATM    7  C9  UNL     1       7.056  55.597  -7.529  1.00  0.00     0.044 C 
HETATM    8  C10 UNL     1       6.490  54.174  -7.420  1.00  0.00     0.019 C 
HETATM    9  C11 UNL     1       7.274  53.319  -6.371  1.00  0.00     0.039 C 
HETATM   10  C12 UNL     1       7.554  53.994  -5.005  1.00  0.00     0.123 C 
HETATM   11  C13 UNL     1       8.308  53.063  -4.028  1.00  0.00     0.039 C 
HETATM   12  C14 UNL     1       9.832  52.882  -4.309  1.00  0.00     0.023 C 
HETATM   13  C16 UNL     1      10.736  53.710  -3.352  1.00  0.00     0.101 C 
HETATM   14  C17 UNL     1      10.640  55.155  -3.593  1.00  0.00    -0.101 C 
HETATM   15  C18 UNL     1      10.386  56.283  -3.917  1.00  0.00    -0.066 C 
HETATM   16  C19 UNL     1       9.886  57.509  -4.469  1.00  0.00     0.029 A 
HETATM   17  C20 UNL     1      10.687  58.653  -4.357  1.00  0.00     0.057 A 
HETATM   18  C21 UNL     1      10.237  59.866  -4.873  1.00  0.00     0.067 A 
HETATM   19  C22 UNL     1       9.012  59.959  -5.519  1.00  0.00     0.037 A 
HETATM   20  C23 UNL     1       8.212  58.821  -5.646  1.00  0.00     0.014 A 
HETATM   21  C24 UNL     1       8.626  57.571  -5.125  1.00  0.00    -0.006 A 
HETATM   22  C25 UNL     1       7.662  56.388  -5.151  1.00  0.00     0.185 C 
HETATM   23  O6  UNL     1       8.372  55.146  -5.223  1.00  0.00    -0.371 OA
HETATM   24  C26 UNL     1       4.929  54.189  -7.146  1.00  0.00     0.115 A 
HETATM   25  C27 UNL     1       4.221  53.482  -8.310  1.00  0.00    -0.035 A 
HETATM   26  C28 UNL     1       4.224  53.999  -9.611  1.00  0.00     0.010 A 
HETATM   27  C29 UNL     1       3.448  53.409 -10.624  1.00  0.00     0.012 A 
HETATM   28  C30 UNL     1       2.654  52.271 -10.379  1.00  0.00    -0.003 A 
HETATM   29  C31 UNL     1       2.713  51.718  -9.087  1.00  0.00     0.012 A 
HETATM   30  C32 UNL     1       3.480  52.313  -8.075  1.00  0.00     0.010 A 
HETATM   31  C33 UNL     1       1.666  51.718 -11.458  1.00  0.00     0.171 C 
HETATM   32  O8  UNL     1       0.262  51.732 -10.999  1.00  0.00    -0.316 OA
HETATM   33  C38 UNL     1      -0.118  52.831 -10.275  1.00  0.00     0.072 C 
HETATM   34  C39 UNL     1      -0.606  52.578  -8.993  1.00  0.00     0.037 C 
HETATM   35  C40 UNL     1      -0.639  53.613  -8.064  1.00  0.00     0.010 C 
HETATM   36  C41 UNL     1      -0.216  54.902  -8.432  1.00  0.00    -0.054 C 
HETATM   37  C42 UNL     1       0.013  55.182  -9.790  1.00  0.00     0.010 C 
HETATM   38  C43 UNL     1       0.066  54.139 -10.716  1.00  0.00     0.037 C 
HETATM   39 NA1  UNL     1       4.574  54.178  -7.703  1.00  0.00    -0.404 Na
ATOM     40  HA1 UNL     1       4.323  53.640  -8.532  1.00  0.00     0.154 HD
ENDROOT
BRANCH  31  41
HETATM   41  C34 UNL     1       1.947  50.185 -11.648  1.00  0.00     0.069 C 
BRANCH  41  42
HETATM   42  C35 UNL     1       3.378  49.739 -12.008  1.00  0.00     0.031 C 
BRANCH  42  43
HETATM   43  C36 UNL     1       3.584  49.219 -13.423  1.00  0.00     0.164 C 
BRANCH  43  44
HETATM   44  O7  UNL     1       4.874  49.593 -13.899  1.00  0.00    -0.401 OA
HETATM   45  H42 UNL     1       4.988  49.146 -14.751  1.00  0.00     0.209 HD
ENDBRANCH  43  44
ENDBRANCH  42  43
ENDBRANCH  41  42
ENDBRANCH  31  41
BRANCH  31  46
HETATM   46  N1  UNL     1       1.915  52.368 -12.766  1.00  0.00    -0.331 N 
HETATM   47  C37 UNL     1       1.158  52.157 -13.778  1.00  0.00     0.146 C 
HETATM   48  N2  UNL     1       1.423  52.787 -14.941  1.00  0.00    -0.376 N 
HETATM   49  N3  UNL     1       0.037  51.408 -13.887  1.00  0.00    -0.274 NA
HETATM   50  H43 UNL     1       1.157  52.328 -15.795  1.00  0.00     0.158 HD
HETATM   51  H44 UNL     1       2.323  53.256 -14.946  1.00  0.00     0.158 HD
HETATM   52  H45 UNL     1      -0.208  50.940 -13.019  1.00  0.00     0.127 HD
HETATM   53  H46 UNL     1       0.033  50.750 -14.657  1.00  0.00     0.127 HD
ATOM     54  H1  UNL     1       2.709  53.001 -12.864  1.00  0.00     0.165 HD
ENDBRANCH  31  46
BRANCH   1  55
HETATM   55  C2  UNL     1      -0.428  55.898  -6.073  1.00  0.00     0.005 C 
HETATM   56  C1  UNL     1      -0.822  54.512  -5.575  1.00  0.00     0.006 C 
ENDBRANCH   1  55
BRANCH   3  57
HETATM   57  S1  UNL     1       2.750  54.766  -4.658  1.00  0.00     0.108 S 
HETATM   58  O1  UNL     1       1.898  55.582  -3.788  1.00  0.00    -0.595 OA
HETATM   59  O2  UNL     1       2.152  53.483  -5.036  1.00  0.00    -0.595 OA
HETATM   60  O3  UNL     1       4.135  54.639  -4.209  1.00  0.00    -0.595 OA
ENDBRANCH   3  57
BRANCH  12  61
HETATM   61  C15 UNL     1      10.217  51.396  -4.192  1.00  0.00     0.169 C 
BRANCH  61  62
HETATM   62  O4  UNL     1      11.615  51.185  -4.352  1.00  0.00    -0.400 OA
HETATM   63  H23 UNL     1      12.088  51.787  -3.759  1.00  0.00     0.209 HD
ENDBRANCH  61  62
ENDBRANCH  12  61
BRANCH  18  64
HETATM   64  O5  UNL     1      11.035  60.968  -4.724  1.00  0.00    -0.361 OA
HETATM   65  H27 UNL     1      10.557  61.743  -5.048  1.00  0.00     0.217 HD
ENDBRANCH  18  64
TORSDOF 10
ENDMDL
MODEL 4
REMARK minimizedAffinity -8.20593548
REMARK CNNscore 0.21341005
REMARK CNNaffinity 6.32331896
REMARK  10 active torsions:
REMARK  status: ('A' for Active; 'I' for Inactive)
REMARK    1  A    between atoms: C2_2  and  C3_3 
REMARK    2  A    between atoms: C5_5  and  S1_6 
REMARK    3  A    between atoms: C14_18  and  C15_19 
REMARK    4  A    between atoms: C15_19  and  O4_20 
REMARK    5  A    between atoms: C21_26  and  O5_27 
REMARK    6  A    between atoms: C33_40  and  C34_41 
REMARK    7  A    between atoms: C33_40  and  N1_45 
REMARK    8  A    between atoms: C34_41  and  C35_42 
REMARK    9  A    between atoms: C35_42  and  C36_43 
REMARK   10  A    between atoms: C36_43  and  O7_44 
REMARK       I    between atoms: N1_45  and  C37_47 
REMARK       I    between atoms: C37_47  and  N3_49 
ROOT
HETATM    1  C3  UNL     1     -12.294  42.503 -23.262  1.00  0.00     0.019 C 
HETATM    2  C4  UNL     1     -11.896  43.415 -24.462  1.00  0.00     0.034 C 
HETATM    3  C5  UNL     1     -10.457  43.627 -24.973  1.00  0.00     0.157 C 
HETATM    4  C6  UNL     1     -10.318  45.084 -25.566  1.00  0.00     0.121 A 
HETATM    5  C7  UNL     1      -8.857  45.504 -25.677  1.00  0.00     0.005 C 
HETATM    6  C8  UNL     1      -8.547  46.623 -26.358  1.00  0.00    -0.048 C 
HETATM    7  C9  UNL     1      -9.673  47.533 -26.755  1.00  0.00     0.044 C 
HETATM    8  C10 UNL     1     -10.622  46.722 -27.648  1.00  0.00     0.019 C 
HETATM    9  C11 UNL     1     -10.004  46.462 -29.061  1.00  0.00     0.039 C 
HETATM   10  C12 UNL     1      -8.536  45.971 -29.090  1.00  0.00     0.123 C 
HETATM   11  C13 UNL     1      -8.023  45.716 -30.526  1.00  0.00     0.039 C 
HETATM   12  C14 UNL     1      -7.667  46.991 -31.351  1.00  0.00     0.023 C 
HETATM   13  C16 UNL     1      -6.137  47.257 -31.442  1.00  0.00     0.101 C 
HETATM   14  C17 UNL     1      -5.556  47.660 -30.155  1.00  0.00    -0.101 C 
HETATM   15  C18 UNL     1      -5.276  47.925 -29.018  1.00  0.00    -0.066 C 
HETATM   16  C19 UNL     1      -5.213  48.170 -27.606  1.00  0.00     0.029 A 
HETATM   17  C20 UNL     1      -4.158  48.956 -27.124  1.00  0.00     0.057 A 
HETATM   18  C21 UNL     1      -4.054  49.214 -25.760  1.00  0.00     0.067 A 
HETATM   19  C22 UNL     1      -4.993  48.721 -24.864  1.00  0.00     0.037 A 
HETATM   20  C23 UNL     1      -6.055  47.946 -25.336  1.00  0.00     0.014 A 
HETATM   21  C24 UNL     1      -6.191  47.651 -26.715  1.00  0.00    -0.006 A 
HETATM   22  C25 UNL     1      -7.276  46.679 -27.172  1.00  0.00     0.185 C 
HETATM   23  O6  UNL     1      -7.705  46.977 -28.506  1.00  0.00    -0.371 OA
HETATM   24  C26 UNL     1     -11.091  45.386 -26.936  1.00  0.00     0.115 A 
HETATM   25  C27 UNL     1     -12.619  45.423 -26.782  1.00  0.00    -0.035 A 
HETATM   26  C28 UNL     1     -13.263  46.354 -25.958  1.00  0.00     0.010 A 
HETATM   27  C29 UNL     1     -14.647  46.273 -25.723  1.00  0.00     0.012 A 
HETATM   28  C30 UNL     1     -15.439  45.270 -26.315  1.00  0.00    -0.003 A 
HETATM   29  C31 UNL     1     -14.794  44.383 -27.197  1.00  0.00     0.012 A 
HETATM   30  C32 UNL     1     -13.413  44.459 -27.423  1.00  0.00     0.010 A 
HETATM   31  C33 UNL     1     -16.941  45.079 -25.923  1.00  0.00     0.171 C 
HETATM   32  O8  UNL     1     -17.211  43.745 -25.348  1.00  0.00    -0.316 OA
HETATM   33  C38 UNL     1     -16.253  43.255 -24.501  1.00  0.00     0.072 C 
HETATM   34  C39 UNL     1     -15.685  42.034 -24.862  1.00  0.00     0.037 C 
HETATM   35  C40 UNL     1     -14.465  41.662 -24.306  1.00  0.00     0.010 C 
HETATM   36  C41 UNL     1     -13.838  42.497 -23.366  1.00  0.00    -0.054 C 
HETATM   37  C42 UNL     1     -14.556  43.579 -22.828  1.00  0.00     0.010 C 
HETATM   38  C43 UNL     1     -15.769  43.962 -23.403  1.00  0.00     0.037 C 
HETATM   39 NA1  UNL     1     -11.649  45.464 -26.591  1.00  0.00    -0.404 Na
ATOM     40  HA1 UNL     1     -12.646  45.674 -26.636  1.00  0.00     0.154 HD
ENDROOT
BRANCH  31  41
HETATM   41  C34 UNL     1     -17.800  45.064 -27.237  1.00  0.00     0.069 C 
BRANCH  41  42
HETATM   42  C35 UNL     1     -18.621  43.802 -27.563  1.00  0.00     0.031 C 
BRANCH  42  43
HETATM   43  C36 UNL     1     -18.453  43.233 -28.965  1.00  0.00     0.164 C 
BRANCH  43  44
HETATM   44  O7  UNL     1     -17.544  44.035 -29.713  1.00  0.00    -0.401 OA
HETATM   45  H42 UNL     1     -17.394  43.567 -30.548  1.00  0.00     0.209 HD
ENDBRANCH  43  44
ENDBRANCH  42  43
ENDBRANCH  41  42
ENDBRANCH  31  41
BRANCH  31  46
HETATM   46  N1  UNL     1     -17.412  46.228 -25.112  1.00  0.00    -0.331 N 
HETATM   47  C37 UNL     1     -18.514  46.186 -24.461  1.00  0.00     0.146 C 
HETATM   48  N2  UNL     1     -18.887  47.256 -23.728  1.00  0.00    -0.376 N 
HETATM   49  N3  UNL     1     -19.407  45.179 -24.322  1.00  0.00    -0.274 NA
HETATM   50  H43 UNL     1     -19.870  47.416 -23.598  1.00  0.00     0.158 HD
HETATM   51  H44 UNL     1     -18.317  48.078 -23.903  1.00  0.00     0.158 HD
HETATM   52  H45 UNL     1     -19.142  44.346 -24.839  1.00  0.00     0.127 HD
HETATM   53  H46 UNL     1     -20.368  45.427 -24.518  1.00  0.00     0.127 HD
ATOM     54  H1  UNL     1     -16.843  47.075 -25.073  1.00  0.00     0.165 HD
ENDBRANCH  31  46
BRANCH   1  55
HETATM   55  C2  UNL     1     -11.694  41.090 -23.201  1.00  0.00     0.005 C 
HETATM   56  C1  UNL     1     -12.381  40.131 -24.167  1.00  0.00     0.006 C 
ENDBRANCH   1  55
BRANCH   3  57
HETATM   57  S1  UNL     1      -9.934  42.331 -26.159  1.00  0.00     0.108 S 
HETATM   58  O1  UNL     1      -9.097  43.028 -27.139  1.00  0.00    -0.595 OA
HETATM   59  O2  UNL     1      -9.211  41.336 -25.365  1.00  0.00    -0.595 OA
HETATM   60  O3  UNL     1     -11.201  41.829 -26.686  1.00  0.00    -0.595 OA
ENDBRANCH   3  57
BRANCH  12  61
HETATM   61  C15 UNL     1      -8.235  46.873 -32.777  1.00  0.00     0.169 C 
BRANCH  61  62
HETATM   62  O4  UNL     1      -7.303  47.294 -33.767  1.00  0.00    -0.400 OA
HETATM   63  H23 UNL     1      -6.462  46.840 -33.613  1.00  0.00     0.209 HD
ENDBRANCH  61  62
ENDBRANCH  12  61
BRANCH  18  64
HETATM   64  O5  UNL     1      -2.997  49.966 -25.322  1.00  0.00    -0.361 OA
HETATM   65  H27 UNL     1      -3.008  49.985 -24.355  1.00  0.00     0.217 HD
ENDBRANCH  18  64
TORSDOF 10
ENDMDL
MODEL 5
REMARK minimizedAffinity -8.3628273
REMARK CNNscore 0.200870737
REMARK CNNaffinity 6.61685228
REMARK  10 active torsions:
REMARK  status: ('A' for Active; 'I' for Inactive)
REMARK    1  A    between atoms: C2_2  and  C3_3 
REMARK    2  A    between atoms: C5_5  and  S1_6 
REMARK    3  A    between atoms: C14_18  and  C15_19 
REMARK    4  A    between atoms: C15_19  and  O4_20 
REMARK    5  A    between atoms: C21_26  and  O5_27 
REMARK    6  A    between atoms: C33_40  and  C34_41 
REMARK    7  A    between atoms: C33_40  and  N1_45 
REMARK    8  A    between atoms: C34_41  and  C35_42 
REMARK    9  A    between atoms: C35_42  and  C36_43 
REMARK   10  A    between atoms: C36_43  and  O7_44 
REMARK       I    between atoms: N1_45  and  C37_47 
REMARK       I    between atoms: C37_47  and  N3_49 
ROOT
HETATM    1  C3  UNL     1     -12.809  42.044 -24.329  1.00  0.00     0.019 C 
HETATM    2  C4  UNL     1     -12.578  42.902 -25.610  1.00  0.00     0.034 C 
HETATM    3  C5  UNL     1     -11.235  43.035 -26.356  1.00  0.00     0.157 C 
HETATM    4  C6  UNL     1     -11.138  44.466 -27.016  1.00  0.00     0.121 A 
HETATM    5  C7  UNL     1      -9.700  44.816 -27.379  1.00  0.00     0.005 C 
HETATM    6  C8  UNL     1      -9.462  45.901 -28.141  1.00  0.00    -0.048 C 
HETATM    7  C9  UNL     1     -10.601  46.848 -28.381  1.00  0.00     0.044 C 
HETATM    8  C10 UNL     1     -11.716  46.055 -29.078  1.00  0.00     0.019 C 
HETATM    9  C11 UNL     1     -11.350  45.726 -30.562  1.00  0.00     0.039 C 
HETATM   10  C12 UNL     1      -9.926  45.169 -30.813  1.00  0.00     0.123 C 
HETATM   11  C13 UNL     1      -9.667  44.850 -32.303  1.00  0.00     0.039 C 
HETATM   12  C14 UNL     1      -9.402  46.083 -33.221  1.00  0.00     0.023 C 
HETATM   13  C16 UNL     1      -7.898  46.277 -33.570  1.00  0.00     0.101 C 
HETATM   14  C17 UNL     1      -7.098  46.691 -32.411  1.00  0.00    -0.101 C 
HETATM   15  C18 UNL     1      -6.624  46.976 -31.344  1.00  0.00    -0.066 C 
HETATM   16  C19 UNL     1      -6.320  47.258 -29.971  1.00  0.00     0.029 A 
HETATM   17  C20 UNL     1      -5.170  48.010 -29.697  1.00  0.00     0.057 A 
HETATM   18  C21 UNL     1      -4.832  48.303 -28.378  1.00  0.00     0.067 A 
HETATM   19  C22 UNL     1      -5.630  47.878 -27.324  1.00  0.00     0.037 A 
HETATM   20  C23 UNL     1      -6.785  47.139 -27.588  1.00  0.00     0.014 A 
HETATM   21  C24 UNL     1      -7.158  46.810 -28.914  1.00  0.00    -0.006 A 
HETATM   22  C25 UNL     1      -8.341  45.875 -29.153  1.00  0.00     0.185 C 
HETATM   23  O6  UNL     1      -8.971  46.153 -30.409  1.00  0.00    -0.371 OA
HETATM   24  C26 UNL     1     -12.114  44.762 -28.251  1.00  0.00     0.115 A 
HETATM   25  C27 UNL     1     -13.592  44.873 -27.851  1.00  0.00    -0.035 A 
HETATM   26  C28 UNL     1     -14.055  45.855 -26.967  1.00  0.00     0.010 A 
HETATM   27  C29 UNL     1     -15.383  45.844 -26.507  1.00  0.00     0.012 A 
HETATM   28  C30 UNL     1     -16.301  44.860 -26.925  1.00  0.00    -0.003 A 
HETATM   29  C31 UNL     1     -15.846  43.921 -27.868  1.00  0.00     0.012 A 
HETATM   30  C32 UNL     1     -14.518  43.927 -28.319  1.00  0.00     0.010 A 
HETATM   31  C33 UNL     1     -17.725  44.750 -26.287  1.00  0.00     0.171 C 
HETATM   32  O8  UNL     1     -17.949  43.446 -25.628  1.00  0.00    -0.316 OA
HETATM   33  C38 UNL     1     -16.884  42.938 -24.931  1.00  0.00     0.072 C 
HETATM   34  C39 UNL     1     -16.433  41.683 -25.336  1.00  0.00     0.037 C 
HETATM   35  C40 UNL     1     -15.154  41.272 -24.973  1.00  0.00     0.010 C 
HETATM   36  C41 UNL     1     -14.348  42.105 -24.179  1.00  0.00    -0.054 C 
HETATM   37  C42 UNL     1     -14.924  43.234 -23.571  1.00  0.00     0.010 C 
HETATM   38  C43 UNL     1     -16.199  43.655 -23.953  1.00  0.00     0.037 C 
HETATM   39 NA1  UNL     1     -12.603  44.876 -27.823  1.00  0.00    -0.404 Na
ATOM     40  HA1 UNL     1     -13.586  45.129 -27.712  1.00  0.00     0.154 HD
ENDROOT
BRANCH  31  41
HETATM   41  C34 UNL     1     -18.788  44.735 -27.442  1.00  0.00     0.069 C 
BRANCH  41  42
HETATM   42  C35 UNL     1     -19.299  43.374 -27.952  1.00  0.00     0.031 C 
BRANCH  42  43
HETATM   43  C36 UNL     1     -19.489  43.247 -29.457  1.00  0.00     0.164 C 
BRANCH  43  44
HETATM   44  O7  UNL     1     -18.526  44.044 -30.141  1.00  0.00    -0.401 OA
HETATM   45  H42 UNL     1     -18.625  43.840 -31.083  1.00  0.00     0.209 HD
ENDBRANCH  43  44
ENDBRANCH  42  43
ENDBRANCH  41  42
ENDBRANCH  31  41
BRANCH  31  46
HETATM   46  N1  UNL     1     -18.010  45.941 -25.452  1.00  0.00    -0.331 N 
HETATM   47  C37 UNL     1     -18.991  45.968 -24.629  1.00  0.00     0.146 C 
HETATM   48  N2  UNL     1     -19.195  47.074 -23.884  1.00  0.00    -0.376 N 
HETATM   49  N3  UNL     1     -19.888  45.007 -24.310  1.00  0.00    -0.274 NA
HETATM   50  H43 UNL     1     -20.137  47.282 -23.602  1.00  0.00     0.158 HD
HETATM   51  H44 UNL     1     -18.630  47.864 -24.179  1.00  0.00     0.158 HD
HETATM   52  H45 UNL     1     -19.746  44.148 -24.833  1.00  0.00     0.127 HD
HETATM   53  H46 UNL     1     -20.858  45.293 -24.356  1.00  0.00     0.127 HD
ATOM     54  H1  UNL     1     -17.409  46.762 -25.536  1.00  0.00     0.165 HD
ENDBRANCH  31  46
BRANCH   1  55
HETATM   55  C2  UNL     1     -12.264  40.609 -24.315  1.00  0.00     0.005 C 
HETATM   56  C1  UNL     1     -11.134  40.432 -23.306  1.00  0.00     0.006 C 
ENDBRANCH   1  55
BRANCH   3  57
HETATM   57  S1  UNL     1     -10.967  41.683 -27.563  1.00  0.00     0.108 S 
HETATM   58  O1  UNL     1     -12.310  41.223 -27.924  1.00  0.00    -0.595 OA
HETATM   59  O2  UNL     1     -10.229  42.286 -28.676  1.00  0.00    -0.595 OA
HETATM   60  O3  UNL     1     -10.173  40.713 -26.811  1.00  0.00    -0.595 OA
ENDBRANCH   3  57
BRANCH  12  61
HETATM   61  C15 UNL     1     -10.200  45.949 -34.530  1.00  0.00     0.169 C 
BRANCH  61  62
HETATM   62  O4  UNL     1     -11.604  45.891 -34.303  1.00  0.00    -0.400 OA
HETATM   63  H23 UNL     1     -11.856  46.632 -33.734  1.00  0.00     0.209 HD
ENDBRANCH  61  62
ENDBRANCH  12  61
BRANCH  18  64
HETATM   64  O5  UNL     1      -3.689  49.018 -28.146  1.00  0.00    -0.361 OA
HETATM   65  H27 UNL     1      -3.540  49.066 -27.192  1.00  0.00     0.217 HD
ENDBRANCH  18  64
TORSDOF 10
ENDMDL
MODEL 6
REMARK minimizedAffinity -7.17999601
REMARK CNNscore 0.175740287
REMARK CNNaffinity 6.60650492
REMARK  10 active torsions:
REMARK  status: ('A' for Active; 'I' for Inactive)
REMARK    1  A    between atoms: C2_2  and  C3_3 
REMARK    2  A    between atoms: C5_5  and  S1_6 
REMARK    3  A    between atoms: C14_18  and  C15_19 
REMARK    4  A    between atoms: C15_19  and  O4_20 
REMARK    5  A    between atoms: C21_26  and  O5_27 
REMARK    6  A    between atoms: C33_40  and  C34_41 
REMARK    7  A    between atoms: C33_40  and  N1_45 
REMARK    8  A    between atoms: C34_41  and  C35_42 
REMARK    9  A    between atoms: C35_42  and  C36_43 
REMARK   10  A    between atoms: C36_43  and  O7_44 
REMARK       I    between atoms: N1_45  and  C37_47 
REMARK       I    between atoms: C37_47  and  N3_49 
ROOT
HETATM    1  C3  UNL     1       2.534  54.703  -8.816  1.00  0.00     0.019 C 
HETATM    2  C4  UNL     1       1.382  54.503  -7.784  1.00  0.00     0.034 C 
HETATM    3  C5  UNL     1       1.267  55.238  -6.433  1.00  0.00     0.157 C 
HETATM    4  C6  UNL     1       0.550  54.301  -5.383  1.00  0.00     0.121 A 
HETATM    5  C7  UNL     1       0.793  54.775  -3.956  1.00  0.00     0.005 C 
HETATM    6  C8  UNL     1       0.084  54.224  -2.952  1.00  0.00    -0.048 C 
HETATM    7  C9  UNL     1      -0.723  52.998  -3.261  1.00  0.00     0.044 C 
HETATM    8  C10 UNL     1      -1.731  53.377  -4.355  1.00  0.00     0.019 C 
HETATM    9  C11 UNL     1      -2.871  54.291  -3.799  1.00  0.00     0.039 C 
HETATM   10  C12 UNL     1      -2.428  55.479  -2.908  1.00  0.00     0.123 C 
HETATM   11  C13 UNL     1      -3.621  56.338  -2.429  1.00  0.00     0.039 C 
HETATM   12  C14 UNL     1      -4.474  55.726  -1.277  1.00  0.00     0.023 C 
HETATM   13  C16 UNL     1      -4.172  56.355   0.113  1.00  0.00     0.101 C 
HETATM   14  C17 UNL     1      -2.840  56.000   0.616  1.00  0.00    -0.101 C 
HETATM   15  C18 UNL     1      -1.714  55.636   0.822  1.00  0.00    -0.066 C 
HETATM   16  C19 UNL     1      -0.384  55.099   0.801  1.00  0.00     0.029 A 
HETATM   17  C20 UNL     1       0.264  54.904   2.028  1.00  0.00     0.057 A 
HETATM   18  C21 UNL     1       1.558  54.391   2.054  1.00  0.00     0.067 A 
HETATM   19  C22 UNL     1       2.216  54.047   0.881  1.00  0.00     0.037 A 
HETATM   20  C23 UNL     1       1.573  54.225  -0.347  1.00  0.00     0.014 A 
HETATM   21  C24 UNL     1       0.262  54.755  -0.419  1.00  0.00    -0.006 A 
HETATM   22  C25 UNL     1      -0.347  55.075  -1.781  1.00  0.00     0.185 C 
HETATM   23  O6  UNL     1      -1.774  54.961  -1.747  1.00  0.00    -0.371 OA
HETATM   24  C26 UNL     1      -1.008  54.009  -5.617  1.00  0.00     0.115 A 
HETATM   25  C27 UNL     1      -1.289  53.121  -6.837  1.00  0.00    -0.035 A 
HETATM   26  C28 UNL     1      -0.804  51.811  -6.935  1.00  0.00     0.010 A 
HETATM   27  C29 UNL     1      -0.952  51.073  -8.122  1.00  0.00     0.012 A 
HETATM   28  C30 UNL     1      -1.604  51.611  -9.250  1.00  0.00    -0.003 A 
HETATM   29  C31 UNL     1      -2.149  52.901  -9.117  1.00  0.00     0.012 A 
HETATM   30  C32 UNL     1      -1.992  53.640  -7.936  1.00  0.00     0.010 A 
HETATM   31  C33 UNL     1      -1.621  50.856 -10.619  1.00  0.00     0.171 C 
HETATM   32  O8  UNL     1      -0.974  51.629 -11.700  1.00  0.00    -0.316 OA
HETATM   33  C38 UNL     1       0.162  52.310 -11.349  1.00  0.00     0.072 C 
HETATM   34  C39 UNL     1       0.134  53.689 -11.553  1.00  0.00     0.037 C 
HETATM   35  C40 UNL     1       1.050  54.493 -10.880  1.00  0.00     0.010 C 
HETATM   36  C41 UNL     1       2.009  53.909 -10.035  1.00  0.00    -0.054 C 
HETATM   37  C42 UNL     1       2.181  52.514 -10.060  1.00  0.00     0.010 C 
HETATM   38  C43 UNL     1       1.248  51.710 -10.717  1.00  0.00     0.037 C 
HETATM   39 NA1  UNL     1      -0.844  53.556  -6.068  1.00  0.00    -0.404 Na
ATOM     40  HA1 UNL     1      -1.190  52.866  -6.736  1.00  0.00     0.154 HD
ENDROOT
BRANCH  31  41
HETATM   41  C34 UNL     1      -3.108  50.758 -11.114  1.00  0.00     0.069 C 
BRANCH  41  42
HETATM   42  C35 UNL     1      -3.822  52.050 -11.553  1.00  0.00     0.031 C 
BRANCH  42  43
HETATM   43  C36 UNL     1      -3.574  52.503 -12.985  1.00  0.00     0.164 C 
BRANCH  43  44
HETATM   44  O7  UNL     1      -4.272  53.717 -13.243  1.00  0.00    -0.401 OA
HETATM   45  H42 UNL     1      -3.991  54.009 -14.123  1.00  0.00     0.209 HD
ENDBRANCH  43  44
ENDBRANCH  42  43
ENDBRANCH  41  42
ENDBRANCH  31  41
BRANCH  31  46
HETATM   46  N1  UNL     1      -1.130  49.468 -10.449  1.00  0.00    -0.331 N 
HETATM   47  C37 UNL     1      -0.006  49.215  -9.888  1.00  0.00     0.146 C 
HETATM   48  N2  UNL     1       0.384  47.931  -9.746  1.00  0.00    -0.376 N 
HETATM   49  N3  UNL     1       0.896  50.052  -9.326  1.00  0.00    -0.274 NA
HETATM   50  H43 UNL     1       1.371  47.739  -9.737  1.00  0.00     0.158 HD
HETATM   51  H44 UNL     1      -0.195  47.278 -10.263  1.00  0.00     0.158 HD
HETATM   52  H45 UNL     1       0.619  51.027  -9.390  1.00  0.00     0.127 HD
HETATM   53  H46 UNL     1       1.849  49.933  -9.646  1.00  0.00     0.127 HD
ATOM     54  H1  UNL     1      -1.702  48.693 -10.788  1.00  0.00     0.165 HD
ENDBRANCH  31  46
BRANCH   1  55
HETATM   55  C2  UNL     1       2.943  56.140  -9.169  1.00  0.00     0.005 C 
HETATM   56  C1  UNL     1       3.894  56.192 -10.360  1.00  0.00     0.006 C 
ENDBRANCH   1  55
BRANCH   3  57
HETATM   57  S1  UNL     1       0.451  56.872  -6.591  1.00  0.00     0.108 S 
HETATM   58  O1  UNL     1      -0.354  56.778  -7.812  1.00  0.00    -0.595 OA
HETATM   59  O2  UNL     1      -0.341  57.039  -5.371  1.00  0.00    -0.595 OA
HETATM   60  O3  UNL     1       1.575  57.801  -6.673  1.00  0.00    -0.595 OA
ENDBRANCH   3  57
BRANCH  12  61
HETATM   61  C15 UNL     1      -5.973  55.895  -1.582  1.00  0.00     0.169 C 
BRANCH  61  62
HETATM   62  O4  UNL     1      -6.284  55.613  -2.942  1.00  0.00    -0.400 OA
HETATM   63  H23 UNL     1      -5.904  54.753  -3.174  1.00  0.00     0.209 HD
ENDBRANCH  61  62
ENDBRANCH  12  61
BRANCH  18  64
HETATM   64  O5  UNL     1       2.169  54.238   3.269  1.00  0.00    -0.361 OA
HETATM   65  H27 UNL     1       3.084  53.960   3.124  1.00  0.00     0.217 HD
ENDBRANCH  18  64
TORSDOF 10
ENDMDL
MODEL 7
REMARK minimizedAffinity -8.56261063
REMARK CNNscore 0.156952232
REMARK CNNaffinity 6.64475679
REMARK  10 active torsions:
REMARK  status: ('A' for Active; 'I' for Inactive)
REMARK    1  A    between atoms: C2_2  and  C3_3 
REMARK    2  A    between atoms: C5_5  and  S1_6 
REMARK    3  A    between atoms: C14_18  and  C15_19 
REMARK    4  A    between atoms: C15_19  and  O4_20 
REMARK    5  A    between atoms: C21_26  and  O5_27 
REMARK    6  A    between atoms: C33_40  and  C34_41 
REMARK    7  A    between atoms: C33_40  and  N1_45 
REMARK    8  A    between atoms: C34_41  and  C35_42 
REMARK    9  A    between atoms: C35_42  and  C36_43 
REMARK   10  A    between atoms: C36_43  and  O7_44 
REMARK       I    between atoms: N1_45  and  C37_47 
REMARK       I    between atoms: C37_47  and  N3_49 
ROOT
HETATM    1  C3  UNL     1     -11.364  41.686 -30.546  1.00  0.00     0.019 C 
HETATM    2  C4  UNL     1     -11.535  42.772 -29.441  1.00  0.00     0.034 C 
HETATM    3  C5  UNL     1     -12.547  42.701 -28.279  1.00  0.00     0.157 C 
HETATM    4  C6  UNL     1     -13.005  44.161 -27.889  1.00  0.00     0.121 A 
HETATM    5  C7  UNL     1     -14.295  44.142 -27.078  1.00  0.00     0.005 C 
HETATM    6  C8  UNL     1     -14.710  45.276 -26.481  1.00  0.00    -0.048 C 
HETATM    7  C9  UNL     1     -14.019  46.554 -26.856  1.00  0.00     0.044 C 
HETATM    8  C10 UNL     1     -12.534  46.391 -26.505  1.00  0.00     0.019 C 
HETATM    9  C11 UNL     1     -12.298  46.425 -24.959  1.00  0.00     0.039 C 
HETATM   10  C12 UNL     1     -13.250  45.557 -24.098  1.00  0.00     0.123 C 
HETATM   11  C13 UNL     1     -12.923  45.636 -22.590  1.00  0.00     0.039 C 
HETATM   12  C14 UNL     1     -13.377  46.942 -21.867  1.00  0.00     0.023 C 
HETATM   13  C16 UNL     1     -14.666  46.757 -21.017  1.00  0.00     0.101 C 
HETATM   14  C17 UNL     1     -15.860  46.537 -21.842  1.00  0.00    -0.101 C 
HETATM   15  C18 UNL     1     -16.692  46.329 -22.683  1.00  0.00    -0.066 C 
HETATM   16  C19 UNL     1     -17.464  46.080 -23.866  1.00  0.00     0.029 A 
HETATM   17  C20 UNL     1     -18.843  46.322 -23.813  1.00  0.00     0.057 A 
HETATM   18  C21 UNL     1     -19.631  46.087 -24.936  1.00  0.00     0.067 A 
HETATM   19  C22 UNL     1     -19.070  45.635 -26.123  1.00  0.00     0.037 A 
HETATM   20  C23 UNL     1     -17.694  45.403 -26.190  1.00  0.00     0.014 A 
HETATM   21  C24 UNL     1     -16.858  45.617 -25.067  1.00  0.00    -0.006 A 
HETATM   22  C25 UNL     1     -15.389  45.210 -25.133  1.00  0.00     0.185 C 
HETATM   23  O6  UNL     1     -14.587  46.031 -24.276  1.00  0.00    -0.371 OA
HETATM   24  C26 UNL     1     -11.915  45.099 -27.184  1.00  0.00     0.115 A 
HETATM   25  C27 UNL     1     -10.782  45.535 -28.124  1.00  0.00    -0.035 A 
HETATM   26  C28 UNL     1     -11.018  46.300 -29.273  1.00  0.00     0.010 A 
HETATM   27  C29 UNL     1      -9.986  46.562 -30.190  1.00  0.00     0.012 A 
HETATM   28  C30 UNL     1      -8.677  46.082 -29.986  1.00  0.00    -0.003 A 
HETATM   29  C31 UNL     1      -8.434  45.375 -28.794  1.00  0.00     0.012 A 
HETATM   30  C32 UNL     1      -9.467  45.107 -27.884  1.00  0.00     0.010 A 
HETATM   31  C33 UNL     1      -7.573  46.230 -31.084  1.00  0.00     0.171 C 
HETATM   32  O8  UNL     1      -7.053  44.926 -31.543  1.00  0.00    -0.316 OA
HETATM   33  C38 UNL     1      -7.983  43.930 -31.688  1.00  0.00     0.072 C 
HETATM   34  C39 UNL     1      -7.767  42.778 -30.932  1.00  0.00     0.037 C 
HETATM   35  C40 UNL     1      -8.827  41.905 -30.710  1.00  0.00     0.010 C 
HETATM   36  C41 UNL     1     -10.087  42.170 -31.272  1.00  0.00    -0.054 C 
HETATM   37  C42 UNL     1     -10.202  43.185 -32.238  1.00  0.00     0.010 C 
HETATM   38  C43 UNL     1      -9.145  44.073 -32.444  1.00  0.00     0.037 C 
HETATM   39 NA1  UNL     1     -11.655  45.224 -27.778  1.00  0.00    -0.404 Na
ATOM     40  HA1 UNL     1     -10.928  45.722 -28.292  1.00  0.00     0.154 HD
ENDROOT
BRANCH  31  41
HETATM   41  C34 UNL     1      -6.307  46.891 -30.431  1.00  0.00     0.069 C 
BRANCH  41  42
HETATM   42  C35 UNL     1      -6.514  48.062 -29.451  1.00  0.00     0.031 C 
BRANCH  42  43
HETATM   43  C36 UNL     1      -5.760  47.975 -28.131  1.00  0.00     0.164 C 
BRANCH  43  44
HETATM   44  O7  UNL     1      -4.779  49.005 -28.059  1.00  0.00    -0.401 OA
HETATM   45  H42 UNL     1      -4.412  48.967 -27.163  1.00  0.00     0.209 HD
ENDBRANCH  43  44
ENDBRANCH  42  43
ENDBRANCH  41  42
ENDBRANCH  31  41
BRANCH  31  46
HETATM   46  N1  UNL     1      -8.033  47.145 -32.157  1.00  0.00    -0.331 N 
HETATM   47  C37 UNL     1      -7.409  47.242 -33.272  1.00  0.00     0.146 C 
HETATM   48  N2  UNL     1      -7.881  48.080 -34.218  1.00  0.00    -0.376 N 
HETATM   49  N3  UNL     1      -6.323  46.575 -33.724  1.00  0.00    -0.274 NA
HETATM   50  H43 UNL     1      -7.219  48.488 -34.855  1.00  0.00     0.158 HD
HETATM   51  H44 UNL     1      -8.615  48.694 -33.879  1.00  0.00     0.158 HD
HETATM   52  H45 UNL     1      -5.958  45.913 -33.046  1.00  0.00     0.127 HD
HETATM   53  H46 UNL     1      -5.579  47.160 -34.084  1.00  0.00     0.127 HD
ATOM     54  H1  UNL     1      -8.867  47.712 -32.003  1.00  0.00     0.165 HD
ENDBRANCH  31  46
BRANCH   1  55
HETATM   55  C2  UNL     1     -11.279  40.217 -30.105  1.00  0.00     0.005 C 
HETATM   56  C1  UNL     1     -11.372  39.255 -31.284  1.00  0.00     0.006 C 
ENDBRANCH   1  55
BRANCH   3  57
HETATM   57  S1  UNL     1     -11.902  41.758 -26.845  1.00  0.00     0.108 S 
HETATM   58  O1  UNL     1     -10.449  41.737 -27.027  1.00  0.00    -0.595 OA
HETATM   59  O2  UNL     1     -12.339  42.496 -25.658  1.00  0.00    -0.595 OA
HETATM   60  O3  UNL     1     -12.552  40.457 -26.980  1.00  0.00    -0.595 OA
ENDBRANCH   3  57
BRANCH  12  61
HETATM   61  C15 UNL     1     -12.251  47.459 -20.954  1.00  0.00     0.169 C 
BRANCH  61  62
HETATM   62  O4  UNL     1     -12.750  48.201 -19.847  1.00  0.00    -0.400 OA
HETATM   63  H23 UNL     1     -13.436  47.677 -19.409  1.00  0.00     0.209 HD
ENDBRANCH  61  62
ENDBRANCH  12  61
BRANCH  18  64
HETATM   64  O5  UNL     1     -20.978  46.311 -24.840  1.00  0.00    -0.361 OA
HETATM   65  H27 UNL     1     -21.400  46.023 -25.661  1.00  0.00     0.217 HD
ENDBRANCH  18  64
TORSDOF 10
ENDMDL
MODEL 8
REMARK minimizedAffinity -8.40847206
REMARK CNNscore 0.151546746
REMARK CNNaffinity 6.72837591
REMARK  10 active torsions:
REMARK  status: ('A' for Active; 'I' for Inactive)
REMARK    1  A    between atoms: C2_2  and  C3_3 
REMARK    2  A    between atoms: C5_5  and  S1_6 
REMARK    3  A    between atoms: C14_18  and  C15_19 
REMARK    4  A    between atoms: C15_19  and  O4_20 
REMARK    5  A    between atoms: C21_26  and  O5_27 
REMARK    6  A    between atoms: C33_40  and  C34_41 
REMARK    7  A    between atoms: C33_40  and  N1_45 
REMARK    8  A    between atoms: C34_41  and  C35_42 
REMARK    9  A    between atoms: C35_42  and  C36_43 
REMARK   10  A    between atoms: C36_43  and  O7_44 
REMARK       I    between atoms: N1_45  and  C37_47 
REMARK       I    between atoms: C37_47  and  N3_49 
ROOT
HETATM    1  C3  UNL     1     -11.867  42.361 -22.917  1.00  0.00     0.019 C 
HETATM    2  C4  UNL     1     -11.286  43.440 -23.882  1.00  0.00     0.034 C 
HETATM    3  C5  UNL     1      -9.792  43.806 -24.002  1.00  0.00     0.157 C 
HETATM    4  C6  UNL     1      -9.654  45.332 -24.387  1.00  0.00     0.121 A 
HETATM    5  C7  UNL     1      -8.253  45.855 -24.095  1.00  0.00     0.005 C 
HETATM    6  C8  UNL     1      -7.897  47.069 -24.558  1.00  0.00    -0.048 C 
HETATM    7  C9  UNL     1      -8.978  47.946 -25.117  1.00  0.00     0.044 C 
HETATM    8  C10 UNL     1      -9.614  47.194 -26.295  1.00  0.00     0.019 C 
HETATM    9  C11 UNL     1      -8.662  47.152 -27.535  1.00  0.00     0.039 C 
HETATM   10  C12 UNL     1      -7.188  46.764 -27.259  1.00  0.00     0.123 C 
HETATM   11  C13 UNL     1      -6.333  46.724 -28.546  1.00  0.00     0.039 C 
HETATM   12  C14 UNL     1      -5.913  48.112 -29.121  1.00  0.00     0.023 C 
HETATM   13  C16 UNL     1      -4.436  48.485 -28.809  1.00  0.00     0.101 C 
HETATM   14  C17 UNL     1      -4.211  48.761 -27.385  1.00  0.00    -0.101 C 
HETATM   15  C18 UNL     1      -4.230  48.900 -26.192  1.00  0.00    -0.066 C 
HETATM   16  C19 UNL     1      -4.521  48.970 -24.789  1.00  0.00     0.029 A 
HETATM   17  C20 UNL     1      -3.685  49.756 -23.985  1.00  0.00     0.057 A 
HETATM   18  C21 UNL     1      -3.926  49.848 -22.617  1.00  0.00     0.067 A 
HETATM   19  C22 UNL     1      -4.999  49.187 -22.033  1.00  0.00     0.037 A 
HETATM   20  C23 UNL     1      -5.845  48.411 -22.828  1.00  0.00     0.014 A 
HETATM   21  C24 UNL     1      -5.628  48.282 -24.221  1.00  0.00    -0.006 A 
HETATM   22  C25 UNL     1      -6.482  47.307 -25.029  1.00  0.00     0.185 C 
HETATM   23  O6  UNL     1      -6.613  47.741 -26.388  1.00  0.00    -0.371 OA
HETATM   24  C26 UNL     1     -10.111  45.752 -25.864  1.00  0.00     0.115 A 
HETATM   25  C27 UNL     1     -11.628  45.672 -26.081  1.00  0.00    -0.035 A 
HETATM   26  C28 UNL     1     -12.531  46.448 -25.345  1.00  0.00     0.010 A 
HETATM   27  C29 UNL     1     -13.917  46.250 -25.462  1.00  0.00     0.012 A 
HETATM   28  C30 UNL     1     -14.454  45.280 -26.331  1.00  0.00    -0.003 A 
HETATM   29  C31 UNL     1     -13.541  44.554 -27.119  1.00  0.00     0.012 A 
HETATM   30  C32 UNL     1     -12.158  44.746 -26.994  1.00  0.00     0.010 A 
HETATM   31  C33 UNL     1     -15.981  44.946 -26.338  1.00  0.00     0.171 C 
HETATM   32  O8  UNL     1     -16.254  43.536 -25.990  1.00  0.00    -0.316 OA
HETATM   33  C38 UNL     1     -15.479  43.007 -24.993  1.00  0.00     0.072 C 
HETATM   34  C39 UNL     1     -14.732  41.879 -25.333  1.00  0.00     0.037 C 
HETATM   35  C40 UNL     1     -13.647  41.520 -24.540  1.00  0.00     0.010 C 
HETATM   36  C41 UNL     1     -13.336  42.269 -23.393  1.00  0.00    -0.054 C 
HETATM   37  C42 UNL     1     -14.256  43.228 -22.934  1.00  0.00     0.010 C 
HETATM   38  C43 UNL     1     -15.332  43.601 -23.742  1.00  0.00     0.037 C 
HETATM   39 NA1  UNL     1     -10.738  45.751 -25.658  1.00  0.00    -0.404 Na
ATOM     40  HA1 UNL     1     -11.712  45.900 -25.921  1.00  0.00     0.154 HD
ENDROOT
BRANCH  31  41
HETATM   41  C34 UNL     1     -16.504  45.040 -27.816  1.00  0.00     0.069 C 
BRANCH  41  42
HETATM   42  C35 UNL     1     -16.788  43.732 -28.578  1.00  0.00     0.031 C 
BRANCH  42  43
HETATM   43  C36 UNL     1     -18.225  43.515 -29.032  1.00  0.00     0.164 C 
BRANCH  43  44
HETATM   44  O7  UNL     1     -18.375  43.913 -30.391  1.00  0.00    -0.401 OA
HETATM   45  H42 UNL     1     -19.270  43.653 -30.652  1.00  0.00     0.209 HD
ENDBRANCH  43  44
ENDBRANCH  42  43
ENDBRANCH  41  42
ENDBRANCH  31  41
BRANCH  31  46
HETATM   46  N1  UNL     1     -16.732  45.952 -25.549  1.00  0.00    -0.331 N 
HETATM   47  C37 UNL     1     -17.964  45.782 -25.239  1.00  0.00     0.146 C 
HETATM   48  N2  UNL     1     -18.594  46.724 -24.507  1.00  0.00    -0.376 N 
HETATM   49  N3  UNL     1     -18.788  44.737 -25.481  1.00  0.00    -0.274 NA
HETATM   50  H43 UNL     1     -19.585  46.832 -24.634  1.00  0.00     0.158 HD
HETATM   51  H44 UNL     1     -18.057  47.580 -24.411  1.00  0.00     0.158 HD
HETATM   52  H45 UNL     1     -18.336  43.995 -26.008  1.00  0.00     0.127 HD
HETATM   53  H46 UNL     1     -19.676  44.980 -25.902  1.00  0.00     0.127 HD
ATOM     54  H1  UNL     1     -16.256  46.802 -25.246  1.00  0.00     0.165 HD
ENDBRANCH  31  46
BRANCH   1  55
HETATM   55  C2  UNL     1     -11.170  40.994 -22.862  1.00  0.00     0.005 C 
HETATM   56  C1  UNL     1     -10.311  40.836 -21.612  1.00  0.00     0.006 C 
ENDBRANCH   1  55
BRANCH   3  57
HETATM   57  S1  UNL     1      -8.890  42.705 -25.156  1.00  0.00     0.108 S 
HETATM   58  O1  UNL     1      -8.010  43.593 -25.919  1.00  0.00    -0.595 OA
HETATM   59  O2  UNL     1      -8.174  41.746 -24.311  1.00  0.00    -0.595 OA
HETATM   60  O3  UNL     1      -9.960  42.089 -25.937  1.00  0.00    -0.595 OA
ENDBRANCH   3  57
BRANCH  12  61
HETATM   61  C15 UNL     1      -6.119  48.137 -30.646  1.00  0.00     0.169 C 
BRANCH  61  62
HETATM   62  O4  UNL     1      -4.923  48.454 -31.348  1.00  0.00    -0.400 OA
HETATM   63  H23 UNL     1      -4.216  47.874 -31.031  1.00  0.00     0.209 HD
ENDBRANCH  61  62
ENDBRANCH  12  61
BRANCH  18  64
HETATM   64  O5  UNL     1      -3.074  50.605 -21.859  1.00  0.00    -0.361 OA
HETATM   65  H27 UNL     1      -3.313  50.503 -20.927  1.00  0.00     0.217 HD
ENDBRANCH  18  64
TORSDOF 10
ENDMDL
MODEL 9
REMARK minimizedAffinity -7.20794058
REMARK CNNscore 0.148921579
REMARK CNNaffinity 6.18253708
REMARK  10 active torsions:
REMARK  status: ('A' for Active; 'I' for Inactive)
REMARK    1  A    between atoms: C2_2  and  C3_3 
REMARK    2  A    between atoms: C5_5  and  S1_6 
REMARK    3  A    between atoms: C14_18  and  C15_19 
REMARK    4  A    between atoms: C15_19  and  O4_20 
REMARK    5  A    between atoms: C21_26  and  O5_27 
REMARK    6  A    between atoms: C33_40  and  C34_41 
REMARK    7  A    between atoms: C33_40  and  N1_45 
REMARK    8  A    between atoms: C34_41  and  C35_42 
REMARK    9  A    between atoms: C35_42  and  C36_43 
REMARK   10  A    between atoms: C36_43  and  O7_44 
REMARK       I    between atoms: N1_45  and  C37_47 
REMARK       I    between atoms: C37_47  and  N3_49 
ROOT
HETATM    1  C3  UNL     1     -10.101  45.952 -28.210  1.00  0.00     0.019 C 
HETATM    2  C4  UNL     1     -11.269  45.459 -27.303  1.00  0.00     0.034 C 
HETATM    3  C5  UNL     1     -12.017  46.329 -26.272  1.00  0.00     0.157 C 
HETATM    4  C6  UNL     1     -12.494  45.425 -25.068  1.00  0.00     0.121 A 
HETATM    5  C7  UNL     1     -12.837  46.264 -23.843  1.00  0.00     0.005 C 
HETATM    6  C8  UNL     1     -13.462  45.681 -22.803  1.00  0.00    -0.048 C 
HETATM    7  C9  UNL     1     -13.561  44.183 -22.800  1.00  0.00     0.044 C 
HETATM    8  C10 UNL     1     -14.331  43.773 -24.063  1.00  0.00     0.019 C 
HETATM    9  C11 UNL     1     -15.851  44.122 -23.951  1.00  0.00     0.039 C 
HETATM   10  C12 UNL     1     -16.195  45.541 -23.434  1.00  0.00     0.123 C 
HETATM   11  C13 UNL     1     -17.718  45.801 -23.384  1.00  0.00     0.039 C 
HETATM   12  C14 UNL     1     -18.479  45.128 -22.200  1.00  0.00     0.023 C 
HETATM   13  C16 UNL     1     -18.829  46.118 -21.053  1.00  0.00     0.101 C 
HETATM   14  C17 UNL     1     -17.642  46.575 -20.319  1.00  0.00    -0.101 C 
HETATM   15  C18 UNL     1     -16.557  46.855 -19.886  1.00  0.00    -0.066 C 
HETATM   16  C19 UNL     1     -15.166  47.037 -19.589  1.00  0.00     0.029 A 
HETATM   17  C20 UNL     1     -14.820  47.460 -18.299  1.00  0.00     0.057 A 
HETATM   18  C21 UNL     1     -13.482  47.656 -17.970  1.00  0.00     0.067 A 
HETATM   19  C22 UNL     1     -12.474  47.418 -18.895  1.00  0.00     0.037 A 
HETATM   20  C23 UNL     1     -12.808  46.984 -20.180  1.00  0.00     0.014 A 
HETATM   21  C24 UNL     1     -14.158  46.784 -20.560  1.00  0.00    -0.006 A 
HETATM   22  C25 UNL     1     -14.490  46.456 -22.013  1.00  0.00     0.185 C 
HETATM   23  O6  UNL     1     -15.689  45.678 -22.104  1.00  0.00    -0.371 OA
HETATM   24  C26 UNL     1     -13.665  44.374 -25.370  1.00  0.00     0.115 A 
HETATM   25  C27 UNL     1     -13.227  43.213 -26.274  1.00  0.00    -0.035 A 
HETATM   26  C28 UNL     1     -12.218  42.316 -25.902  1.00  0.00     0.010 A 
HETATM   27  C29 UNL     1     -11.739  41.353 -26.807  1.00  0.00     0.012 A 
HETATM   28  C30 UNL     1     -12.259  41.241 -28.111  1.00  0.00    -0.003 A 
HETATM   29  C31 UNL     1     -13.321  42.100 -28.451  1.00  0.00     0.012 A 
HETATM   30  C32 UNL     1     -13.792  43.066 -27.551  1.00  0.00     0.010 A 
HETATM   31  C33 UNL     1     -11.614  40.286 -29.168  1.00  0.00     0.171 C 
HETATM   32  O8  UNL     1     -11.119  41.010 -30.358  1.00  0.00    -0.316 OA
HETATM   33  C38 UNL     1     -10.511  42.214 -30.113  1.00  0.00     0.072 C 
HETATM   34  C39 UNL     1     -11.078  43.322 -30.741  1.00  0.00     0.037 C 
HETATM   35  C40 UNL     1     -10.793  44.595 -30.256  1.00  0.00     0.010 C 
HETATM   36  C41 UNL     1      -9.916  44.754 -29.170  1.00  0.00    -0.054 C 
HETATM   37  C42 UNL     1      -9.161  43.650 -28.737  1.00  0.00     0.010 C 
HETATM   38  C43 UNL     1      -9.464  42.372 -29.209  1.00  0.00     0.037 C 
HETATM   39 NA1  UNL     1     -13.217  43.968 -25.636  1.00  0.00    -0.404 Na
ATOM     40  HA1 UNL     1     -13.057  43.068 -26.088  1.00  0.00     0.154 HD
ENDROOT
BRANCH  31  41
HETATM   41  C34 UNL     1     -12.742  39.375 -29.769  1.00  0.00     0.069 C 
BRANCH  41  42
HETATM   42  C35 UNL     1     -13.427  38.349 -28.846  1.00  0.00     0.031 C 
BRANCH  42  43
HETATM   43  C36 UNL     1     -13.344  36.893 -29.278  1.00  0.00     0.164 C 
BRANCH  43  44
HETATM   44  O7  UNL     1     -14.627  36.281 -29.190  1.00  0.00    -0.401 OA
HETATM   45  H42 UNL     1     -14.533  35.398 -29.577  1.00  0.00     0.209 HD
ENDBRANCH  43  44
ENDBRANCH  42  43
ENDBRANCH  41  42
ENDBRANCH  31  41
BRANCH  31  46
HETATM   46  N1  UNL     1     -10.632  39.386 -28.518  1.00  0.00    -0.331 N 
HETATM   47  C37 UNL     1      -9.866  38.619 -29.201  1.00  0.00     0.146 C 
HETATM   48  N2  UNL     1      -8.980  37.831 -28.557  1.00  0.00    -0.376 N 
HETATM   49  N3  UNL     1      -9.737  38.484 -30.541  1.00  0.00    -0.274 NA
HETATM   50  H43 UNL     1      -8.721  36.963 -28.993  1.00  0.00     0.158 HD
HETATM   51  H44 UNL     1      -9.127  37.802 -27.553  1.00  0.00     0.158 HD
HETATM   52  H45 UNL     1     -10.371  39.086 -31.058  1.00  0.00     0.127 HD
HETATM   53  H46 UNL     1      -9.792  37.533 -30.884  1.00  0.00     0.127 HD
ATOM     54  H1  UNL     1     -10.564  39.377 -27.500  1.00  0.00     0.165 HD
ENDBRANCH  31  46
BRANCH   1  55
HETATM   55  C2  UNL     1     -10.277  47.288 -28.948  1.00  0.00     0.005 C 
HETATM   56  C1  UNL     1     -11.138  47.145 -30.198  1.00  0.00     0.006 C 
ENDBRANCH   1  55
BRANCH   3  57
HETATM   57  S1  UNL     1     -13.389  47.283 -27.023  1.00  0.00     0.108 S 
HETATM   58  O1  UNL     1     -14.412  47.365 -25.978  1.00  0.00    -0.595 OA
HETATM   59  O2  UNL     1     -12.815  48.580 -27.392  1.00  0.00    -0.595 OA
HETATM   60  O3  UNL     1     -13.764  46.476 -28.182  1.00  0.00    -0.595 OA
ENDBRANCH   3  57
BRANCH  12  61
HETATM   61  C15 UNL     1     -19.780  44.480 -22.708  1.00  0.00     0.169 C 
BRANCH  61  62
HETATM   62  O4  UNL     1     -20.579  43.968 -21.648  1.00  0.00    -0.400 OA
HETATM   63  H23 UNL     1     -20.690  44.662 -20.982  1.00  0.00     0.209 HD
ENDBRANCH  61  62
ENDBRANCH  12  61
BRANCH  18  64
HETATM   64  O5  UNL     1     -13.184  48.093 -16.708  1.00  0.00    -0.361 OA
HETATM   65  H27 UNL     1     -12.233  48.267 -16.656  1.00  0.00     0.217 HD
ENDBRANCH  18  64
TORSDOF 10
ENDMDL
