MODEL 1
REMARK minimizedAffinity -8.70088768
REMARK CNNscore 0.544339895
REMARK CNNaffinity 7.1104207
REMARK  12 active torsions:
REMARK  status: ('A' for Active; 'I' for Inactive)
REMARK    1  A    between atoms: C2_2  and  C3_3 
REMARK    2  A    between atoms: C2_2  and  C10_14 
REMARK    3  A    between atoms: C3_3  and  O1_4 
REMARK    4  A    between atoms: C3_3  and  C4_5 
REMARK    5  A    between atoms: C4_5  and  C5_6 
REMARK    6  A    between atoms: C5_6  and  O2_7 
REMARK    7  A    between atoms: C5_6  and  C6_8 
REMARK    8  A    between atoms: C5_6  and  C7_10 
REMARK    9  A    between atoms: C6_8  and  O3_9 
REMARK   10  A    between atoms: C7_10  and  O4_13 
REMARK   11  A    between atoms: C19_23  and  C20_24 
REMARK   12  A    between atoms: C20_24  and  O5_25 
ROOT
HETATM    1  C10 UNL     1      -1.881  50.639 -23.398  1.00  0.00     0.001 C 
HETATM    2  C11 UNL     1      -1.500  52.153 -23.365  1.00  0.00     0.007 C 
HETATM    3  C12 UNL     1      -1.208  52.515 -21.899  1.00  0.00     0.011 C 
HETATM    4  C13 UNL     1      -0.979  51.162 -21.197  1.00  0.00    -0.032 C 
HETATM    5  C14 UNL     1       0.489  50.736 -21.552  1.00  0.00     0.016 C 
HETATM    6  C15 UNL     1      -1.195  51.191 -19.643  1.00  0.00     0.004 C 
HETATM    7  C16 UNL     1       0.051  51.671 -18.873  1.00  0.00     0.007 C 
HETATM    8  C17 UNL     1      -0.126  51.808 -17.359  1.00  0.00     0.007 C 
HETATM    9  C18 UNL     1      -1.285  50.988 -16.765  1.00  0.00     0.008 C 
HETATM   10  C19 UNL     1      -1.106  50.757 -15.249  1.00  0.00     0.083 C 
HETATM   11  C21 UNL     1      -0.054  49.688 -14.990  1.00  0.00     0.133 C 
HETATM   12  O6  UNL     1       0.550  49.622 -13.917  1.00  0.00    -0.297 OA
HETATM   13  C22 UNL     1       0.257  48.711 -16.096  1.00  0.00     0.079 C 
HETATM   14  C23 UNL     1      -0.988  48.432 -16.915  1.00  0.00     0.018 C 
HETATM   15  C24 UNL     1      -1.524  49.698 -17.553  1.00  0.00    -0.027 A 
HETATM   16  C25 UNL     1      -2.862  49.637 -18.237  1.00  0.00     0.021 A 
HETATM   17  C26 UNL     1      -1.619  49.802 -19.096  1.00  0.00    -0.027 A 
HETATM   18  C27 UNL     1      -1.350  48.619 -20.020  1.00  0.00     0.011 C 
HETATM   19  C28 UNL     1      -1.822  48.809 -21.482  1.00  0.00     0.011 C 
HETATM   20  C29 UNL     1      -2.082  50.277 -21.884  1.00  0.00    -0.032 C 
HETATM   21  C30 UNL     1      -3.530  50.647 -21.470  1.00  0.00     0.016 C 
ENDROOT
BRANCH   1  22
HETATM   22  C2  UNL     1      -2.932  50.276 -24.512  1.00  0.00     0.015 C 
HETATM   23  C1  UNL     1      -3.337  48.790 -24.556  1.00  0.00     0.013 C 
BRANCH  22  24
HETATM   24  C3  UNL     1      -2.543  50.795 -25.932  1.00  0.00     0.125 C 
BRANCH  24  25
HETATM   25  O1  UNL     1      -1.833  49.838 -26.699  1.00  0.00    -0.395 OA
HETATM   26  H6  UNL     1      -2.088  48.937 -26.444  1.00  0.00     0.210 HD
ENDBRANCH  24  25
BRANCH  24  27
HETATM   27  C4  UNL     1      -1.769  52.122 -26.014  1.00  0.00     0.075 C 
BRANCH  27  28
HETATM   28  C5  UNL     1      -0.731  52.424 -27.138  1.00  0.00     0.111 C 
BRANCH  28  29
HETATM   29  O2  UNL     1      -1.212  51.581 -28.255  1.00  0.00    -0.384 OA
HETATM   30  H9  UNL     1      -2.018  52.036 -28.575  1.00  0.00     0.210 HD
ENDBRANCH  28  29
BRANCH  28  31
HETATM   31  C6  UNL     1      -0.803  53.870 -27.677  1.00  0.00     0.205 C 
BRANCH  31  32
HETATM   32  O3  UNL     1      -1.998  54.023 -28.453  1.00  0.00    -0.398 OA
HETATM   33  H12 UNL     1      -1.946  54.902 -28.868  1.00  0.00     0.209 HD
ENDBRANCH  31  32
ENDBRANCH  28  31
BRANCH  28  34
HETATM   34  C7  UNL     1       0.761  51.962 -26.928  1.00  0.00     0.084 C 
HETATM   35  C8  UNL     1       1.568  51.869 -28.228  1.00  0.00     0.049 C 
HETATM   36  C9  UNL     1       0.969  50.708 -26.073  1.00  0.00     0.049 C 
BRANCH  34  37
HETATM   37  O4  UNL     1       1.410  53.014 -26.165  1.00  0.00    -0.387 OA
HETATM   38  H19 UNL     1       1.046  53.843 -26.549  1.00  0.00     0.210 HD
ENDBRANCH  34  37
ENDBRANCH  28  34
ENDBRANCH  27  28
ENDBRANCH  24  27
ENDBRANCH  22  24
ENDBRANCH   1  22
BRANCH  10  39
HETATM   39  C20 UNL     1      -2.412  50.341 -14.561  1.00  0.00     0.176 C 
BRANCH  39  40
HETATM   40  O5  UNL     1      -3.487  51.120 -15.079  1.00  0.00    -0.400 OA
HETATM   41  H37 UNL     1      -4.199  51.120 -14.417  1.00  0.00     0.209 HD
ENDBRANCH  39  40
ENDBRANCH  10  39
TORSDOF 12
ENDMDL
MODEL 2
REMARK minimizedAffinity -8.31717777
REMARK CNNscore 0.526310563
REMARK CNNaffinity 5.7304244
REMARK  12 active torsions:
REMARK  status: ('A' for Active; 'I' for Inactive)
REMARK    1  A    between atoms: C2_2  and  C3_3 
REMARK    2  A    between atoms: C2_2  and  C10_14 
REMARK    3  A    between atoms: C3_3  and  O1_4 
REMARK    4  A    between atoms: C3_3  and  C4_5 
REMARK    5  A    between atoms: C4_5  and  C5_6 
REMARK    6  A    between atoms: C5_6  and  O2_7 
REMARK    7  A    between atoms: C5_6  and  C6_8 
REMARK    8  A    between atoms: C5_6  and  C7_10 
REMARK    9  A    between atoms: C6_8  and  O3_9 
REMARK   10  A    between atoms: C7_10  and  O4_13 
REMARK   11  A    between atoms: C19_23  and  C20_24 
REMARK   12  A    between atoms: C20_24  and  O5_25 
ROOT
HETATM    1  C10 UNL     1       6.866  67.634 -37.178  1.00  0.00     0.001 C 
HETATM    2  C11 UNL     1       7.741  67.592 -38.471  1.00  0.00     0.007 C 
HETATM    3  C12 UNL     1       6.790  67.770 -39.668  1.00  0.00     0.011 C 
HETATM    4  C13 UNL     1       5.499  68.354 -39.062  1.00  0.00    -0.032 C 
HETATM    5  C14 UNL     1       5.777  69.883 -38.849  1.00  0.00     0.016 C 
HETATM    6  C15 UNL     1       4.213  68.133 -39.933  1.00  0.00     0.004 C 
HETATM    7  C16 UNL     1       4.043  69.201 -41.033  1.00  0.00     0.007 C 
HETATM    8  C17 UNL     1       2.857  68.987 -41.976  1.00  0.00     0.007 C 
HETATM    9  C18 UNL     1       1.738  68.092 -41.417  1.00  0.00     0.008 C 
HETATM   10  C19 UNL     1       0.399  68.321 -42.151  1.00  0.00     0.083 C 
HETATM   11  C21 UNL     1      -0.247  69.622 -41.696  1.00  0.00     0.133 C 
HETATM   12  O6  UNL     1      -1.066  70.217 -42.398  1.00  0.00    -0.297 OA
HETATM   13  C22 UNL     1       0.159  70.189 -40.358  1.00  0.00     0.079 C 
HETATM   14  C23 UNL     1       0.482  69.068 -39.389  1.00  0.00     0.018 C 
HETATM   15  C24 UNL     1       1.625  68.212 -39.895  1.00  0.00    -0.027 A 
HETATM   16  C25 UNL     1       1.944  66.943 -39.155  1.00  0.00     0.021 A 
HETATM   17  C26 UNL     1       2.928  68.098 -39.065  1.00  0.00    -0.027 A 
HETATM   18  C27 UNL     1       3.064  68.680 -37.662  1.00  0.00     0.011 C 
HETATM   19  C28 UNL     1       4.291  68.180 -36.861  1.00  0.00     0.011 C 
HETATM   20  C29 UNL     1       5.398  67.534 -37.724  1.00  0.00    -0.032 C 
HETATM   21  C30 UNL     1       5.043  66.039 -37.932  1.00  0.00     0.016 C 
ENDROOT
BRANCH   1  22
HETATM   22  C2  UNL     1       7.411  66.725 -36.016  1.00  0.00     0.015 C 
HETATM   23  C1  UNL     1       8.252  65.521 -36.480  1.00  0.00     0.013 C 
BRANCH  22  24
HETATM   24  C3  UNL     1       6.313  66.285 -34.998  1.00  0.00     0.125 C 
BRANCH  24  25
HETATM   25  O1  UNL     1       5.953  67.312 -34.090  1.00  0.00    -0.395 OA
HETATM   26  H6  UNL     1       6.072  68.185 -34.496  1.00  0.00     0.210 HD
ENDBRANCH  24  25
BRANCH  24  27
HETATM   27  C4  UNL     1       6.576  65.012 -34.176  1.00  0.00     0.075 C 
BRANCH  27  28
HETATM   28  C5  UNL     1       5.679  63.740 -34.282  1.00  0.00     0.111 C 
BRANCH  28  29
HETATM   29  O2  UNL     1       5.216  63.789 -35.687  1.00  0.00    -0.384 OA
HETATM   30  H9  UNL     1       6.005  63.544 -36.213  1.00  0.00     0.210 HD
ENDBRANCH  28  29
BRANCH  28  31
HETATM   31  C6  UNL     1       6.466  62.415 -34.173  1.00  0.00     0.205 C 
BRANCH  31  32
HETATM   32  O3  UNL     1       6.316  61.678 -35.392  1.00  0.00    -0.398 OA
HETATM   33  H12 UNL     1       6.723  60.807 -35.239  1.00  0.00     0.209 HD
ENDBRANCH  31  32
ENDBRANCH  28  31
BRANCH  28  34
HETATM   34  C7  UNL     1       4.345  63.688 -33.445  1.00  0.00     0.084 C 
HETATM   35  C8  UNL     1       4.324  64.653 -32.253  1.00  0.00     0.049 C 
HETATM   36  C9  UNL     1       3.863  62.296 -33.021  1.00  0.00     0.049 C 
BRANCH  34  37
HETATM   37  O4  UNL     1       3.292  64.166 -34.325  1.00  0.00    -0.387 OA
HETATM   38  H19 UNL     1       3.713  64.911 -34.811  1.00  0.00     0.210 HD
ENDBRANCH  34  37
ENDBRANCH  28  34
ENDBRANCH  27  28
ENDBRANCH  24  27
ENDBRANCH  22  24
ENDBRANCH   1  22
BRANCH  10  39
HETATM   39  C20 UNL     1      -0.595  67.174 -41.931  1.00  0.00     0.176 C 
BRANCH  39  40
HETATM   40  O5  UNL     1      -1.881  67.568 -42.399  1.00  0.00    -0.400 OA
HETATM   41  H37 UNL     1      -2.544  67.022 -41.943  1.00  0.00     0.209 HD
ENDBRANCH  39  40
ENDBRANCH  10  39
TORSDOF 12
ENDMDL
MODEL 3
REMARK minimizedAffinity -8.88322353
REMARK CNNscore 0.455064356
REMARK CNNaffinity 6.84673071
REMARK  12 active torsions:
REMARK  status: ('A' for Active; 'I' for Inactive)
REMARK    1  A    between atoms: C2_2  and  C3_3 
REMARK    2  A    between atoms: C2_2  and  C10_14 
REMARK    3  A    between atoms: C3_3  and  O1_4 
REMARK    4  A    between atoms: C3_3  and  C4_5 
REMARK    5  A    between atoms: C4_5  and  C5_6 
REMARK    6  A    between atoms: C5_6  and  O2_7 
REMARK    7  A    between atoms: C5_6  and  C6_8 
REMARK    8  A    between atoms: C5_6  and  C7_10 
REMARK    9  A    between atoms: C6_8  and  O3_9 
REMARK   10  A    between atoms: C7_10  and  O4_13 
REMARK   11  A    between atoms: C19_23  and  C20_24 
REMARK   12  A    between atoms: C20_24  and  O5_25 
ROOT
HETATM    1  C10 UNL     1      -3.636  50.288 -24.785  1.00  0.00     0.001 C 
HETATM    2  C11 UNL     1      -4.684  51.394 -24.442  1.00  0.00     0.007 C 
HETATM    3  C12 UNL     1      -5.255  51.063 -23.052  1.00  0.00     0.011 C 
HETATM    4  C13 UNL     1      -4.242  50.079 -22.435  1.00  0.00    -0.032 C 
HETATM    5  C14 UNL     1      -3.051  50.957 -21.914  1.00  0.00     0.016 C 
HETATM    6  C15 UNL     1      -4.823  49.183 -21.286  1.00  0.00     0.004 C 
HETATM    7  C16 UNL     1      -4.806  49.883 -19.912  1.00  0.00     0.007 C 
HETATM    8  C17 UNL     1      -5.445  49.095 -18.766  1.00  0.00     0.007 C 
HETATM    9  C18 UNL     1      -5.536  47.576 -18.996  1.00  0.00     0.008 C 
HETATM   10  C19 UNL     1      -5.697  46.804 -17.669  1.00  0.00     0.083 C 
HETATM   11  C21 UNL     1      -4.371  46.736 -16.925  1.00  0.00     0.133 C 
HETATM   12  O6  UNL     1      -4.321  46.554 -15.706  1.00  0.00    -0.297 OA
HETATM   13  C22 UNL     1      -3.099  46.920 -17.715  1.00  0.00     0.079 C 
HETATM   14  C23 UNL     1      -3.266  46.363 -19.115  1.00  0.00     0.018 C 
HETATM   15  C24 UNL     1      -4.381  47.066 -19.861  1.00  0.00    -0.027 A 
HETATM   16  C25 UNL     1      -4.810  46.507 -21.188  1.00  0.00     0.021 A 
HETATM   17  C26 UNL     1      -4.067  47.832 -21.170  1.00  0.00    -0.027 A 
HETATM   18  C27 UNL     1      -2.703  47.781 -21.849  1.00  0.00     0.011 C 
HETATM   19  C28 UNL     1      -2.673  48.313 -23.302  1.00  0.00     0.011 C 
HETATM   20  C29 UNL     1      -3.882  49.195 -23.685  1.00  0.00    -0.032 C 
HETATM   21  C30 UNL     1      -5.034  48.268 -24.149  1.00  0.00     0.016 C 
ENDROOT
BRANCH   1  22
HETATM   22  C2  UNL     1      -3.550  49.952 -26.320  1.00  0.00     0.015 C 
HETATM   23  C1  UNL     1      -2.640  48.759 -26.669  1.00  0.00     0.013 C 
BRANCH  22  24
HETATM   24  C3  UNL     1      -3.223  51.190 -27.213  1.00  0.00     0.125 C 
BRANCH  24  25
HETATM   25  O1  UNL     1      -2.619  50.842 -28.447  1.00  0.00    -0.395 OA
HETATM   26  H6  UNL     1      -2.909  49.962 -28.734  1.00  0.00     0.210 HD
ENDBRANCH  24  25
BRANCH  24  27
HETATM   27  C4  UNL     1      -2.381  52.314 -26.586  1.00  0.00     0.075 C 
BRANCH  27  28
HETATM   28  C5  UNL     1      -0.862  52.498 -26.886  1.00  0.00     0.111 C 
BRANCH  28  29
HETATM   29  O2  UNL     1      -0.486  51.185 -27.456  1.00  0.00    -0.384 OA
HETATM   30  H9  UNL     1      -0.886  51.183 -28.350  1.00  0.00     0.210 HD
ENDBRANCH  28  29
BRANCH  28  31
HETATM   31  C6  UNL     1      -0.571  53.515 -28.012  1.00  0.00     0.205 C 
BRANCH  31  32
HETATM   32  O3  UNL     1      -1.786  54.187 -28.365  1.00  0.00    -0.398 OA
HETATM   33  H12 UNL     1      -1.584  54.725 -29.149  1.00  0.00     0.209 HD
ENDBRANCH  31  32
ENDBRANCH  28  31
BRANCH  28  34
HETATM   34  C7  UNL     1       0.127  52.683 -25.674  1.00  0.00     0.084 C 
HETATM   35  C8  UNL     1       1.429  51.885 -25.810  1.00  0.00     0.049 C 
HETATM   36  C9  UNL     1      -0.471  52.503 -24.274  1.00  0.00     0.049 C 
BRANCH  34  37
HETATM   37  O4  UNL     1       0.545  54.075 -25.696  1.00  0.00    -0.387 OA
HETATM   38  H19 UNL     1       0.663  54.269 -26.653  1.00  0.00     0.210 HD
ENDBRANCH  34  37
ENDBRANCH  28  34
ENDBRANCH  27  28
ENDBRANCH  24  27
ENDBRANCH  22  24
ENDBRANCH   1  22
BRANCH  10  39
HETATM   39  C20 UNL     1      -6.217  45.377 -17.880  1.00  0.00     0.176 C 
BRANCH  39  40
HETATM   40  O5  UNL     1      -7.328  45.407 -18.772  1.00  0.00    -0.400 OA
HETATM   41  H37 UNL     1      -7.856  44.607 -18.616  1.00  0.00     0.209 HD
ENDBRANCH  39  40
ENDBRANCH  10  39
TORSDOF 12
ENDMDL
MODEL 4
REMARK minimizedAffinity -9.0762701
REMARK CNNscore 0.440588474
REMARK CNNaffinity 6.53453875
REMARK  12 active torsions:
REMARK  status: ('A' for Active; 'I' for Inactive)
REMARK    1  A    between atoms: C2_2  and  C3_3 
REMARK    2  A    between atoms: C2_2  and  C10_14 
REMARK    3  A    between atoms: C3_3  and  O1_4 
REMARK    4  A    between atoms: C3_3  and  C4_5 
REMARK    5  A    between atoms: C4_5  and  C5_6 
REMARK    6  A    between atoms: C5_6  and  O2_7 
REMARK    7  A    between atoms: C5_6  and  C6_8 
REMARK    8  A    between atoms: C5_6  and  C7_10 
REMARK    9  A    between atoms: C6_8  and  O3_9 
REMARK   10  A    between atoms: C7_10  and  O4_13 
REMARK   11  A    between atoms: C19_23  and  C20_24 
REMARK   12  A    between atoms: C20_24  and  O5_25 
ROOT
HETATM    1  C10 UNL     1      -3.156  49.721 -24.605  1.00  0.00     0.001 C 
HETATM    2  C11 UNL     1      -2.149  50.492 -23.695  1.00  0.00     0.007 C 
HETATM    3  C12 UNL     1      -2.656  50.366 -22.248  1.00  0.00     0.011 C 
HETATM    4  C13 UNL     1      -3.647  49.186 -22.279  1.00  0.00    -0.032 C 
HETATM    5  C14 UNL     1      -2.769  47.886 -22.256  1.00  0.00     0.016 C 
HETATM    6  C15 UNL     1      -4.689  49.181 -21.107  1.00  0.00     0.004 C 
HETATM    7  C16 UNL     1      -4.140  48.536 -19.819  1.00  0.00     0.007 C 
HETATM    8  C17 UNL     1      -5.078  48.583 -18.611  1.00  0.00     0.007 C 
HETATM    9  C18 UNL     1      -6.566  48.774 -18.953  1.00  0.00     0.008 C 
HETATM   10  C19 UNL     1      -7.484  48.312 -17.800  1.00  0.00     0.083 C 
HETATM   11  C21 UNL     1      -7.562  46.793 -17.753  1.00  0.00     0.133 C 
HETATM   12  O6  UNL     1      -7.870  46.193 -16.720  1.00  0.00    -0.297 OA
HETATM   13  C22 UNL     1      -7.228  46.023 -19.005  1.00  0.00     0.079 C 
HETATM   14  C23 UNL     1      -7.641  46.812 -20.232  1.00  0.00     0.018 C 
HETATM   15  C24 UNL     1      -6.920  48.143 -20.302  1.00  0.00    -0.027 A 
HETATM   16  C25 UNL     1      -7.356  49.133 -21.345  1.00  0.00     0.021 A 
HETATM   17  C26 UNL     1      -6.003  48.460 -21.509  1.00  0.00    -0.027 A 
HETATM   18  C27 UNL     1      -5.911  47.556 -22.733  1.00  0.00     0.011 C 
HETATM   19  C28 UNL     1      -5.226  48.191 -23.968  1.00  0.00     0.011 C 
HETATM   20  C29 UNL     1      -4.371  49.439 -23.652  1.00  0.00    -0.032 C 
HETATM   21  C30 UNL     1      -5.302  50.679 -23.649  1.00  0.00     0.016 C 
ENDROOT
BRANCH   1  22
HETATM   22  C2  UNL     1      -3.320  50.346 -26.040  1.00  0.00     0.015 C 
HETATM   23  C1  UNL     1      -3.202  49.339 -27.199  1.00  0.00     0.013 C 
BRANCH  22  24
HETATM   24  C3  UNL     1      -2.417  51.595 -26.284  1.00  0.00     0.125 C 
BRANCH  24  25
HETATM   25  O1  UNL     1      -3.114  52.821 -26.150  1.00  0.00    -0.395 OA
HETATM   26  H6  UNL     1      -3.846  52.731 -25.519  1.00  0.00     0.210 HD
ENDBRANCH  24  25
BRANCH  24  27
HETATM   27  C4  UNL     1      -1.628  51.652 -27.604  1.00  0.00     0.075 C 
BRANCH  27  28
HETATM   28  C5  UNL     1      -0.290  52.439 -27.753  1.00  0.00     0.111 C 
BRANCH  28  29
HETATM   29  O2  UNL     1       0.165  52.045 -29.105  1.00  0.00    -0.384 OA
HETATM   30  H9  UNL     1      -0.437  52.521 -29.714  1.00  0.00     0.210 HD
ENDBRANCH  28  29
BRANCH  28  31
HETATM   31  C6  UNL     1      -0.477  53.971 -27.832  1.00  0.00     0.205 C 
BRANCH  31  32
HETATM   32  O3  UNL     1      -1.773  54.259 -28.371  1.00  0.00    -0.398 OA
HETATM   33  H12 UNL     1      -1.803  55.221 -28.514  1.00  0.00     0.209 HD
ENDBRANCH  31  32
ENDBRANCH  28  31
BRANCH  28  34
HETATM   34  C7  UNL     1       0.918  52.054 -26.818  1.00  0.00     0.084 C 
HETATM   35  C8  UNL     1       2.245  51.871 -27.565  1.00  0.00     0.049 C 
HETATM   36  C9  UNL     1       0.682  50.893 -25.846  1.00  0.00     0.049 C 
BRANCH  34  37
HETATM   37  O4  UNL     1       1.141  53.196 -25.947  1.00  0.00    -0.387 OA
HETATM   38  H19 UNL     1       1.012  53.971 -26.539  1.00  0.00     0.210 HD
ENDBRANCH  34  37
ENDBRANCH  28  34
ENDBRANCH  27  28
ENDBRANCH  24  27
ENDBRANCH  22  24
ENDBRANCH   1  22
BRANCH  10  39
HETATM   39  C20 UNL     1      -8.905  48.876 -17.919  1.00  0.00     0.176 C 
BRANCH  39  40
HETATM   40  O5  UNL     1      -9.660  48.497 -16.772  1.00  0.00    -0.400 OA
HETATM   41  H37 UNL     1     -10.601  48.530 -17.012  1.00  0.00     0.209 HD
ENDBRANCH  39  40
ENDBRANCH  10  39
TORSDOF 12
ENDMDL
MODEL 5
REMARK minimizedAffinity -7.89200211
REMARK CNNscore 0.440543115
REMARK CNNaffinity 6.33159971
REMARK  12 active torsions:
REMARK  status: ('A' for Active; 'I' for Inactive)
REMARK    1  A    between atoms: C2_2  and  C3_3 
REMARK    2  A    between atoms: C2_2  and  C10_14 
REMARK    3  A    between atoms: C3_3  and  O1_4 
REMARK    4  A    between atoms: C3_3  and  C4_5 
REMARK    5  A    between atoms: C4_5  and  C5_6 
REMARK    6  A    between atoms: C5_6  and  O2_7 
REMARK    7  A    between atoms: C5_6  and  C6_8 
REMARK    8  A    between atoms: C5_6  and  C7_10 
REMARK    9  A    between atoms: C6_8  and  O3_9 
REMARK   10  A    between atoms: C7_10  and  O4_13 
REMARK   11  A    between atoms: C19_23  and  C20_24 
REMARK   12  A    between atoms: C20_24  and  O5_25 
ROOT
HETATM    1  C10 UNL     1      -4.433  49.286 -23.851  1.00  0.00     0.001 C 
HETATM    2  C11 UNL     1      -5.544  50.329 -23.510  1.00  0.00     0.007 C 
HETATM    3  C12 UNL     1      -5.353  50.730 -22.036  1.00  0.00     0.011 C 
HETATM    4  C13 UNL     1      -3.918  50.288 -21.691  1.00  0.00    -0.032 C 
HETATM    5  C14 UNL     1      -2.974  51.394 -22.281  1.00  0.00     0.016 C 
HETATM    6  C15 UNL     1      -3.651  50.082 -20.159  1.00  0.00     0.004 C 
HETATM    7  C16 UNL     1      -3.300  51.394 -19.429  1.00  0.00     0.007 C 
HETATM    8  C17 UNL     1      -3.120  51.274 -17.914  1.00  0.00     0.007 C 
HETATM    9  C18 UNL     1      -2.799  49.856 -17.410  1.00  0.00     0.008 C 
HETATM   10  C19 UNL     1      -2.141  49.879 -16.014  1.00  0.00     0.083 C 
HETATM   11  C21 UNL     1      -0.683  50.306 -16.115  1.00  0.00     0.133 C 
HETATM   12  O6  UNL     1      -0.082  50.790 -15.153  1.00  0.00    -0.297 OA
HETATM   13  C22 UNL     1       0.017  50.144 -17.442  1.00  0.00     0.079 C 
HETATM   14  C23 UNL     1      -0.518  48.929 -18.173  1.00  0.00     0.018 C 
HETATM   15  C24 UNL     1      -2.003  49.056 -18.445  1.00  0.00    -0.027 A 
HETATM   16  C25 UNL     1      -2.732  47.858 -18.985  1.00  0.00     0.021 A 
HETATM   17  C26 UNL     1      -2.521  49.049 -19.905  1.00  0.00    -0.027 A 
HETATM   18  C27 UNL     1      -1.620  48.752 -21.098  1.00  0.00     0.011 C 
HETATM   19  C28 UNL     1      -2.363  48.450 -22.422  1.00  0.00     0.011 C 
HETATM   20  C29 UNL     1      -3.837  48.912 -22.448  1.00  0.00    -0.032 C 
HETATM   21  C30 UNL     1      -4.708  47.797 -21.815  1.00  0.00     0.016 C 
ENDROOT
BRANCH   1  22
HETATM   22  C2  UNL     1      -4.881  48.207 -24.906  1.00  0.00     0.015 C 
HETATM   23  C1  UNL     1      -4.192  48.325 -26.279  1.00  0.00     0.013 C 
BRANCH  22  24
HETATM   24  C3  UNL     1      -6.429  48.089 -25.061  1.00  0.00     0.125 C 
BRANCH  24  25
HETATM   25  O1  UNL     1      -6.995  47.080 -24.243  1.00  0.00    -0.395 OA
HETATM   26  H6  UNL     1      -6.467  46.955 -23.439  1.00  0.00     0.210 HD
ENDBRANCH  24  25
BRANCH  24  27
HETATM   27  C4  UNL     1      -6.987  47.902 -26.482  1.00  0.00     0.075 C 
BRANCH  27  28
HETATM   28  C5  UNL     1      -8.514  47.799 -26.781  1.00  0.00     0.111 C 
BRANCH  28  29
HETATM   29  O2  UNL     1      -8.826  46.407 -26.386  1.00  0.00    -0.384 OA
HETATM   30  H9  UNL     1      -8.796  46.418 -25.408  1.00  0.00     0.210 HD
ENDBRANCH  28  29
BRANCH  28  31
HETATM   31  C6  UNL     1      -9.388  48.675 -25.856  1.00  0.00     0.205 C 
BRANCH  31  32
HETATM   32  O3  UNL     1      -9.228  50.051 -26.223  1.00  0.00    -0.398 OA
HETATM   33  H12 UNL     1      -9.696  50.572 -25.547  1.00  0.00     0.209 HD
ENDBRANCH  31  32
ENDBRANCH  28  31
BRANCH  28  34
HETATM   34  C7  UNL     1      -8.995  47.886 -28.279  1.00  0.00     0.084 C 
HETATM   35  C8  UNL     1     -10.515  47.769 -28.449  1.00  0.00     0.049 C 
HETATM   36  C9  UNL     1      -8.269  46.980 -29.279  1.00  0.00     0.049 C 
BRANCH  34  37
HETATM   37  O4  UNL     1      -8.676  49.229 -28.733  1.00  0.00    -0.387 OA
HETATM   38  H19 UNL     1      -8.891  49.796 -27.959  1.00  0.00     0.210 HD
ENDBRANCH  34  37
ENDBRANCH  28  34
ENDBRANCH  27  28
ENDBRANCH  24  27
ENDBRANCH  22  24
ENDBRANCH   1  22
BRANCH  10  39
HETATM   39  C20 UNL     1      -2.208  48.517 -15.311  1.00  0.00     0.176 C 
BRANCH  39  40
HETATM   40  O5  UNL     1      -3.215  48.556 -14.304  1.00  0.00    -0.400 OA
HETATM   41  H37 UNL     1      -3.010  47.865 -13.652  1.00  0.00     0.209 HD
ENDBRANCH  39  40
ENDBRANCH  10  39
TORSDOF 12
ENDMDL
MODEL 6
REMARK minimizedAffinity -8.80833626
REMARK CNNscore 0.423766643
REMARK CNNaffinity 7.00883532
REMARK  12 active torsions:
REMARK  status: ('A' for Active; 'I' for Inactive)
REMARK    1  A    between atoms: C2_2  and  C3_3 
REMARK    2  A    between atoms: C2_2  and  C10_14 
REMARK    3  A    between atoms: C3_3  and  O1_4 
REMARK    4  A    between atoms: C3_3  and  C4_5 
REMARK    5  A    between atoms: C4_5  and  C5_6 
REMARK    6  A    between atoms: C5_6  and  O2_7 
REMARK    7  A    between atoms: C5_6  and  C6_8 
REMARK    8  A    between atoms: C5_6  and  C7_10 
REMARK    9  A    between atoms: C6_8  and  O3_9 
REMARK   10  A    between atoms: C7_10  and  O4_13 
REMARK   11  A    between atoms: C19_23  and  C20_24 
REMARK   12  A    between atoms: C20_24  and  O5_25 
ROOT
HETATM    1  C10 UNL     1      -3.095  51.014 -25.005  1.00  0.00     0.001 C 
HETATM    2  C11 UNL     1      -3.991  52.233 -24.618  1.00  0.00     0.007 C 
HETATM    3  C12 UNL     1      -4.196  52.180 -23.094  1.00  0.00     0.011 C 
HETATM    4  C13 UNL     1      -3.084  51.245 -22.580  1.00  0.00    -0.032 C 
HETATM    5  C14 UNL     1      -1.777  52.112 -22.537  1.00  0.00     0.016 C 
HETATM    6  C15 UNL     1      -3.374  50.597 -21.181  1.00  0.00     0.004 C 
HETATM    7  C16 UNL     1      -2.988  51.514 -20.004  1.00  0.00     0.007 C 
HETATM    8  C17 UNL     1      -3.332  50.976 -18.613  1.00  0.00     0.007 C 
HETATM    9  C18 UNL     1      -3.517  49.451 -18.536  1.00  0.00     0.008 C 
HETATM   10  C19 UNL     1      -3.352  48.925 -17.094  1.00  0.00     0.083 C 
HETATM   11  C21 UNL     1      -1.882  48.889 -16.701  1.00  0.00     0.133 C 
HETATM   12  O6  UNL     1      -1.527  48.911 -15.521  1.00  0.00    -0.297 OA
HETATM   13  C22 UNL     1      -0.851  48.850 -17.802  1.00  0.00     0.079 C 
HETATM   14  C23 UNL     1      -1.384  48.078 -18.993  1.00  0.00     0.018 C 
HETATM   15  C24 UNL     1      -2.635  48.723 -19.554  1.00  0.00    -0.027 A 
HETATM   16  C25 UNL     1      -3.404  47.981 -20.611  1.00  0.00     0.021 A 
HETATM   17  C26 UNL     1      -2.648  49.235 -21.016  1.00  0.00    -0.027 A 
HETATM   18  C27 UNL     1      -1.504  48.976 -21.990  1.00  0.00     0.011 C 
HETATM   19  C28 UNL     1      -1.834  49.253 -23.477  1.00  0.00     0.011 C 
HETATM   20  C29 UNL     1      -3.078  50.141 -23.701  1.00  0.00    -0.032 C 
HETATM   21  C30 UNL     1      -4.334  49.233 -23.691  1.00  0.00     0.016 C 
ENDROOT
BRANCH   1  22
HETATM   22  C2  UNL     1      -3.413  50.421 -26.428  1.00  0.00     0.015 C 
HETATM   23  C1  UNL     1      -3.092  48.924 -26.588  1.00  0.00     0.013 C 
BRANCH  22  24
HETATM   24  C3  UNL     1      -2.811  51.255 -27.601  1.00  0.00     0.125 C 
BRANCH  24  25
HETATM   25  O1  UNL     1      -3.431  50.990 -28.848  1.00  0.00    -0.395 OA
HETATM   26  H6  UNL     1      -4.356  50.725 -28.721  1.00  0.00     0.210 HD
ENDBRANCH  24  25
BRANCH  24  27
HETATM   27  C4  UNL     1      -1.289  51.181 -27.816  1.00  0.00     0.075 C 
BRANCH  27  28
HETATM   28  C5  UNL     1      -0.337  52.381 -27.527  1.00  0.00     0.111 C 
BRANCH  28  29
HETATM   29  O2  UNL     1       0.415  52.507 -28.796  1.00  0.00    -0.384 OA
HETATM   30  H9  UNL     1      -0.230  52.887 -29.427  1.00  0.00     0.210 HD
ENDBRANCH  28  29
BRANCH  28  31
HETATM   31  C6  UNL     1      -1.072  53.732 -27.371  1.00  0.00     0.205 C 
BRANCH  31  32
HETATM   32  O3  UNL     1      -2.103  53.823 -28.361  1.00  0.00    -0.398 OA
HETATM   33  H12 UNL     1      -2.458  54.727 -28.305  1.00  0.00     0.209 HD
ENDBRANCH  31  32
ENDBRANCH  28  31
BRANCH  28  34
HETATM   34  C7  UNL     1       0.785  52.206 -26.436  1.00  0.00     0.084 C 
HETATM   35  C8  UNL     1       2.113  51.678 -26.992  1.00  0.00     0.049 C 
HETATM   36  C9  UNL     1       0.388  51.441 -25.169  1.00  0.00     0.049 C 
BRANCH  34  37
HETATM   37  O4  UNL     1       1.095  53.541 -25.951  1.00  0.00    -0.387 OA
HETATM   38  H19 UNL     1       1.074  54.097 -26.763  1.00  0.00     0.210 HD
ENDBRANCH  34  37
ENDBRANCH  28  34
ENDBRANCH  27  28
ENDBRANCH  24  27
ENDBRANCH  22  24
ENDBRANCH   1  22
BRANCH  10  39
HETATM   39  C20 UNL     1      -3.945  47.522 -16.909  1.00  0.00     0.176 C 
BRANCH  39  40
HETATM   40  O5  UNL     1      -4.058  47.238 -15.518  1.00  0.00    -0.400 OA
HETATM   41  H37 UNL     1      -4.076  46.272 -15.413  1.00  0.00     0.209 HD
ENDBRANCH  39  40
ENDBRANCH  10  39
TORSDOF 12
ENDMDL
MODEL 7
REMARK minimizedAffinity -9.54471207
REMARK CNNscore 0.322706282
REMARK CNNaffinity 7.12773561
REMARK  12 active torsions:
REMARK  status: ('A' for Active; 'I' for Inactive)
REMARK    1  A    between atoms: C2_2  and  C3_3 
REMARK    2  A    between atoms: C2_2  and  C10_14 
REMARK    3  A    between atoms: C3_3  and  O1_4 
REMARK    4  A    between atoms: C3_3  and  C4_5 
REMARK    5  A    between atoms: C4_5  and  C5_6 
REMARK    6  A    between atoms: C5_6  and  O2_7 
REMARK    7  A    between atoms: C5_6  and  C6_8 
REMARK    8  A    between atoms: C5_6  and  C7_10 
REMARK    9  A    between atoms: C6_8  and  O3_9 
REMARK   10  A    between atoms: C7_10  and  O4_13 
REMARK   11  A    between atoms: C19_23  and  C20_24 
REMARK   12  A    between atoms: C20_24  and  O5_25 
ROOT
HETATM    1  C10 UNL     1      -3.737  50.702 -24.618  1.00  0.00     0.001 C 
HETATM    2  C11 UNL     1      -5.189  50.574 -24.059  1.00  0.00     0.007 C 
HETATM    3  C12 UNL     1      -5.076  50.451 -22.529  1.00  0.00     0.011 C 
HETATM    4  C13 UNL     1      -3.658  50.956 -22.197  1.00  0.00    -0.032 C 
HETATM    5  C14 UNL     1      -3.741  52.523 -22.226  1.00  0.00     0.016 C 
HETATM    6  C15 UNL     1      -3.092  50.450 -20.824  1.00  0.00     0.004 C 
HETATM    7  C16 UNL     1      -3.553  51.310 -19.631  1.00  0.00     0.007 C 
HETATM    8  C17 UNL     1      -3.110  50.813 -18.253  1.00  0.00     0.007 C 
HETATM    9  C18 UNL     1      -1.886  49.880 -18.265  1.00  0.00     0.008 C 
HETATM   10  C19 UNL     1      -1.191  49.829 -16.887  1.00  0.00     0.083 C 
HETATM   11  C21 UNL     1      -0.378  51.094 -16.649  1.00  0.00     0.133 C 
HETATM   12  O6  UNL     1      -0.088  51.472 -15.512  1.00  0.00    -0.297 OA
HETATM   13  C22 UNL     1       0.051  51.902 -17.848  1.00  0.00     0.079 C 
HETATM   14  C23 UNL     1       0.311  50.988 -19.030  1.00  0.00     0.018 C 
HETATM   15  C24 UNL     1      -0.933  50.214 -19.415  1.00  0.00    -0.027 A 
HETATM   16  C25 UNL     1      -0.800  49.120 -20.437  1.00  0.00     0.021 A 
HETATM   17  C26 UNL     1      -1.542  50.388 -20.828  1.00  0.00    -0.027 A 
HETATM   18  C27 UNL     1      -0.853  51.186 -21.930  1.00  0.00     0.011 C 
HETATM   19  C28 UNL     1      -1.423  50.967 -23.352  1.00  0.00     0.011 C 
HETATM   20  C29 UNL     1      -2.834  50.340 -23.386  1.00  0.00    -0.032 C 
HETATM   21  C30 UNL     1      -2.685  48.799 -23.312  1.00  0.00     0.016 C 
ENDROOT
BRANCH   1  22
HETATM   22  C2  UNL     1      -3.547  50.052 -26.039  1.00  0.00     0.015 C 
HETATM   23  C1  UNL     1      -2.688  48.774 -26.053  1.00  0.00     0.013 C 
BRANCH  22  24
HETATM   24  C3  UNL     1      -3.072  51.062 -27.130  1.00  0.00     0.125 C 
BRANCH  24  25
HETATM   25  O1  UNL     1      -2.495  50.431 -28.260  1.00  0.00    -0.395 OA
HETATM   26  H6  UNL     1      -2.879  49.549 -28.392  1.00  0.00     0.210 HD
ENDBRANCH  24  25
BRANCH  24  27
HETATM   27  C4  UNL     1      -2.117  52.186 -26.689  1.00  0.00     0.075 C 
BRANCH  27  28
HETATM   28  C5  UNL     1      -0.737  52.435 -27.370  1.00  0.00     0.111 C 
BRANCH  28  29
HETATM   29  O2  UNL     1      -0.814  51.579 -28.575  1.00  0.00    -0.384 OA
HETATM   30  H9  UNL     1      -1.438  52.047 -29.168  1.00  0.00     0.210 HD
ENDBRANCH  28  29
BRANCH  28  31
HETATM   31  C6  UNL     1      -0.565  53.869 -27.917  1.00  0.00     0.205 C 
BRANCH  31  32
HETATM   32  O3  UNL     1      -1.829  54.345 -28.395  1.00  0.00    -0.398 OA
HETATM   33  H12 UNL     1      -1.655  55.195 -28.835  1.00  0.00     0.209 HD
ENDBRANCH  31  32
ENDBRANCH  28  31
BRANCH  28  34
HETATM   34  C7  UNL     1       0.565  51.939 -26.635  1.00  0.00     0.084 C 
HETATM   35  C8  UNL     1       0.882  52.710 -25.349  1.00  0.00     0.049 C 
HETATM   36  C9  UNL     1       1.822  51.795 -27.502  1.00  0.00     0.049 C 
BRANCH  34  37
HETATM   37  O4  UNL     1       0.293  50.581 -26.193  1.00  0.00    -0.387 OA
HETATM   38  H19 UNL     1      -0.641  50.618 -25.885  1.00  0.00     0.210 HD
ENDBRANCH  34  37
ENDBRANCH  28  34
ENDBRANCH  27  28
ENDBRANCH  24  27
ENDBRANCH  22  24
ENDBRANCH   1  22
BRANCH  10  39
HETATM   39  C20 UNL     1      -0.266  48.614 -16.741  1.00  0.00     0.176 C 
BRANCH  39  40
HETATM   40  O5  UNL     1      -0.921  47.614 -15.966  1.00  0.00    -0.400 OA
HETATM   41  H37 UNL     1      -0.236  47.041 -15.581  1.00  0.00     0.209 HD
ENDBRANCH  39  40
ENDBRANCH  10  39
TORSDOF 12
ENDMDL
MODEL 8
REMARK minimizedAffinity -8.66566849
REMARK CNNscore 0.314651072
REMARK CNNaffinity 6.20956039
REMARK  12 active torsions:
REMARK  status: ('A' for Active; 'I' for Inactive)
REMARK    1  A    between atoms: C2_2  and  C3_3 
REMARK    2  A    between atoms: C2_2  and  C10_14 
REMARK    3  A    between atoms: C3_3  and  O1_4 
REMARK    4  A    between atoms: C3_3  and  C4_5 
REMARK    5  A    between atoms: C4_5  and  C5_6 
REMARK    6  A    between atoms: C5_6  and  O2_7 
REMARK    7  A    between atoms: C5_6  and  C6_8 
REMARK    8  A    between atoms: C5_6  and  C7_10 
REMARK    9  A    between atoms: C6_8  and  O3_9 
REMARK   10  A    between atoms: C7_10  and  O4_13 
REMARK   11  A    between atoms: C19_23  and  C20_24 
REMARK   12  A    between atoms: C20_24  and  O5_25 
ROOT
HETATM    1  C10 UNL     1      -4.265  49.098 -21.043  1.00  0.00     0.001 C 
HETATM    2  C11 UNL     1      -5.162  48.292 -22.034  1.00  0.00     0.007 C 
HETATM    3  C12 UNL     1      -4.666  48.608 -23.456  1.00  0.00     0.011 C 
HETATM    4  C13 UNL     1      -3.256  49.199 -23.259  1.00  0.00    -0.032 C 
HETATM    5  C14 UNL     1      -2.305  47.973 -23.025  1.00  0.00     0.016 C 
HETATM    6  C15 UNL     1      -2.750  50.084 -24.450  1.00  0.00     0.004 C 
HETATM    7  C16 UNL     1      -2.118  49.256 -25.587  1.00  0.00     0.007 C 
HETATM    8  C17 UNL     1      -1.688  50.055 -26.820  1.00  0.00     0.007 C 
HETATM    9  C18 UNL     1      -1.457  51.555 -26.571  1.00  0.00     0.008 C 
HETATM   10  C19 UNL     1      -0.564  52.187 -27.661  1.00  0.00     0.083 C 
HETATM   11  C21 UNL     1       0.893  51.802 -27.449  1.00  0.00     0.133 C 
HETATM   12  O6  UNL     1       1.709  51.824 -28.373  1.00  0.00    -0.297 OA
HETATM   13  C22 UNL     1       1.322  51.365 -26.070  1.00  0.00     0.079 C 
HETATM   14  C23 UNL     1       0.522  52.102 -25.014  1.00  0.00     0.018 C 
HETATM   15  C24 UNL     1      -0.961  51.822 -25.147  1.00  0.00    -0.027 A 
HETATM   16  C25 UNL     1      -1.914  52.624 -24.307  1.00  0.00     0.021 A 
HETATM   17  C26 UNL     1      -1.727  51.152 -23.980  1.00  0.00    -0.027 A 
HETATM   18  C27 UNL     1      -1.094  50.902 -22.615  1.00  0.00     0.011 C 
HETATM   19  C28 UNL     1      -2.091  50.550 -21.485  1.00  0.00     0.011 C 
HETATM   20  C29 UNL     1      -3.479  50.084 -21.978  1.00  0.00    -0.032 C 
HETATM   21  C30 UNL     1      -4.353  51.340 -22.229  1.00  0.00     0.016 C 
ENDROOT
BRANCH   1  22
HETATM   22  C2  UNL     1      -5.019  49.568 -19.745  1.00  0.00     0.015 C 
HETATM   23  C1  UNL     1      -4.433  49.028 -18.427  1.00  0.00     0.013 C 
BRANCH  22  24
HETATM   24  C3  UNL     1      -6.563  49.349 -19.805  1.00  0.00     0.125 C 
BRANCH  24  25
HETATM   25  O1  UNL     1      -7.277  50.515 -20.176  1.00  0.00    -0.395 OA
HETATM   26  H6  UNL     1      -6.734  51.082 -20.747  1.00  0.00     0.210 HD
ENDBRANCH  24  25
BRANCH  24  27
HETATM   27  C4  UNL     1      -7.246  48.764 -18.557  1.00  0.00     0.075 C 
BRANCH  27  28
HETATM   28  C5  UNL     1      -7.805  47.309 -18.504  1.00  0.00     0.111 C 
BRANCH  28  29
HETATM   29  O2  UNL     1      -7.105  46.656 -19.632  1.00  0.00    -0.384 OA
HETATM   30  H9  UNL     1      -6.183  46.547 -19.319  1.00  0.00     0.210 HD
ENDBRANCH  28  29
BRANCH  28  31
HETATM   31  C6  UNL     1      -7.360  46.519 -17.254  1.00  0.00     0.205 C 
BRANCH  31  32
HETATM   32  O3  UNL     1      -7.663  47.284 -16.081  1.00  0.00    -0.398 OA
HETATM   33  H12 UNL     1      -7.263  46.810 -15.332  1.00  0.00     0.209 HD
ENDBRANCH  31  32
ENDBRANCH  28  31
BRANCH  28  34
HETATM   34  C7  UNL     1      -9.331  47.077 -18.819  1.00  0.00     0.084 C 
HETATM   35  C8  UNL     1      -9.586  46.035 -19.914  1.00  0.00     0.049 C 
HETATM   36  C9  UNL     1     -10.173  48.334 -19.063  1.00  0.00     0.049 C 
BRANCH  34  37
HETATM   37  O4  UNL     1      -9.912  46.500 -17.618  1.00  0.00    -0.387 OA
HETATM   38  H19 UNL     1      -9.222  45.874 -17.301  1.00  0.00     0.210 HD
ENDBRANCH  34  37
ENDBRANCH  28  34
ENDBRANCH  27  28
ENDBRANCH  24  27
ENDBRANCH  22  24
ENDBRANCH   1  22
BRANCH  10  39
HETATM   39  C20 UNL     1      -0.671  53.716 -27.693  1.00  0.00     0.176 C 
BRANCH  39  40
HETATM   40  O5  UNL     1      -1.905  54.090 -28.298  1.00  0.00    -0.400 OA
HETATM   41  H37 UNL     1      -1.808  54.995 -28.638  1.00  0.00     0.209 HD
ENDBRANCH  39  40
ENDBRANCH  10  39
TORSDOF 12
ENDMDL
MODEL 9
REMARK minimizedAffinity -8.8580904
REMARK CNNscore 0.312638372
REMARK CNNaffinity 6.78024626
REMARK  12 active torsions:
REMARK  status: ('A' for Active; 'I' for Inactive)
REMARK    1  A    between atoms: C2_2  and  C3_3 
REMARK    2  A    between atoms: C2_2  and  C10_14 
REMARK    3  A    between atoms: C3_3  and  O1_4 
REMARK    4  A    between atoms: C3_3  and  C4_5 
REMARK    5  A    between atoms: C4_5  and  C5_6 
REMARK    6  A    between atoms: C5_6  and  O2_7 
REMARK    7  A    between atoms: C5_6  and  C6_8 
REMARK    8  A    between atoms: C5_6  and  C7_10 
REMARK    9  A    between atoms: C6_8  and  O3_9 
REMARK   10  A    between atoms: C7_10  and  O4_13 
REMARK   11  A    between atoms: C19_23  and  C20_24 
REMARK   12  A    between atoms: C20_24  and  O5_25 
ROOT
HETATM    1  C10 UNL     1      -1.528  49.243 -18.047  1.00  0.00     0.001 C 
HETATM    2  C11 UNL     1      -2.665  48.181 -18.180  1.00  0.00     0.007 C 
HETATM    3  C12 UNL     1      -3.148  48.214 -19.641  1.00  0.00     0.011 C 
HETATM    4  C13 UNL     1      -2.022  48.929 -20.412  1.00  0.00    -0.032 C 
HETATM    5  C14 UNL     1      -0.903  47.853 -20.638  1.00  0.00     0.016 C 
HETATM    6  C15 UNL     1      -2.470  49.567 -21.773  1.00  0.00     0.004 C 
HETATM    7  C16 UNL     1      -2.469  48.557 -22.938  1.00  0.00     0.007 C 
HETATM    8  C17 UNL     1      -2.985  49.097 -24.274  1.00  0.00     0.007 C 
HETATM    9  C18 UNL     1      -2.937  50.628 -24.417  1.00  0.00     0.008 C 
HETATM   10  C19 UNL     1      -2.971  51.067 -25.897  1.00  0.00     0.083 C 
HETATM   11  C21 UNL     1      -1.618  50.840 -26.555  1.00  0.00     0.133 C 
HETATM   12  O6  UNL     1      -1.506  50.717 -27.777  1.00  0.00    -0.297 OA
HETATM   13  C22 UNL     1      -0.401  50.744 -25.669  1.00  0.00     0.079 C 
HETATM   14  C23 UNL     1      -0.565  51.636 -24.454  1.00  0.00     0.018 C 
HETATM   15  C24 UNL     1      -1.770  51.231 -23.630  1.00  0.00    -0.027 A 
HETATM   16  C25 UNL     1      -2.193  52.129 -22.502  1.00  0.00     0.021 A 
HETATM   17  C26 UNL     1      -1.582  50.780 -22.160  1.00  0.00    -0.027 A 
HETATM   18  C27 UNL     1      -0.246  50.877 -21.433  1.00  0.00     0.011 C 
HETATM   19  C28 UNL     1      -0.322  50.711 -19.896  1.00  0.00     0.011 C 
HETATM   20  C29 UNL     1      -1.625  50.054 -19.388  1.00  0.00    -0.032 C 
HETATM   21  C30 UNL     1      -2.698  51.161 -19.226  1.00  0.00     0.016 C 
ENDROOT
BRANCH   1  22
HETATM   22  C2  UNL     1      -1.468  49.931 -16.633  1.00  0.00     0.015 C 
HETATM   23  C1  UNL     1      -2.703  50.779 -16.276  1.00  0.00     0.013 C 
BRANCH  22  24
HETATM   24  C3  UNL     1      -0.148  50.725 -16.380  1.00  0.00     0.125 C 
BRANCH  24  25
HETATM   25  O1  UNL     1       0.801  50.572 -17.421  1.00  0.00    -0.395 OA
HETATM   26  H6  UNL     1       0.357  50.412 -18.269  1.00  0.00     0.210 HD
ENDBRANCH  24  25
BRANCH  24  27
HETATM   27  C4  UNL     1       0.582  50.481 -15.048  1.00  0.00     0.075 C 
BRANCH  27  28
HETATM   28  C5  UNL     1       1.174  51.639 -14.187  1.00  0.00     0.111 C 
BRANCH  28  29
HETATM   29  O2  UNL     1       1.008  52.814 -15.071  1.00  0.00    -0.384 OA
HETATM   30  H9  UNL     1       0.046  52.999 -15.053  1.00  0.00     0.210 HD
ENDBRANCH  28  29
BRANCH  28  31
HETATM   31  C6  UNL     1       0.337  51.969 -12.931  1.00  0.00     0.205 C 
BRANCH  31  32
HETATM   32  O3  UNL     1       0.066  53.376 -12.904  1.00  0.00    -0.398 OA
HETATM   33  H12 UNL     1      -0.356  53.558 -12.047  1.00  0.00     0.209 HD
ENDBRANCH  31  32
ENDBRANCH  28  31
BRANCH  28  34
HETATM   34  C7  UNL     1       2.716  51.623 -13.864  1.00  0.00     0.084 C 
HETATM   35  C8  UNL     1       3.603  52.008 -15.054  1.00  0.00     0.049 C 
HETATM   36  C9  UNL     1       3.253  50.363 -13.176  1.00  0.00     0.049 C 
BRANCH  34  37
HETATM   37  O4  UNL     1       2.938  52.673 -12.883  1.00  0.00    -0.387 OA
HETATM   38  H19 UNL     1       2.357  53.405 -13.188  1.00  0.00     0.210 HD
ENDBRANCH  34  37
ENDBRANCH  28  34
ENDBRANCH  27  28
ENDBRANCH  24  27
ENDBRANCH  22  24
ENDBRANCH   1  22
BRANCH  10  39
HETATM   39  C20 UNL     1      -3.358  52.542 -26.062  1.00  0.00     0.176 C 
BRANCH  39  40
HETATM   40  O5  UNL     1      -2.475  53.160 -26.994  1.00  0.00    -0.400 OA
HETATM   41  H37 UNL     1      -2.482  54.116 -26.821  1.00  0.00     0.209 HD
ENDBRANCH  39  40
ENDBRANCH  10  39
TORSDOF 12
ENDMDL
