MODEL 1
REMARK minimizedAffinity -7.88980579
REMARK  3 active torsions:
REMARK  status: ('A' for Active; 'I' for Inactive)
REMARK    1  A    between atoms: C2_2  and  C3_3 
REMARK    2  A    between atoms: C3_3  and  N1_4 
REMARK    3  A    between atoms: C10_13  and  N3_14 
ROOT
HETATM    1  N1  UNL     1      -6.056   5.406  13.311  1.00  0.00     0.093 N 
HETATM    2  C4  UNL     1      -7.428   5.179  12.838  1.00  0.00     0.273 C 
HETATM    3  C5  UNL     1      -7.915   3.753  13.065  1.00  0.00     0.031 C 
HETATM    4  C6  UNL     1      -7.046   2.736  12.335  1.00  0.00     0.009 C 
HETATM    5  C7  UNL     1      -5.649   3.278  11.994  1.00  0.00     0.025 C 
HETATM    6  C8  UNL     1      -4.663   2.112  11.818  1.00  0.00     0.064 C 
HETATM    7  C9  UNL     1      -3.229   2.547  11.693  1.00  0.00     0.019 A 
HETATM    8  N2  UNL     1      -2.368   1.633  11.194  1.00  0.00    -0.336 N 
ATOM      9  H2  UNL     1      -2.688   0.715  10.883  1.00  0.00     0.168 HD
HETATM   10  C10 UNL     1      -1.080   1.981  11.124  1.00  0.00     0.154 A 
HETATM   11  N4  UNL     1      -0.590   3.169  11.480  1.00  0.00    -0.342 N 
ATOM     12  H4  UNL     1       0.400   3.396  11.381  1.00  0.00     0.167 HD
HETATM   13  C11 UNL     1      -1.474   4.052  11.978  1.00  0.00     0.099 A 
HETATM   14  C12 UNL     1      -2.821   3.793  12.126  1.00  0.00    -0.018 A 
HETATM   15  C13 UNL     1      -3.767   4.827  12.650  1.00  0.00     0.078 C 
HETATM   16  C14 UNL     1      -5.144   4.261  13.073  1.00  0.00     0.231 C 
ENDROOT
BRANCH   1  17
HETATM   17  C3  UNL     1      -5.999   5.857  14.713  1.00  0.00     0.272 C 
BRANCH  17  18
HETATM   18  C2  UNL     1      -7.346   5.692  15.428  1.00  0.00     0.026 C 
HETATM   19  C1  UNL     1      -7.525   6.742  16.516  1.00  0.00     0.007 C 
ENDBRANCH  17  18
ENDBRANCH   1  17
BRANCH  10  20
HETATM   20  N3  UNL     1      -0.200   1.060  10.595  1.00  0.00    -0.274 NA
HETATM   21  H17 UNL     1      -0.704   0.427   9.991  1.00  0.00     0.127 HD
HETATM   22  H18 UNL     1       0.594   1.546  10.203  1.00  0.00     0.127 HD
ENDBRANCH  10  20
TORSDOF 3
ENDMDL
MODEL 2
REMARK minimizedAffinity -7.35952997
REMARK  3 active torsions:
REMARK  status: ('A' for Active; 'I' for Inactive)
REMARK    1  A    between atoms: C2_2  and  C3_3 
REMARK    2  A    between atoms: C3_3  and  N1_4 
REMARK    3  A    between atoms: C10_13  and  N3_14 
ROOT
HETATM    1  N1  UNL     1      -8.431   5.801  13.981  1.00  0.00     0.093 N 
HETATM    2  C4  UNL     1      -8.216   6.674  15.143  1.00  0.00     0.273 C 
HETATM    3  C5  UNL     1      -7.108   7.698  14.929  1.00  0.00     0.031 C 
HETATM    4  C6  UNL     1      -5.766   7.031  14.653  1.00  0.00     0.009 C 
HETATM    5  C7  UNL     1      -5.909   5.587  14.147  1.00  0.00     0.025 C 
HETATM    6  C8  UNL     1      -4.656   5.183  13.355  1.00  0.00     0.064 C 
HETATM    7  C9  UNL     1      -4.790   3.865  12.642  1.00  0.00     0.019 A 
HETATM    8  N2  UNL     1      -3.641   3.289  12.228  1.00  0.00    -0.336 N 
ATOM      9  H2  UNL     1      -2.733   3.710  12.428  1.00  0.00     0.168 HD
HETATM   10  C10 UNL     1      -3.742   2.145  11.546  1.00  0.00     0.154 A 
HETATM   11  N4  UNL     1      -4.887   1.518  11.272  1.00  0.00    -0.342 N 
ATOM     12  H4  UNL     1      -4.909   0.629  10.771  1.00  0.00     0.167 HD
HETATM   13  C11 UNL     1      -6.012   2.123  11.694  1.00  0.00     0.099 A 
HETATM   14  C12 UNL     1      -6.032   3.320  12.379  1.00  0.00    -0.018 A 
HETATM   15  C13 UNL     1      -7.311   3.929  12.860  1.00  0.00     0.078 C 
HETATM   16  C14 UNL     1      -7.179   5.411  13.286  1.00  0.00     0.231 C 
ENDROOT
BRANCH   1  17
HETATM   17  C3  UNL     1      -9.426   6.336  13.036  1.00  0.00     0.272 C 
BRANCH  17  18
HETATM   18  C2  UNL     1     -10.612   6.992  13.756  1.00  0.00     0.026 C 
HETATM   19  C1  UNL     1     -11.622   7.547  12.761  1.00  0.00     0.007 C 
ENDBRANCH  17  18
ENDBRANCH   1  17
BRANCH  10  20
HETATM   20  N3  UNL     1      -2.571   1.540  11.140  1.00  0.00    -0.274 NA
HETATM   21  H17 UNL     1      -1.817   1.837  11.742  1.00  0.00     0.127 HD
HETATM   22  H18 UNL     1      -2.725   0.547  11.042  1.00  0.00     0.127 HD
ENDBRANCH  10  20
TORSDOF 3
ENDMDL
MODEL 3
REMARK minimizedAffinity -7.13215971
REMARK  3 active torsions:
REMARK  status: ('A' for Active; 'I' for Inactive)
REMARK    1  A    between atoms: C2_2  and  C3_3 
REMARK    2  A    between atoms: C3_3  and  N1_4 
REMARK    3  A    between atoms: C10_13  and  N3_14 
ROOT
HETATM    1  N1  UNL     1      -5.840   5.673  13.842  1.00  0.00     0.093 N 
HETATM    2  C4  UNL     1      -5.549   6.690  14.861  1.00  0.00     0.273 C 
HETATM    3  C5  UNL     1      -4.574   7.759  14.383  1.00  0.00     0.031 C 
HETATM    4  C6  UNL     1      -3.227   7.162  13.992  1.00  0.00     0.009 C 
HETATM    5  C7  UNL     1      -3.310   5.662  13.669  1.00  0.00     0.025 C 
HETATM    6  C8  UNL     1      -2.143   5.258  12.754  1.00  0.00     0.064 C 
HETATM    7  C9  UNL     1      -2.255   3.859  12.213  1.00  0.00     0.019 A 
HETATM    8  N2  UNL     1      -1.125   3.322  11.704  1.00  0.00    -0.336 N 
ATOM      9  H2  UNL     1      -0.240   3.827  11.726  1.00  0.00     0.168 HD
HETATM   10  C10 UNL     1      -1.217   2.100  11.169  1.00  0.00     0.154 A 
HETATM   11  N4  UNL     1      -2.329   1.365  11.130  1.00  0.00    -0.342 N 
ATOM     12  H4  UNL     1      -2.340   0.425  10.736  1.00  0.00     0.167 HD
HETATM   13  C11 UNL     1      -3.436   1.934  11.641  1.00  0.00     0.099 A 
HETATM   14  C12 UNL     1      -3.468   3.199  12.189  1.00  0.00    -0.018 A 
HETATM   15  C13 UNL     1      -4.721   3.767  12.780  1.00  0.00     0.078 C 
HETATM   16  C14 UNL     1      -4.663   5.295  13.022  1.00  0.00     0.231 C 
ENDROOT
BRANCH   1  17
HETATM   17  C3  UNL     1      -6.995   6.020  12.997  1.00  0.00     0.272 C 
BRANCH  17  18
HETATM   18  C2  UNL     1      -8.269   5.280  13.426  1.00  0.00     0.026 C 
HETATM   19  C1  UNL     1      -8.295   3.862  12.872  1.00  0.00     0.007 C 
ENDBRANCH  17  18
ENDBRANCH   1  17
BRANCH  10  20
HETATM   20  N3  UNL     1      -0.062   1.538  10.668  1.00  0.00    -0.274 NA
HETATM   21  H17 UNL     1       0.737   1.958  11.121  1.00  0.00     0.127 HD
HETATM   22  H18 UNL     1      -0.140   0.532  10.700  1.00  0.00     0.127 HD
ENDBRANCH  10  20
TORSDOF 3
ENDMDL
MODEL 4
REMARK minimizedAffinity -7.06141186
REMARK  3 active torsions:
REMARK  status: ('A' for Active; 'I' for Inactive)
REMARK    1  A    between atoms: C2_2  and  C3_3 
REMARK    2  A    between atoms: C3_3  and  N1_4 
REMARK    3  A    between atoms: C10_13  and  N3_14 
ROOT
HETATM    1  N1  UNL     1      -2.765   3.512  11.301  1.00  0.00     0.093 N 
HETATM    2  C4  UNL     1      -1.630   4.408  11.041  1.00  0.00     0.273 C 
HETATM    3  C5  UNL     1      -1.040   5.015  12.309  1.00  0.00     0.031 C 
HETATM    4  C6  UNL     1      -2.067   5.848  13.068  1.00  0.00     0.009 C 
HETATM    5  C7  UNL     1      -3.516   5.483  12.709  1.00  0.00     0.025 C 
HETATM    6  C8  UNL     1      -4.456   5.886  13.856  1.00  0.00     0.064 C 
HETATM    7  C9  UNL     1      -5.863   5.379  13.690  1.00  0.00     0.019 A 
HETATM    8  N2  UNL     1      -6.807   5.973  14.453  1.00  0.00    -0.336 N 
ATOM      9  H2  UNL     1      -6.577   6.748  15.075  1.00  0.00     0.168 HD
HETATM   10  C10 UNL     1      -8.053   5.501  14.360  1.00  0.00     0.154 A 
HETATM   11  N4  UNL     1      -8.437   4.513  13.550  1.00  0.00    -0.342 N 
ATOM     12  H4  UNL     1      -9.409   4.208  13.496  1.00  0.00     0.167 HD
HETATM   13  C11 UNL     1      -7.471   3.941  12.810  1.00  0.00     0.099 A 
HETATM   14  C12 UNL     1      -6.146   4.323  12.846  1.00  0.00    -0.018 A 
HETATM   15  C13 UNL     1      -5.119   3.678  11.970  1.00  0.00     0.078 C 
HETATM   16  C14 UNL     1      -3.659   3.979  12.389  1.00  0.00     0.231 C 
ENDROOT
BRANCH   1  17
HETATM   17  C3  UNL     1      -2.357   2.111  11.504  1.00  0.00     0.272 C 
BRANCH  17  18
HETATM   18  C2  UNL     1      -0.896   1.871  11.100  1.00  0.00     0.026 C 
HETATM   19  C1  UNL     1      -0.713   0.487  10.493  1.00  0.00     0.007 C 
ENDBRANCH  17  18
ENDBRANCH   1  17
BRANCH  10  20
HETATM   20  N3  UNL     1      -9.025   6.117  15.120  1.00  0.00    -0.274 NA
HETATM   21  H17 UNL     1      -8.734   7.061  15.331  1.00  0.00     0.127 HD
HETATM   22  H18 UNL     1      -9.923   5.995  14.675  1.00  0.00     0.127 HD
ENDBRANCH  10  20
TORSDOF 3
ENDMDL
MODEL 5
REMARK minimizedAffinity -6.94737053
REMARK  3 active torsions:
REMARK  status: ('A' for Active; 'I' for Inactive)
REMARK    1  A    between atoms: C2_2  and  C3_3 
REMARK    2  A    between atoms: C3_3  and  N1_4 
REMARK    3  A    between atoms: C10_13  and  N3_14 
ROOT
HETATM    1  N1  UNL     1      -3.704   4.583  13.097  1.00  0.00     0.093 N 
HETATM    2  C4  UNL     1      -3.518   3.272  12.462  1.00  0.00     0.273 C 
HETATM    3  C5  UNL     1      -4.320   3.106  11.177  1.00  0.00     0.031 C 
HETATM    4  C6  UNL     1      -5.818   3.242  11.424  1.00  0.00     0.009 C 
HETATM    5  C7  UNL     1      -6.144   4.001  12.719  1.00  0.00     0.025 C 
HETATM    6  C8  UNL     1      -7.552   4.610  12.630  1.00  0.00     0.064 C 
HETATM    7  C9  UNL     1      -7.879   5.547  13.760  1.00  0.00     0.019 A 
HETATM    8  N2  UNL     1      -9.186   5.837  13.939  1.00  0.00    -0.336 N 
ATOM      9  H2  UNL     1      -9.909   5.408  13.361  1.00  0.00     0.168 HD
HETATM   10  C10 UNL     1      -9.492   6.709  14.903  1.00  0.00     0.154 A 
HETATM   11  N4  UNL     1      -8.609   7.287  15.719  1.00  0.00    -0.342 N 
ATOM     12  H4  UNL     1      -8.897   7.926  16.460  1.00  0.00     0.167 HD
HETATM   13  C11 UNL     1      -7.316   6.981  15.509  1.00  0.00     0.099 A 
HETATM   14  C12 UNL     1      -6.880   6.119  14.524  1.00  0.00    -0.018 A 
HETATM   15  C13 UNL     1      -5.431   5.782  14.361  1.00  0.00     0.078 C 
HETATM   16  C14 UNL     1      -5.094   5.095  13.015  1.00  0.00     0.231 C 
ENDROOT
BRANCH   1  17
HETATM   17  C3  UNL     1      -2.733   5.589  12.634  1.00  0.00     0.272 C 
BRANCH  17  18
HETATM   18  C2  UNL     1      -1.302   5.035  12.595  1.00  0.00     0.026 C 
HETATM   19  C1  UNL     1      -0.661   5.263  11.233  1.00  0.00     0.007 C 
ENDBRANCH  17  18
ENDBRANCH   1  17
BRANCH  10  20
HETATM   20  N3  UNL     1     -10.827   6.992  15.105  1.00  0.00    -0.274 NA
HETATM   21  H17 UNL     1     -11.385   6.222  14.766  1.00  0.00     0.127 HD
HETATM   22  H18 UNL     1     -10.965   7.282  16.062  1.00  0.00     0.127 HD
ENDBRANCH  10  20
TORSDOF 3
ENDMDL
MODEL 6
REMARK minimizedAffinity -6.85407972
REMARK  3 active torsions:
REMARK  status: ('A' for Active; 'I' for Inactive)
REMARK    1  A    between atoms: C2_2  and  C3_3 
REMARK    2  A    between atoms: C3_3  and  N1_4 
REMARK    3  A    between atoms: C10_13  and  N3_14 
ROOT
HETATM    1  N1  UNL     1      -5.783   3.597  12.725  1.00  0.00     0.093 N 
HETATM    2  C4  UNL     1      -7.044   3.480  13.469  1.00  0.00     0.273 C 
HETATM    3  C5  UNL     1      -8.040   4.586  13.142  1.00  0.00     0.031 C 
HETATM    4  C6  UNL     1      -7.483   5.966  13.476  1.00  0.00     0.009 C 
HETATM    5  C7  UNL     1      -5.949   5.988  13.555  1.00  0.00     0.025 C 
HETATM    6  C8  UNL     1      -5.432   7.413  13.306  1.00  0.00     0.064 C 
HETATM    7  C9  UNL     1      -3.938   7.496  13.154  1.00  0.00     0.019 A 
HETATM    8  N2  UNL     1      -3.391   8.725  13.284  1.00  0.00    -0.336 N 
ATOM      9  H2  UNL     1      -3.961   9.539  13.513  1.00  0.00     0.168 HD
HETATM   10  C10 UNL     1      -2.071   8.828  13.099  1.00  0.00     0.154 A 
HETATM   11  N4  UNL     1      -1.256   7.808  12.828  1.00  0.00    -0.342 N 
ATOM     12  H4  UNL     1      -0.249   7.936  12.723  1.00  0.00     0.167 HD
HETATM   13  C11 UNL     1      -1.835   6.601  12.700  1.00  0.00     0.099 A 
HETATM   14  C12 UNL     1      -3.190   6.379  12.837  1.00  0.00    -0.018 A 
HETATM   15  C13 UNL     1      -3.776   5.007  12.723  1.00  0.00     0.078 C 
HETATM   16  C14 UNL     1      -5.315   4.995  12.556  1.00  0.00     0.231 C 
ENDROOT
BRANCH   1  17
HETATM   17  C3  UNL     1      -5.805   2.879  11.439  1.00  0.00     0.272 C 
BRANCH  17  18
HETATM   18  C2  UNL     1      -5.265   1.449  11.566  1.00  0.00     0.026 C 
HETATM   19  C1  UNL     1      -3.748   1.442  11.688  1.00  0.00     0.007 C 
ENDBRANCH  17  18
ENDBRANCH   1  17
BRANCH  10  20
HETATM   20  N3  UNL     1      -1.504  10.076  13.252  1.00  0.00    -0.274 NA
HETATM   21  H17 UNL     1      -2.092  10.638  13.851  1.00  0.00     0.127 HD
HETATM   22  H18 UNL     1      -0.535   9.971  13.515  1.00  0.00     0.127 HD
ENDBRANCH  10  20
TORSDOF 3
ENDMDL
MODEL 7
REMARK minimizedAffinity -6.83623028
REMARK  3 active torsions:
REMARK  status: ('A' for Active; 'I' for Inactive)
REMARK    1  A    between atoms: C2_2  and  C3_3 
REMARK    2  A    between atoms: C3_3  and  N1_4 
REMARK    3  A    between atoms: C10_13  and  N3_14 
ROOT
HETATM    1  N1  UNL     1      -7.583   6.037  13.213  1.00  0.00     0.093 N 
HETATM    2  C4  UNL     1      -8.420   5.080  12.476  1.00  0.00     0.273 C 
HETATM    3  C5  UNL     1      -8.183   3.632  12.889  1.00  0.00     0.031 C 
HETATM    4  C6  UNL     1      -6.741   3.203  12.644  1.00  0.00     0.009 C 
HETATM    5  C7  UNL     1      -5.771   4.391  12.549  1.00  0.00     0.025 C 
HETATM    6  C8  UNL     1      -4.345   3.931  12.889  1.00  0.00     0.064 C 
HETATM    7  C9  UNL     1      -3.363   5.062  13.030  1.00  0.00     0.019 A 
HETATM    8  N2  UNL     1      -2.055   4.728  12.979  1.00  0.00    -0.336 N 
ATOM      9  H2  UNL     1      -1.757   3.767  12.812  1.00  0.00     0.168 HD
HETATM   10  C10 UNL     1      -1.166   5.711  13.156  1.00  0.00     0.154 A 
HETATM   11  N4  UNL     1      -1.475   6.994  13.347  1.00  0.00    -0.342 N 
ATOM     12  H4  UNL     1      -0.757   7.712  13.449  1.00  0.00     0.167 HD
HETATM   13  C11 UNL     1      -2.786   7.289  13.399  1.00  0.00     0.099 A 
HETATM   14  C12 UNL     1      -3.791   6.354  13.262  1.00  0.00    -0.018 A 
HETATM   15  C13 UNL     1      -5.236   6.745  13.288  1.00  0.00     0.078 C 
HETATM   16  C14 UNL     1      -6.205   5.551  13.471  1.00  0.00     0.231 C 
ENDROOT
BRANCH   1  17
HETATM   17  C3  UNL     1      -8.220   6.527  14.447  1.00  0.00     0.272 C 
BRANCH  17  18
HETATM   18  C2  UNL     1      -7.586   5.920  15.705  1.00  0.00     0.026 C 
HETATM   19  C1  UNL     1      -7.435   6.962  16.804  1.00  0.00     0.007 C 
ENDBRANCH  17  18
ENDBRANCH   1  17
BRANCH  10  20
HETATM   20  N3  UNL     1       0.171   5.380  13.082  1.00  0.00    -0.274 NA
HETATM   21  H17 UNL     1       0.276   4.541  12.529  1.00  0.00     0.127 HD
HETATM   22  H18 UNL     1       0.700   6.193  12.800  1.00  0.00     0.127 HD
ENDBRANCH  10  20
TORSDOF 3
ENDMDL
MODEL 8
REMARK minimizedAffinity -6.78080273
REMARK  3 active torsions:
REMARK  status: ('A' for Active; 'I' for Inactive)
REMARK    1  A    between atoms: C2_2  and  C3_3 
REMARK    2  A    between atoms: C3_3  and  N1_4 
REMARK    3  A    between atoms: C10_13  and  N3_14 
ROOT
HETATM    1  N1  UNL     1      -2.999   7.510  14.007  1.00  0.00     0.093 N 
HETATM    2  C4  UNL     1      -1.559   7.236  13.911  1.00  0.00     0.273 C 
HETATM    3  C5  UNL     1      -1.136   6.709  12.545  1.00  0.00     0.031 C 
HETATM    4  C6  UNL     1      -1.835   5.399  12.204  1.00  0.00     0.009 C 
HETATM    5  C7  UNL     1      -3.127   5.183  13.007  1.00  0.00     0.025 C 
HETATM    6  C8  UNL     1      -4.058   4.220  12.254  1.00  0.00     0.064 C 
HETATM    7  C9  UNL     1      -5.432   4.113  12.856  1.00  0.00     0.019 A 
HETATM    8  N2  UNL     1      -6.172   3.049  12.473  1.00  0.00    -0.336 N 
ATOM      9  H2  UNL     1      -5.798   2.341  11.842  1.00  0.00     0.168 HD
HETATM   10  C10 UNL     1      -7.416   2.965  12.955  1.00  0.00     0.154 A 
HETATM   11  N4  UNL     1      -7.965   3.832  13.806  1.00  0.00    -0.342 N 
ATOM     12  H4  UNL     1      -8.911   3.707  14.167  1.00  0.00     0.167 HD
HETATM   13  C11 UNL     1      -7.203   4.882  14.161  1.00  0.00     0.099 A 
HETATM   14  C12 UNL     1      -5.918   5.089  13.703  1.00  0.00    -0.018 A 
HETATM   15  C13 UNL     1      -5.100   6.255  14.163  1.00  0.00     0.078 C 
HETATM   16  C14 UNL     1      -3.845   6.520  13.296  1.00  0.00     0.231 C 
ENDROOT
BRANCH   1  17
HETATM   17  C3  UNL     1      -3.348   8.889  13.624  1.00  0.00     0.272 C 
BRANCH  17  18
HETATM   18  C2  UNL     1      -4.168   9.600  14.709  1.00  0.00     0.026 C 
HETATM   19  C1  UNL     1      -3.343  10.670  15.411  1.00  0.00     0.007 C 
ENDBRANCH  17  18
ENDBRANCH   1  17
BRANCH  10  20
HETATM   20  N3  UNL     1      -8.168   1.869  12.585  1.00  0.00    -0.274 NA
HETATM   21  H17 UNL     1      -7.550   1.113  12.328  1.00  0.00     0.127 HD
HETATM   22  H18 UNL     1      -8.860   1.685  13.297  1.00  0.00     0.127 HD
ENDBRANCH  10  20
TORSDOF 3
ENDMDL
MODEL 9
REMARK minimizedAffinity -6.7516942
REMARK  3 active torsions:
REMARK  status: ('A' for Active; 'I' for Inactive)
REMARK    1  A    between atoms: C2_2  and  C3_3 
REMARK    2  A    between atoms: C3_3  and  N1_4 
REMARK    3  A    between atoms: C10_13  and  N3_14 
ROOT
HETATM    1  N1  UNL     1      -3.706   7.362  14.449  1.00  0.00     0.093 N 
HETATM    2  C4  UNL     1      -4.544   8.568  14.482  1.00  0.00     0.273 C 
HETATM    3  C5  UNL     1      -5.916   8.332  15.101  1.00  0.00     0.031 C 
HETATM    4  C6  UNL     1      -6.714   7.290  14.326  1.00  0.00     0.009 C 
HETATM    5  C7  UNL     1      -5.827   6.372  13.471  1.00  0.00     0.025 C 
HETATM    6  C8  UNL     1      -6.552   5.044  13.202  1.00  0.00     0.064 C 
HETATM    7  C9  UNL     1      -5.683   4.001  12.554  1.00  0.00     0.019 A 
HETATM    8  N2  UNL     1      -6.325   2.961  11.979  1.00  0.00    -0.336 N 
ATOM      9  H2  UNL     1      -7.343   2.913  11.953  1.00  0.00     0.168 HD
HETATM   10  C10 UNL     1      -5.569   1.996  11.445  1.00  0.00     0.154 A 
HETATM   11  N4  UNL     1      -4.236   2.002  11.411  1.00  0.00    -0.342 N 
ATOM     12  H4  UNL     1      -3.705   1.253  10.965  1.00  0.00     0.167 HD
HETATM   13  C11 UNL     1      -3.630   3.050  11.998  1.00  0.00     0.099 A 
HETATM   14  C12 UNL     1      -4.306   4.086  12.608  1.00  0.00    -0.018 A 
HETATM   15  C13 UNL     1      -3.581   5.248  13.211  1.00  0.00     0.078 C 
HETATM   16  C14 UNL     1      -4.458   6.120  14.141  1.00  0.00     0.231 C 
ENDROOT
BRANCH   1  17
HETATM   17  C3  UNL     1      -2.878   7.203  15.657  1.00  0.00     0.272 C 
BRANCH  17  18
HETATM   18  C2  UNL     1      -1.442   7.699  15.442  1.00  0.00     0.026 C 
HETATM   19  C1  UNL     1      -0.548   6.585  14.915  1.00  0.00     0.007 C 
ENDBRANCH  17  18
ENDBRANCH   1  17
BRANCH  10  20
HETATM   20  N3  UNL     1      -6.219   0.943  10.837  1.00  0.00    -0.274 NA
HETATM   21  H17 UNL     1      -7.139   1.242  10.545  1.00  0.00     0.127 HD
HETATM   22  H18 UNL     1      -5.616   0.541  10.134  1.00  0.00     0.127 HD
ENDBRANCH  10  20
TORSDOF 3
ENDMDL
