MODEL 1
REMARK minimizedAffinity -6.89573097
REMARK CNNscore 0.22390382
REMARK CNNaffinity 5.54585648
REMARK  5 active torsions:
REMARK  status: ('A' for Active; 'I' for Inactive)
REMARK    1  A    between atoms: C2_2  and  C3_3 
REMARK    2  A    between atoms: C6_6  and  C7_7 
REMARK    3  A    between atoms: C7_7  and  O1_8 
REMARK    4  A    between atoms: C7_7  and  C8_9 
REMARK    5  A    between atoms: C26_32  and  O6_33 
ROOT
HETATM    1  C3  UNL     1     -12.410  -9.904  13.335  1.00  0.00     0.008 C 
HETATM    2  C4  UNL     1     -11.381  -8.935  13.870  1.00  0.00    -0.023 C 
HETATM    3  C5  UNL     1     -11.583  -7.967  14.780  1.00  0.00     0.005 C 
HETATM    4  C6  UNL     1     -12.878  -7.579  15.457  1.00  0.00     0.187 C 
HETATM    5  O2  UNL     1     -13.076  -6.205  15.053  1.00  0.00    -0.308 OA
HETATM    6  C12 UNL     1     -14.342  -5.705  15.165  1.00  0.00     0.276 C 
HETATM    7  O3  UNL     1     -15.288  -6.351  15.608  1.00  0.00    -0.264 OA
HETATM    8  C13 UNL     1     -14.396  -4.219  14.663  1.00  0.00     0.095 C 
HETATM    9  C14 UNL     1     -13.084  -3.556  15.181  1.00  0.00     0.036 C 
HETATM   10  C15 UNL     1     -15.570  -3.546  15.356  1.00  0.00     0.003 C 
HETATM   11  C16 UNL     1     -15.970  -2.277  15.192  1.00  0.00     0.072 C 
HETATM   12  C17 UNL     1     -15.357  -1.269  14.305  1.00  0.00     0.245 C 
HETATM   13  O4  UNL     1     -15.476  -0.081  14.590  1.00  0.00    -0.268 OA
HETATM   14  N1  UNL     1     -14.750  -1.640  13.144  1.00  0.00    -0.320 N 
HETATM   15  C18 UNL     1     -14.571  -2.862  12.529  1.00  0.00     0.098 C 
HETATM   16  C19 UNL     1     -14.503  -4.060  13.139  1.00  0.00     0.045 C 
HETATM   17  C20 UNL     1     -14.526  -5.282  12.273  1.00  0.00     0.194 C 
HETATM   18  O5  UNL     1     -14.857  -6.366  12.729  1.00  0.00    -0.287 OA
HETATM   19  C21 UNL     1     -14.215  -5.191  10.829  1.00  0.00     0.046 A 
HETATM   20  C22 UNL     1     -14.182  -3.930  10.240  1.00  0.00     0.032 A 
HETATM   21  C23 UNL     1     -13.970  -3.777   8.860  1.00  0.00     0.026 A 
HETATM   22  C24 UNL     1     -13.821  -4.893   8.034  1.00  0.00    -0.027 A 
HETATM   23  C25 UNL     1     -13.649  -4.720   6.552  1.00  0.00     0.051 C 
HETATM   24  C26 UNL     1     -13.898  -6.160   8.613  1.00  0.00     0.086 A 
HETATM   25  C27 UNL     1     -14.047  -6.322  10.006  1.00  0.00     0.059 A 
HETATM   26  C28 UNL     1     -14.017  -7.724  10.491  1.00  0.00     0.163 C 
HETATM   27  O7  UNL     1     -14.745  -8.529   9.910  1.00  0.00    -0.292 OA
HETATM   28  C29 UNL     1     -12.940  -8.146  11.472  1.00  0.00     0.084 C 
HETATM   29  C30 UNL     1     -13.445  -9.277  12.374  1.00  0.00     0.016 C 
HETATM   30  C31 UNL     1     -14.400  -2.726  11.049  1.00  0.00     0.210 C 
HETATM   31  O8  UNL     1     -14.417  -1.613  10.529  1.00  0.00    -0.285 OA
HETATM   32  H24 UNL     1     -14.596  -0.833  12.536  1.00  0.00     0.169 HD
ENDROOT
BRANCH   4  33
HETATM   33  C7  UNL     1     -12.766  -7.698  17.014  1.00  0.00     0.174 C 
BRANCH  33  34
HETATM   34  O1  UNL     1     -14.019  -7.513  17.683  1.00  0.00    -0.389 OA
HETATM   35  H11 UNL     1     -14.740  -7.681  17.042  1.00  0.00     0.210 HD
ENDBRANCH  33  34
BRANCH  33  36
HETATM   36  C8  UNL     1     -12.270  -9.053  17.444  1.00  0.00     0.009 C 
HETATM   37  C9  UNL     1     -11.048  -9.400  17.897  1.00  0.00    -0.089 C 
HETATM   38  C10 UNL     1     -10.745 -10.834  18.249  1.00  0.00     0.042 C 
HETATM   39  C11 UNL     1      -9.895  -8.457  18.114  1.00  0.00     0.042 C 
ENDBRANCH  33  36
ENDBRANCH   4  33
BRANCH   1  40
HETATM   40  C2  UNL     1     -11.747 -11.175  12.752  1.00  0.00     0.004 C 
HETATM   41  C1  UNL     1     -12.006 -12.471  13.509  1.00  0.00     0.006 C 
ENDBRANCH   1  40
BRANCH  24  42
HETATM   42  O6  UNL     1     -13.831  -7.238   7.764  1.00  0.00    -0.359 OA
HETATM   43  H29 UNL     1     -14.239  -8.016   8.210  1.00  0.00     0.217 HD
ENDBRANCH  24  42
TORSDOF 5
ENDMDL
MODEL 2
REMARK minimizedAffinity -6.70984745
REMARK CNNscore 0.211789608
REMARK CNNaffinity 5.82580137
REMARK  5 active torsions:
REMARK  status: ('A' for Active; 'I' for Inactive)
REMARK    1  A    between atoms: C2_2  and  C3_3 
REMARK    2  A    between atoms: C6_6  and  C7_7 
REMARK    3  A    between atoms: C7_7  and  O1_8 
REMARK    4  A    between atoms: C7_7  and  C8_9 
REMARK    5  A    between atoms: C26_32  and  O6_33 
ROOT
HETATM    1  C3  UNL     1      13.339  -5.457   5.517  1.00  0.00     0.008 C 
HETATM    2  C4  UNL     1      13.006  -3.984   5.600  1.00  0.00    -0.023 C 
HETATM    3  C5  UNL     1      13.592  -2.987   4.917  1.00  0.00     0.005 C 
HETATM    4  C6  UNL     1      14.744  -3.074   3.941  1.00  0.00     0.187 C 
HETATM    5  O2  UNL     1      15.771  -2.258   4.549  1.00  0.00    -0.308 OA
HETATM    6  C12 UNL     1      17.052  -2.460   4.122  1.00  0.00     0.276 C 
HETATM    7  O3  UNL     1      17.356  -3.267   3.248  1.00  0.00    -0.264 OA
HETATM    8  C13 UNL     1      18.045  -1.521   4.895  1.00  0.00     0.095 C 
HETATM    9  C14 UNL     1      17.311  -0.152   5.022  1.00  0.00     0.036 C 
HETATM   10  C15 UNL     1      19.265  -1.322   4.009  1.00  0.00     0.003 C 
HETATM   11  C16 UNL     1      20.353  -0.596   4.304  1.00  0.00     0.072 C 
HETATM   12  C17 UNL     1      20.595   0.158   5.551  1.00  0.00     0.245 C 
HETATM   13  O4  UNL     1      21.343   1.131   5.516  1.00  0.00    -0.268 OA
HETATM   14  N1  UNL     1      20.077  -0.268   6.735  1.00  0.00    -0.320 N 
HETATM   15  C18 UNL     1      19.313  -1.363   7.084  1.00  0.00     0.098 C 
HETATM   16  C19 UNL     1      18.461  -2.030   6.283  1.00  0.00     0.045 C 
HETATM   17  C20 UNL     1      17.898  -3.321   6.791  1.00  0.00     0.194 C 
HETATM   18  O5  UNL     1      17.453  -4.156   6.019  1.00  0.00    -0.287 OA
HETATM   19  C21 UNL     1      17.929  -3.643   8.235  1.00  0.00     0.046 A 
HETATM   20  C22 UNL     1      18.734  -2.869   9.065  1.00  0.00     0.032 A 
HETATM   21  C23 UNL     1      18.871  -3.168  10.431  1.00  0.00     0.026 A 
HETATM   22  C24 UNL     1      18.226  -4.276  10.986  1.00  0.00    -0.027 A 
HETATM   23  C25 UNL     1      18.423  -4.618  12.436  1.00  0.00     0.051 C 
HETATM   24  C26 UNL     1      17.454  -5.081  10.148  1.00  0.00     0.086 A 
HETATM   25  C27 UNL     1      17.261  -4.752   8.790  1.00  0.00     0.059 A 
HETATM   26  C28 UNL     1      16.338  -5.644   8.045  1.00  0.00     0.163 C 
HETATM   27  O7  UNL     1      16.535  -6.855   8.144  1.00  0.00    -0.292 OA
HETATM   28  C29 UNL     1      15.082  -5.061   7.426  1.00  0.00     0.084 C 
HETATM   29  C30 UNL     1      14.679  -5.851   6.177  1.00  0.00     0.016 C 
HETATM   30  C31 UNL     1      19.489  -1.734   8.523  1.00  0.00     0.210 C 
HETATM   31  O8  UNL     1      20.235  -1.074   9.240  1.00  0.00    -0.285 OA
HETATM   32  H24 UNL     1      20.522   0.206   7.523  1.00  0.00     0.169 HD
ENDROOT
BRANCH   4  33
HETATM   33  C7  UNL     1      14.342  -2.520   2.533  1.00  0.00     0.174 C 
BRANCH  33  34
HETATM   34  O1  UNL     1      15.286  -1.579   2.010  1.00  0.00    -0.389 OA
HETATM   35  H11 UNL     1      16.144  -1.715   2.463  1.00  0.00     0.210 HD
ENDBRANCH  33  34
BRANCH  33  36
HETATM   36  C8  UNL     1      14.241  -3.613   1.501  1.00  0.00     0.009 C 
HETATM   37  C9  UNL     1      14.982  -3.796   0.390  1.00  0.00    -0.089 C 
HETATM   38  C10 UNL     1      14.695  -4.951  -0.536  1.00  0.00     0.042 C 
HETATM   39  C11 UNL     1      16.137  -2.933  -0.044  1.00  0.00     0.042 C 
ENDBRANCH  33  36
ENDBRANCH   4  33
BRANCH   1  40
HETATM   40  C2  UNL     1      12.156  -6.335   5.991  1.00  0.00     0.004 C 
HETATM   41  C1  UNL     1      11.260  -5.729   7.062  1.00  0.00     0.006 C 
ENDBRANCH   1  40
BRANCH  24  42
HETATM   42  O6  UNL     1      16.901  -6.208  10.704  1.00  0.00    -0.359 OA
HETATM   43  H29 UNL     1      16.699  -6.848   9.983  1.00  0.00     0.217 HD
ENDBRANCH  24  42
TORSDOF 5
ENDMDL
MODEL 3
REMARK minimizedAffinity -7.65157604
REMARK CNNscore 0.211436749
REMARK CNNaffinity 5.48123884
REMARK  5 active torsions:
REMARK  status: ('A' for Active; 'I' for Inactive)
REMARK    1  A    between atoms: C2_2  and  C3_3 
REMARK    2  A    between atoms: C6_6  and  C7_7 
REMARK    3  A    between atoms: C7_7  and  O1_8 
REMARK    4  A    between atoms: C7_7  and  C8_9 
REMARK    5  A    between atoms: C26_32  and  O6_33 
ROOT
HETATM    1  C3  UNL     1      13.175  -5.937   7.112  1.00  0.00     0.008 C 
HETATM    2  C4  UNL     1      12.083  -6.106   6.080  1.00  0.00    -0.023 C 
HETATM    3  C5  UNL     1      12.114  -6.900   4.997  1.00  0.00     0.005 C 
HETATM    4  C6  UNL     1      13.247  -7.779   4.516  1.00  0.00     0.187 C 
HETATM    5  O2  UNL     1      13.565  -7.245   3.211  1.00  0.00    -0.308 OA
HETATM    6  C12 UNL     1      14.791  -7.557   2.698  1.00  0.00     0.276 C 
HETATM    7  O3  UNL     1      15.604  -8.274   3.276  1.00  0.00    -0.264 OA
HETATM    8  C13 UNL     1      14.991  -6.882   1.295  1.00  0.00     0.095 C 
HETATM    9  C14 UNL     1      13.618  -7.015   0.569  1.00  0.00     0.036 C 
HETATM   10  C15 UNL     1      16.010  -7.713   0.532  1.00  0.00     0.003 C 
HETATM   11  C16 UNL     1      16.471  -7.470  -0.703  1.00  0.00     0.072 C 
HETATM   12  C17 UNL     1      16.087  -6.345  -1.579  1.00  0.00     0.245 C 
HETATM   13  O4  UNL     1      16.176  -6.486  -2.796  1.00  0.00    -0.268 OA
HETATM   14  N1  UNL     1      15.729  -5.142  -1.052  1.00  0.00    -0.320 N 
HETATM   15  C18 UNL     1      15.650  -4.672   0.243  1.00  0.00     0.098 C 
HETATM   16  C19 UNL     1      15.422  -5.409   1.346  1.00  0.00     0.045 C 
HETATM   17  C20 UNL     1      15.594  -4.740   2.675  1.00  0.00     0.194 C 
HETATM   18  O5  UNL     1      15.790  -5.397   3.686  1.00  0.00    -0.287 OA
HETATM   19  C21 UNL     1      15.598  -3.264   2.783  1.00  0.00     0.046 A 
HETATM   20  C22 UNL     1      15.725  -2.518   1.615  1.00  0.00     0.032 A 
HETATM   21  C23 UNL     1      15.814  -1.117   1.653  1.00  0.00     0.026 A 
HETATM   22  C24 UNL     1      15.812  -0.435   2.872  1.00  0.00    -0.027 A 
HETATM   23  C25 UNL     1      15.962   1.059   2.904  1.00  0.00     0.051 C 
HETATM   24  C26 UNL     1      15.730  -1.182   4.048  1.00  0.00     0.086 A 
HETATM   25  C27 UNL     1      15.577  -2.584   4.017  1.00  0.00     0.059 A 
HETATM   26  C28 UNL     1      15.406  -3.235   5.339  1.00  0.00     0.163 C 
HETATM   27  O7  UNL     1      16.218  -2.936   6.216  1.00  0.00    -0.292 OA
HETATM   28  C29 UNL     1      14.135  -4.011   5.624  1.00  0.00     0.084 C 
HETATM   29  C30 UNL     1      14.406  -5.144   6.620  1.00  0.00     0.016 C 
HETATM   30  C31 UNL     1      15.801  -3.185   0.311  1.00  0.00     0.210 C 
HETATM   31  O8  UNL     1      15.957  -2.536  -0.720  1.00  0.00    -0.285 OA
HETATM   32  H24 UNL     1      15.730  -4.412  -1.767  1.00  0.00     0.169 HD
ENDROOT
BRANCH   4  33
HETATM   33  C7  UNL     1      12.805  -9.278   4.421  1.00  0.00     0.174 C 
BRANCH  33  34
HETATM   34  O1  UNL     1      13.146 -10.038   5.585  1.00  0.00    -0.389 OA
HETATM   35  H11 UNL     1      13.279  -9.419   6.333  1.00  0.00     0.210 HD
ENDBRANCH  33  34
BRANCH  33  36
HETATM   36  C8  UNL     1      11.314  -9.420   4.262  1.00  0.00     0.009 C 
HETATM   37  C9  UNL     1      10.624 -10.341   3.560  1.00  0.00    -0.089 C 
HETATM   38  C10 UNL     1       9.118 -10.287   3.506  1.00  0.00     0.042 C 
HETATM   39  C11 UNL     1      11.226 -11.488   2.794  1.00  0.00     0.042 C 
ENDBRANCH  33  36
ENDBRANCH   4  33
BRANCH   1  40
HETATM   40  C2  UNL     1      12.615  -5.403   8.452  1.00  0.00     0.004 C 
HETATM   41  C1  UNL     1      11.690  -6.343   9.212  1.00  0.00     0.006 C 
ENDBRANCH   1  40
BRANCH  24  42
HETATM   42  O6  UNL     1      15.814  -0.491   5.232  1.00  0.00    -0.359 OA
HETATM   43  H29 UNL     1      16.097  -1.114   5.941  1.00  0.00     0.217 HD
ENDBRANCH  24  42
TORSDOF 5
ENDMDL
MODEL 4
REMARK minimizedAffinity -6.84749413
REMARK CNNscore 0.208552897
REMARK CNNaffinity 5.47499704
REMARK  5 active torsions:
REMARK  status: ('A' for Active; 'I' for Inactive)
REMARK    1  A    between atoms: C2_2  and  C3_3 
REMARK    2  A    between atoms: C6_6  and  C7_7 
REMARK    3  A    between atoms: C7_7  and  O1_8 
REMARK    4  A    between atoms: C7_7  and  C8_9 
REMARK    5  A    between atoms: C26_32  and  O6_33 
ROOT
HETATM    1  C3  UNL     1      -4.694 -10.543   7.035  1.00  0.00     0.008 C 
HETATM    2  C4  UNL     1      -5.170  -9.170   7.451  1.00  0.00    -0.023 C 
HETATM    3  C5  UNL     1      -6.324  -8.872   8.072  1.00  0.00     0.005 C 
HETATM    4  C6  UNL     1      -7.441  -9.811   8.466  1.00  0.00     0.187 C 
HETATM    5  O2  UNL     1      -8.580  -9.319   7.724  1.00  0.00    -0.308 OA
HETATM    6  C12 UNL     1      -9.624 -10.181   7.552  1.00  0.00     0.276 C 
HETATM    7  O3  UNL     1      -9.645 -11.320   8.012  1.00  0.00    -0.264 OA
HETATM    8  C13 UNL     1     -10.764  -9.507   6.708  1.00  0.00     0.095 C 
HETATM    9  C14 UNL     1     -10.845  -8.036   7.216  1.00  0.00     0.036 C 
HETATM   10  C15 UNL     1     -12.067 -10.203   7.065  1.00  0.00     0.003 C 
HETATM   11  C16 UNL     1     -13.278  -9.937   6.555  1.00  0.00     0.072 C 
HETATM   12  C17 UNL     1     -13.598  -8.914   5.539  1.00  0.00     0.245 C 
HETATM   13  O4  UNL     1     -14.730  -8.439   5.515  1.00  0.00    -0.268 OA
HETATM   14  N1  UNL     1     -12.688  -8.570   4.586  1.00  0.00    -0.320 N 
HETATM   15  C18 UNL     1     -11.411  -9.010   4.307  1.00  0.00     0.098 C 
HETATM   16  C19 UNL     1     -10.536  -9.530   5.189  1.00  0.00     0.045 C 
HETATM   17  C20 UNL     1      -9.286 -10.149   4.643  1.00  0.00     0.194 C 
HETATM   18  O5  UNL     1      -8.653 -10.963   5.298  1.00  0.00    -0.287 OA
HETATM   19  C21 UNL     1      -8.827  -9.839   3.271  1.00  0.00     0.046 A 
HETATM   20  C22 UNL     1      -9.713  -9.200   2.408  1.00  0.00     0.032 A 
HETATM   21  C23 UNL     1      -9.369  -8.947   1.070  1.00  0.00     0.026 A 
HETATM   22  C24 UNL     1      -8.138  -9.363   0.558  1.00  0.00    -0.027 A 
HETATM   23  C25 UNL     1      -7.803  -9.135  -0.888  1.00  0.00     0.051 C 
HETATM   24  C26 UNL     1      -7.265 -10.044   1.408  1.00  0.00     0.086 A 
HETATM   25  C27 UNL     1      -7.575 -10.246   2.769  1.00  0.00     0.059 A 
HETATM   26  C28 UNL     1      -6.513 -10.900   3.573  1.00  0.00     0.163 C 
HETATM   27  O7  UNL     1      -6.021 -11.930   3.112  1.00  0.00    -0.292 OA
HETATM   28  C29 UNL     1      -5.918 -10.160   4.756  1.00  0.00     0.084 C 
HETATM   29  C30 UNL     1      -5.447 -11.147   5.829  1.00  0.00     0.016 C 
HETATM   30  C31 UNL     1     -11.046  -8.802   2.872  1.00  0.00     0.210 C 
HETATM   31  O8  UNL     1     -11.848  -8.277   2.104  1.00  0.00    -0.285 OA
HETATM   32  H24 UNL     1     -13.130  -8.046   3.829  1.00  0.00     0.169 HD
ENDROOT
BRANCH   4  33
HETATM   33  C7  UNL     1      -7.709  -9.765  10.008  1.00  0.00     0.174 C 
BRANCH  33  34
HETATM   34  O1  UNL     1      -9.097  -9.634  10.332  1.00  0.00    -0.389 OA
HETATM   35  H11 UNL     1      -9.626  -9.933   9.564  1.00  0.00     0.210 HD
ENDBRANCH  33  34
BRANCH  33  36
HETATM   36  C8  UNL     1      -7.243 -11.018  10.701  1.00  0.00     0.009 C 
HETATM   37  C9  UNL     1      -7.100 -11.248  12.022  1.00  0.00    -0.089 C 
HETATM   38  C10 UNL     1      -6.585 -12.577  12.512  1.00  0.00     0.042 C 
HETATM   39  C11 UNL     1      -7.429 -10.274  13.121  1.00  0.00     0.042 C 
ENDBRANCH  33  36
ENDBRANCH   4  33
BRANCH   1  40
HETATM   40  C2  UNL     1      -3.156 -10.585   6.862  1.00  0.00     0.004 C 
HETATM   41  C1  UNL     1      -2.562 -11.934   6.482  1.00  0.00     0.006 C 
ENDBRANCH   1  40
BRANCH  24  42
HETATM   42  O6  UNL     1      -6.098 -10.513   0.856  1.00  0.00    -0.359 OA
HETATM   43  H29 UNL     1      -5.756 -11.246   1.418  1.00  0.00     0.217 HD
ENDBRANCH  24  42
TORSDOF 5
ENDMDL
MODEL 5
REMARK minimizedAffinity -6.79884529
REMARK CNNscore 0.195156232
REMARK CNNaffinity 5.56715345
REMARK  5 active torsions:
REMARK  status: ('A' for Active; 'I' for Inactive)
REMARK    1  A    between atoms: C2_2  and  C3_3 
REMARK    2  A    between atoms: C6_6  and  C7_7 
REMARK    3  A    between atoms: C7_7  and  O1_8 
REMARK    4  A    between atoms: C7_7  and  C8_9 
REMARK    5  A    between atoms: C26_32  and  O6_33 
ROOT
HETATM    1  C3  UNL     1      13.476 -10.011   3.273  1.00  0.00     0.008 C 
HETATM    2  C4  UNL     1      14.690  -9.485   4.005  1.00  0.00    -0.023 C 
HETATM    3  C5  UNL     1      14.741  -8.408   4.807  1.00  0.00     0.005 C 
HETATM    4  C6  UNL     1      13.630  -7.439   5.142  1.00  0.00     0.187 C 
HETATM    5  O2  UNL     1      14.123  -6.170   4.655  1.00  0.00    -0.308 OA
HETATM    6  C12 UNL     1      13.198  -5.188   4.446  1.00  0.00     0.276 C 
HETATM    7  O3  UNL     1      11.999  -5.328   4.672  1.00  0.00    -0.264 OA
HETATM    8  C13 UNL     1      13.887  -3.890   3.894  1.00  0.00     0.095 C 
HETATM    9  C14 UNL     1      15.222  -3.757   4.687  1.00  0.00     0.036 C 
HETATM   10  C15 UNL     1      12.999  -2.712   4.263  1.00  0.00     0.003 C 
HETATM   11  C16 UNL     1      13.221  -1.424   3.966  1.00  0.00     0.072 C 
HETATM   12  C17 UNL     1      14.371  -0.880   3.216  1.00  0.00     0.245 C 
HETATM   13  O4  UNL     1      14.717   0.280   3.424  1.00  0.00    -0.268 OA
HETATM   14  N1  UNL     1      14.982  -1.616   2.247  1.00  0.00    -0.320 N 
HETATM   15  C18 UNL     1      14.742  -2.874   1.734  1.00  0.00     0.098 C 
HETATM   16  C19 UNL     1      14.168  -3.904   2.384  1.00  0.00     0.045 C 
HETATM   17  C20 UNL     1      13.799  -5.112   1.579  1.00  0.00     0.194 C 
HETATM   18  O5  UNL     1      12.953  -5.897   1.981  1.00  0.00    -0.287 OA
HETATM   19  C21 UNL     1      14.403  -5.348   0.250  1.00  0.00     0.046 A 
HETATM   20  C22 UNL     1      15.090  -4.300  -0.357  1.00  0.00     0.032 A 
HETATM   21  C23 UNL     1      15.620  -4.430  -1.651  1.00  0.00     0.026 A 
HETATM   22  C24 UNL     1      15.441  -5.609  -2.380  1.00  0.00    -0.027 A 
HETATM   23  C25 UNL     1      15.966  -5.718  -3.783  1.00  0.00     0.051 C 
HETATM   24  C26 UNL     1      14.715  -6.646  -1.792  1.00  0.00     0.086 A 
HETATM   25  C27 UNL     1      14.234  -6.547  -0.471  1.00  0.00     0.059 A 
HETATM   26  C28 UNL     1      13.564  -7.762   0.055  1.00  0.00     0.163 C 
HETATM   27  O7  UNL     1      12.696  -8.270  -0.655  1.00  0.00    -0.292 OA
HETATM   28  C29 UNL     1      14.136  -8.452   1.279  1.00  0.00     0.084 C 
HETATM   29  C30 UNL     1      13.025  -9.150   2.072  1.00  0.00     0.016 C 
HETATM   30  C31 UNL     1      15.249  -3.016   0.334  1.00  0.00     0.210 C 
HETATM   31  O8  UNL     1      15.814  -2.073  -0.213  1.00  0.00    -0.285 OA
HETATM   32  H24 UNL     1      15.584  -1.030   1.666  1.00  0.00     0.169 HD
ENDROOT
BRANCH   4  33
HETATM   33  C7  UNL     1      13.364  -7.387   6.684  1.00  0.00     0.174 C 
BRANCH  33  34
HETATM   34  O1  UNL     1      13.564  -8.648   7.332  1.00  0.00    -0.389 OA
HETATM   35  H11 UNL     1      14.141  -9.200   6.764  1.00  0.00     0.210 HD
ENDBRANCH  33  34
BRANCH  33  36
HETATM   36  C8  UNL     1      14.280  -6.417   7.384  1.00  0.00     0.009 C 
HETATM   37  C9  UNL     1      14.003  -5.582   8.406  1.00  0.00    -0.089 C 
HETATM   38  C10 UNL     1      15.067  -4.661   8.947  1.00  0.00     0.042 C 
HETATM   39  C11 UNL     1      12.679  -5.474   9.114  1.00  0.00     0.042 C 
ENDBRANCH  33  36
ENDBRANCH   4  33
BRANCH   1  40
HETATM   40  C2  UNL     1      13.635 -11.507   2.910  1.00  0.00     0.004 C 
HETATM   41  C1  UNL     1      14.445 -12.350   3.886  1.00  0.00     0.006 C 
ENDBRANCH   1  40
BRANCH  24  42
HETATM   42  O6  UNL     1      14.485  -7.759  -2.564  1.00  0.00    -0.359 OA
HETATM   43  H29 UNL     1      13.704  -8.237  -2.201  1.00  0.00     0.217 HD
ENDBRANCH  24  42
TORSDOF 5
ENDMDL
MODEL 6
REMARK minimizedAffinity -7.01229095
REMARK CNNscore 0.171787471
REMARK CNNaffinity 5.26079512
REMARK  5 active torsions:
REMARK  status: ('A' for Active; 'I' for Inactive)
REMARK    1  A    between atoms: C2_2  and  C3_3 
REMARK    2  A    between atoms: C6_6  and  C7_7 
REMARK    3  A    between atoms: C7_7  and  O1_8 
REMARK    4  A    between atoms: C7_7  and  C8_9 
REMARK    5  A    between atoms: C26_32  and  O6_33 
ROOT
HETATM    1  C3  UNL     1     -16.745  -4.119  11.459  1.00  0.00     0.008 C 
HETATM    2  C4  UNL     1     -15.542  -3.223  11.271  1.00  0.00    -0.023 C 
HETATM    3  C5  UNL     1     -14.936  -2.481  12.214  1.00  0.00     0.005 C 
HETATM    4  C6  UNL     1     -15.322  -2.322  13.667  1.00  0.00     0.187 C 
HETATM    5  O2  UNL     1     -15.599  -0.908  13.794  1.00  0.00    -0.308 OA
HETATM    6  C12 UNL     1     -16.351  -0.521  14.866  1.00  0.00     0.276 C 
HETATM    7  O3  UNL     1     -16.770  -1.301  15.717  1.00  0.00    -0.264 OA
HETATM    8  C13 UNL     1     -16.583   1.031  14.846  1.00  0.00     0.095 C 
HETATM    9  C14 UNL     1     -15.228   1.650  14.387  1.00  0.00     0.036 C 
HETATM   10  C15 UNL     1     -16.843   1.472  16.277  1.00  0.00     0.003 C 
HETATM   11  C16 UNL     1     -17.102   2.720  16.692  1.00  0.00     0.072 C 
HETATM   12  C17 UNL     1     -17.191   3.927  15.845  1.00  0.00     0.245 C 
HETATM   13  O4  UNL     1     -16.944   5.020  16.347  1.00  0.00    -0.268 OA
HETATM   14  N1  UNL     1     -17.626   3.845  14.558  1.00  0.00    -0.320 N 
HETATM   15  C18 UNL     1     -18.067   2.792  13.783  1.00  0.00     0.098 C 
HETATM   16  C19 UNL     1     -17.717   1.499  13.920  1.00  0.00     0.045 C 
HETATM   17  C20 UNL     1     -18.477   0.486  13.120  1.00  0.00     0.194 C 
HETATM   18  O5  UNL     1     -18.503  -0.687  13.459  1.00  0.00    -0.287 OA
HETATM   19  C21 UNL     1     -19.269   0.895  11.940  1.00  0.00     0.046 A 
HETATM   20  C22 UNL     1     -19.526   2.251  11.757  1.00  0.00     0.032 A 
HETATM   21  C23 UNL     1     -20.336   2.702  10.701  1.00  0.00     0.026 A 
HETATM   22  C24 UNL     1     -20.936   1.794   9.825  1.00  0.00    -0.027 A 
HETATM   23  C25 UNL     1     -21.843   2.284   8.733  1.00  0.00     0.051 C 
HETATM   24  C26 UNL     1     -20.717   0.432  10.032  1.00  0.00     0.086 A 
HETATM   25  C27 UNL     1     -19.855  -0.026  11.050  1.00  0.00     0.059 A 
HETATM   26  C28 UNL     1     -19.643  -1.494  11.091  1.00  0.00     0.163 C 
HETATM   27  O7  UNL     1     -20.649  -2.203  11.064  1.00  0.00    -0.292 OA
HETATM   28  C29 UNL     1     -18.242  -2.046  10.908  1.00  0.00     0.084 C 
HETATM   29  C30 UNL     1     -18.080  -3.369  11.664  1.00  0.00     0.016 C 
HETATM   30  C31 UNL     1     -18.978   3.244  12.687  1.00  0.00     0.210 C 
HETATM   31  O8  UNL     1     -19.237   4.438  12.556  1.00  0.00    -0.285 OA
HETATM   32  H24 UNL     1     -17.861   4.768  14.190  1.00  0.00     0.169 HD
ENDROOT
BRANCH   4  33
HETATM   33  C7  UNL     1     -14.157  -2.757  14.618  1.00  0.00     0.174 C 
BRANCH  33  34
HETATM   34  O1  UNL     1     -14.617  -3.232  15.888  1.00  0.00    -0.389 OA
HETATM   35  H11 UNL     1     -15.553  -3.507  15.796  1.00  0.00     0.210 HD
ENDBRANCH  33  34
BRANCH  33  36
HETATM   36  C8  UNL     1     -13.338  -3.878  14.034  1.00  0.00     0.009 C 
HETATM   37  C9  UNL     1     -13.674  -5.174  13.873  1.00  0.00    -0.089 C 
HETATM   38  C10 UNL     1     -12.686  -6.150  13.288  1.00  0.00     0.042 C 
HETATM   39  C11 UNL     1     -15.007  -5.782  14.219  1.00  0.00     0.042 C 
ENDBRANCH  33  36
ENDBRANCH   4  33
BRANCH   1  40
HETATM   40  C2  UNL     1     -16.829  -5.198  10.352  1.00  0.00     0.004 C 
HETATM   41  C1  UNL     1     -15.575  -5.393   9.512  1.00  0.00     0.006 C 
ENDBRANCH   1  40
BRANCH  24  42
HETATM   42  O6  UNL     1     -21.386  -0.438   9.206  1.00  0.00    -0.359 OA
HETATM   43  H29 UNL     1     -21.440  -1.316   9.651  1.00  0.00     0.217 HD
ENDBRANCH  24  42
TORSDOF 5
ENDMDL
MODEL 7
REMARK minimizedAffinity -7.89295053
REMARK CNNscore 0.166089833
REMARK CNNaffinity 5.47383833
REMARK  5 active torsions:
REMARK  status: ('A' for Active; 'I' for Inactive)
REMARK    1  A    between atoms: C2_2  and  C3_3 
REMARK    2  A    between atoms: C6_6  and  C7_7 
REMARK    3  A    between atoms: C7_7  and  O1_8 
REMARK    4  A    between atoms: C7_7  and  C8_9 
REMARK    5  A    between atoms: C26_32  and  O6_33 
ROOT
HETATM    1  C3  UNL     1      -2.280 -11.260   2.753  1.00  0.00     0.008 C 
HETATM    2  C4  UNL     1      -2.594  -9.982   3.497  1.00  0.00    -0.023 C 
HETATM    3  C5  UNL     1      -3.539  -9.809   4.437  1.00  0.00     0.005 C 
HETATM    4  C6  UNL     1      -4.541 -10.819   4.949  1.00  0.00     0.187 C 
HETATM    5  O2  UNL     1      -5.820 -10.230   4.621  1.00  0.00    -0.308 OA
HETATM    6  C12 UNL     1      -6.896 -11.069   4.588  1.00  0.00     0.276 C 
HETATM    7  O3  UNL     1      -6.828 -12.268   4.844  1.00  0.00    -0.264 OA
HETATM    8  C13 UNL     1      -8.197 -10.284   4.191  1.00  0.00     0.095 C 
HETATM    9  C14 UNL     1      -8.103  -8.919   4.936  1.00  0.00     0.036 C 
HETATM   10  C15 UNL     1      -9.381 -11.050   4.756  1.00  0.00     0.003 C 
HETATM   11  C16 UNL     1     -10.675 -10.723   4.630  1.00  0.00     0.072 C 
HETATM   12  C17 UNL     1     -11.220  -9.553   3.913  1.00  0.00     0.245 C 
HETATM   13  O4  UNL     1     -12.305  -9.099   4.263  1.00  0.00    -0.268 OA
HETATM   14  N1  UNL     1     -10.579  -9.041   2.826  1.00  0.00    -0.320 N 
HETATM   15  C18 UNL     1      -9.430  -9.408   2.157  1.00  0.00     0.098 C 
HETATM   16  C19 UNL     1      -8.371 -10.052   2.682  1.00  0.00     0.045 C 
HETATM   17  C20 UNL     1      -7.323 -10.552   1.736  1.00  0.00     0.194 C 
HETATM   18  O5  UNL     1      -6.564 -11.452   2.062  1.00  0.00    -0.287 OA
HETATM   19  C21 UNL     1      -7.227 -10.012   0.362  1.00  0.00     0.046 A 
HETATM   20  C22 UNL     1      -8.289  -9.254  -0.124  1.00  0.00     0.032 A 
HETATM   21  C23 UNL     1      -8.297  -8.778  -1.445  1.00  0.00     0.026 A 
HETATM   22  C24 UNL     1      -7.252  -9.084  -2.320  1.00  0.00    -0.027 A 
HETATM   23  C25 UNL     1      -7.298  -8.615  -3.747  1.00  0.00     0.051 C 
HETATM   24  C26 UNL     1      -6.208  -9.881  -1.850  1.00  0.00     0.086 A 
HETATM   25  C27 UNL     1      -6.160 -10.310  -0.508  1.00  0.00     0.059 A 
HETATM   26  C28 UNL     1      -4.944 -11.070  -0.126  1.00  0.00     0.163 C 
HETATM   27  O7  UNL     1      -4.616 -12.002  -0.861  1.00  0.00    -0.292 OA
HETATM   28  C29 UNL     1      -4.042 -10.525   0.965  1.00  0.00     0.084 C 
HETATM   29  C30 UNL     1      -3.337 -11.669   1.703  1.00  0.00     0.016 C 
HETATM   30  C31 UNL     1      -9.444  -8.960   0.730  1.00  0.00     0.210 C 
HETATM   31  O8  UNL     1     -10.404  -8.329   0.294  1.00  0.00    -0.285 OA
HETATM   32  H24 UNL     1     -11.188  -8.406   2.306  1.00  0.00     0.169 HD
ENDROOT
BRANCH   4  33
HETATM   33  C7  UNL     1      -4.399 -11.032   6.494  1.00  0.00     0.174 C 
BRANCH  33  34
HETATM   34  O1  UNL     1      -3.090 -10.723   6.985  1.00  0.00    -0.389 OA
HETATM   35  H11 UNL     1      -2.647 -10.132   6.340  1.00  0.00     0.210 HD
ENDBRANCH  33  34
BRANCH  33  36
HETATM   36  C8  UNL     1      -5.344 -10.158   7.276  1.00  0.00     0.009 C 
HETATM   37  C9  UNL     1      -5.321  -9.852   8.588  1.00  0.00    -0.089 C 
HETATM   38  C10 UNL     1      -6.391  -8.973   9.185  1.00  0.00     0.042 C 
HETATM   39  C11 UNL     1      -4.278 -10.305   9.574  1.00  0.00     0.042 C 
ENDBRANCH  33  36
ENDBRANCH   4  33
BRANCH   1  40
HETATM   40  C2  UNL     1      -0.842 -11.247   2.181  1.00  0.00     0.004 C 
HETATM   41  C1  UNL     1      -0.215 -12.608   1.917  1.00  0.00     0.006 C 
ENDBRANCH   1  40
BRANCH  24  42
HETATM   42  O6  UNL     1      -5.238 -10.234  -2.757  1.00  0.00    -0.359 OA
HETATM   43  H29 UNL     1      -4.781 -11.043  -2.430  1.00  0.00     0.217 HD
ENDBRANCH  24  42
TORSDOF 5
ENDMDL
MODEL 8
REMARK minimizedAffinity -6.78452635
REMARK CNNscore 0.153597057
REMARK CNNaffinity 5.30965376
REMARK  5 active torsions:
REMARK  status: ('A' for Active; 'I' for Inactive)
REMARK    1  A    between atoms: C2_2  and  C3_3 
REMARK    2  A    between atoms: C6_6  and  C7_7 
REMARK    3  A    between atoms: C7_7  and  O1_8 
REMARK    4  A    between atoms: C7_7  and  C8_9 
REMARK    5  A    between atoms: C26_32  and  O6_33 
ROOT
HETATM    1  C3  UNL     1       4.381  14.459   1.545  1.00  0.00     0.008 C 
HETATM    2  C4  UNL     1       3.886  15.691   2.267  1.00  0.00    -0.023 C 
HETATM    3  C5  UNL     1       2.752  15.805   2.980  1.00  0.00     0.005 C 
HETATM    4  C6  UNL     1       1.679  14.762   3.200  1.00  0.00     0.187 C 
HETATM    5  O2  UNL     1       0.496  15.361   2.626  1.00  0.00    -0.308 OA
HETATM    6  C12 UNL     1      -0.531  14.519   2.308  1.00  0.00     0.276 C 
HETATM    7  O3  UNL     1      -0.499  13.308   2.509  1.00  0.00    -0.264 OA
HETATM    8  C13 UNL     1      -1.724  15.317   1.673  1.00  0.00     0.095 C 
HETATM    9  C14 UNL     1      -1.825  16.639   2.492  1.00  0.00     0.036 C 
HETATM   10  C15 UNL     1      -2.991  14.513   1.917  1.00  0.00     0.003 C 
HETATM   11  C16 UNL     1      -4.230  14.839   1.522  1.00  0.00     0.072 C 
HETATM   12  C17 UNL     1      -4.622  16.045   0.766  1.00  0.00     0.245 C 
HETATM   13  O4  UNL     1      -5.767  16.472   0.887  1.00  0.00    -0.268 OA
HETATM   14  N1  UNL     1      -3.765  16.621  -0.121  1.00  0.00    -0.320 N 
HETATM   15  C18 UNL     1      -2.489  16.299  -0.536  1.00  0.00     0.098 C 
HETATM   16  C19 UNL     1      -1.562  15.632   0.178  1.00  0.00     0.045 C 
HETATM   17  C20 UNL     1      -0.321  15.193  -0.535  1.00  0.00     0.194 C 
HETATM   18  O5  UNL     1       0.363  14.280  -0.096  1.00  0.00    -0.287 OA
HETATM   19  C21 UNL     1       0.070  15.809  -1.822  1.00  0.00     0.046 A 
HETATM   20  C22 UNL     1      -0.871  16.587  -2.491  1.00  0.00     0.032 A 
HETATM   21  C23 UNL     1      -0.593  17.137  -3.754  1.00  0.00     0.026 A 
HETATM   22  C24 UNL     1       0.626  16.887  -4.388  1.00  0.00    -0.027 A 
HETATM   23  C25 UNL     1       0.892  17.435  -5.761  1.00  0.00     0.051 C 
HETATM   24  C26 UNL     1       1.554  16.071  -3.740  1.00  0.00     0.086 A 
HETATM   25  C27 UNL     1       1.309  15.567  -2.446  1.00  0.00     0.059 A 
HETATM   26  C28 UNL     1       2.423  14.794  -1.843  1.00  0.00     0.163 C 
HETATM   27  O7  UNL     1       2.924  13.907  -2.535  1.00  0.00    -0.292 OA
HETATM   28  C29 UNL     1       3.048  15.282  -0.550  1.00  0.00     0.084 C 
HETATM   29  C30 UNL     1       3.593  14.103   0.264  1.00  0.00     0.016 C 
HETATM   30  C31 UNL     1      -2.193  16.826  -1.903  1.00  0.00     0.210 C 
HETATM   31  O8  UNL     1      -3.042  17.475  -2.509  1.00  0.00    -0.285 OA
HETATM   32  H24 UNL     1      -4.254  17.280  -0.730  1.00  0.00     0.169 HD
ENDROOT
BRANCH   4  33
HETATM   33  C7  UNL     1       1.478  14.464   4.724  1.00  0.00     0.174 C 
BRANCH  33  34
HETATM   34  O1  UNL     1       2.690  14.089   5.388  1.00  0.00    -0.389 OA
HETATM   35  H11 UNL     1       3.447  14.411   4.857  1.00  0.00     0.210 HD
ENDBRANCH  33  34
BRANCH  33  36
HETATM   36  C8  UNL     1       0.957  15.663   5.472  1.00  0.00     0.009 C 
HETATM   37  C9  UNL     1      -0.295  15.907   5.908  1.00  0.00    -0.089 C 
HETATM   38  C10 UNL     1      -0.617  17.197   6.618  1.00  0.00     0.042 C 
HETATM   39  C11 UNL     1      -1.468  14.973   5.770  1.00  0.00     0.042 C 
ENDBRANCH  33  36
ENDBRANCH   4  33
BRANCH   1  40
HETATM   40  C2  UNL     1       5.910  14.513   1.311  1.00  0.00     0.004 C 
HETATM   41  C1  UNL     1       6.372  15.290   0.086  1.00  0.00     0.006 C 
ENDBRANCH   1  40
BRANCH  24  42
HETATM   42  O6  UNL     1       2.708  15.775  -4.424  1.00  0.00    -0.359 OA
HETATM   43  H29 UNL     1       3.095  14.951  -4.047  1.00  0.00     0.217 HD
ENDBRANCH  24  42
TORSDOF 5
ENDMDL
MODEL 9
REMARK minimizedAffinity -8.62404633
REMARK CNNscore 0.150311127
REMARK CNNaffinity 6.04108429
REMARK  5 active torsions:
REMARK  status: ('A' for Active; 'I' for Inactive)
REMARK    1  A    between atoms: C2_2  and  C3_3 
REMARK    2  A    between atoms: C6_6  and  C7_7 
REMARK    3  A    between atoms: C7_7  and  O1_8 
REMARK    4  A    between atoms: C7_7  and  C8_9 
REMARK    5  A    between atoms: C26_32  and  O6_33 
ROOT
HETATM    1  C3  UNL     1       6.375   9.629  14.698  1.00  0.00     0.008 C 
HETATM    2  C4  UNL     1       5.718  10.990  14.721  1.00  0.00    -0.023 C 
HETATM    3  C5  UNL     1       4.643  11.353  15.441  1.00  0.00     0.005 C 
HETATM    4  C6  UNL     1       3.804  10.497  16.362  1.00  0.00     0.187 C 
HETATM    5  O2  UNL     1       2.487  10.540  15.765  1.00  0.00    -0.308 OA
HETATM    6  C12 UNL     1       1.614   9.555  16.126  1.00  0.00     0.276 C 
HETATM    7  O3  UNL     1       1.885   8.672  16.935  1.00  0.00    -0.264 OA
HETATM    8  C13 UNL     1       0.246   9.727  15.374  1.00  0.00     0.095 C 
HETATM    9  C14 UNL     1      -0.033  11.260  15.362  1.00  0.00     0.036 C 
HETATM   10  C15 UNL     1      -0.826   9.059  16.220  1.00  0.00     0.003 C 
HETATM   11  C16 UNL     1      -2.131   8.970  15.927  1.00  0.00     0.072 C 
HETATM   12  C17 UNL     1      -2.799   9.499  14.722  1.00  0.00     0.245 C 
HETATM   13  O4  UNL     1      -3.990   9.792  14.787  1.00  0.00    -0.268 OA
HETATM   14  N1  UNL     1      -2.137   9.577  13.535  1.00  0.00    -0.320 N 
HETATM   15  C18 UNL     1      -0.860   9.224  13.149  1.00  0.00     0.098 C 
HETATM   16  C19 UNL     1       0.228   9.174  13.941  1.00  0.00     0.045 C 
HETATM   17  C20 UNL     1       1.469   8.555  13.376  1.00  0.00     0.194 C 
HETATM   18  O5  UNL     1       2.343   8.122  14.113  1.00  0.00    -0.287 OA
HETATM   19  C21 UNL     1       1.635   8.391  11.915  1.00  0.00     0.046 A 
HETATM   20  C22 UNL     1       0.516   8.556  11.103  1.00  0.00     0.032 A 
HETATM   21  C23 UNL     1       0.586   8.338   9.717  1.00  0.00     0.026 A 
HETATM   22  C24 UNL     1       1.776   7.916   9.120  1.00  0.00    -0.027 A 
HETATM   23  C25 UNL     1       1.825   7.634   7.646  1.00  0.00     0.051 C 
HETATM   24  C26 UNL     1       2.888   7.707   9.937  1.00  0.00     0.086 A 
HETATM   25  C27 UNL     1       2.844   7.983  11.319  1.00  0.00     0.059 A 
HETATM   26  C28 UNL     1       4.126   7.805  12.045  1.00  0.00     0.163 C 
HETATM   27  O7  UNL     1       4.727   6.746  11.863  1.00  0.00    -0.292 OA
HETATM   28  C29 UNL     1       4.751   8.995  12.749  1.00  0.00     0.084 C 
HETATM   29  C30 UNL     1       5.567   8.537  13.962  1.00  0.00     0.016 C 
HETATM   30  C31 UNL     1      -0.777   8.932  11.685  1.00  0.00     0.210 C 
HETATM   31  O8  UNL     1      -1.777   9.035  10.980  1.00  0.00    -0.285 OA
HETATM   32  H24 UNL     1      -2.786   9.728  12.761  1.00  0.00     0.169 HD
ENDROOT
BRANCH   4  33
HETATM   33  C7  UNL     1       3.782  11.075  17.817  1.00  0.00     0.174 C 
BRANCH  33  34
HETATM   34  O1  UNL     1       4.598  12.241  17.969  1.00  0.00    -0.389 OA
HETATM   35  H11 UNL     1       4.738  12.640  17.086  1.00  0.00     0.210 HD
ENDBRANCH  33  34
BRANCH  33  36
HETATM   36  C8  UNL     1       2.397  11.486  18.242  1.00  0.00     0.009 C 
HETATM   37  C9  UNL     1       1.763  11.239  19.406  1.00  0.00    -0.089 C 
HETATM   38  C10 UNL     1       0.351  11.720  19.622  1.00  0.00     0.042 C 
HETATM   39  C11 UNL     1       2.349  10.506  20.583  1.00  0.00     0.042 C 
ENDBRANCH  33  36
ENDBRANCH   4  33
BRANCH   1  40
HETATM   40  C2  UNL     1       7.844   9.713  14.218  1.00  0.00     0.004 C 
HETATM   41  C1  UNL     1       8.162  10.829  13.233  1.00  0.00     0.006 C 
ENDBRANCH   1  40
BRANCH  24  42
HETATM   42  O6  UNL     1       4.019   7.212   9.335  1.00  0.00    -0.359 OA
HETATM   43  H29 UNL     1       4.581   6.785  10.022  1.00  0.00     0.217 HD
ENDBRANCH  24  42
TORSDOF 5
ENDMDL
