MODEL 1
REMARK minimizedAffinity -7.66451597
REMARK CNNscore 0.627688229
REMARK CNNaffinity 7.42741537
REMARK  12 active torsions:
REMARK  status: ('A' for Active; 'I' for Inactive)
REMARK    1  A    between atoms: O1_2  and  C2_3 
REMARK    2  A    between atoms: C2_3  and  C5_6 
REMARK    3  A    between atoms: C6_7  and  C7_8 
REMARK    4  A    between atoms: C7_8  and  C8_9 
REMARK    5  A    between atoms: C8_9  and  C10_11 
REMARK    6  A    between atoms: C28_30  and  O3_31 
REMARK    7  A    between atoms: O3_31  and  C29_32 
REMARK    8  A    between atoms: C30_34  and  C31_35 
REMARK    9  A    between atoms: C31_35  and  O5_36 
REMARK   10  A    between atoms: C32_37  and  O6_38 
REMARK   11  A    between atoms: C33_39  and  O7_40 
REMARK   12  A    between atoms: C34_41  and  O8_42 
ROOT
HETATM    1  C10 UNL     1       6.620  55.903  -6.311  1.00  0.00    -0.002 C 
HETATM    2  C11 UNL     1       6.630  54.515  -5.590  1.00  0.00     0.006 C 
HETATM    3  C12 UNL     1       5.199  53.945  -5.657  1.00  0.00     0.011 C 
HETATM    4  C13 UNL     1       4.478  54.824  -6.698  1.00  0.00    -0.029 C 
HETATM    5  C14 UNL     1       4.898  54.251  -8.084  1.00  0.00     0.016 C 
HETATM    6  C15 UNL     1       2.928  54.876  -6.556  1.00  0.00     0.028 C 
HETATM    7  C16 UNL     1       2.223  53.557  -6.787  1.00  0.00    -0.021 C 
HETATM    8  C17 UNL     1       1.064  53.490  -7.463  1.00  0.00     0.008 C 
HETATM    9  C18 UNL     1       0.419  54.729  -8.080  1.00  0.00     0.092 C 
HETATM   10  O2  UNL     1      -0.103  55.476  -6.963  1.00  0.00    -0.374 OA
HETATM   11  C19 UNL     1       0.917  56.422  -6.565  1.00  0.00     0.179 C 
HETATM   12  C20 UNL     1       2.238  56.067  -7.338  1.00  0.00    -0.004 C 
HETATM   13  C21 UNL     1       3.095  57.352  -7.488  1.00  0.00     0.014 C 
HETATM   14  C22 UNL     1       4.625  57.207  -7.459  1.00  0.00     0.011 C 
HETATM   15  C23 UNL     1       5.095  56.238  -6.364  1.00  0.00    -0.032 C 
HETATM   16  C24 UNL     1       4.660  56.810  -4.976  1.00  0.00     0.016 C 
HETATM   17  C25 UNL     1       1.516  55.653  -8.642  1.00  0.00     0.036 C 
HETATM   18  C26 UNL     1       2.220  55.037  -9.841  1.00  0.00     0.011 C 
HETATM   19  C27 UNL     1       1.201  54.687 -10.932  1.00  0.00     0.033 C 
HETATM   20  C28 UNL     1       0.045  53.808 -10.408  1.00  0.00     0.136 C 
HETATM   21  C35 UNL     1      -0.670  54.428  -9.164  1.00  0.00     0.014 C 
HETATM   22  C36 UNL     1      -1.449  55.715  -9.550  1.00  0.00     0.021 C 
HETATM   23  C37 UNL     1      -1.754  53.450  -8.644  1.00  0.00     0.021 C 
ENDROOT
BRANCH  20  24
HETATM   24  O3  UNL     1      -0.925  53.589 -11.440  1.00  0.00    -0.352 OA
BRANCH  24  25
HETATM   25  C29 UNL     1      -0.601  52.515 -12.324  1.00  0.00     0.292 C 
HETATM   26  O4  UNL     1      -1.667  52.324 -13.260  1.00  0.00    -0.348 OA
HETATM   27  C30 UNL     1      -2.935  51.963 -12.678  1.00  0.00     0.179 C 
HETATM   28  C32 UNL     1      -2.821  51.145 -11.378  1.00  0.00     0.180 C 
HETATM   29  C33 UNL     1      -1.533  50.326 -11.420  1.00  0.00     0.183 C 
HETATM   30  C34 UNL     1      -0.314  51.247 -11.484  1.00  0.00     0.204 C 
BRANCH  27  31
HETATM   31  C31 UNL     1      -3.811  53.209 -12.496  1.00  0.00     0.198 C 
BRANCH  31  32
HETATM   32  O5  UNL     1      -4.300  53.642 -13.769  1.00  0.00    -0.398 OA
HETATM   33  H48 UNL     1      -3.528  53.604 -14.369  1.00  0.00     0.209 HD
ENDBRANCH  31  32
ENDBRANCH  27  31
BRANCH  28  34
HETATM   34  O6  UNL     1      -3.938  50.256 -11.207  1.00  0.00    -0.390 OA
HETATM   35  H50 UNL     1      -4.068  49.761 -12.036  1.00  0.00     0.210 HD
ENDBRANCH  28  34
BRANCH  29  36
HETATM   36  O7  UNL     1      -1.427  49.484 -10.259  1.00  0.00    -0.390 OA
HETATM   37  H52 UNL     1      -2.329  49.144 -10.096  1.00  0.00     0.210 HD
ENDBRANCH  29  36
BRANCH  30  38
HETATM   38  O8  UNL     1       0.782  50.492 -12.038  1.00  0.00    -0.388 OA
HETATM   39  H54 UNL     1       0.882  49.716 -11.454  1.00  0.00     0.210 HD
ENDBRANCH  30  38
ENDBRANCH  24  25
ENDBRANCH  20  24
BRANCH   1  40
HETATM   40  C8  UNL     1       7.624  56.897  -5.643  1.00  0.00    -0.010 C 
HETATM   41  C9  UNL     1       8.206  56.348  -4.333  1.00  0.00     0.010 C 
BRANCH  40  42
HETATM   42  C7  UNL     1       6.923  58.257  -5.354  1.00  0.00     0.031 C 
BRANCH  42  43
HETATM   43  C6  UNL     1       7.753  59.390  -4.799  1.00  0.00    -0.027 C 
HETATM   44  C5  UNL     1       8.860  59.923  -5.347  1.00  0.00     0.006 C 
BRANCH  44  45
HETATM   45  C2  UNL     1       9.700  61.071  -4.815  1.00  0.00     0.070 C 
HETATM   46  C3  UNL     1       9.188  61.725  -3.520  1.00  0.00     0.050 C 
HETATM   47  C4  UNL     1       9.756  62.149  -5.908  1.00  0.00     0.050 C 
BRANCH  45  48
HETATM   48  O1  UNL     1      11.056  60.611  -4.676  1.00  0.00    -0.382 OA
HETATM   49  C1  UNL     1      11.228  59.202  -4.570  1.00  0.00     0.202 C 
ENDBRANCH  45  48
ENDBRANCH  44  45
ENDBRANCH  42  43
ENDBRANCH  40  42
ENDBRANCH   1  40
TORSDOF 12
ENDMDL
MODEL 2
REMARK minimizedAffinity -7.80751514
REMARK CNNscore 0.51557076
REMARK CNNaffinity 7.30430365
REMARK  12 active torsions:
REMARK  status: ('A' for Active; 'I' for Inactive)
REMARK    1  A    between atoms: O1_2  and  C2_3 
REMARK    2  A    between atoms: C2_3  and  C5_6 
REMARK    3  A    between atoms: C6_7  and  C7_8 
REMARK    4  A    between atoms: C7_8  and  C8_9 
REMARK    5  A    between atoms: C8_9  and  C10_11 
REMARK    6  A    between atoms: C28_30  and  O3_31 
REMARK    7  A    between atoms: O3_31  and  C29_32 
REMARK    8  A    between atoms: C30_34  and  C31_35 
REMARK    9  A    between atoms: C31_35  and  O5_36 
REMARK   10  A    between atoms: C32_37  and  O6_38 
REMARK   11  A    between atoms: C33_39  and  O7_40 
REMARK   12  A    between atoms: C34_41  and  O8_42 
ROOT
HETATM    1  C10 UNL     1      -2.958  48.820 -23.990  1.00  0.00    -0.002 C 
HETATM    2  C11 UNL     1      -1.772  49.641 -23.388  1.00  0.00     0.006 C 
HETATM    3  C12 UNL     1      -1.902  49.592 -21.853  1.00  0.00     0.011 C 
HETATM    4  C13 UNL     1      -2.931  48.475 -21.586  1.00  0.00    -0.029 C 
HETATM    5  C14 UNL     1      -2.129  47.143 -21.679  1.00  0.00     0.016 C 
HETATM    6  C15 UNL     1      -3.684  48.584 -20.227  1.00  0.00     0.028 C 
HETATM    7  C16 UNL     1      -2.810  48.439 -19.000  1.00  0.00    -0.021 C 
HETATM    8  C17 UNL     1      -3.220  47.749 -17.924  1.00  0.00     0.008 C 
HETATM    9  C18 UNL     1      -4.567  47.030 -17.893  1.00  0.00     0.092 C 
HETATM   10  O2  UNL     1      -5.550  48.079 -17.782  1.00  0.00    -0.374 OA
HETATM   11  C19 UNL     1      -5.964  48.424 -19.125  1.00  0.00     0.179 C 
HETATM   12  C20 UNL     1      -4.997  47.703 -20.132  1.00  0.00    -0.004 C 
HETATM   13  C21 UNL     1      -5.744  47.474 -21.473  1.00  0.00     0.014 C 
HETATM   14  C22 UNL     1      -4.930  47.541 -22.775  1.00  0.00     0.011 C 
HETATM   15  C23 UNL     1      -3.938  48.714 -22.778  1.00  0.00    -0.032 C 
HETATM   16  C24 UNL     1      -4.745  50.047 -22.670  1.00  0.00     0.016 C 
HETATM   17  C25 UNL     1      -4.855  46.421 -19.279  1.00  0.00     0.036 C 
HETATM   18  C26 UNL     1      -3.900  45.285 -19.610  1.00  0.00     0.011 C 
HETATM   19  C27 UNL     1      -3.965  44.204 -18.524  1.00  0.00     0.033 C 
HETATM   20  C28 UNL     1      -3.741  44.770 -17.105  1.00  0.00     0.136 C 
HETATM   21  C35 UNL     1      -4.708  45.952 -16.767  1.00  0.00     0.014 C 
HETATM   22  C36 UNL     1      -6.175  45.457 -16.643  1.00  0.00     0.021 C 
HETATM   23  C37 UNL     1      -4.363  46.523 -15.368  1.00  0.00     0.021 C 
ENDROOT
BRANCH  20  24
HETATM   24  O3  UNL     1      -3.906  43.740 -16.123  1.00  0.00    -0.352 OA
BRANCH  24  25
HETATM   25  C29 UNL     1      -2.761  42.900 -15.965  1.00  0.00     0.292 C 
HETATM   26  O4  UNL     1      -3.048  41.871 -15.013  1.00  0.00    -0.348 OA
HETATM   27  C30 UNL     1      -3.360  42.336 -13.685  1.00  0.00     0.179 C 
HETATM   28  C32 UNL     1      -2.655  43.647 -13.294  1.00  0.00     0.180 C 
HETATM   29  C33 UNL     1      -1.324  43.734 -14.037  1.00  0.00     0.183 C 
HETATM   30  C34 UNL     1      -1.554  43.775 -15.548  1.00  0.00     0.204 C 
BRANCH  27  31
HETATM   31  C31 UNL     1      -4.880  42.423 -13.496  1.00  0.00     0.198 C 
BRANCH  31  32
HETATM   32  O5  UNL     1      -5.267  43.791 -13.342  1.00  0.00    -0.398 OA
HETATM   33  H48 UNL     1      -4.620  44.174 -12.715  1.00  0.00     0.209 HD
ENDBRANCH  31  32
ENDBRANCH  27  31
BRANCH  28  34
HETATM   34  O6  UNL     1      -2.410  43.722 -11.880  1.00  0.00    -0.390 OA
HETATM   35  H50 UNL     1      -1.993  42.889 -11.595  1.00  0.00     0.210 HD
ENDBRANCH  28  34
BRANCH  29  36
HETATM   36  O7  UNL     1      -0.594  44.907 -13.640  1.00  0.00    -0.390 OA
HETATM   37  H52 UNL     1      -0.730  44.989 -12.674  1.00  0.00     0.210 HD
ENDBRANCH  29  36
BRANCH  30  38
HETATM   38  O8  UNL     1      -0.343  43.333 -16.192  1.00  0.00    -0.388 OA
HETATM   39  H54 UNL     1       0.356  43.931 -15.865  1.00  0.00     0.210 HD
ENDBRANCH  30  38
ENDBRANCH  24  25
ENDBRANCH  20  24
BRANCH   1  40
HETATM   40  C8  UNL     1      -3.441  49.429 -25.345  1.00  0.00    -0.010 C 
HETATM   41  C9  UNL     1      -4.503  48.559 -26.032  1.00  0.00     0.010 C 
BRANCH  40  42
HETATM   42  C7  UNL     1      -2.235  49.615 -26.313  1.00  0.00     0.031 C 
BRANCH  42  43
HETATM   43  C6  UNL     1      -1.213  50.678 -25.992  1.00  0.00    -0.027 C 
HETATM   44  C5  UNL     1       0.007  50.817 -26.542  1.00  0.00     0.006 C 
BRANCH  44  45
HETATM   45  C2  UNL     1       1.044  51.887 -26.246  1.00  0.00     0.070 C 
HETATM   46  C3  UNL     1       2.508  51.474 -26.476  1.00  0.00     0.050 C 
HETATM   47  C4  UNL     1       0.884  52.292 -24.773  1.00  0.00     0.050 C 
BRANCH  45  48
HETATM   48  O1  UNL     1       0.702  53.067 -26.996  1.00  0.00    -0.382 OA
HETATM   49  C1  UNL     1       0.206  52.847 -28.312  1.00  0.00     0.202 C 
ENDBRANCH  45  48
ENDBRANCH  44  45
ENDBRANCH  42  43
ENDBRANCH  40  42
ENDBRANCH   1  40
TORSDOF 12
ENDMDL
MODEL 3
REMARK minimizedAffinity -7.62978268
REMARK CNNscore 0.492012739
REMARK CNNaffinity 7.08105898
REMARK  12 active torsions:
REMARK  status: ('A' for Active; 'I' for Inactive)
REMARK    1  A    between atoms: O1_2  and  C2_3 
REMARK    2  A    between atoms: C2_3  and  C5_6 
REMARK    3  A    between atoms: C6_7  and  C7_8 
REMARK    4  A    between atoms: C7_8  and  C8_9 
REMARK    5  A    between atoms: C8_9  and  C10_11 
REMARK    6  A    between atoms: C28_30  and  O3_31 
REMARK    7  A    between atoms: O3_31  and  C29_32 
REMARK    8  A    between atoms: C30_34  and  C31_35 
REMARK    9  A    between atoms: C31_35  and  O5_36 
REMARK   10  A    between atoms: C32_37  and  O6_38 
REMARK   11  A    between atoms: C33_39  and  O7_40 
REMARK   12  A    between atoms: C34_41  and  O8_42 
ROOT
HETATM    1  C10 UNL     1       6.524  56.081  -6.240  1.00  0.00    -0.002 C 
HETATM    2  C11 UNL     1       6.462  54.767  -5.395  1.00  0.00     0.006 C 
HETATM    3  C12 UNL     1       5.023  54.222  -5.486  1.00  0.00     0.011 C 
HETATM    4  C13 UNL     1       4.379  55.013  -6.642  1.00  0.00    -0.029 C 
HETATM    5  C14 UNL     1       4.857  54.304  -7.944  1.00  0.00     0.016 C 
HETATM    6  C15 UNL     1       2.826  55.108  -6.590  1.00  0.00     0.028 C 
HETATM    7  C16 UNL     1       2.101  53.788  -6.736  1.00  0.00    -0.021 C 
HETATM    8  C17 UNL     1       0.978  53.680  -7.466  1.00  0.00     0.008 C 
HETATM    9  C18 UNL     1       0.397  54.868  -8.229  1.00  0.00     0.092 C 
HETATM   10  O2  UNL     1      -0.164  55.727  -7.216  1.00  0.00    -0.374 OA
HETATM   11  C19 UNL     1       0.857  56.686  -6.852  1.00  0.00     0.179 C 
HETATM   12  C20 UNL     1       2.207  56.234  -7.516  1.00  0.00    -0.004 C 
HETATM   13  C21 UNL     1       3.102  57.483  -7.738  1.00  0.00     0.014 C 
HETATM   14  C22 UNL     1       4.625  57.311  -7.612  1.00  0.00     0.011 C 
HETATM   15  C23 UNL     1       5.012  56.440  -6.407  1.00  0.00    -0.032 C 
HETATM   16  C24 UNL     1       4.520  57.148  -5.105  1.00  0.00     0.016 C 
HETATM   17  C25 UNL     1       1.544  55.714  -8.813  1.00  0.00     0.036 C 
HETATM   18  C26 UNL     1       2.296  54.974  -9.909  1.00  0.00     0.011 C 
HETATM   19  C27 UNL     1       1.327  54.543 -11.018  1.00  0.00     0.033 C 
HETATM   20  C28 UNL     1       0.123  53.740 -10.479  1.00  0.00     0.136 C 
HETATM   21  C35 UNL     1      -0.641  54.489  -9.338  1.00  0.00     0.014 C 
HETATM   22  C36 UNL     1      -1.366  55.748  -9.884  1.00  0.00     0.021 C 
HETATM   23  C37 UNL     1      -1.774  53.585  -8.790  1.00  0.00     0.021 C 
ENDROOT
BRANCH  20  24
HETATM   24  O3  UNL     1      -0.796  53.444 -11.537  1.00  0.00    -0.352 OA
BRANCH  24  25
HETATM   25  C29 UNL     1      -1.872  52.587 -11.150  1.00  0.00     0.292 C 
HETATM   26  O4  UNL     1      -1.530  51.228 -11.437  1.00  0.00    -0.348 OA
HETATM   27  C30 UNL     1      -1.299  50.936 -12.830  1.00  0.00     0.179 C 
HETATM   28  C32 UNL     1      -2.122  51.803 -13.800  1.00  0.00     0.180 C 
HETATM   29  C33 UNL     1      -3.432  52.197 -13.122  1.00  0.00     0.183 C 
HETATM   30  C34 UNL     1      -3.159  53.043 -11.878  1.00  0.00     0.204 C 
BRANCH  27  31
HETATM   31  C31 UNL     1       0.202  50.992 -13.142  1.00  0.00     0.198 C 
BRANCH  31  32
HETATM   32  O5  UNL     1       0.485  52.147 -13.937  1.00  0.00    -0.398 OA
HETATM   33  H48 UNL     1      -0.213  52.165 -14.623  1.00  0.00     0.209 HD
ENDBRANCH  31  32
ENDBRANCH  27  31
BRANCH  28  34
HETATM   34  O6  UNL     1      -2.415  51.105 -15.022  1.00  0.00    -0.390 OA
HETATM   35  H50 UNL     1      -2.770  50.227 -14.798  1.00  0.00     0.210 HD
ENDBRANCH  28  34
BRANCH  29  36
HETATM   36  O7  UNL     1      -4.268  52.941 -14.024  1.00  0.00    -0.390 OA
HETATM   37  H52 UNL     1      -4.169  52.507 -14.896  1.00  0.00     0.210 HD
ENDBRANCH  29  36
BRANCH  30  38
HETATM   38  O8  UNL     1      -4.309  52.943 -11.015  1.00  0.00    -0.388 OA
HETATM   39  H54 UNL     1      -5.066  53.239 -11.558  1.00  0.00     0.210 HD
ENDBRANCH  30  38
ENDBRANCH  24  25
ENDBRANCH  20  24
BRANCH   1  40
HETATM   40  C8  UNL     1       7.515  57.113  -5.614  1.00  0.00    -0.010 C 
HETATM   41  C9  UNL     1       8.601  56.439  -4.763  1.00  0.00     0.010 C 
BRANCH  40  42
HETATM   42  C7  UNL     1       6.742  58.135  -4.729  1.00  0.00     0.031 C 
BRANCH  42  43
HETATM   43  C6  UNL     1       7.346  59.502  -4.515  1.00  0.00    -0.027 C 
HETATM   44  C5  UNL     1       8.525  59.947  -4.986  1.00  0.00     0.006 C 
BRANCH  44  45
HETATM   45  C2  UNL     1       9.143  61.321  -4.796  1.00  0.00     0.070 C 
HETATM   46  C3  UNL     1       8.175  62.430  -4.352  1.00  0.00     0.050 C 
HETATM   47  C4  UNL     1       9.769  61.736  -6.136  1.00  0.00     0.050 C 
BRANCH  45  48
HETATM   48  O1  UNL     1      10.255  61.194  -3.890  1.00  0.00    -0.382 OA
HETATM   49  C1  UNL     1      10.840  59.900  -3.800  1.00  0.00     0.202 C 
ENDBRANCH  45  48
ENDBRANCH  44  45
ENDBRANCH  42  43
ENDBRANCH  40  42
ENDBRANCH   1  40
TORSDOF 12
ENDMDL
MODEL 4
REMARK minimizedAffinity -8.80268288
REMARK CNNscore 0.444297671
REMARK CNNaffinity 7.26497459
REMARK  12 active torsions:
REMARK  status: ('A' for Active; 'I' for Inactive)
REMARK    1  A    between atoms: O1_2  and  C2_3 
REMARK    2  A    between atoms: C2_3  and  C5_6 
REMARK    3  A    between atoms: C6_7  and  C7_8 
REMARK    4  A    between atoms: C7_8  and  C8_9 
REMARK    5  A    between atoms: C8_9  and  C10_11 
REMARK    6  A    between atoms: C28_30  and  O3_31 
REMARK    7  A    between atoms: O3_31  and  C29_32 
REMARK    8  A    between atoms: C30_34  and  C31_35 
REMARK    9  A    between atoms: C31_35  and  O5_36 
REMARK   10  A    between atoms: C32_37  and  O6_38 
REMARK   11  A    between atoms: C33_39  and  O7_40 
REMARK   12  A    between atoms: C34_41  and  O8_42 
ROOT
HETATM    1  C10 UNL     1      -0.676  50.344 -21.346  1.00  0.00    -0.002 C 
HETATM    2  C11 UNL     1      -0.048  49.084 -20.667  1.00  0.00     0.006 C 
HETATM    3  C12 UNL     1      -1.205  48.158 -20.241  1.00  0.00     0.011 C 
HETATM    4  C13 UNL     1      -2.440  48.715 -20.978  1.00  0.00    -0.029 C 
HETATM    5  C14 UNL     1      -2.353  48.139 -22.423  1.00  0.00     0.016 C 
HETATM    6  C15 UNL     1      -3.809  48.376 -20.318  1.00  0.00     0.028 C 
HETATM    7  C16 UNL     1      -4.157  46.904 -20.291  1.00  0.00    -0.021 C 
HETATM    8  C17 UNL     1      -5.406  46.472 -20.533  1.00  0.00     0.008 C 
HETATM    9  C18 UNL     1      -6.533  47.435 -20.898  1.00  0.00     0.092 C 
HETATM   10  O2  UNL     1      -6.847  48.126 -19.672  1.00  0.00    -0.374 OA
HETATM   11  C19 UNL     1      -6.058  49.339 -19.647  1.00  0.00     0.179 C 
HETATM   12  C20 UNL     1      -5.018  49.266 -20.822  1.00  0.00    -0.004 C 
HETATM   13  C21 UNL     1      -4.648  50.708 -21.259  1.00  0.00     0.014 C 
HETATM   14  C22 UNL     1      -3.215  50.969 -21.751  1.00  0.00     0.011 C 
HETATM   15  C23 UNL     1      -2.165  50.266 -20.878  1.00  0.00    -0.032 C 
HETATM   16  C24 UNL     1      -2.264  50.837 -19.427  1.00  0.00     0.016 C 
HETATM   17  C25 UNL     1      -5.981  48.554 -21.801  1.00  0.00     0.036 C 
HETATM   18  C26 UNL     1      -5.564  48.028 -23.167  1.00  0.00     0.011 C 
HETATM   19  C27 UNL     1      -6.744  47.322 -23.845  1.00  0.00     0.033 C 
HETATM   20  C28 UNL     1      -7.375  46.228 -22.957  1.00  0.00     0.136 C 
HETATM   21  C35 UNL     1      -7.788  46.759 -21.545  1.00  0.00     0.014 C 
HETATM   22  C36 UNL     1      -8.974  47.756 -21.648  1.00  0.00     0.021 C 
HETATM   23  C37 UNL     1      -8.327  45.588 -20.685  1.00  0.00     0.021 C 
ENDROOT
BRANCH  20  24
HETATM   24  O3  UNL     1      -8.527  45.666 -23.597  1.00  0.00    -0.352 OA
BRANCH  24  25
HETATM   25  C29 UNL     1      -8.271  45.142 -24.900  1.00  0.00     0.292 C 
HETATM   26  O4  UNL     1      -9.133  45.773 -25.851  1.00  0.00    -0.348 OA
HETATM   27  C30 UNL     1     -10.542  45.565 -25.633  1.00  0.00     0.179 C 
HETATM   28  C32 UNL     1     -10.885  44.214 -24.978  1.00  0.00     0.180 C 
HETATM   29  C33 UNL     1      -9.829  43.187 -25.379  1.00  0.00     0.183 C 
HETATM   30  C34 UNL     1      -8.451  43.605 -24.864  1.00  0.00     0.204 C 
BRANCH  27  31
HETATM   31  C31 UNL     1     -11.140  46.746 -24.858  1.00  0.00     0.198 C 
BRANCH  31  32
HETATM   32  O5  UNL     1     -10.307  47.897 -25.019  1.00  0.00    -0.398 OA
HETATM   33  H48 UNL     1      -9.392  47.574 -24.893  1.00  0.00     0.209 HD
ENDBRANCH  31  32
ENDBRANCH  27  31
BRANCH  28  34
HETATM   34  O6  UNL     1     -12.181  43.739 -25.380  1.00  0.00    -0.390 OA
HETATM   35  H50 UNL     1     -12.241  43.792 -26.350  1.00  0.00     0.210 HD
ENDBRANCH  28  34
BRANCH  29  36
HETATM   36  O7  UNL     1     -10.155  41.889 -24.854  1.00  0.00    -0.390 OA
HETATM   37  H52 UNL     1     -11.124  41.799 -24.954  1.00  0.00     0.210 HD
ENDBRANCH  29  36
BRANCH  30  38
HETATM   38  O8  UNL     1      -7.458  42.944 -25.673  1.00  0.00    -0.388 OA
HETATM   39  H54 UNL     1      -7.655  41.990 -25.596  1.00  0.00     0.210 HD
ENDBRANCH  30  38
ENDBRANCH  24  25
ENDBRANCH  20  24
BRANCH   1  40
HETATM   40  C8  UNL     1       0.173  51.625 -21.062  1.00  0.00    -0.010 C 
HETATM   41  C9  UNL     1      -0.186  52.280 -19.721  1.00  0.00     0.010 C 
BRANCH  40  42
HETATM   42  C7  UNL     1      -0.025  52.666 -22.203  1.00  0.00     0.031 C 
BRANCH  42  43
HETATM   43  C6  UNL     1      -0.176  52.162 -23.618  1.00  0.00    -0.027 C 
HETATM   44  C5  UNL     1       0.681  52.349 -24.637  1.00  0.00     0.006 C 
BRANCH  44  45
HETATM   45  C2  UNL     1       0.557  51.838 -26.062  1.00  0.00     0.070 C 
HETATM   46  C3  UNL     1       0.311  52.914 -27.135  1.00  0.00     0.050 C 
HETATM   47  C4  UNL     1      -0.615  50.846 -26.099  1.00  0.00     0.050 C 
BRANCH  45  48
HETATM   48  O1  UNL     1       1.723  51.049 -26.362  1.00  0.00    -0.382 OA
HETATM   49  C1  UNL     1       2.694  51.666 -27.200  1.00  0.00     0.202 C 
ENDBRANCH  45  48
ENDBRANCH  44  45
ENDBRANCH  42  43
ENDBRANCH  40  42
ENDBRANCH   1  40
TORSDOF 12
ENDMDL
MODEL 5
REMARK minimizedAffinity -9.6099329
REMARK CNNscore 0.382392943
REMARK CNNaffinity 7.22767019
REMARK  12 active torsions:
REMARK  status: ('A' for Active; 'I' for Inactive)
REMARK    1  A    between atoms: O1_2  and  C2_3 
REMARK    2  A    between atoms: C2_3  and  C5_6 
REMARK    3  A    between atoms: C6_7  and  C7_8 
REMARK    4  A    between atoms: C7_8  and  C8_9 
REMARK    5  A    between atoms: C8_9  and  C10_11 
REMARK    6  A    between atoms: C28_30  and  O3_31 
REMARK    7  A    between atoms: O3_31  and  C29_32 
REMARK    8  A    between atoms: C30_34  and  C31_35 
REMARK    9  A    between atoms: C31_35  and  O5_36 
REMARK   10  A    between atoms: C32_37  and  O6_38 
REMARK   11  A    between atoms: C33_39  and  O7_40 
REMARK   12  A    between atoms: C34_41  and  O8_42 
ROOT
HETATM    1  C10 UNL     1      -0.927  50.529 -20.908  1.00  0.00    -0.002 C 
HETATM    2  C11 UNL     1      -0.198  49.146 -20.870  1.00  0.00     0.006 C 
HETATM    3  C12 UNL     1      -1.282  48.050 -20.834  1.00  0.00     0.011 C 
HETATM    4  C13 UNL     1      -2.588  48.781 -21.201  1.00  0.00    -0.029 C 
HETATM    5  C14 UNL     1      -2.579  48.888 -22.755  1.00  0.00     0.016 C 
HETATM    6  C15 UNL     1      -3.891  48.098 -20.691  1.00  0.00     0.028 C 
HETATM    7  C16 UNL     1      -4.173  46.737 -21.287  1.00  0.00    -0.021 C 
HETATM    8  C17 UNL     1      -5.416  46.365 -21.635  1.00  0.00     0.008 C 
HETATM    9  C18 UNL     1      -6.607  47.311 -21.496  1.00  0.00     0.092 C 
HETATM   10  O2  UNL     1      -6.863  47.386 -20.079  1.00  0.00    -0.374 OA
HETATM   11  C19 UNL     1      -6.127  48.523 -19.569  1.00  0.00     0.179 C 
HETATM   12  C20 UNL     1      -5.170  49.032 -20.706  1.00  0.00    -0.004 C 
HETATM   13  C21 UNL     1      -4.894  50.545 -20.492  1.00  0.00     0.014 C 
HETATM   14  C22 UNL     1      -3.512  51.090 -20.888  1.00  0.00     0.011 C 
HETATM   15  C23 UNL     1      -2.374  50.155 -20.453  1.00  0.00    -0.032 C 
HETATM   16  C24 UNL     1      -2.395  50.040 -18.895  1.00  0.00     0.016 C 
HETATM   17  C25 UNL     1      -6.168  48.744 -21.852  1.00  0.00     0.036 C 
HETATM   18  C26 UNL     1      -5.827  48.885 -23.328  1.00  0.00     0.011 C 
HETATM   19  C27 UNL     1      -7.020  48.458 -24.190  1.00  0.00     0.033 C 
HETATM   20  C28 UNL     1      -7.539  47.047 -23.835  1.00  0.00     0.136 C 
HETATM   21  C35 UNL     1      -7.874  46.893 -22.315  1.00  0.00     0.014 C 
HETATM   22  C36 UNL     1      -9.106  47.752 -21.923  1.00  0.00     0.021 C 
HETATM   23  C37 UNL     1      -8.300  45.432 -22.022  1.00  0.00     0.021 C 
ENDROOT
BRANCH  20  24
HETATM   24  O3  UNL     1      -8.709  46.736 -24.601  1.00  0.00    -0.352 OA
BRANCH  24  25
HETATM   25  C29 UNL     1      -9.630  47.821 -24.723  1.00  0.00     0.292 C 
HETATM   26  O4  UNL     1     -10.966  47.339 -24.551  1.00  0.00    -0.348 OA
HETATM   27  C30 UNL     1     -11.397  46.369 -25.526  1.00  0.00     0.179 C 
HETATM   28  C32 UNL     1     -10.755  46.543 -26.915  1.00  0.00     0.180 C 
HETATM   29  C33 UNL     1     -10.434  48.021 -27.129  1.00  0.00     0.183 C 
HETATM   30  C34 UNL     1      -9.417  48.504 -26.095  1.00  0.00     0.204 C 
BRANCH  27  31
HETATM   31  C31 UNL     1     -11.208  44.947 -24.981  1.00  0.00     0.198 C 
BRANCH  31  32
HETATM   32  O5  UNL     1     -11.513  43.996 -26.003  1.00  0.00    -0.398 OA
HETATM   33  H48 UNL     1     -12.344  44.313 -26.412  1.00  0.00     0.209 HD
ENDBRANCH  31  32
ENDBRANCH  27  31
BRANCH  28  34
HETATM   34  O6  UNL     1     -11.625  46.093 -27.966  1.00  0.00    -0.390 OA
HETATM   35  H50 UNL     1     -12.505  46.488 -27.829  1.00  0.00     0.210 HD
ENDBRANCH  28  34
BRANCH  29  36
HETATM   36  O7  UNL     1      -9.906  48.240 -28.448  1.00  0.00    -0.390 OA
HETATM   37  H52 UNL     1     -10.429  47.664 -29.042  1.00  0.00     0.210 HD
ENDBRANCH  29  36
BRANCH  30  38
HETATM   38  O8  UNL     1      -9.542  49.937 -25.989  1.00  0.00    -0.388 OA
HETATM   39  H54 UNL     1      -9.403  50.275 -26.894  1.00  0.00     0.210 HD
ENDBRANCH  30  38
ENDBRANCH  24  25
ENDBRANCH  20  24
BRANCH   1  40
HETATM   40  C8  UNL     1      -0.115  51.620 -20.138  1.00  0.00    -0.010 C 
HETATM   41  C9  UNL     1      -0.942  52.292 -19.032  1.00  0.00     0.010 C 
BRANCH  40  42
HETATM   42  C7  UNL     1       0.391  52.712 -21.126  1.00  0.00     0.031 C 
BRANCH  42  43
HETATM   43  C6  UNL     1      -0.003  52.605 -22.579  1.00  0.00    -0.027 C 
HETATM   44  C5  UNL     1       0.652  53.122 -23.633  1.00  0.00     0.006 C 
BRANCH  44  45
HETATM   45  C2  UNL     1       0.282  53.014 -25.102  1.00  0.00     0.070 C 
HETATM   46  C3  UNL     1      -1.167  52.588 -25.393  1.00  0.00     0.050 C 
HETATM   47  C4  UNL     1       1.224  51.982 -25.743  1.00  0.00     0.050 C 
BRANCH  45  48
HETATM   48  O1  UNL     1       0.606  54.261 -25.743  1.00  0.00    -0.382 OA
HETATM   49  C1  UNL     1      -0.002  54.486 -27.010  1.00  0.00     0.202 C 
ENDBRANCH  45  48
ENDBRANCH  44  45
ENDBRANCH  42  43
ENDBRANCH  40  42
ENDBRANCH   1  40
TORSDOF 12
ENDMDL
MODEL 6
REMARK minimizedAffinity -7.39513969
REMARK CNNscore 0.346514523
REMARK CNNaffinity 6.57459784
REMARK  12 active torsions:
REMARK  status: ('A' for Active; 'I' for Inactive)
REMARK    1  A    between atoms: O1_2  and  C2_3 
REMARK    2  A    between atoms: C2_3  and  C5_6 
REMARK    3  A    between atoms: C6_7  and  C7_8 
REMARK    4  A    between atoms: C7_8  and  C8_9 
REMARK    5  A    between atoms: C8_9  and  C10_11 
REMARK    6  A    between atoms: C28_30  and  O3_31 
REMARK    7  A    between atoms: O3_31  and  C29_32 
REMARK    8  A    between atoms: C30_34  and  C31_35 
REMARK    9  A    between atoms: C31_35  and  O5_36 
REMARK   10  A    between atoms: C32_37  and  O6_38 
REMARK   11  A    between atoms: C33_39  and  O7_40 
REMARK   12  A    between atoms: C34_41  and  O8_42 
ROOT
HETATM    1  C10 UNL     1     -12.339  47.442 -19.329  1.00  0.00    -0.002 C 
HETATM    2  C11 UNL     1     -12.213  47.574 -17.777  1.00  0.00     0.006 C 
HETATM    3  C12 UNL     1     -10.727  47.378 -17.411  1.00  0.00     0.011 C 
HETATM    4  C13 UNL     1      -9.979  47.486 -18.755  1.00  0.00    -0.029 C 
HETATM    5  C14 UNL     1      -9.834  49.013 -19.025  1.00  0.00     0.016 C 
HETATM    6  C15 UNL     1      -8.595  46.772 -18.798  1.00  0.00     0.028 C 
HETATM    7  C16 UNL     1      -7.552  47.349 -17.865  1.00  0.00    -0.021 C 
HETATM    8  C17 UNL     1      -6.270  47.481 -18.242  1.00  0.00     0.008 C 
HETATM    9  C18 UNL     1      -5.800  47.105 -19.645  1.00  0.00     0.092 C 
HETATM   10  O2  UNL     1      -5.818  45.664 -19.674  1.00  0.00    -0.374 OA
HETATM   11  C19 UNL     1      -7.108  45.259 -20.189  1.00  0.00     0.179 C 
HETATM   12  C20 UNL     1      -8.025  46.533 -20.256  1.00  0.00    -0.004 C 
HETATM   13  C21 UNL     1      -9.093  46.328 -21.364  1.00  0.00     0.014 C 
HETATM   14  C22 UNL     1     -10.484  46.947 -21.150  1.00  0.00     0.011 C 
HETATM   15  C23 UNL     1     -10.992  46.748 -19.714  1.00  0.00    -0.032 C 
HETATM   16  C24 UNL     1     -11.124  45.215 -19.443  1.00  0.00     0.016 C 
HETATM   17  C25 UNL     1      -6.884  47.491 -20.669  1.00  0.00     0.036 C 
HETATM   18  C26 UNL     1      -7.046  49.000 -20.786  1.00  0.00     0.011 C 
HETATM   19  C27 UNL     1      -5.705  49.649 -21.151  1.00  0.00     0.033 C 
HETATM   20  C28 UNL     1      -4.566  49.248 -20.188  1.00  0.00     0.136 C 
HETATM   21  C35 UNL     1      -4.409  47.698 -20.051  1.00  0.00     0.014 C 
HETATM   22  C36 UNL     1      -3.893  47.068 -21.374  1.00  0.00     0.021 C 
HETATM   23  C37 UNL     1      -3.312  47.376 -19.004  1.00  0.00     0.021 C 
ENDROOT
BRANCH  20  24
HETATM   24  O3  UNL     1      -3.320  49.803 -20.627  1.00  0.00    -0.352 OA
BRANCH  24  25
HETATM   25  C29 UNL     1      -3.005  49.519 -21.991  1.00  0.00     0.292 C 
HETATM   26  O4  UNL     1      -1.611  49.226 -22.112  1.00  0.00    -0.348 OA
HETATM   27  C30 UNL     1      -0.725  50.299 -21.737  1.00  0.00     0.179 C 
HETATM   28  C32 UNL     1      -1.297  51.706 -21.991  1.00  0.00     0.180 C 
HETATM   29  C33 UNL     1      -2.257  51.642 -23.177  1.00  0.00     0.183 C 
HETATM   30  C34 UNL     1      -3.437  50.722 -22.864  1.00  0.00     0.204 C 
BRANCH  27  31
HETATM   31  C31 UNL     1      -0.260  50.122 -20.286  1.00  0.00     0.198 C 
BRANCH  31  32
HETATM   32  O5  UNL     1      -0.778  51.186 -19.483  1.00  0.00    -0.398 OA
HETATM   33  H48 UNL     1      -0.628  52.000 -20.004  1.00  0.00     0.209 HD
ENDBRANCH  31  32
ENDBRANCH  27  31
BRANCH  28  34
HETATM   34  O6  UNL     1      -0.261  52.661 -22.275  1.00  0.00    -0.390 OA
HETATM   35  H50 UNL     1       0.324  52.288 -22.958  1.00  0.00     0.210 HD
ENDBRANCH  28  34
BRANCH  29  36
HETATM   36  O7  UNL     1      -2.754  52.952 -23.500  1.00  0.00    -0.390 OA
HETATM   37  H52 UNL     1      -1.991  53.557 -23.398  1.00  0.00     0.210 HD
ENDBRANCH  29  36
BRANCH  30  38
HETATM   38  O8  UNL     1      -4.000  50.283 -24.116  1.00  0.00    -0.388 OA
HETATM   39  H54 UNL     1      -4.231  51.101 -24.596  1.00  0.00     0.210 HD
ENDBRANCH  30  38
ENDBRANCH  24  25
ENDBRANCH  20  24
BRANCH   1  40
HETATM   40  C8  UNL     1     -13.703  46.797 -19.735  1.00  0.00    -0.010 C 
HETATM   41  C9  UNL     1     -14.210  47.307 -21.091  1.00  0.00     0.010 C 
BRANCH  40  42
HETATM   42  C7  UNL     1     -14.781  47.088 -18.649  1.00  0.00     0.031 C 
BRANCH  42  43
HETATM   43  C6  UNL     1     -16.218  47.243 -19.087  1.00  0.00    -0.027 C 
HETATM   44  C5  UNL     1     -17.093  46.256 -19.346  1.00  0.00     0.006 C 
BRANCH  44  45
HETATM   45  C2  UNL     1     -18.545  46.389 -19.771  1.00  0.00     0.070 C 
HETATM   46  C3  UNL     1     -19.224  47.722 -19.411  1.00  0.00     0.050 C 
HETATM   47  C4  UNL     1     -19.331  45.253 -19.098  1.00  0.00     0.050 C 
BRANCH  45  48
HETATM   48  O1  UNL     1     -18.630  46.116 -21.182  1.00  0.00    -0.382 OA
HETATM   49  C1  UNL     1     -19.290  44.908 -21.543  1.00  0.00     0.202 C 
ENDBRANCH  45  48
ENDBRANCH  44  45
ENDBRANCH  42  43
ENDBRANCH  40  42
ENDBRANCH   1  40
TORSDOF 12
ENDMDL
MODEL 7
REMARK minimizedAffinity -8.80697441
REMARK CNNscore 0.325565636
REMARK CNNaffinity 6.83263636
REMARK  12 active torsions:
REMARK  status: ('A' for Active; 'I' for Inactive)
REMARK    1  A    between atoms: O1_2  and  C2_3 
REMARK    2  A    between atoms: C2_3  and  C5_6 
REMARK    3  A    between atoms: C6_7  and  C7_8 
REMARK    4  A    between atoms: C7_8  and  C8_9 
REMARK    5  A    between atoms: C8_9  and  C10_11 
REMARK    6  A    between atoms: C28_30  and  O3_31 
REMARK    7  A    between atoms: O3_31  and  C29_32 
REMARK    8  A    between atoms: C30_34  and  C31_35 
REMARK    9  A    between atoms: C31_35  and  O5_36 
REMARK   10  A    between atoms: C32_37  and  O6_38 
REMARK   11  A    between atoms: C33_39  and  O7_40 
REMARK   12  A    between atoms: C34_41  and  O8_42 
ROOT
HETATM    1  C10 UNL     1      -0.196  51.321 -21.046  1.00  0.00    -0.002 C 
HETATM    2  C11 UNL     1      -0.685  51.965 -19.708  1.00  0.00     0.006 C 
HETATM    3  C12 UNL     1      -2.180  51.625 -19.547  1.00  0.00     0.011 C 
HETATM    4  C13 UNL     1      -2.443  50.519 -20.588  1.00  0.00    -0.029 C 
HETATM    5  C14 UNL     1      -1.950  49.200 -19.922  1.00  0.00     0.016 C 
HETATM    6  C15 UNL     1      -3.922  50.394 -21.058  1.00  0.00     0.028 C 
HETATM    7  C16 UNL     1      -4.901  49.982 -19.980  1.00  0.00    -0.021 C 
HETATM    8  C17 UNL     1      -5.895  49.113 -20.229  1.00  0.00     0.008 C 
HETATM    9  C18 UNL     1      -6.065  48.455 -21.596  1.00  0.00     0.092 C 
HETATM   10  O2  UNL     1      -6.560  49.500 -22.457  1.00  0.00    -0.374 OA
HETATM   11  C19 UNL     1      -5.413  50.113 -23.092  1.00  0.00     0.179 C 
HETATM   12  C20 UNL     1      -4.118  49.563 -22.392  1.00  0.00    -0.004 C 
HETATM   13  C21 UNL     1      -2.937  49.625 -23.396  1.00  0.00     0.014 C 
HETATM   14  C22 UNL     1      -1.532  49.910 -22.842  1.00  0.00     0.011 C 
HETATM   15  C23 UNL     1      -1.541  51.022 -21.783  1.00  0.00    -0.032 C 
HETATM   16  C24 UNL     1      -2.049  52.340 -22.451  1.00  0.00     0.016 C 
HETATM   17  C25 UNL     1      -4.680  48.136 -22.188  1.00  0.00     0.036 C 
HETATM   18  C26 UNL     1      -3.962  47.048 -21.404  1.00  0.00     0.011 C 
HETATM   19  C27 UNL     1      -4.825  45.782 -21.343  1.00  0.00     0.033 C 
HETATM   20  C28 UNL     1      -6.248  46.056 -20.810  1.00  0.00     0.136 C 
HETATM   21  C35 UNL     1      -6.983  47.187 -21.602  1.00  0.00     0.014 C 
HETATM   22  C36 UNL     1      -7.308  46.735 -23.051  1.00  0.00     0.021 C 
HETATM   23  C37 UNL     1      -8.363  47.464 -20.954  1.00  0.00     0.021 C 
ENDROOT
BRANCH  20  24
HETATM   24  O3  UNL     1      -7.041  44.863 -20.862  1.00  0.00    -0.352 OA
BRANCH  24  25
HETATM   25  C29 UNL     1      -6.279  43.665 -21.023  1.00  0.00     0.292 C 
HETATM   26  O4  UNL     1      -6.967  42.771 -21.902  1.00  0.00    -0.348 OA
HETATM   27  C30 UNL     1      -8.261  42.335 -21.440  1.00  0.00     0.179 C 
HETATM   28  C32 UNL     1      -8.386  42.245 -19.908  1.00  0.00     0.180 C 
HETATM   29  C33 UNL     1      -7.015  41.926 -19.318  1.00  0.00     0.183 C 
HETATM   30  C34 UNL     1      -6.023  43.047 -19.627  1.00  0.00     0.204 C 
BRANCH  27  31
HETATM   31  C31 UNL     1      -9.366  43.203 -22.056  1.00  0.00     0.198 C 
BRANCH  31  32
HETATM   32  O5  UNL     1      -8.902  43.770 -23.285  1.00  0.00    -0.398 OA
HETATM   33  H48 UNL     1      -7.999  44.096 -23.094  1.00  0.00     0.209 HD
ENDBRANCH  31  32
ENDBRANCH  27  31
BRANCH  28  34
HETATM   34  O6  UNL     1      -9.320  41.229 -19.507  1.00  0.00    -0.390 OA
HETATM   35  H50 UNL     1      -9.107  40.408 -19.986  1.00  0.00     0.210 HD
ENDBRANCH  28  34
BRANCH  29  36
HETATM   36  O7  UNL     1      -7.102  41.753 -17.893  1.00  0.00    -0.390 OA
HETATM   37  H52 UNL     1      -7.934  41.262 -17.736  1.00  0.00     0.210 HD
ENDBRANCH  29  36
BRANCH  30  38
HETATM   38  O8  UNL     1      -4.693  42.499 -19.536  1.00  0.00    -0.388 OA
HETATM   39  H54 UNL     1      -4.628  42.127 -18.635  1.00  0.00     0.210 HD
ENDBRANCH  30  38
ENDBRANCH  24  25
ENDBRANCH  20  24
BRANCH   1  40
HETATM   40  C8  UNL     1       0.900  52.198 -21.731  1.00  0.00    -0.010 C 
HETATM   41  C9  UNL     1       1.389  53.337 -20.824  1.00  0.00     0.010 C 
BRANCH  40  42
HETATM   42  C7  UNL     1       0.353  52.807 -23.056  1.00  0.00     0.031 C 
BRANCH  42  43
HETATM   43  C6  UNL     1       0.779  52.181 -24.363  1.00  0.00    -0.027 C 
HETATM   44  C5  UNL     1       0.364  52.525 -25.595  1.00  0.00     0.006 C 
BRANCH  44  45
HETATM   45  C2  UNL     1       0.790  51.922 -26.922  1.00  0.00     0.070 C 
HETATM   46  C3  UNL     1       2.303  51.705 -27.099  1.00  0.00     0.050 C 
HETATM   47  C4  UNL     1       0.307  52.864 -28.036  1.00  0.00     0.050 C 
BRANCH  45  48
HETATM   48  O1  UNL     1       0.053  50.702 -27.121  1.00  0.00    -0.382 OA
HETATM   49  C1  UNL     1      -1.360  50.799 -26.985  1.00  0.00     0.202 C 
ENDBRANCH  45  48
ENDBRANCH  44  45
ENDBRANCH  42  43
ENDBRANCH  40  42
ENDBRANCH   1  40
TORSDOF 12
ENDMDL
MODEL 8
REMARK minimizedAffinity -9.25549984
REMARK CNNscore 0.309627444
REMARK CNNaffinity 7.14488029
REMARK  12 active torsions:
REMARK  status: ('A' for Active; 'I' for Inactive)
REMARK    1  A    between atoms: O1_2  and  C2_3 
REMARK    2  A    between atoms: C2_3  and  C5_6 
REMARK    3  A    between atoms: C6_7  and  C7_8 
REMARK    4  A    between atoms: C7_8  and  C8_9 
REMARK    5  A    between atoms: C8_9  and  C10_11 
REMARK    6  A    between atoms: C28_30  and  O3_31 
REMARK    7  A    between atoms: O3_31  and  C29_32 
REMARK    8  A    between atoms: C30_34  and  C31_35 
REMARK    9  A    between atoms: C31_35  and  O5_36 
REMARK   10  A    between atoms: C32_37  and  O6_38 
REMARK   11  A    between atoms: C33_39  and  O7_40 
REMARK   12  A    between atoms: C34_41  and  O8_42 
ROOT
HETATM    1  C10 UNL     1      -3.176  49.546 -21.674  1.00  0.00    -0.002 C 
HETATM    2  C11 UNL     1      -2.916  48.008 -21.569  1.00  0.00     0.006 C 
HETATM    3  C12 UNL     1      -2.090  47.762 -20.290  1.00  0.00     0.011 C 
HETATM    4  C13 UNL     1      -2.184  49.085 -19.505  1.00  0.00    -0.029 C 
HETATM    5  C14 UNL     1      -3.557  49.032 -18.771  1.00  0.00     0.016 C 
HETATM    6  C15 UNL     1      -1.020  49.342 -18.503  1.00  0.00     0.028 C 
HETATM    7  C16 UNL     1      -0.936  48.358 -17.357  1.00  0.00    -0.021 C 
HETATM    8  C17 UNL     1      -0.641  48.757 -16.109  1.00  0.00     0.008 C 
HETATM    9  C18 UNL     1      -0.422  50.228 -15.765  1.00  0.00     0.092 C 
HETATM   10  O2  UNL     1       0.859  50.561 -16.336  1.00  0.00    -0.374 OA
HETATM   11  C19 UNL     1       0.615  51.090 -17.661  1.00  0.00     0.179 C 
HETATM   12  C20 UNL     1      -0.896  50.842 -18.012  1.00  0.00    -0.004 C 
HETATM   13  C21 UNL     1      -1.359  51.918 -19.030  1.00  0.00     0.014 C 
HETATM   14  C22 UNL     1      -2.406  51.514 -20.082  1.00  0.00     0.011 C 
HETATM   15  C23 UNL     1      -2.117  50.131 -20.685  1.00  0.00    -0.032 C 
HETATM   16  C24 UNL     1      -0.734  50.185 -21.409  1.00  0.00     0.016 C 
HETATM   17  C25 UNL     1      -1.405  51.096 -16.574  1.00  0.00     0.036 C 
HETATM   18  C26 UNL     1      -2.846  50.883 -16.136  1.00  0.00     0.011 C 
HETATM   19  C27 UNL     1      -2.990  51.164 -14.635  1.00  0.00     0.033 C 
HETATM   20  C28 UNL     1      -1.986  50.362 -13.779  1.00  0.00     0.136 C 
HETATM   21  C35 UNL     1      -0.505  50.563 -14.238  1.00  0.00     0.014 C 
HETATM   22  C36 UNL     1      -0.023  52.011 -13.952  1.00  0.00     0.021 C 
HETATM   23  C37 UNL     1       0.430  49.660 -13.393  1.00  0.00     0.021 C 
ENDROOT
BRANCH  20  24
HETATM   24  O3  UNL     1      -2.098  50.730 -12.398  1.00  0.00    -0.352 OA
BRANCH  24  25
HETATM   25  C29 UNL     1      -3.433  51.020 -11.981  1.00  0.00     0.292 C 
HETATM   26  O4  UNL     1      -3.516  52.380 -11.544  1.00  0.00    -0.348 OA
HETATM   27  C30 UNL     1      -2.687  52.710 -10.412  1.00  0.00     0.179 C 
HETATM   28  C32 UNL     1      -2.461  51.542  -9.435  1.00  0.00     0.180 C 
HETATM   29  C33 UNL     1      -3.675  50.617  -9.480  1.00  0.00     0.183 C 
HETATM   30  C34 UNL     1      -3.840  50.015 -10.876  1.00  0.00     0.204 C 
BRANCH  27  31
HETATM   31  C31 UNL     1      -1.364  53.328 -10.883  1.00  0.00     0.198 C 
BRANCH  31  32
HETATM   32  O5  UNL     1      -1.479  54.753 -10.899  1.00  0.00    -0.398 OA
HETATM   33  H48 UNL     1      -2.344  54.939 -11.318  1.00  0.00     0.209 HD
ENDBRANCH  31  32
ENDBRANCH  27  31
BRANCH  28  34
HETATM   34  O6  UNL     1      -2.269  52.002  -8.087  1.00  0.00    -0.390 OA
HETATM   35  H50 UNL     1      -2.981  52.631  -7.872  1.00  0.00     0.210 HD
ENDBRANCH  28  34
BRANCH  29  36
HETATM   36  O7  UNL     1      -3.541  49.554  -8.522  1.00  0.00    -0.390 OA
HETATM   37  H52 UNL     1      -3.148  49.964  -7.724  1.00  0.00     0.210 HD
ENDBRANCH  29  36
BRANCH  30  38
HETATM   38  O8  UNL     1      -5.214  49.608 -11.022  1.00  0.00    -0.388 OA
HETATM   39  H54 UNL     1      -5.380  48.989 -10.285  1.00  0.00     0.210 HD
ENDBRANCH  30  38
ENDBRANCH  24  25
ENDBRANCH  20  24
BRANCH   1  40
HETATM   40  C8  UNL     1      -3.210  50.016 -23.163  1.00  0.00    -0.010 C 
HETATM   41  C9  UNL     1      -2.676  48.946 -24.126  1.00  0.00     0.010 C 
BRANCH  40  42
HETATM   42  C7  UNL     1      -2.370  51.316 -23.337  1.00  0.00     0.031 C 
BRANCH  42  43
HETATM   43  C6  UNL     1      -1.675  51.552 -24.657  1.00  0.00    -0.027 C 
HETATM   44  C5  UNL     1      -0.363  51.770 -24.850  1.00  0.00     0.006 C 
BRANCH  44  45
HETATM   45  C2  UNL     1       0.359  51.994 -26.167  1.00  0.00     0.070 C 
HETATM   46  C3  UNL     1      -0.256  51.291 -27.390  1.00  0.00     0.050 C 
HETATM   47  C4  UNL     1       1.800  51.489 -25.998  1.00  0.00     0.050 C 
BRANCH  45  48
HETATM   48  O1  UNL     1       0.484  53.412 -26.379  1.00  0.00    -0.382 OA
HETATM   49  C1  UNL     1      -0.185  53.931 -27.522  1.00  0.00     0.202 C 
ENDBRANCH  45  48
ENDBRANCH  44  45
ENDBRANCH  42  43
ENDBRANCH  40  42
ENDBRANCH   1  40
TORSDOF 12
ENDMDL
MODEL 9
REMARK minimizedAffinity -10.3863888
REMARK CNNscore 0.302263796
REMARK CNNaffinity 7.32537651
REMARK  12 active torsions:
REMARK  status: ('A' for Active; 'I' for Inactive)
REMARK    1  A    between atoms: O1_2  and  C2_3 
REMARK    2  A    between atoms: C2_3  and  C5_6 
REMARK    3  A    between atoms: C6_7  and  C7_8 
REMARK    4  A    between atoms: C7_8  and  C8_9 
REMARK    5  A    between atoms: C8_9  and  C10_11 
REMARK    6  A    between atoms: C28_30  and  O3_31 
REMARK    7  A    between atoms: O3_31  and  C29_32 
REMARK    8  A    between atoms: C30_34  and  C31_35 
REMARK    9  A    between atoms: C31_35  and  O5_36 
REMARK   10  A    between atoms: C32_37  and  O6_38 
REMARK   11  A    between atoms: C33_39  and  O7_40 
REMARK   12  A    between atoms: C34_41  and  O8_42 
ROOT
HETATM    1  C10 UNL     1      -0.641  50.377 -21.443  1.00  0.00    -0.002 C 
HETATM    2  C11 UNL     1      -0.478  49.068 -20.604  1.00  0.00     0.006 C 
HETATM    3  C12 UNL     1      -1.843  48.351 -20.589  1.00  0.00     0.011 C 
HETATM    4  C13 UNL     1      -2.665  49.055 -21.687  1.00  0.00    -0.029 C 
HETATM    5  C14 UNL     1      -2.206  48.406 -23.026  1.00  0.00     0.016 C 
HETATM    6  C15 UNL     1      -4.210  48.962 -21.516  1.00  0.00     0.028 C 
HETATM    7  C16 UNL     1      -4.778  47.563 -21.615  1.00  0.00    -0.021 C 
HETATM    8  C17 UNL     1      -5.932  47.318 -22.257  1.00  0.00     0.008 C 
HETATM    9  C18 UNL     1      -6.710  48.424 -22.966  1.00  0.00     0.092 C 
HETATM   10  O2  UNL     1      -7.292  49.211 -21.908  1.00  0.00    -0.374 OA
HETATM   11  C19 UNL     1      -6.370  50.288 -21.617  1.00  0.00     0.179 C 
HETATM   12  C20 UNL     1      -5.030  50.002 -22.385  1.00  0.00    -0.004 C 
HETATM   13  C21 UNL     1      -4.312  51.349 -22.666  1.00  0.00     0.014 C 
HETATM   14  C22 UNL     1      -2.774  51.363 -22.658  1.00  0.00     0.011 C 
HETATM   15  C23 UNL     1      -2.193  50.549 -21.492  1.00  0.00    -0.032 C 
HETATM   16  C24 UNL     1      -2.667  51.196 -20.151  1.00  0.00     0.016 C 
HETATM   17  C25 UNL     1      -5.722  49.401 -23.631  1.00  0.00     0.036 C 
HETATM   18  C26 UNL     1      -4.972  48.755 -24.786  1.00  0.00     0.011 C 
HETATM   19  C27 UNL     1      -5.964  48.207 -25.820  1.00  0.00     0.033 C 
HETATM   20  C28 UNL     1      -7.016  47.265 -25.196  1.00  0.00     0.136 C 
HETATM   21  C35 UNL     1      -7.776  47.919 -23.995  1.00  0.00     0.014 C 
HETATM   22  C36 UNL     1      -8.689  49.080 -24.476  1.00  0.00     0.021 C 
HETATM   23  C37 UNL     1      -8.746  46.885 -23.368  1.00  0.00     0.021 C 
ENDROOT
BRANCH  20  24
HETATM   24  O3  UNL     1      -7.972  46.857 -26.183  1.00  0.00    -0.352 OA
BRANCH  24  25
HETATM   25  C29 UNL     1      -7.741  47.411 -27.479  1.00  0.00     0.292 C 
HETATM   26  O4  UNL     1      -8.858  48.217 -27.865  1.00  0.00    -0.348 OA
HETATM   27  C30 UNL     1     -10.111  47.513 -27.974  1.00  0.00     0.179 C 
HETATM   28  C32 UNL     1      -9.971  46.039 -28.398  1.00  0.00     0.180 C 
HETATM   29  C33 UNL     1      -8.724  45.891 -29.268  1.00  0.00     0.183 C 
HETATM   30  C34 UNL     1      -7.470  46.256 -28.473  1.00  0.00     0.204 C 
BRANCH  27  31
HETATM   31  C31 UNL     1     -10.920  47.663 -26.679  1.00  0.00     0.198 C 
BRANCH  31  32
HETATM   32  O5  UNL     1     -11.541  48.950 -26.647  1.00  0.00    -0.398 OA
HETATM   33  H48 UNL     1     -10.847  49.580 -26.929  1.00  0.00     0.209 HD
ENDBRANCH  31  32
ENDBRANCH  27  31
BRANCH  28  34
HETATM   34  O6  UNL     1     -11.117  45.584 -29.137  1.00  0.00    -0.390 OA
HETATM   35  H50 UNL     1     -11.310  46.234 -29.837  1.00  0.00     0.210 HD
ENDBRANCH  28  34
BRANCH  29  36
HETATM   36  O7  UNL     1      -8.599  44.544 -29.753  1.00  0.00    -0.390 OA
HETATM   37  H52 UNL     1      -9.508  44.259 -29.982  1.00  0.00     0.210 HD
ENDBRANCH  29  36
BRANCH  30  38
HETATM   38  O8  UNL     1      -6.438  46.610 -29.415  1.00  0.00    -0.388 OA
HETATM   39  H54 UNL     1      -6.344  45.834 -30.000  1.00  0.00     0.210 HD
ENDBRANCH  30  38
ENDBRANCH  24  25
ENDBRANCH  20  24
BRANCH   1  40
HETATM   40  C8  UNL     1       0.263  51.523 -20.888  1.00  0.00    -0.010 C 
HETATM   41  C9  UNL     1      -0.345  52.201 -19.652  1.00  0.00     0.010 C 
BRANCH  40  42
HETATM   42  C7  UNL     1       0.505  52.599 -21.988  1.00  0.00     0.031 C 
BRANCH  42  43
HETATM   43  C6  UNL     1       0.281  52.215 -23.431  1.00  0.00    -0.027 C 
HETATM   44  C5  UNL     1       1.061  52.530 -24.480  1.00  0.00     0.006 C 
BRANCH  44  45
HETATM   45  C2  UNL     1       0.863  52.142 -25.935  1.00  0.00     0.070 C 
HETATM   46  C3  UNL     1      -0.275  51.143 -26.208  1.00  0.00     0.050 C 
HETATM   47  C4  UNL     1       2.178  51.520 -26.431  1.00  0.00     0.050 C 
BRANCH  45  48
HETATM   48  O1  UNL     1       0.707  53.346 -26.707  1.00  0.00    -0.382 OA
HETATM   49  C1  UNL     1      -0.112  53.241 -27.866  1.00  0.00     0.202 C 
ENDBRANCH  45  48
ENDBRANCH  44  45
ENDBRANCH  42  43
ENDBRANCH  40  42
ENDBRANCH   1  40
TORSDOF 12
ENDMDL
