MODEL 1
REMARK minimizedAffinity -8.62125015
REMARK CNNscore 0.364963889
REMARK CNNaffinity 6.69297409
REMARK  9 active torsions:
REMARK  status: ('A' for Active; 'I' for Inactive)
REMARK    1  A    between atoms: C3_3  and  O1_4 
REMARK    2  A    between atoms: N1_14  and  O2_16 
REMARK    3  A    between atoms: O2_16  and  C13_17 
REMARK    4  A    between atoms: C13_17  and  C14_18 
REMARK       I    between atoms: C14_18  and  N2_20 
REMARK    5  A    between atoms: N2_20  and  C15_21 
REMARK    6  A    between atoms: C15_21  and  C16_22 
REMARK    7  A    between atoms: C15_21  and  C18_26 
REMARK    8  A    between atoms: C16_22  and  C17_23 
REMARK    9  A    between atoms: C17_23  and  O5_25 
ROOT
HETATM    1  C1  UNL     1      -2.637  48.493 -26.390  1.00  0.00     0.015 C 
HETATM    2  C2  UNL     1      -2.746  49.535 -25.799  1.00  0.00    -0.078 C 
HETATM    3  C3  UNL     1      -2.864  50.835 -25.115  1.00  0.00     0.128 C 
HETATM    4  C4  UNL     1      -1.517  51.333 -24.620  1.00  0.00     0.052 C 
HETATM    5  C5  UNL     1      -1.894  52.441 -23.644  1.00  0.00     0.010 C 
HETATM    6  C6  UNL     1      -3.176  51.968 -22.920  1.00  0.00     0.002 C 
HETATM    7  C7  UNL     1      -2.856  51.515 -21.469  1.00  0.00    -0.004 C 
HETATM    8  C8  UNL     1      -4.116  51.432 -20.573  1.00  0.00     0.010 C 
HETATM    9  C9  UNL     1      -4.057  50.333 -19.504  1.00  0.00     0.035 C 
HETATM   10  C10 UNL     1      -2.664  50.219 -18.949  1.00  0.00    -0.069 C 
HETATM   11  C11 UNL     1      -2.399  50.492 -17.658  1.00  0.00     0.030 C 
HETATM   12  C12 UNL     1      -1.002  50.499 -17.140  1.00  0.00     0.032 C 
HETATM   13  N1  UNL     1      -0.818  50.463 -15.849  1.00  0.00    -0.271 N 
ATOM     14  H1  UNL     1      -1.569  50.439 -15.159  1.00  0.00     0.194 HD
HETATM   15  C25 UNL     1       0.142  50.531 -18.142  1.00  0.00     0.060 C 
HETATM   16  C26 UNL     1      -0.323  50.704 -19.588  1.00  0.00     0.020 C 
HETATM   17  C27 UNL     1      -1.576  49.851 -19.952  1.00  0.00    -0.016 C 
HETATM   18  C28 UNL     1      -1.207  48.353 -19.823  1.00  0.00     0.020 C 
HETATM   19  C29 UNL     1      -2.019  50.215 -21.430  1.00  0.00     0.002 C 
HETATM   20  C30 UNL     1      -2.689  49.087 -22.252  1.00  0.00     0.007 C 
HETATM   21  C31 UNL     1      -3.893  49.504 -23.095  1.00  0.00     0.014 C 
HETATM   22  C32 UNL     1      -3.791  50.856 -23.847  1.00  0.00     0.003 C 
HETATM   23  C33 UNL     1      -5.234  51.255 -24.251  1.00  0.00     0.020 C 
ENDROOT
BRANCH   3  24
HETATM   24  O1  UNL     1      -3.321  51.801 -26.074  1.00  0.00    -0.377 OA
HETATM   25  H2  UNL     1      -2.918  51.569 -26.929  1.00  0.00     0.211 HD
ENDBRANCH   3  24
BRANCH  13  26
HETATM   26  O2  UNL     1       0.551  50.461 -15.533  1.00  0.00    -0.271 OA
BRANCH  26  27
HETATM   27  C13 UNL     1       0.872  51.635 -14.791  1.00  0.00     0.303 C 
BRANCH  27  28
HETATM   28  C14 UNL     1       1.197  51.365 -13.324  1.00  0.00     0.244 C 
HETATM   29  O3  UNL     1       0.360  50.912 -12.547  1.00  0.00    -0.271 OA
HETATM   30  N2  UNL     1       2.487  51.682 -12.941  1.00  0.00    -0.354 N 
HETATM   31  H16 UNL     1       3.105  52.021 -13.678  1.00  0.00     0.162 HD
BRANCH  30  32
HETATM   32  C15 UNL     1       3.014  51.382 -11.604  1.00  0.00     0.098 C 
BRANCH  32  33
HETATM   33  C16 UNL     1       4.115  50.312 -11.682  1.00  0.00     0.135 C 
BRANCH  33  34
HETATM   34  C17 UNL     1       4.069  49.536 -12.966  1.00  0.00     0.141 C 
HETATM   35  O4  UNL     1       3.413  48.528 -13.172  1.00  0.00    -0.650 OA
BRANCH  34  36
HETATM   36  O5  UNL     1       4.814  50.097 -13.940  1.00  0.00    -0.776 OA
HETATM   37  H20 UNL     1       4.766  49.450 -14.674  1.00  0.00     0.167 HD
ENDBRANCH  34  36
ENDBRANCH  33  34
ENDBRANCH  32  33
BRANCH  32  38
HETATM   38  C18 UNL     1       3.487  52.691 -10.916  1.00  0.00     0.014 C 
HETATM   39  C19 UNL     1       2.326  53.704 -10.775  1.00  0.00     0.033 C 
HETATM   40  C20 UNL     1       2.405  54.515  -9.486  1.00  0.00     0.169 C 
HETATM   41  O6  UNL     1       3.751  54.906  -9.238  1.00  0.00    -0.381 OA
HETATM   42  C21 UNL     1       4.638  53.816  -8.939  1.00  0.00     0.054 C 
HETATM   43  C22 UNL     1       6.011  54.222  -9.500  1.00  0.00     0.045 C 
HETATM   44  C23 UNL     1       4.747  53.691  -7.415  1.00  0.00     0.045 C 
HETATM   45  C24 UNL     1       4.168  52.476  -9.554  1.00  0.00     0.044 C 
ENDBRANCH  32  38
ENDBRANCH  30  32
ENDBRANCH  27  28
ENDBRANCH  26  27
ENDBRANCH  13  26
TORSDOF 9
ENDMDL
MODEL 2
REMARK minimizedAffinity -8.67326164
REMARK CNNscore 0.326976568
REMARK CNNaffinity 6.62276411
REMARK  9 active torsions:
REMARK  status: ('A' for Active; 'I' for Inactive)
REMARK    1  A    between atoms: C3_3  and  O1_4 
REMARK    2  A    between atoms: N1_14  and  O2_16 
REMARK    3  A    between atoms: O2_16  and  C13_17 
REMARK    4  A    between atoms: C13_17  and  C14_18 
REMARK       I    between atoms: C14_18  and  N2_20 
REMARK    5  A    between atoms: N2_20  and  C15_21 
REMARK    6  A    between atoms: C15_21  and  C16_22 
REMARK    7  A    between atoms: C15_21  and  C18_26 
REMARK    8  A    between atoms: C16_22  and  C17_23 
REMARK    9  A    between atoms: C17_23  and  O5_25 
ROOT
HETATM    1  C1  UNL     1      -3.235  50.948 -26.436  1.00  0.00     0.015 C 
HETATM    2  C2  UNL     1      -3.810  50.929 -25.379  1.00  0.00    -0.078 C 
HETATM    3  C3  UNL     1      -4.550  50.935 -24.105  1.00  0.00     0.128 C 
HETATM    4  C4  UNL     1      -4.302  52.212 -23.319  1.00  0.00     0.052 C 
HETATM    5  C5  UNL     1      -4.814  51.866 -21.926  1.00  0.00     0.010 C 
HETATM    6  C6  UNL     1      -4.444  50.385 -21.679  1.00  0.00     0.002 C 
HETATM    7  C7  UNL     1      -3.246  50.271 -20.697  1.00  0.00    -0.004 C 
HETATM    8  C8  UNL     1      -3.098  48.854 -20.091  1.00  0.00     0.010 C 
HETATM    9  C9  UNL     1      -1.648  48.442 -19.801  1.00  0.00     0.035 C 
HETATM   10  C10 UNL     1      -0.861  49.621 -19.297  1.00  0.00    -0.069 C 
HETATM   11  C11 UNL     1      -0.348  49.642 -18.053  1.00  0.00     0.030 C 
HETATM   12  C12 UNL     1       0.322  50.858 -17.513  1.00  0.00     0.032 C 
HETATM   13  N1  UNL     1       1.062  50.738 -16.446  1.00  0.00    -0.271 N 
ATOM     14  H1  UNL     1       1.208  49.864 -15.941  1.00  0.00     0.194 HD
HETATM   15  C25 UNL     1       0.126  52.178 -18.245  1.00  0.00     0.060 C 
HETATM   16  C26 UNL     1      -0.885  52.094 -19.388  1.00  0.00     0.020 C 
HETATM   17  C27 UNL     1      -0.751  50.805 -20.253  1.00  0.00    -0.016 C 
HETATM   18  C28 UNL     1       0.636  50.814 -20.941  1.00  0.00     0.020 C 
HETATM   19  C29 UNL     1      -1.927  50.788 -21.316  1.00  0.00     0.002 C 
HETATM   20  C30 UNL     1      -1.630  50.098 -22.670  1.00  0.00     0.007 C 
HETATM   21  C31 UNL     1      -2.751  49.227 -23.232  1.00  0.00     0.014 C 
HETATM   22  C32 UNL     1      -4.197  49.774 -23.107  1.00  0.00     0.003 C 
HETATM   23  C33 UNL     1      -5.153  48.573 -23.332  1.00  0.00     0.020 C 
ENDROOT
BRANCH   3  24
HETATM   24  O1  UNL     1      -5.953  50.916 -24.407  1.00  0.00    -0.377 OA
HETATM   25  H2  UNL     1      -6.080  51.442 -25.215  1.00  0.00     0.211 HD
ENDBRANCH   3  24
BRANCH  13  26
HETATM   26  O2  UNL     1       1.629  51.971 -16.082  1.00  0.00    -0.271 OA
BRANCH  26  27
HETATM   27  C13 UNL     1       2.337  51.826 -14.853  1.00  0.00     0.303 C 
BRANCH  27  28
HETATM   28  C14 UNL     1       1.496  52.138 -13.618  1.00  0.00     0.244 C 
HETATM   29  O3  UNL     1       0.294  52.379 -13.697  1.00  0.00    -0.271 OA
HETATM   30  N2  UNL     1       2.189  52.142 -12.422  1.00  0.00    -0.354 N 
HETATM   31  H16 UNL     1       3.177  51.896 -12.472  1.00  0.00     0.162 HD
BRANCH  30  32
HETATM   32  C15 UNL     1       1.526  52.305 -11.122  1.00  0.00     0.098 C 
BRANCH  32  33
HETATM   33  C16 UNL     1       1.632  51.014 -10.293  1.00  0.00     0.135 C 
BRANCH  33  34
HETATM   34  C17 UNL     1       2.753  50.129 -10.754  1.00  0.00     0.141 C 
HETATM   35  O4  UNL     1       3.930  50.246 -10.457  1.00  0.00    -0.650 OA
BRANCH  34  36
HETATM   36  O5  UNL     1       2.325  49.109 -11.527  1.00  0.00    -0.776 OA
HETATM   37  H20 UNL     1       3.153  48.677 -11.824  1.00  0.00     0.167 HD
ENDBRANCH  34  36
ENDBRANCH  33  34
ENDBRANCH  32  33
BRANCH  32  38
HETATM   38  C18 UNL     1       2.100  53.547 -10.388  1.00  0.00     0.014 C 
HETATM   39  C19 UNL     1       2.050  53.366  -8.853  1.00  0.00     0.033 C 
HETATM   40  C20 UNL     1       3.248  53.993  -8.145  1.00  0.00     0.169 C 
HETATM   41  O6  UNL     1       3.545  55.259  -8.724  1.00  0.00    -0.381 OA
HETATM   42  C21 UNL     1       4.019  55.196 -10.078  1.00  0.00     0.054 C 
HETATM   43  C22 UNL     1       3.515  56.476 -10.765  1.00  0.00     0.045 C 
HETATM   44  C23 UNL     1       5.552  55.223 -10.050  1.00  0.00     0.045 C 
HETATM   45  C24 UNL     1       3.521  53.936 -10.828  1.00  0.00     0.044 C 
ENDBRANCH  32  38
ENDBRANCH  30  32
ENDBRANCH  27  28
ENDBRANCH  26  27
ENDBRANCH  13  26
TORSDOF 9
ENDMDL
MODEL 3
REMARK minimizedAffinity -9.24292946
REMARK CNNscore 0.286939144
REMARK CNNaffinity 6.8049202
REMARK  9 active torsions:
REMARK  status: ('A' for Active; 'I' for Inactive)
REMARK    1  A    between atoms: C3_3  and  O1_4 
REMARK    2  A    between atoms: N1_14  and  O2_16 
REMARK    3  A    between atoms: O2_16  and  C13_17 
REMARK    4  A    between atoms: C13_17  and  C14_18 
REMARK       I    between atoms: C14_18  and  N2_20 
REMARK    5  A    between atoms: N2_20  and  C15_21 
REMARK    6  A    between atoms: C15_21  and  C16_22 
REMARK    7  A    between atoms: C15_21  and  C18_26 
REMARK    8  A    between atoms: C16_22  and  C17_23 
REMARK    9  A    between atoms: C17_23  and  O5_25 
ROOT
HETATM    1  C1  UNL     1      -3.103  51.607 -26.346  1.00  0.00     0.015 C 
HETATM    2  C2  UNL     1      -3.688  51.380 -25.319  1.00  0.00    -0.078 C 
HETATM    3  C3  UNL     1      -4.442  51.128 -24.078  1.00  0.00     0.128 C 
HETATM    4  C4  UNL     1      -4.379  52.316 -23.133  1.00  0.00     0.052 C 
HETATM    5  C5  UNL     1      -4.863  51.733 -21.811  1.00  0.00     0.010 C 
HETATM    6  C6  UNL     1      -4.302  50.294 -21.736  1.00  0.00     0.002 C 
HETATM    7  C7  UNL     1      -3.114  50.215 -20.737  1.00  0.00    -0.004 C 
HETATM    8  C8  UNL     1      -2.788  48.765 -20.306  1.00  0.00     0.010 C 
HETATM    9  C9  UNL     1      -1.300  48.513 -20.021  1.00  0.00     0.035 C 
HETATM   10  C10 UNL     1      -0.687  49.712 -19.351  1.00  0.00    -0.069 C 
HETATM   11  C11 UNL     1      -0.201  49.643 -18.098  1.00  0.00     0.030 C 
HETATM   12  C12 UNL     1       0.292  50.859 -17.391  1.00  0.00     0.032 C 
HETATM   13  N1  UNL     1       1.024  50.703 -16.324  1.00  0.00    -0.271 N 
ATOM     14  H1  UNL     1       1.278  49.799 -15.925  1.00  0.00     0.194 HD
HETATM   15  C25 UNL     1      -0.068  52.222 -17.961  1.00  0.00     0.060 C 
HETATM   16  C26 UNL     1      -1.040  52.152 -19.138  1.00  0.00     0.020 C 
HETATM   17  C27 UNL     1      -0.721  51.011 -20.150  1.00  0.00    -0.016 C 
HETATM   18  C28 UNL     1       0.662  51.289 -20.787  1.00  0.00     0.020 C 
HETATM   19  C29 UNL     1      -1.867  50.975 -21.245  1.00  0.00     0.002 C 
HETATM   20  C30 UNL     1      -1.459  50.506 -22.663  1.00  0.00     0.007 C 
HETATM   21  C31 UNL     1      -2.444  49.574 -23.364  1.00  0.00     0.014 C 
HETATM   22  C32 UNL     1      -3.952  49.906 -23.220  1.00  0.00     0.003 C 
HETATM   23  C33 UNL     1      -4.734  48.628 -23.622  1.00  0.00     0.020 C 
ENDROOT
BRANCH   3  24
HETATM   24  O1  UNL     1      -5.825  50.963 -24.425  1.00  0.00    -0.377 OA
HETATM   25  H2  UNL     1      -6.008  51.565 -25.166  1.00  0.00     0.211 HD
ENDBRANCH   3  24
BRANCH  13  26
HETATM   26  O2  UNL     1       1.415  51.943 -15.792  1.00  0.00    -0.271 OA
BRANCH  26  27
HETATM   27  C13 UNL     1       2.283  51.734 -14.681  1.00  0.00     0.303 C 
BRANCH  27  28
HETATM   28  C14 UNL     1       1.575  51.779 -13.330  1.00  0.00     0.244 C 
HETATM   29  O3  UNL     1       1.825  50.969 -12.440  1.00  0.00    -0.271 OA
HETATM   30  N2  UNL     1       0.631  52.779 -13.195  1.00  0.00    -0.354 N 
HETATM   31  H16 UNL     1       0.530  53.413 -13.986  1.00  0.00     0.162 HD
BRANCH  30  32
HETATM   32  C15 UNL     1      -0.064  53.048 -11.930  1.00  0.00     0.098 C 
BRANCH  32  33
HETATM   33  C16 UNL     1      -0.199  51.761 -11.100  1.00  0.00     0.135 C 
BRANCH  33  34
HETATM   34  C17 UNL     1      -1.606  51.526 -10.633  1.00  0.00     0.141 C 
HETATM   35  O4  UNL     1      -2.558  51.233 -11.338  1.00  0.00    -0.650 OA
BRANCH  34  36
HETATM   36  O5  UNL     1      -1.733  51.624  -9.293  1.00  0.00    -0.776 OA
HETATM   37  H20 UNL     1      -2.698  51.541  -9.143  1.00  0.00     0.167 HD
ENDBRANCH  34  36
ENDBRANCH  33  34
ENDBRANCH  32  33
BRANCH  32  38
HETATM   38  C18 UNL     1       0.656  54.191 -11.163  1.00  0.00     0.014 C 
HETATM   39  C19 UNL     1      -0.301  54.894 -10.172  1.00  0.00     0.033 C 
HETATM   40  C20 UNL     1       0.397  55.331  -8.888  1.00  0.00     0.169 C 
HETATM   41  O6  UNL     1       1.673  55.885  -9.192  1.00  0.00    -0.381 OA
HETATM   42  C21 UNL     1       2.619  54.941  -9.719  1.00  0.00     0.054 C 
HETATM   43  C22 UNL     1       3.507  55.731 -10.694  1.00  0.00     0.045 C 
HETATM   44  C23 UNL     1       3.487  54.436  -8.561  1.00  0.00     0.045 C 
HETATM   45  C24 UNL     1       1.938  53.750 -10.437  1.00  0.00     0.044 C 
ENDBRANCH  32  38
ENDBRANCH  30  32
ENDBRANCH  27  28
ENDBRANCH  26  27
ENDBRANCH  13  26
TORSDOF 9
ENDMDL
MODEL 4
REMARK minimizedAffinity -8.43086052
REMARK CNNscore 0.256444633
REMARK CNNaffinity 6.71594
REMARK  9 active torsions:
REMARK  status: ('A' for Active; 'I' for Inactive)
REMARK    1  A    between atoms: C3_3  and  O1_4 
REMARK    2  A    between atoms: N1_14  and  O2_16 
REMARK    3  A    between atoms: O2_16  and  C13_17 
REMARK    4  A    between atoms: C13_17  and  C14_18 
REMARK       I    between atoms: C14_18  and  N2_20 
REMARK    5  A    between atoms: N2_20  and  C15_21 
REMARK    6  A    between atoms: C15_21  and  C16_22 
REMARK    7  A    between atoms: C15_21  and  C18_26 
REMARK    8  A    between atoms: C16_22  and  C17_23 
REMARK    9  A    between atoms: C17_23  and  O5_25 
ROOT
HETATM    1  C1  UNL     1      -0.446  52.726 -19.602  1.00  0.00     0.015 C 
HETATM    2  C2  UNL     1      -0.764  51.570 -19.706  1.00  0.00    -0.078 C 
HETATM    3  C3  UNL     1      -1.112  50.142 -19.808  1.00  0.00     0.128 C 
HETATM    4  C4  UNL     1      -0.347  49.457 -20.929  1.00  0.00     0.052 C 
HETATM    5  C5  UNL     1      -1.105  48.148 -21.115  1.00  0.00     0.010 C 
HETATM    6  C6  UNL     1      -2.602  48.476 -20.905  1.00  0.00     0.002 C 
HETATM    7  C7  UNL     1      -3.359  48.502 -22.261  1.00  0.00    -0.004 C 
HETATM    8  C8  UNL     1      -4.895  48.406 -22.094  1.00  0.00     0.010 C 
HETATM    9  C9  UNL     1      -5.692  49.171 -23.160  1.00  0.00     0.035 C 
HETATM   10  C10 UNL     1      -5.017  49.055 -24.499  1.00  0.00    -0.069 C 
HETATM   11  C11 UNL     1      -5.611  48.429 -25.532  1.00  0.00     0.030 C 
HETATM   12  C12 UNL     1      -4.893  48.207 -26.818  1.00  0.00     0.032 C 
HETATM   13  N1  UNL     1      -5.590  47.883 -27.872  1.00  0.00    -0.271 N 
ATOM     14  H1  UNL     1      -6.603  47.760 -27.878  1.00  0.00     0.194 HD
HETATM   15  C25 UNL     1      -3.383  48.386 -26.844  1.00  0.00     0.060 C 
HETATM   16  C26 UNL     1      -2.777  48.636 -25.463  1.00  0.00     0.020 C 
HETATM   17  C27 UNL     1      -3.604  49.622 -24.583  1.00  0.00    -0.016 C 
HETATM   18  C28 UNL     1      -3.618  51.007 -25.274  1.00  0.00     0.020 C 
HETATM   19  C29 UNL     1      -2.935  49.696 -23.148  1.00  0.00     0.002 C 
HETATM   20  C30 UNL     1      -3.067  51.038 -22.388  1.00  0.00     0.007 C 
HETATM   21  C31 UNL     1      -3.372  50.930 -20.895  1.00  0.00     0.014 C 
HETATM   22  C32 UNL     1      -2.623  49.828 -20.102  1.00  0.00     0.003 C 
HETATM   23  C33 UNL     1      -3.393  49.632 -18.770  1.00  0.00     0.020 C 
ENDROOT
BRANCH   3  24
HETATM   24  O1  UNL     1      -0.703  49.497 -18.592  1.00  0.00    -0.377 OA
HETATM   25  H2  UNL     1       0.118  49.930 -18.300  1.00  0.00     0.211 HD
ENDBRANCH   3  24
BRANCH  13  26
HETATM   26  O2  UNL     1      -4.764  47.726 -28.997  1.00  0.00    -0.271 OA
BRANCH  26  27
HETATM   27  C13 UNL     1      -5.558  47.764 -30.181  1.00  0.00     0.303 C 
BRANCH  27  28
HETATM   28  C14 UNL     1      -6.885  47.021 -30.056  1.00  0.00     0.244 C 
HETATM   29  O3  UNL     1      -7.401  46.794 -28.964  1.00  0.00    -0.271 OA
HETATM   30  N2  UNL     1      -7.445  46.614 -31.253  1.00  0.00    -0.354 N 
HETATM   31  H16 UNL     1      -6.945  46.885 -32.099  1.00  0.00     0.162 HD
BRANCH  30  32
HETATM   32  C15 UNL     1      -8.772  45.991 -31.336  1.00  0.00     0.098 C 
BRANCH  32  33
HETATM   33  C16 UNL     1      -9.668  46.755 -32.325  1.00  0.00     0.135 C 
BRANCH  33  34
HETATM   34  C17 UNL     1      -8.936  47.149 -33.574  1.00  0.00     0.141 C 
HETATM   35  O4  UNL     1      -8.935  46.537 -34.630  1.00  0.00    -0.650 OA
BRANCH  34  36
HETATM   36  O5  UNL     1      -8.283  48.322 -33.446  1.00  0.00    -0.776 OA
HETATM   37  H20 UNL     1      -7.786  48.407 -34.286  1.00  0.00     0.167 HD
ENDBRANCH  34  36
ENDBRANCH  33  34
ENDBRANCH  32  33
BRANCH  32  38
HETATM   38  C18 UNL     1      -8.628  44.485 -31.687  1.00  0.00     0.014 C 
HETATM   39  C19 UNL     1      -9.935  43.920 -32.290  1.00  0.00     0.033 C 
HETATM   40  C20 UNL     1      -9.682  42.878 -33.375  1.00  0.00     0.169 C 
HETATM   41  O6  UNL     1      -8.624  42.011 -32.980  1.00  0.00    -0.381 OA
HETATM   42  C21 UNL     1      -7.338  42.646 -32.893  1.00  0.00     0.054 C 
HETATM   43  C22 UNL     1      -6.585  41.927 -31.763  1.00  0.00     0.045 C 
HETATM   44  C23 UNL     1      -6.595  42.403 -34.212  1.00  0.00     0.045 C 
HETATM   45  C24 UNL     1      -7.439  44.164 -32.608  1.00  0.00     0.044 C 
ENDBRANCH  32  38
ENDBRANCH  30  32
ENDBRANCH  27  28
ENDBRANCH  26  27
ENDBRANCH  13  26
TORSDOF 9
ENDMDL
MODEL 5
REMARK minimizedAffinity -7.83035374
REMARK CNNscore 0.21546711
REMARK CNNaffinity 6.01213026
REMARK  9 active torsions:
REMARK  status: ('A' for Active; 'I' for Inactive)
REMARK    1  A    between atoms: C3_3  and  O1_4 
REMARK    2  A    between atoms: N1_14  and  O2_16 
REMARK    3  A    between atoms: O2_16  and  C13_17 
REMARK    4  A    between atoms: C13_17  and  C14_18 
REMARK       I    between atoms: C14_18  and  N2_20 
REMARK    5  A    between atoms: N2_20  and  C15_21 
REMARK    6  A    between atoms: C15_21  and  C16_22 
REMARK    7  A    between atoms: C15_21  and  C18_26 
REMARK    8  A    between atoms: C16_22  and  C17_23 
REMARK    9  A    between atoms: C17_23  and  O5_25 
ROOT
HETATM    1  C1  UNL     1      -0.195  51.750 -22.885  1.00  0.00     0.015 C 
HETATM    2  C2  UNL     1      -1.278  51.764 -23.410  1.00  0.00    -0.078 C 
HETATM    3  C3  UNL     1      -2.595  51.828 -24.068  1.00  0.00     0.128 C 
HETATM    4  C4  UNL     1      -3.604  52.593 -23.229  1.00  0.00     0.052 C 
HETATM    5  C5  UNL     1      -4.937  52.222 -23.868  1.00  0.00     0.010 C 
HETATM    6  C6  UNL     1      -4.823  50.739 -24.290  1.00  0.00     0.002 C 
HETATM    7  C7  UNL     1      -5.627  49.826 -23.324  1.00  0.00    -0.004 C 
HETATM    8  C8  UNL     1      -5.897  48.420 -23.912  1.00  0.00     0.010 C 
HETATM    9  C9  UNL     1      -5.939  47.297 -22.866  1.00  0.00     0.035 C 
HETATM   10  C10 UNL     1      -6.597  47.784 -21.604  1.00  0.00    -0.069 C 
HETATM   11  C11 UNL     1      -7.756  47.257 -21.169  1.00  0.00     0.030 C 
HETATM   12  C12 UNL     1      -8.469  47.823 -19.989  1.00  0.00     0.032 C 
HETATM   13  N1  UNL     1      -9.403  47.108 -19.426  1.00  0.00    -0.271 N 
ATOM     14  H1  UNL     1      -9.691  46.182 -19.742  1.00  0.00     0.194 HD
HETATM   15  C25 UNL     1      -8.061  49.200 -19.489  1.00  0.00     0.060 C 
HETATM   16  C26 UNL     1      -7.039  49.894 -20.389  1.00  0.00     0.020 C 
HETATM   17  C27 UNL     1      -5.909  48.951 -20.902  1.00  0.00    -0.016 C 
HETATM   18  C28 UNL     1      -5.097  48.446 -19.686  1.00  0.00     0.020 C 
HETATM   19  C29 UNL     1      -4.996  49.763 -21.913  1.00  0.00     0.002 C 
HETATM   20  C30 UNL     1      -3.503  49.360 -21.979  1.00  0.00     0.007 C 
HETATM   21  C31 UNL     1      -2.889  49.309 -23.376  1.00  0.00     0.014 C 
HETATM   22  C32 UNL     1      -3.279  50.444 -24.358  1.00  0.00     0.003 C 
HETATM   23  C33 UNL     1      -2.905  49.955 -25.781  1.00  0.00     0.020 C 
ENDROOT
BRANCH   3  24
HETATM   24  O1  UNL     1      -2.445  52.569 -25.289  1.00  0.00    -0.377 OA
HETATM   25  H2  UNL     1      -1.786  53.264 -25.124  1.00  0.00     0.211 HD
ENDBRANCH   3  24
BRANCH  13  26
HETATM   26  O2  UNL     1      -9.960  47.780 -18.325  1.00  0.00    -0.271 OA
BRANCH  26  27
HETATM   27  C13 UNL     1     -11.251  47.245 -18.042  1.00  0.00     0.303 C 
BRANCH  27  28
HETATM   28  C14 UNL     1     -12.316  47.639 -19.062  1.00  0.00     0.244 C 
HETATM   29  O3  UNL     1     -12.238  48.679 -19.712  1.00  0.00    -0.271 OA
HETATM   30  N2  UNL     1     -13.370  46.753 -19.182  1.00  0.00    -0.354 N 
HETATM   31  H16 UNL     1     -13.314  45.907 -18.615  1.00  0.00     0.162 HD
BRANCH  30  32
HETATM   32  C15 UNL     1     -14.424  46.906 -20.192  1.00  0.00     0.098 C 
BRANCH  32  33
HETATM   33  C16 UNL     1     -14.083  46.105 -21.459  1.00  0.00     0.135 C 
BRANCH  33  34
HETATM   34  C17 UNL     1     -13.521  46.971 -22.549  1.00  0.00     0.141 C 
HETATM   35  O4  UNL     1     -14.145  47.444 -23.485  1.00  0.00    -0.650 OA
BRANCH  34  36
HETATM   36  O5  UNL     1     -12.210  47.237 -22.378  1.00  0.00    -0.776 OA
HETATM   37  H20 UNL     1     -11.961  47.722 -23.192  1.00  0.00     0.167 HD
ENDBRANCH  34  36
ENDBRANCH  33  34
ENDBRANCH  32  33
BRANCH  32  38
HETATM   38  C18 UNL     1     -15.800  46.521 -19.583  1.00  0.00     0.014 C 
HETATM   39  C19 UNL     1     -16.505  47.751 -18.964  1.00  0.00     0.033 C 
HETATM   40  C20 UNL     1     -18.020  47.715 -19.146  1.00  0.00     0.169 C 
HETATM   41  O6  UNL     1     -18.507  46.398 -18.914  1.00  0.00    -0.381 OA
HETATM   42  C21 UNL     1     -18.084  45.430 -19.886  1.00  0.00     0.054 C 
HETATM   43  C22 UNL     1     -17.955  44.097 -19.130  1.00  0.00     0.045 C 
HETATM   44  C23 UNL     1     -19.191  45.293 -20.939  1.00  0.00     0.045 C 
HETATM   45  C24 UNL     1     -16.745  45.809 -20.565  1.00  0.00     0.044 C 
ENDBRANCH  32  38
ENDBRANCH  30  32
ENDBRANCH  27  28
ENDBRANCH  26  27
ENDBRANCH  13  26
TORSDOF 9
ENDMDL
MODEL 6
REMARK minimizedAffinity -8.09953022
REMARK CNNscore 0.208549023
REMARK CNNaffinity 5.52724981
REMARK  9 active torsions:
REMARK  status: ('A' for Active; 'I' for Inactive)
REMARK    1  A    between atoms: C3_3  and  O1_4 
REMARK    2  A    between atoms: N1_14  and  O2_16 
REMARK    3  A    between atoms: O2_16  and  C13_17 
REMARK    4  A    between atoms: C13_17  and  C14_18 
REMARK       I    between atoms: C14_18  and  N2_20 
REMARK    5  A    between atoms: N2_20  and  C15_21 
REMARK    6  A    between atoms: C15_21  and  C16_22 
REMARK    7  A    between atoms: C15_21  and  C18_26 
REMARK    8  A    between atoms: C16_22  and  C17_23 
REMARK    9  A    between atoms: C17_23  and  O5_25 
ROOT
HETATM    1  C1  UNL     1      -2.838  46.919 -20.806  1.00  0.00     0.015 C 
HETATM    2  C2  UNL     1      -3.699  47.759 -20.830  1.00  0.00    -0.078 C 
HETATM    3  C3  UNL     1      -4.737  48.805 -20.814  1.00  0.00     0.128 C 
HETATM    4  C4  UNL     1      -5.926  48.401 -19.959  1.00  0.00     0.052 C 
HETATM    5  C5  UNL     1      -7.004  49.396 -20.373  1.00  0.00     0.010 C 
HETATM    6  C6  UNL     1      -6.826  49.626 -21.892  1.00  0.00     0.002 C 
HETATM    7  C7  UNL     1      -7.932  48.889 -22.697  1.00  0.00    -0.004 C 
HETATM    8  C8  UNL     1      -8.063  49.406 -24.150  1.00  0.00     0.010 C 
HETATM    9  C9  UNL     1      -8.481  48.332 -25.164  1.00  0.00     0.035 C 
HETATM   10  C10 UNL     1      -9.482  47.392 -24.548  1.00  0.00    -0.069 C 
HETATM   11  C11 UNL     1     -10.740  47.303 -25.016  1.00  0.00     0.030 C 
HETATM   12  C12 UNL     1     -11.764  46.467 -24.328  1.00  0.00     0.032 C 
HETATM   13  N1  UNL     1     -12.857  46.168 -24.973  1.00  0.00    -0.271 N 
ATOM     14  H1  UNL     1     -13.071  46.477 -25.921  1.00  0.00     0.194 HD
HETATM   15  C25 UNL     1     -11.475  45.987 -22.914  1.00  0.00     0.060 C 
HETATM   16  C26 UNL     1     -10.193  46.574 -22.324  1.00  0.00     0.020 C 
HETATM   17  C27 UNL     1      -9.001  46.615 -23.327  1.00  0.00    -0.016 C 
HETATM   18  C28 UNL     1      -8.636  45.164 -23.721  1.00  0.00     0.020 C 
HETATM   19  C29 UNL     1      -7.782  47.351 -22.629  1.00  0.00     0.002 C 
HETATM   20  C30 UNL     1      -6.363  46.903 -23.055  1.00  0.00     0.007 C 
HETATM   21  C31 UNL     1      -5.343  48.022 -23.250  1.00  0.00     0.014 C 
HETATM   22  C32 UNL     1      -5.354  49.173 -22.211  1.00  0.00     0.003 C 
HETATM   23  C33 UNL     1      -4.571  50.355 -22.842  1.00  0.00     0.020 C 
ENDROOT
BRANCH   3  24
HETATM   24  O1  UNL     1      -4.178  49.976 -20.199  1.00  0.00    -0.377 OA
HETATM   25  H2  UNL     1      -3.576  49.671 -19.499  1.00  0.00     0.211 HD
ENDBRANCH   3  24
BRANCH  13  26
HETATM   26  O2  UNL     1     -13.703  45.366 -24.190  1.00  0.00    -0.271 OA
BRANCH  26  27
HETATM   27  C13 UNL     1     -14.931  45.147 -24.882  1.00  0.00     0.303 C 
BRANCH  27  28
HETATM   28  C14 UNL     1     -16.016  46.166 -24.547  1.00  0.00     0.244 C 
HETATM   29  O3  UNL     1     -15.777  47.370 -24.479  1.00  0.00    -0.271 OA
HETATM   30  N2  UNL     1     -17.269  45.633 -24.313  1.00  0.00    -0.354 N 
HETATM   31  H16 UNL     1     -17.359  44.624 -24.428  1.00  0.00     0.162 HD
BRANCH  30  32
HETATM   32  C15 UNL     1     -18.458  46.466 -24.092  1.00  0.00     0.098 C 
BRANCH  32  33
HETATM   33  C16 UNL     1     -19.531  46.174 -25.153  1.00  0.00     0.135 C 
BRANCH  33  34
HETATM   34  C17 UNL     1     -19.143  45.045 -26.063  1.00  0.00     0.141 C 
HETATM   35  O4  UNL     1     -19.411  43.866 -25.901  1.00  0.00    -0.650 OA
BRANCH  34  36
HETATM   36  O5  UNL     1     -18.478  45.466 -27.159  1.00  0.00    -0.776 OA
HETATM   37  H20 UNL     1     -18.213  44.635 -27.606  1.00  0.00     0.167 HD
ENDBRANCH  34  36
ENDBRANCH  33  34
ENDBRANCH  32  33
BRANCH  32  38
HETATM   38  C18 UNL     1     -18.974  46.278 -22.639  1.00  0.00     0.014 C 
HETATM   39  C19 UNL     1     -19.603  44.879 -22.443  1.00  0.00     0.033 C 
HETATM   40  C20 UNL     1     -19.337  44.301 -21.056  1.00  0.00     0.169 C 
HETATM   41  O6  UNL     1     -19.487  45.317 -20.070  1.00  0.00    -0.381 OA
HETATM   42  C21 UNL     1     -18.500  46.358 -20.135  1.00  0.00     0.054 C 
HETATM   43  C22 UNL     1     -19.206  47.642 -19.672  1.00  0.00     0.045 C 
HETATM   44  C23 UNL     1     -17.384  46.023 -19.139  1.00  0.00     0.045 C 
HETATM   45  C24 UNL     1     -17.912  46.536 -21.556  1.00  0.00     0.044 C 
ENDBRANCH  32  38
ENDBRANCH  30  32
ENDBRANCH  27  28
ENDBRANCH  26  27
ENDBRANCH  13  26
TORSDOF 9
ENDMDL
MODEL 7
REMARK minimizedAffinity -7.68577242
REMARK CNNscore 0.20468241
REMARK CNNaffinity 5.78191996
REMARK  9 active torsions:
REMARK  status: ('A' for Active; 'I' for Inactive)
REMARK    1  A    between atoms: C3_3  and  O1_4 
REMARK    2  A    between atoms: N1_14  and  O2_16 
REMARK    3  A    between atoms: O2_16  and  C13_17 
REMARK    4  A    between atoms: C13_17  and  C14_18 
REMARK       I    between atoms: C14_18  and  N2_20 
REMARK    5  A    between atoms: N2_20  and  C15_21 
REMARK    6  A    between atoms: C15_21  and  C16_22 
REMARK    7  A    between atoms: C15_21  and  C18_26 
REMARK    8  A    between atoms: C16_22  and  C17_23 
REMARK    9  A    between atoms: C17_23  and  O5_25 
ROOT
HETATM    1  C1  UNL     1       0.004  52.168 -22.651  1.00  0.00     0.015 C 
HETATM    2  C2  UNL     1      -1.037  51.993 -23.228  1.00  0.00    -0.078 C 
HETATM    3  C3  UNL     1      -2.306  51.823 -23.957  1.00  0.00     0.128 C 
HETATM    4  C4  UNL     1      -3.439  52.590 -23.295  1.00  0.00     0.052 C 
HETATM    5  C5  UNL     1      -4.684  51.993 -23.941  1.00  0.00     0.010 C 
HETATM    6  C6  UNL     1      -4.399  50.485 -24.130  1.00  0.00     0.002 C 
HETATM    7  C7  UNL     1      -5.174  49.640 -23.082  1.00  0.00    -0.004 C 
HETATM    8  C8  UNL     1      -5.268  48.144 -23.468  1.00  0.00     0.010 C 
HETATM    9  C9  UNL     1      -5.272  47.184 -22.269  1.00  0.00     0.035 C 
HETATM   10  C10 UNL     1      -6.057  47.775 -21.130  1.00  0.00    -0.069 C 
HETATM   11  C11 UNL     1      -7.187  47.196 -20.683  1.00  0.00     0.030 C 
HETATM   12  C12 UNL     1      -8.029  47.847 -19.640  1.00  0.00     0.032 C 
HETATM   13  N1  UNL     1      -8.925  47.126 -19.026  1.00  0.00    -0.271 N 
ATOM     14  H1  UNL     1      -9.101  46.140 -19.216  1.00  0.00     0.194 HD
HETATM   15  C25 UNL     1      -7.790  49.317 -19.331  1.00  0.00     0.060 C 
HETATM   16  C26 UNL     1      -6.781  49.979 -20.269  1.00  0.00     0.020 C 
HETATM   17  C27 UNL     1      -5.534  49.096 -20.576  1.00  0.00    -0.016 C 
HETATM   18  C28 UNL     1      -4.761  48.859 -19.256  1.00  0.00     0.020 C 
HETATM   19  C29 UNL     1      -4.638  49.847 -21.647  1.00  0.00     0.002 C 
HETATM   20  C30 UNL     1      -3.112  49.598 -21.573  1.00  0.00     0.007 C 
HETATM   21  C31 UNL     1      -2.403  49.412 -22.913  1.00  0.00     0.014 C 
HETATM   22  C32 UNL     1      -2.833  50.348 -24.072  1.00  0.00     0.003 C 
HETATM   23  C33 UNL     1      -2.318  49.702 -25.385  1.00  0.00     0.020 C 
ENDROOT
BRANCH   3  24
HETATM   24  O1  UNL     1      -2.146  52.393 -25.265  1.00  0.00    -0.377 OA
HETATM   25  H2  UNL     1      -1.570  53.170 -25.171  1.00  0.00     0.211 HD
ENDBRANCH   3  24
BRANCH  13  26
HETATM   26  O2  UNL     1      -9.617  47.887 -18.069  1.00  0.00    -0.271 OA
BRANCH  26  27
HETATM   27  C13 UNL     1     -10.233  47.017 -17.121  1.00  0.00     0.303 C 
BRANCH  27  28
HETATM   28  C14 UNL     1     -11.281  46.089 -17.728  1.00  0.00     0.244 C 
HETATM   29  O3  UNL     1     -10.974  45.172 -18.487  1.00  0.00    -0.271 OA
HETATM   30  N2  UNL     1     -12.587  46.368 -17.375  1.00  0.00    -0.354 N 
HETATM   31  H16 UNL     1     -12.722  47.132 -16.714  1.00  0.00     0.162 HD
BRANCH  30  32
HETATM   32  C15 UNL     1     -13.716  45.514 -17.767  1.00  0.00     0.098 C 
BRANCH  32  33
HETATM   33  C16 UNL     1     -14.425  44.948 -16.526  1.00  0.00     0.135 C 
BRANCH  33  34
HETATM   34  C17 UNL     1     -13.610  45.111 -15.277  1.00  0.00     0.141 C 
HETATM   35  O4  UNL     1     -12.707  44.377 -14.907  1.00  0.00    -0.650 OA
BRANCH  34  36
HETATM   36  O5  UNL     1     -13.939  46.219 -14.581  1.00  0.00    -0.776 OA
HETATM   37  H20 UNL     1     -13.404  46.150 -13.763  1.00  0.00     0.167 HD
ENDBRANCH  34  36
ENDBRANCH  33  34
ENDBRANCH  32  33
BRANCH  32  38
HETATM   38  C18 UNL     1     -14.671  46.298 -18.707  1.00  0.00     0.014 C 
HETATM   39  C19 UNL     1     -13.885  47.057 -19.802  1.00  0.00     0.033 C 
HETATM   40  C20 UNL     1     -14.620  47.092 -21.139  1.00  0.00     0.169 C 
HETATM   41  O6  UNL     1     -16.005  47.342 -20.926  1.00  0.00    -0.381 OA
HETATM   42  C21 UNL     1     -16.701  46.283 -20.249  1.00  0.00     0.054 C 
HETATM   43  C22 UNL     1     -17.798  46.963 -19.414  1.00  0.00     0.045 C 
HETATM   44  C23 UNL     1     -17.367  45.396 -21.307  1.00  0.00     0.045 C 
HETATM   45  C24 UNL     1     -15.770  45.435 -19.349  1.00  0.00     0.044 C 
ENDBRANCH  32  38
ENDBRANCH  30  32
ENDBRANCH  27  28
ENDBRANCH  26  27
ENDBRANCH  13  26
TORSDOF 9
ENDMDL
MODEL 8
REMARK minimizedAffinity -8.54792213
REMARK CNNscore 0.195522621
REMARK CNNaffinity 6.87564898
REMARK  9 active torsions:
REMARK  status: ('A' for Active; 'I' for Inactive)
REMARK    1  A    between atoms: C3_3  and  O1_4 
REMARK    2  A    between atoms: N1_14  and  O2_16 
REMARK    3  A    between atoms: O2_16  and  C13_17 
REMARK    4  A    between atoms: C13_17  and  C14_18 
REMARK       I    between atoms: C14_18  and  N2_20 
REMARK    5  A    between atoms: N2_20  and  C15_21 
REMARK    6  A    between atoms: C15_21  and  C16_22 
REMARK    7  A    between atoms: C15_21  and  C18_26 
REMARK    8  A    between atoms: C16_22  and  C17_23 
REMARK    9  A    between atoms: C17_23  and  O5_25 
ROOT
HETATM    1  C1  UNL     1       2.139  51.053 -27.055  1.00  0.00     0.015 C 
HETATM    2  C2  UNL     1       1.344  51.859 -26.645  1.00  0.00    -0.078 C 
HETATM    3  C3  UNL     1       0.399  52.881 -26.164  1.00  0.00     0.128 C 
HETATM    4  C4  UNL     1       0.901  53.557 -24.899  1.00  0.00     0.052 C 
HETATM    5  C5  UNL     1      -0.340  54.264 -24.368  1.00  0.00     0.010 C 
HETATM    6  C6  UNL     1      -1.536  53.329 -24.662  1.00  0.00     0.002 C 
HETATM    7  C7  UNL     1      -2.020  52.626 -23.364  1.00  0.00    -0.004 C 
HETATM    8  C8  UNL     1      -3.438  52.020 -23.502  1.00  0.00     0.010 C 
HETATM    9  C9  UNL     1      -3.658  50.741 -22.683  1.00  0.00     0.035 C 
HETATM   10  C10 UNL     1      -2.948  50.839 -21.360  1.00  0.00    -0.069 C 
HETATM   11  C11 UNL     1      -3.627  50.844 -20.198  1.00  0.00     0.030 C 
HETATM   12  C12 UNL     1      -2.934  51.066 -18.898  1.00  0.00     0.032 C 
HETATM   13  N1  UNL     1      -3.563  50.760 -17.798  1.00  0.00    -0.271 N 
ATOM     14  H1  UNL     1      -4.511  50.385 -17.761  1.00  0.00     0.194 HD
HETATM   15  C25 UNL     1      -1.518  51.623 -18.919  1.00  0.00     0.060 C 
HETATM   16  C26 UNL     1      -1.044  52.025 -20.315  1.00  0.00     0.020 C 
HETATM   17  C27 UNL     1      -1.433  51.007 -21.429  1.00  0.00    -0.016 C 
HETATM   18  C28 UNL     1      -0.728  49.661 -21.137  1.00  0.00     0.020 C 
HETATM   19  C29 UNL     1      -0.991  51.602 -22.831  1.00  0.00     0.002 C 
HETATM   20  C30 UNL     1      -0.590  50.582 -23.924  1.00  0.00     0.007 C 
HETATM   21  C31 UNL     1      -1.096  50.885 -25.332  1.00  0.00     0.014 C 
HETATM   22  C32 UNL     1      -1.038  52.363 -25.799  1.00  0.00     0.003 C 
HETATM   23  C33 UNL     1      -1.973  52.482 -27.030  1.00  0.00     0.020 C 
ENDROOT
BRANCH   3  24
HETATM   24  O1  UNL     1       0.313  53.911 -27.161  1.00  0.00    -0.377 OA
HETATM   25  H2  UNL     1       1.196  54.002 -27.556  1.00  0.00     0.211 HD
ENDBRANCH   3  24
BRANCH  13  26
HETATM   26  O2  UNL     1      -2.766  51.017 -16.671  1.00  0.00    -0.271 OA
BRANCH  26  27
HETATM   27  C13 UNL     1      -2.664  49.835 -15.878  1.00  0.00     0.303 C 
BRANCH  27  28
HETATM   28  C14 UNL     1      -1.819  50.010 -14.620  1.00  0.00     0.244 C 
HETATM   29  O3  UNL     1      -1.299  49.053 -14.050  1.00  0.00    -0.271 OA
HETATM   30  N2  UNL     1      -1.700  51.311 -14.169  1.00  0.00    -0.354 N 
HETATM   31  H16 UNL     1      -2.147  52.028 -14.738  1.00  0.00     0.162 HD
BRANCH  30  32
HETATM   32  C15 UNL     1      -0.832  51.684 -13.044  1.00  0.00     0.098 C 
BRANCH  32  33
HETATM   33  C16 UNL     1       0.469  52.325 -13.553  1.00  0.00     0.135 C 
BRANCH  33  34
HETATM   34  C17 UNL     1       1.572  51.321 -13.726  1.00  0.00     0.141 C 
HETATM   35  O4  UNL     1       2.640  51.516 -14.283  1.00  0.00    -0.650 OA
BRANCH  34  36
HETATM   36  O5  UNL     1       1.293  50.137 -13.144  1.00  0.00    -0.776 OA
HETATM   37  H20 UNL     1       2.041  49.563 -13.410  1.00  0.00     0.167 HD
ENDBRANCH  34  36
ENDBRANCH  33  34
ENDBRANCH  32  33
BRANCH  32  38
HETATM   38  C18 UNL     1      -1.611  52.595 -12.055  1.00  0.00     0.014 C 
HETATM   39  C19 UNL     1      -3.017  52.026 -11.755  1.00  0.00     0.033 C 
HETATM   40  C20 UNL     1      -3.456  52.267 -10.314  1.00  0.00     0.169 C 
HETATM   41  O6  UNL     1      -3.098  53.585  -9.911  1.00  0.00    -0.381 OA
HETATM   42  C21 UNL     1      -1.683  53.812  -9.817  1.00  0.00     0.054 C 
HETATM   43  C22 UNL     1      -1.463  55.286 -10.196  1.00  0.00     0.045 C 
HETATM   44  C23 UNL     1      -1.263  53.612  -8.356  1.00  0.00     0.045 C 
HETATM   45  C24 UNL     1      -0.864  52.878 -10.741  1.00  0.00     0.044 C 
ENDBRANCH  32  38
ENDBRANCH  30  32
ENDBRANCH  27  28
ENDBRANCH  26  27
ENDBRANCH  13  26
TORSDOF 9
ENDMDL
MODEL 9
REMARK minimizedAffinity -9.82675838
REMARK CNNscore 0.193876863
REMARK CNNaffinity 6.164042
REMARK  9 active torsions:
REMARK  status: ('A' for Active; 'I' for Inactive)
REMARK    1  A    between atoms: C3_3  and  O1_4 
REMARK    2  A    between atoms: N1_14  and  O2_16 
REMARK    3  A    between atoms: O2_16  and  C13_17 
REMARK    4  A    between atoms: C13_17  and  C14_18 
REMARK       I    between atoms: C14_18  and  N2_20 
REMARK    5  A    between atoms: N2_20  and  C15_21 
REMARK    6  A    between atoms: C15_21  and  C16_22 
REMARK    7  A    between atoms: C15_21  and  C18_26 
REMARK    8  A    between atoms: C16_22  and  C17_23 
REMARK    9  A    between atoms: C17_23  and  O5_25 
ROOT
HETATM    1  C1  UNL     1      -0.967  52.009 -18.880  1.00  0.00     0.015 C 
HETATM    2  C2  UNL     1      -1.148  50.858 -19.181  1.00  0.00    -0.078 C 
HETATM    3  C3  UNL     1      -1.328  49.437 -19.524  1.00  0.00     0.128 C 
HETATM    4  C4  UNL     1      -0.471  49.035 -20.713  1.00  0.00     0.052 C 
HETATM    5  C5  UNL     1      -1.071  47.699 -21.136  1.00  0.00     0.010 C 
HETATM    6  C6  UNL     1      -2.598  47.820 -20.928  1.00  0.00     0.002 C 
HETATM    7  C7  UNL     1      -3.330  47.985 -22.289  1.00  0.00    -0.004 C 
HETATM    8  C8  UNL     1      -4.848  47.694 -22.194  1.00  0.00     0.010 C 
HETATM    9  C9  UNL     1      -5.710  48.530 -23.150  1.00  0.00     0.035 C 
HETATM   10  C10 UNL     1      -5.003  48.713 -24.465  1.00  0.00    -0.069 C 
HETATM   11  C11 UNL     1      -5.504  48.203 -25.606  1.00  0.00     0.030 C 
HETATM   12  C12 UNL     1      -4.743  48.277 -26.885  1.00  0.00     0.032 C 
HETATM   13  N1  UNL     1      -5.381  48.056 -28.001  1.00  0.00    -0.271 N 
ATOM     14  H1  UNL     1      -6.372  47.823 -28.063  1.00  0.00     0.194 HD
HETATM   15  C25 UNL     1      -3.263  48.624 -26.828  1.00  0.00     0.060 C 
HETATM   16  C26 UNL     1      -2.714  48.708 -25.405  1.00  0.00     0.020 C 
HETATM   17  C27 UNL     1      -3.663  49.438 -24.406  1.00  0.00    -0.016 C 
HETATM   18  C28 UNL     1      -3.825  50.908 -24.864  1.00  0.00     0.020 C 
HETATM   19  C29 UNL     1      -3.032  49.348 -22.955  1.00  0.00     0.002 C 
HETATM   20  C30 UNL     1      -3.330  50.524 -21.993  1.00  0.00     0.007 C 
HETATM   21  C31 UNL     1      -3.646  50.139 -20.550  1.00  0.00     0.014 C 
HETATM   22  C32 UNL     1      -2.788  49.011 -19.919  1.00  0.00     0.003 C 
HETATM   23  C33 UNL     1      -3.553  48.514 -18.664  1.00  0.00     0.020 C 
ENDROOT
BRANCH   3  24
HETATM   24  O1  UNL     1      -0.869  48.651 -18.415  1.00  0.00    -0.377 OA
HETATM   25  H2  UNL     1      -0.108  49.117 -18.028  1.00  0.00     0.211 HD
ENDBRANCH   3  24
BRANCH  13  26
HETATM   26  O2  UNL     1      -4.524  48.178 -29.107  1.00  0.00    -0.271 OA
BRANCH  26  27
HETATM   27  C13 UNL     1      -5.296  48.313 -30.298  1.00  0.00     0.303 C 
BRANCH  27  28
HETATM   28  C14 UNL     1      -6.525  47.409 -30.339  1.00  0.00     0.244 C 
HETATM   29  O3  UNL     1      -6.516  46.280 -29.853  1.00  0.00    -0.271 OA
HETATM   30  N2  UNL     1      -7.628  47.947 -30.974  1.00  0.00    -0.354 N 
HETATM   31  H16 UNL     1      -7.532  48.904 -31.312  1.00  0.00     0.162 HD
BRANCH  30  32
HETATM   32  C15 UNL     1      -8.932  47.272 -31.007  1.00  0.00     0.098 C 
BRANCH  32  33
HETATM   33  C16 UNL     1      -9.955  48.023 -30.139  1.00  0.00     0.135 C 
BRANCH  33  34
HETATM   34  C17 UNL     1      -9.583  48.020 -28.685  1.00  0.00     0.141 C 
HETATM   35  O4  UNL     1      -9.815  47.126 -27.886  1.00  0.00    -0.650 OA
BRANCH  34  36
HETATM   36  O5  UNL     1      -8.894  49.121 -28.322  1.00  0.00    -0.776 OA
HETATM   37  H20 UNL     1      -8.801  49.029 -27.350  1.00  0.00     0.167 HD
ENDBRANCH  34  36
ENDBRANCH  33  34
ENDBRANCH  32  33
BRANCH  32  38
HETATM   38  C18 UNL     1      -9.398  47.095 -32.478  1.00  0.00     0.014 C 
HETATM   39  C19 UNL     1      -8.407  47.756 -33.465  1.00  0.00     0.033 C 
HETATM   40  C20 UNL     1      -8.263  46.974 -34.768  1.00  0.00     0.169 C 
HETATM   41  O6  UNL     1      -9.539  46.519 -35.206  1.00  0.00    -0.381 OA
HETATM   42  C21 UNL     1     -10.142  45.534 -34.351  1.00  0.00     0.054 C 
HETATM   43  C22 UNL     1     -11.659  45.767 -34.440  1.00  0.00     0.045 C 
HETATM   44  C23 UNL     1      -9.823  44.147 -34.921  1.00  0.00     0.045 C 
HETATM   45  C24 UNL     1      -9.654  45.635 -32.886  1.00  0.00     0.044 C 
ENDBRANCH  32  38
ENDBRANCH  30  32
ENDBRANCH  27  28
ENDBRANCH  26  27
ENDBRANCH  13  26
TORSDOF 9
ENDMDL
