MODEL 1
REMARK minimizedAffinity -7.19127178
REMARK CNNscore 0.653895617
REMARK CNNaffinity 6.59431458
REMARK  6 active torsions:
REMARK  status: ('A' for Active; 'I' for Inactive)
REMARK    1  A    between atoms: C2_2  and  C30_31 
REMARK    2  A    between atoms: C3_3  and  C4_4 
REMARK    3  A    between atoms: C4_4  and  C5_5 
REMARK    4  A    between atoms: C5_5  and  C6_6 
REMARK    5  A    between atoms: C6_6  and  C8_8 
REMARK    6  A    between atoms: C30_31  and  O3_33 
ROOT
HETATM    1  C8  UNL     1      -1.502   8.220  14.150  1.00  0.00    -0.002 C 
HETATM    2  C9  UNL     1      -1.807   7.194  15.274  1.00  0.00     0.007 C 
HETATM    3  C10 UNL     1      -2.222   8.007  16.525  1.00  0.00     0.015 C 
HETATM    4  C11 UNL     1      -1.905   9.477  16.176  1.00  0.00    -0.013 C 
HETATM    5  C12 UNL     1      -0.396   9.693  16.518  1.00  0.00     0.021 C 
HETATM    6  C13 UNL     1      -2.656  10.584  16.908  1.00  0.00    -0.070 C 
HETATM    7  C14 UNL     1      -3.059  10.458  18.186  1.00  0.00    -0.022 C 
HETATM    8  C15 UNL     1      -3.722  11.546  18.981  1.00  0.00     0.034 C 
HETATM    9  C16 UNL     1      -4.116  12.787  18.147  1.00  0.00     0.013 C 
HETATM   10  C17 UNL     1      -4.711  13.960  19.001  1.00  0.00     0.018 C 
HETATM   11  C18 UNL     1      -6.072  13.512  19.596  1.00  0.00     0.023 C 
HETATM   12  C19 UNL     1      -3.846  14.439  20.178  1.00  0.00     0.023 C 
HETATM   13  C20 UNL     1      -4.965  15.169  18.086  1.00  0.00     0.135 C 
HETATM   14  O1  UNL     1      -5.991  15.847  18.152  1.00  0.00    -0.297 OA
HETATM   15  C21 UNL     1      -3.854  15.565  17.143  1.00  0.00     0.080 C 
HETATM   16  C22 UNL     1      -3.458  14.380  16.278  1.00  0.00     0.017 C 
HETATM   17  C23 UNL     1      -2.998  13.144  17.094  1.00  0.00    -0.031 C 
HETATM   18  C24 UNL     1      -1.620  13.439  17.733  1.00  0.00     0.016 C 
HETATM   19  C25 UNL     1      -2.891  11.886  16.131  1.00  0.00     0.024 C 
HETATM   20  C26 UNL     1      -1.942  12.061  14.919  1.00  0.00     0.010 C 
HETATM   21  C27 UNL     1      -1.760  10.816  14.018  1.00  0.00     0.011 C 
HETATM   22  C28 UNL     1      -2.251   9.499  14.649  1.00  0.00    -0.029 C 
HETATM   23  C29 UNL     1      -3.775   9.340  14.353  1.00  0.00     0.016 C 
ENDROOT
BRANCH   1  24
HETATM   24  C6  UNL     1      -1.740   7.785  12.673  1.00  0.00    -0.014 C 
HETATM   25  C7  UNL     1      -1.483   6.309  12.351  1.00  0.00     0.010 C 
BRANCH  24  26
HETATM   26  C5  UNL     1      -0.965   8.693  11.681  1.00  0.00     0.008 C 
BRANCH  26  27
HETATM   27  C4  UNL     1       0.447   8.220  11.329  1.00  0.00     0.028 C 
BRANCH  27  28
HETATM   28  C3  UNL     1       0.698   8.289   9.846  1.00  0.00    -0.013 C 
HETATM   29  C2  UNL     1       1.477   7.472   9.105  1.00  0.00     0.008 C 
HETATM   30  C1  UNL     1       1.587   7.609   7.615  1.00  0.00     0.055 C 
BRANCH  29  31
HETATM   31  C30 UNL     1       2.304   6.412   9.725  1.00  0.00     0.171 C 
HETATM   32  O2  UNL     1       3.505   6.436   9.923  1.00  0.00    -0.646 OA
BRANCH  31  33
HETATM   33  O3  UNL     1       1.559   5.343  10.058  1.00  0.00    -0.773 OA
HETATM   34  H46 UNL     1       2.206   4.734  10.470  1.00  0.00     0.167 HD
ENDBRANCH  31  33
ENDBRANCH  29  31
ENDBRANCH  27  28
ENDBRANCH  26  27
ENDBRANCH  24  26
ENDBRANCH   1  24
TORSDOF 6
ENDMDL
MODEL 2
REMARK minimizedAffinity -7.4679451
REMARK CNNscore 0.599760354
REMARK CNNaffinity 6.78246355
REMARK  6 active torsions:
REMARK  status: ('A' for Active; 'I' for Inactive)
REMARK    1  A    between atoms: C2_2  and  C30_31 
REMARK    2  A    between atoms: C3_3  and  C4_4 
REMARK    3  A    between atoms: C4_4  and  C5_5 
REMARK    4  A    between atoms: C5_5  and  C6_6 
REMARK    5  A    between atoms: C6_6  and  C8_8 
REMARK    6  A    between atoms: C30_31  and  O3_33 
ROOT
HETATM    1  C8  UNL     1      -0.947   6.701  13.313  1.00  0.00    -0.002 C 
HETATM    2  C9  UNL     1      -2.020   5.882  14.081  1.00  0.00     0.007 C 
HETATM    3  C10 UNL     1      -2.569   6.800  15.201  1.00  0.00     0.015 C 
HETATM    4  C11 UNL     1      -1.630   8.027  15.216  1.00  0.00    -0.013 C 
HETATM    5  C12 UNL     1      -0.413   7.635  16.112  1.00  0.00     0.021 C 
HETATM    6  C13 UNL     1      -2.153   9.343  15.781  1.00  0.00    -0.070 C 
HETATM    7  C14 UNL     1      -3.043   9.393  16.789  1.00  0.00    -0.022 C 
HETATM    8  C15 UNL     1      -3.522  10.658  17.441  1.00  0.00     0.034 C 
HETATM    9  C16 UNL     1      -3.077  11.949  16.716  1.00  0.00     0.013 C 
HETATM   10  C17 UNL     1      -3.491  13.266  17.459  1.00  0.00     0.018 C 
HETATM   11  C18 UNL     1      -5.037  13.391  17.443  1.00  0.00     0.023 C 
HETATM   12  C19 UNL     1      -3.051  13.375  18.929  1.00  0.00     0.023 C 
HETATM   13  C20 UNL     1      -2.906  14.473  16.707  1.00  0.00     0.135 C 
HETATM   14  O1  UNL     1      -3.553  15.500  16.496  1.00  0.00    -0.297 OA
HETATM   15  C21 UNL     1      -1.453  14.397  16.305  1.00  0.00     0.080 C 
HETATM   16  C22 UNL     1      -1.207  13.147  15.477  1.00  0.00     0.017 C 
HETATM   17  C23 UNL     1      -1.588  11.834  16.210  1.00  0.00    -0.031 C 
HETATM   18  C24 UNL     1      -0.569  11.569  17.344  1.00  0.00     0.016 C 
HETATM   19  C25 UNL     1      -1.573  10.629  15.176  1.00  0.00     0.024 C 
HETATM   20  C26 UNL     1      -0.231  10.411  14.434  1.00  0.00     0.010 C 
HETATM   21  C27 UNL     1      -0.173   9.189  13.486  1.00  0.00     0.011 C 
HETATM   22  C28 UNL     1      -1.313   8.173  13.690  1.00  0.00    -0.029 C 
HETATM   23  C29 UNL     1      -2.541   8.623  12.838  1.00  0.00     0.016 C 
ENDROOT
BRANCH   1  24
HETATM   24  C6  UNL     1      -0.723   6.385  11.803  1.00  0.00    -0.014 C 
HETATM   25  C7  UNL     1      -1.179   5.003  11.325  1.00  0.00     0.010 C 
BRANCH  24  26
HETATM   26  C5  UNL     1       0.749   6.641  11.382  1.00  0.00     0.008 C 
BRANCH  26  27
HETATM   27  C4  UNL     1       0.941   7.687  10.282  1.00  0.00     0.028 C 
BRANCH  27  28
HETATM   28  C3  UNL     1       1.115   7.044   8.932  1.00  0.00    -0.013 C 
HETATM   29  C2  UNL     1       2.100   7.265   8.037  1.00  0.00     0.008 C 
HETATM   30  C1  UNL     1       2.195   6.501   6.749  1.00  0.00     0.055 C 
BRANCH  29  31
HETATM   31  C30 UNL     1       3.129   8.308   8.253  1.00  0.00     0.171 C 
HETATM   32  O2  UNL     1       3.281   9.336   7.619  1.00  0.00    -0.646 OA
BRANCH  31  33
HETATM   33  O3  UNL     1       3.944   7.985   9.273  1.00  0.00    -0.773 OA
HETATM   34  H46 UNL     1       4.554   8.750   9.328  1.00  0.00     0.167 HD
ENDBRANCH  31  33
ENDBRANCH  29  31
ENDBRANCH  27  28
ENDBRANCH  26  27
ENDBRANCH  24  26
ENDBRANCH   1  24
TORSDOF 6
ENDMDL
MODEL 3
REMARK minimizedAffinity -10.2504692
REMARK CNNscore 0.569686353
REMARK CNNaffinity 7.2847724
REMARK  6 active torsions:
REMARK  status: ('A' for Active; 'I' for Inactive)
REMARK    1  A    between atoms: C2_2  and  C30_31 
REMARK    2  A    between atoms: C3_3  and  C4_4 
REMARK    3  A    between atoms: C4_4  and  C5_5 
REMARK    4  A    between atoms: C5_5  and  C6_6 
REMARK    5  A    between atoms: C6_6  and  C8_8 
REMARK    6  A    between atoms: C30_31  and  O3_33 
ROOT
HETATM    1  C8  UNL     1      -3.081   7.267  14.532  1.00  0.00    -0.002 C 
HETATM    2  C9  UNL     1      -3.869   8.360  13.760  1.00  0.00     0.007 C 
HETATM    3  C10 UNL     1      -2.983   8.796  12.567  1.00  0.00     0.015 C 
HETATM    4  C11 UNL     1      -1.610   8.135  12.820  1.00  0.00    -0.013 C 
HETATM    5  C12 UNL     1      -0.830   9.096  13.771  1.00  0.00     0.021 C 
HETATM    6  C13 UNL     1      -0.686   7.887  11.633  1.00  0.00    -0.070 C 
HETATM    7  C14 UNL     1      -0.647   8.705  10.566  1.00  0.00    -0.022 C 
HETATM    8  C15 UNL     1       0.304   8.559   9.413  1.00  0.00     0.034 C 
HETATM    9  C16 UNL     1       1.118   7.244   9.430  1.00  0.00     0.013 C 
HETATM   10  C17 UNL     1       2.184   7.146   8.284  1.00  0.00     0.018 C 
HETATM   11  C18 UNL     1       1.451   7.067   6.918  1.00  0.00     0.023 C 
HETATM   12  C19 UNL     1       3.178   8.314   8.189  1.00  0.00     0.023 C 
HETATM   13  C20 UNL     1       2.998   5.855   8.464  1.00  0.00     0.135 C 
HETATM   14  O1  UNL     1       3.289   5.116   7.522  1.00  0.00    -0.297 OA
HETATM   15  C21 UNL     1       3.521   5.556   9.849  1.00  0.00     0.080 C 
HETATM   16  C22 UNL     1       2.375   5.548  10.847  1.00  0.00     0.017 C 
HETATM   17  C23 UNL     1       1.583   6.881  10.892  1.00  0.00    -0.031 C 
HETATM   18  C24 UNL     1       2.460   7.973  11.550  1.00  0.00     0.016 C 
HETATM   19  C25 UNL     1       0.252   6.676  11.732  1.00  0.00     0.024 C 
HETATM   20  C26 UNL     1       0.457   6.171  13.183  1.00  0.00     0.010 C 
HETATM   21  C27 UNL     1      -0.824   6.048  14.043  1.00  0.00     0.011 C 
HETATM   22  C28 UNL     1      -2.051   6.776  13.463  1.00  0.00    -0.029 C 
HETATM   23  C29 UNL     1      -2.775   5.820  12.464  1.00  0.00     0.016 C 
ENDROOT
BRANCH   1  24
HETATM   24  C6  UNL     1      -3.893   6.176  15.294  1.00  0.00    -0.014 C 
HETATM   25  C7  UNL     1      -3.865   4.767  14.693  1.00  0.00     0.010 C 
BRANCH  24  26
HETATM   26  C5  UNL     1      -5.358   6.627  15.539  1.00  0.00     0.008 C 
BRANCH  26  27
HETATM   27  C4  UNL     1      -6.391   6.042  14.574  1.00  0.00     0.028 C 
BRANCH  27  28
HETATM   28  C3  UNL     1      -5.742   5.170  13.532  1.00  0.00    -0.013 C 
HETATM   29  C2  UNL     1      -6.277   4.101  12.906  1.00  0.00     0.008 C 
HETATM   30  C1  UNL     1      -5.543   3.356  11.830  1.00  0.00     0.055 C 
BRANCH  29  31
HETATM   31  C30 UNL     1      -7.610   3.571  13.272  1.00  0.00     0.171 C 
HETATM   32  O2  UNL     1      -8.149   2.569  12.839  1.00  0.00    -0.646 OA
BRANCH  31  33
HETATM   33  O3  UNL     1      -8.217   4.359  14.175  1.00  0.00    -0.773 OA
HETATM   34  H46 UNL     1      -9.064   3.897  14.349  1.00  0.00     0.167 HD
ENDBRANCH  31  33
ENDBRANCH  29  31
ENDBRANCH  27  28
ENDBRANCH  26  27
ENDBRANCH  24  26
ENDBRANCH   1  24
TORSDOF 6
ENDMDL
MODEL 4
REMARK minimizedAffinity -8.13329315
REMARK CNNscore 0.515987992
REMARK CNNaffinity 6.79662752
REMARK  6 active torsions:
REMARK  status: ('A' for Active; 'I' for Inactive)
REMARK    1  A    between atoms: C2_2  and  C30_31 
REMARK    2  A    between atoms: C3_3  and  C4_4 
REMARK    3  A    between atoms: C4_4  and  C5_5 
REMARK    4  A    between atoms: C5_5  and  C6_6 
REMARK    5  A    between atoms: C6_6  and  C8_8 
REMARK    6  A    between atoms: C30_31  and  O3_33 
ROOT
HETATM    1  C8  UNL     1      -2.321   9.036  15.675  1.00  0.00    -0.002 C 
HETATM    2  C9  UNL     1      -1.214   8.602  16.673  1.00  0.00     0.007 C 
HETATM    3  C10 UNL     1      -0.067   7.987  15.834  1.00  0.00     0.015 C 
HETATM    4  C11 UNL     1      -0.640   7.847  14.406  1.00  0.00    -0.013 C 
HETATM    5  C12 UNL     1      -1.412   6.491  14.375  1.00  0.00     0.021 C 
HETATM    6  C13 UNL     1       0.328   7.800  13.229  1.00  0.00    -0.070 C 
HETATM    7  C14 UNL     1       1.551   7.247  13.324  1.00  0.00    -0.022 C 
HETATM    8  C15 UNL     1       2.508   7.094  12.176  1.00  0.00     0.034 C 
HETATM    9  C16 UNL     1       2.069   7.826  10.887  1.00  0.00     0.013 C 
HETATM   10  C17 UNL     1       3.018   7.574   9.663  1.00  0.00     0.018 C 
HETATM   11  C18 UNL     1       4.400   8.215   9.957  1.00  0.00     0.023 C 
HETATM   12  C19 UNL     1       3.276   6.102   9.305  1.00  0.00     0.023 C 
HETATM   13  C20 UNL     1       2.427   8.260   8.421  1.00  0.00     0.135 C 
HETATM   14  O1  UNL     1       3.116   8.903   7.628  1.00  0.00    -0.297 OA
HETATM   15  C21 UNL     1       0.959   8.042   8.145  1.00  0.00     0.080 C 
HETATM   16  C22 UNL     1       0.136   8.448   9.357  1.00  0.00     0.017 C 
HETATM   17  C23 UNL     1       0.517   7.680  10.649  1.00  0.00    -0.031 C 
HETATM   18  C24 UNL     1       0.047   6.211  10.527  1.00  0.00     0.016 C 
HETATM   19  C25 UNL     1      -0.179   8.370  11.898  1.00  0.00     0.024 C 
HETATM   20  C26 UNL     1      -1.723   8.473  11.819  1.00  0.00     0.010 C 
HETATM   21  C27 UNL     1      -2.425   9.065  13.065  1.00  0.00     0.011 C 
HETATM   22  C28 UNL     1      -1.539   9.127  14.324  1.00  0.00    -0.029 C 
HETATM   23  C29 UNL     1      -0.726  10.460  14.298  1.00  0.00     0.016 C 
ENDROOT
BRANCH   1  24
HETATM   24  C6  UNL     1      -3.224  10.247  16.059  1.00  0.00    -0.014 C 
HETATM   25  C7  UNL     1      -2.810  11.608  15.492  1.00  0.00     0.010 C 
BRANCH  24  26
HETATM   26  C5  UNL     1      -3.420  10.343  17.596  1.00  0.00     0.008 C 
BRANCH  26  27
HETATM   27  C4  UNL     1      -2.991  11.669  18.228  1.00  0.00     0.028 C 
BRANCH  27  28
HETATM   28  C3  UNL     1      -4.012  12.166  19.217  1.00  0.00    -0.013 C 
HETATM   29  C2  UNL     1      -4.942  13.125  19.027  1.00  0.00     0.008 C 
HETATM   30  C1  UNL     1      -5.951  13.478  20.080  1.00  0.00     0.055 C 
BRANCH  29  31
HETATM   31  C30 UNL     1      -4.998  13.918  17.778  1.00  0.00     0.171 C 
HETATM   32  O2  UNL     1      -4.413  14.958  17.539  1.00  0.00    -0.646 OA
BRANCH  31  33
HETATM   33  O3  UNL     1      -5.822  13.354  16.878  1.00  0.00    -0.773 OA
HETATM   34  H46 UNL     1      -5.756  13.950  16.103  1.00  0.00     0.167 HD
ENDBRANCH  31  33
ENDBRANCH  29  31
ENDBRANCH  27  28
ENDBRANCH  26  27
ENDBRANCH  24  26
ENDBRANCH   1  24
TORSDOF 6
ENDMDL
MODEL 5
REMARK minimizedAffinity -10.0241079
REMARK CNNscore 0.508911848
REMARK CNNaffinity 7.02401543
REMARK  6 active torsions:
REMARK  status: ('A' for Active; 'I' for Inactive)
REMARK    1  A    between atoms: C2_2  and  C30_31 
REMARK    2  A    between atoms: C3_3  and  C4_4 
REMARK    3  A    between atoms: C4_4  and  C5_5 
REMARK    4  A    between atoms: C5_5  and  C6_6 
REMARK    5  A    between atoms: C6_6  and  C8_8 
REMARK    6  A    between atoms: C30_31  and  O3_33 
ROOT
HETATM    1  C8  UNL     1      -3.595   6.864  14.282  1.00  0.00    -0.002 C 
HETATM    2  C9  UNL     1      -4.171   8.143  13.619  1.00  0.00     0.007 C 
HETATM    3  C10 UNL     1      -3.112   8.641  12.605  1.00  0.00     0.015 C 
HETATM    4  C11 UNL     1      -1.852   7.792  12.886  1.00  0.00    -0.013 C 
HETATM    5  C12 UNL     1      -1.095   8.504  14.051  1.00  0.00     0.021 C 
HETATM    6  C13 UNL     1      -0.825   7.613  11.773  1.00  0.00    -0.070 C 
HETATM    7  C14 UNL     1      -0.579   8.568  10.859  1.00  0.00    -0.022 C 
HETATM    8  C15 UNL     1       0.482   8.480   9.799  1.00  0.00     0.034 C 
HETATM    9  C16 UNL     1       1.149   7.090   9.688  1.00  0.00     0.013 C 
HETATM   10  C17 UNL     1       2.327   7.035   8.654  1.00  0.00     0.018 C 
HETATM   11  C18 UNL     1       1.755   7.245   7.227  1.00  0.00     0.023 C 
HETATM   12  C19 UNL     1       3.439   8.078   8.846  1.00  0.00     0.023 C 
HETATM   13  C20 UNL     1       2.978   5.644   8.707  1.00  0.00     0.135 C 
HETATM   14  O1  UNL     1       3.301   5.023   7.694  1.00  0.00    -0.297 OA
HETATM   15  C21 UNL     1       3.302   5.086  10.073  1.00  0.00     0.080 C 
HETATM   16  C22 UNL     1       2.052   5.067  10.937  1.00  0.00     0.017 C 
HETATM   17  C23 UNL     1       1.400   6.464  11.113  1.00  0.00    -0.031 C 
HETATM   18  C24 UNL     1       2.300   7.335  12.021  1.00  0.00     0.016 C 
HETATM   19  C25 UNL     1      -0.034   6.297  11.772  1.00  0.00     0.024 C 
HETATM   20  C26 UNL     1      -0.053   5.565  13.138  1.00  0.00     0.010 C 
HETATM   21  C27 UNL     1      -1.432   5.469  13.834  1.00  0.00     0.011 C 
HETATM   22  C28 UNL     1      -2.502   6.416  13.257  1.00  0.00    -0.029 C 
HETATM   23  C29 UNL     1      -3.198   5.709  12.052  1.00  0.00     0.016 C 
ENDROOT
BRANCH   1  24
HETATM   24  C6  UNL     1      -4.597   5.777  14.776  1.00  0.00    -0.014 C 
HETATM   25  C7  UNL     1      -5.082   4.774  13.725  1.00  0.00     0.010 C 
BRANCH  24  26
HETATM   26  C5  UNL     1      -5.809   6.413  15.509  1.00  0.00     0.008 C 
BRANCH  26  27
HETATM   27  C4  UNL     1      -7.080   5.561  15.532  1.00  0.00     0.028 C 
BRANCH  27  28
HETATM   28  C3  UNL     1      -8.271   6.334  15.031  1.00  0.00    -0.013 C 
HETATM   29  C2  UNL     1      -8.977   6.116  13.901  1.00  0.00     0.008 C 
HETATM   30  C1  UNL     1     -10.193   6.921  13.552  1.00  0.00     0.055 C 
BRANCH  29  31
HETATM   31  C30 UNL     1      -8.569   5.090  12.915  1.00  0.00     0.171 C 
HETATM   32  O2  UNL     1      -8.122   5.278  11.798  1.00  0.00    -0.646 OA
BRANCH  31  33
HETATM   33  O3  UNL     1      -8.765   3.848  13.392  1.00  0.00    -0.773 OA
HETATM   34  H46 UNL     1      -8.441   3.273  12.668  1.00  0.00     0.167 HD
ENDBRANCH  31  33
ENDBRANCH  29  31
ENDBRANCH  27  28
ENDBRANCH  26  27
ENDBRANCH  24  26
ENDBRANCH   1  24
TORSDOF 6
ENDMDL
MODEL 6
REMARK minimizedAffinity -8.11928749
REMARK CNNscore 0.395324051
REMARK CNNaffinity 5.64860106
REMARK  6 active torsions:
REMARK  status: ('A' for Active; 'I' for Inactive)
REMARK    1  A    between atoms: C2_2  and  C30_31 
REMARK    2  A    between atoms: C3_3  and  C4_4 
REMARK    3  A    between atoms: C4_4  and  C5_5 
REMARK    4  A    between atoms: C5_5  and  C6_6 
REMARK    5  A    between atoms: C6_6  and  C8_8 
REMARK    6  A    between atoms: C30_31  and  O3_33 
ROOT
HETATM    1  C8  UNL     1       8.020  10.039  14.580  1.00  0.00    -0.002 C 
HETATM    2  C9  UNL     1       7.103  11.114  15.222  1.00  0.00     0.007 C 
HETATM    3  C10 UNL     1       5.717  10.985  14.544  1.00  0.00     0.015 C 
HETATM    4  C11 UNL     1       5.934  10.019  13.358  1.00  0.00    -0.013 C 
HETATM    5  C12 UNL     1       6.450  10.892  12.171  1.00  0.00     0.021 C 
HETATM    6  C13 UNL     1       4.737   9.247  12.814  1.00  0.00    -0.070 C 
HETATM    7  C14 UNL     1       3.491   9.754  12.812  1.00  0.00    -0.022 C 
HETATM    8  C15 UNL     1       2.296   9.075  12.208  1.00  0.00     0.034 C 
HETATM    9  C16 UNL     1       2.554   7.617  11.765  1.00  0.00     0.013 C 
HETATM   10  C17 UNL     1       1.334   6.950  11.041  1.00  0.00     0.018 C 
HETATM   11  C18 UNL     1       0.171   6.788  12.056  1.00  0.00     0.023 C 
HETATM   12  C19 UNL     1       0.769   7.716   9.834  1.00  0.00     0.023 C 
HETATM   13  C20 UNL     1       1.742   5.550  10.556  1.00  0.00     0.135 C 
HETATM   14  O1  UNL     1       1.010   4.566  10.675  1.00  0.00    -0.297 OA
HETATM   15  C21 UNL     1       3.060   5.428   9.828  1.00  0.00     0.080 C 
HETATM   16  C22 UNL     1       4.182   5.987  10.688  1.00  0.00     0.017 C 
HETATM   17  C23 UNL     1       3.972   7.470  11.092  1.00  0.00    -0.031 C 
HETATM   18  C24 UNL     1       4.161   8.369   9.847  1.00  0.00     0.016 C 
HETATM   19  C25 UNL     1       5.027   7.865  12.210  1.00  0.00     0.024 C 
HETATM   20  C26 UNL     1       6.512   7.663  11.819  1.00  0.00     0.010 C 
HETATM   21  C27 UNL     1       7.556   8.124  12.866  1.00  0.00     0.011 C 
HETATM   22  C28 UNL     1       6.988   9.035  13.970  1.00  0.00    -0.029 C 
HETATM   23  C29 UNL     1       6.416   8.140  15.113  1.00  0.00     0.016 C 
ENDROOT
BRANCH   1  24
HETATM   24  C6  UNL     1       9.169   9.440  15.446  1.00  0.00    -0.014 C 
HETATM   25  C7  UNL     1       9.544   7.982  15.163  1.00  0.00     0.010 C 
BRANCH  24  26
HETATM   26  C5  UNL     1       8.900   9.640  16.962  1.00  0.00     0.008 C 
BRANCH  26  27
HETATM   27  C4  UNL     1       9.818  10.645  17.662  1.00  0.00     0.028 C 
BRANCH  27  28
HETATM   28  C3  UNL     1       9.248  11.088  18.983  1.00  0.00    -0.013 C 
HETATM   29  C2  UNL     1       9.914  11.621  20.029  1.00  0.00     0.008 C 
HETATM   30  C1  UNL     1       9.210  12.087  21.269  1.00  0.00     0.055 C 
BRANCH  29  31
HETATM   31  C30 UNL     1      11.389  11.743  20.032  1.00  0.00     0.171 C 
HETATM   32  O2  UNL     1      12.044  12.768  19.997  1.00  0.00    -0.646 OA
BRANCH  31  33
HETATM   33  O3  UNL     1      11.978  10.535  20.064  1.00  0.00    -0.773 OA
HETATM   34  H46 UNL     1      12.934  10.747  20.085  1.00  0.00     0.167 HD
ENDBRANCH  31  33
ENDBRANCH  29  31
ENDBRANCH  27  28
ENDBRANCH  26  27
ENDBRANCH  24  26
ENDBRANCH   1  24
TORSDOF 6
ENDMDL
MODEL 7
REMARK minimizedAffinity -9.63504124
REMARK CNNscore 0.391787052
REMARK CNNaffinity 7.08370018
REMARK  6 active torsions:
REMARK  status: ('A' for Active; 'I' for Inactive)
REMARK    1  A    between atoms: C2_2  and  C30_31 
REMARK    2  A    between atoms: C3_3  and  C4_4 
REMARK    3  A    between atoms: C4_4  and  C5_5 
REMARK    4  A    between atoms: C5_5  and  C6_6 
REMARK    5  A    between atoms: C6_6  and  C8_8 
REMARK    6  A    between atoms: C30_31  and  O3_33 
ROOT
HETATM    1  C8  UNL     1      -5.079   7.817  15.461  1.00  0.00    -0.002 C 
HETATM    2  C9  UNL     1      -4.921   9.360  15.404  1.00  0.00     0.007 C 
HETATM    3  C10 UNL     1      -3.526   9.648  14.796  1.00  0.00     0.015 C 
HETATM    4  C11 UNL     1      -2.813   8.278  14.753  1.00  0.00    -0.013 C 
HETATM    5  C12 UNL     1      -2.174   8.073  16.163  1.00  0.00     0.021 C 
HETATM    6  C13 UNL     1      -1.682   8.072  13.752  1.00  0.00    -0.070 C 
HETATM    7  C14 UNL     1      -0.856   9.067  13.382  1.00  0.00    -0.022 C 
HETATM    8  C15 UNL     1       0.327   8.899  12.472  1.00  0.00     0.034 C 
HETATM    9  C16 UNL     1       0.411   7.511  11.796  1.00  0.00     0.013 C 
HETATM   10  C17 UNL     1       1.703   7.306  10.931  1.00  0.00     0.018 C 
HETATM   11  C18 UNL     1       1.652   8.267   9.713  1.00  0.00     0.023 C 
HETATM   12  C19 UNL     1       3.039   7.564  11.646  1.00  0.00     0.023 C 
HETATM   13  C20 UNL     1       1.729   5.864  10.400  1.00  0.00     0.135 C 
HETATM   14  O1  UNL     1       2.041   5.589   9.241  1.00  0.00    -0.297 OA
HETATM   15  C21 UNL     1       1.442   4.760  11.390  1.00  0.00     0.080 C 
HETATM   16  C22 UNL     1       0.102   5.001  12.065  1.00  0.00     0.017 C 
HETATM   17  C23 UNL     1       0.018   6.363  12.803  1.00  0.00    -0.031 C 
HETATM   18  C24 UNL     1       0.912   6.316  14.065  1.00  0.00     0.016 C 
HETATM   19  C25 UNL     1      -1.488   6.646  13.216  1.00  0.00     0.024 C 
HETATM   20  C26 UNL     1      -2.145   5.560  14.104  1.00  0.00     0.010 C 
HETATM   21  C27 UNL     1      -3.585   5.861  14.587  1.00  0.00     0.011 C 
HETATM   22  C28 UNL     1      -4.015   7.331  14.423  1.00  0.00    -0.029 C 
HETATM   23  C29 UNL     1      -4.587   7.527  12.984  1.00  0.00     0.016 C 
ENDROOT
BRANCH   1  24
HETATM   24  C6  UNL     1      -6.514   7.219  15.345  1.00  0.00    -0.014 C 
HETATM   25  C7  UNL     1      -6.942   6.262  16.462  1.00  0.00     0.010 C 
BRANCH  24  26
HETATM   26  C5  UNL     1      -6.745   6.562  13.958  1.00  0.00     0.008 C 
BRANCH  26  27
HETATM   27  C4  UNL     1      -6.996   5.053  13.983  1.00  0.00     0.028 C 
BRANCH  27  28
HETATM   28  C3  UNL     1      -6.095   4.327  13.020  1.00  0.00    -0.013 C 
HETATM   29  C2  UNL     1      -6.361   3.191  12.342  1.00  0.00     0.008 C 
HETATM   30  C1  UNL     1      -5.396   2.606  11.354  1.00  0.00     0.055 C 
BRANCH  29  31
HETATM   31  C30 UNL     1      -7.611   2.427  12.563  1.00  0.00     0.171 C 
HETATM   32  O2  UNL     1      -8.731   2.877  12.719  1.00  0.00    -0.646 OA
BRANCH  31  33
HETATM   33  O3  UNL     1      -7.375   1.104  12.594  1.00  0.00    -0.773 OA
HETATM   34  H46 UNL     1      -8.266   0.717  12.722  1.00  0.00     0.167 HD
ENDBRANCH  31  33
ENDBRANCH  29  31
ENDBRANCH  27  28
ENDBRANCH  26  27
ENDBRANCH  24  26
ENDBRANCH   1  24
TORSDOF 6
ENDMDL
MODEL 8
REMARK minimizedAffinity -7.75505257
REMARK CNNscore 0.352727741
REMARK CNNaffinity 5.73159599
REMARK  6 active torsions:
REMARK  status: ('A' for Active; 'I' for Inactive)
REMARK    1  A    between atoms: C2_2  and  C30_31 
REMARK    2  A    between atoms: C3_3  and  C4_4 
REMARK    3  A    between atoms: C4_4  and  C5_5 
REMARK    4  A    between atoms: C5_5  and  C6_6 
REMARK    5  A    between atoms: C6_6  and  C8_8 
REMARK    6  A    between atoms: C30_31  and  O3_33 
ROOT
HETATM    1  C8  UNL     1       7.323   9.906  15.382  1.00  0.00    -0.002 C 
HETATM    2  C9  UNL     1       8.493   9.496  14.448  1.00  0.00     0.007 C 
HETATM    3  C10 UNL     1       7.865   8.784  13.226  1.00  0.00     0.015 C 
HETATM    4  C11 UNL     1       6.380   8.574  13.598  1.00  0.00    -0.013 C 
HETATM    5  C12 UNL     1       6.318   7.249  14.421  1.00  0.00     0.021 C 
HETATM    6  C13 UNL     1       5.359   8.413  12.477  1.00  0.00    -0.070 C 
HETATM    7  C14 UNL     1       5.660   7.821  11.307  1.00  0.00    -0.022 C 
HETATM    8  C15 UNL     1       4.672   7.557  10.207  1.00  0.00     0.034 C 
HETATM    9  C16 UNL     1       3.293   8.219  10.425  1.00  0.00     0.013 C 
HETATM   10  C17 UNL     1       2.234   7.853   9.327  1.00  0.00     0.018 C 
HETATM   11  C18 UNL     1       2.684   8.458   7.971  1.00  0.00     0.023 C 
HETATM   12  C19 UNL     1       2.004   6.351   9.091  1.00  0.00     0.023 C 
HETATM   13  C20 UNL     1       0.882   8.479   9.704  1.00  0.00     0.135 C 
HETATM   14  O1  UNL     1       0.159   9.041   8.880  1.00  0.00    -0.297 OA
HETATM   15  C21 UNL     1       0.412   8.300  11.128  1.00  0.00     0.080 C 
HETATM   16  C22 UNL     1       1.467   8.815  12.092  1.00  0.00     0.017 C 
HETATM   17  C23 UNL     1       2.844   8.118  11.933  1.00  0.00    -0.031 C 
HETATM   18  C24 UNL     1       2.742   6.663  12.451  1.00  0.00     0.016 C 
HETATM   19  C25 UNL     1       3.937   8.914  12.765  1.00  0.00     0.024 C 
HETATM   20  C26 UNL     1       3.632   9.071  14.276  1.00  0.00     0.010 C 
HETATM   21  C27 UNL     1       4.728   9.770  15.117  1.00  0.00     0.011 C 
HETATM   22  C28 UNL     1       6.095   9.879  14.415  1.00  0.00    -0.029 C 
HETATM   23  C29 UNL     1       6.107  11.175  13.545  1.00  0.00     0.016 C 
ENDROOT
BRANCH   1  24
HETATM   24  C6  UNL     1       7.502  11.173  16.272  1.00  0.00    -0.014 C 
HETATM   25  C7  UNL     1       8.652  12.111  15.893  1.00  0.00     0.010 C 
BRANCH  24  26
HETATM   26  C5  UNL     1       7.586  10.802  17.777  1.00  0.00     0.008 C 
BRANCH  26  27
HETATM   27  C4  UNL     1       8.989  10.847  18.384  1.00  0.00     0.028 C 
BRANCH  27  28
HETATM   28  C3  UNL     1       8.982  11.485  19.748  1.00  0.00    -0.013 C 
HETATM   29  C2  UNL     1      10.038  11.970  20.435  1.00  0.00     0.008 C 
HETATM   30  C1  UNL     1       9.882  12.648  21.764  1.00  0.00     0.055 C 
BRANCH  29  31
HETATM   31  C30 UNL     1      11.424  11.826  19.935  1.00  0.00     0.171 C 
HETATM   32  O2  UNL     1      12.245  12.710  19.776  1.00  0.00    -0.646 OA
BRANCH  31  33
HETATM   33  O3  UNL     1      11.705  10.545  19.639  1.00  0.00    -0.773 OA
HETATM   34  H46 UNL     1      12.639  10.579  19.347  1.00  0.00     0.167 HD
ENDBRANCH  31  33
ENDBRANCH  29  31
ENDBRANCH  27  28
ENDBRANCH  26  27
ENDBRANCH  24  26
ENDBRANCH   1  24
TORSDOF 6
ENDMDL
MODEL 9
REMARK minimizedAffinity -8.93403435
REMARK CNNscore 0.346492648
REMARK CNNaffinity 7.07811022
REMARK  6 active torsions:
REMARK  status: ('A' for Active; 'I' for Inactive)
REMARK    1  A    between atoms: C2_2  and  C30_31 
REMARK    2  A    between atoms: C3_3  and  C4_4 
REMARK    3  A    between atoms: C4_4  and  C5_5 
REMARK    4  A    between atoms: C5_5  and  C6_6 
REMARK    5  A    between atoms: C6_6  and  C8_8 
REMARK    6  A    between atoms: C30_31  and  O3_33 
ROOT
HETATM    1  C8  UNL     1      -4.603   6.060  14.439  1.00  0.00    -0.002 C 
HETATM    2  C9  UNL     1      -5.244   4.884  13.654  1.00  0.00     0.007 C 
HETATM    3  C10 UNL     1      -6.774   5.123  13.655  1.00  0.00     0.015 C 
HETATM    4  C11 UNL     1      -7.002   6.284  14.649  1.00  0.00    -0.013 C 
HETATM    5  C12 UNL     1      -7.086   5.636  16.067  1.00  0.00     0.021 C 
HETATM    6  C13 UNL     1      -8.260   7.134  14.507  1.00  0.00    -0.070 C 
HETATM    7  C14 UNL     1      -9.426   6.628  14.067  1.00  0.00    -0.022 C 
HETATM    8  C15 UNL     1     -10.714   7.397  13.994  1.00  0.00     0.034 C 
HETATM    9  C16 UNL     1     -10.561   8.912  14.262  1.00  0.00     0.013 C 
HETATM   10  C17 UNL     1     -11.923   9.690  14.288  1.00  0.00     0.018 C 
HETATM   11  C18 UNL     1     -12.546   9.665  12.867  1.00  0.00     0.023 C 
HETATM   12  C19 UNL     1     -12.989   9.145  15.252  1.00  0.00     0.023 C 
HETATM   13  C20 UNL     1     -11.657  11.156  14.667  1.00  0.00     0.135 C 
HETATM   14  O1  UNL     1     -12.203  12.099  14.093  1.00  0.00    -0.297 OA
HETATM   15  C21 UNL     1     -10.754  11.409  15.851  1.00  0.00     0.080 C 
HETATM   16  C22 UNL     1      -9.419  10.714  15.645  1.00  0.00     0.017 C 
HETATM   17  C23 UNL     1      -9.544   9.182  15.436  1.00  0.00    -0.031 C 
HETATM   18  C24 UNL     1      -9.952   8.517  16.772  1.00  0.00     0.016 C 
HETATM   19  C25 UNL     1      -8.151   8.601  14.945  1.00  0.00     0.024 C 
HETATM   20  C26 UNL     1      -6.951   8.877  15.886  1.00  0.00     0.010 C 
HETATM   21  C27 UNL     1      -5.603   8.244  15.465  1.00  0.00     0.011 C 
HETATM   22  C28 UNL     1      -5.724   7.150  14.388  1.00  0.00    -0.029 C 
HETATM   23  C29 UNL     1      -5.706   7.828  12.982  1.00  0.00     0.016 C 
ENDROOT
BRANCH   1  24
HETATM   24  C6  UNL     1      -3.160   6.502  14.052  1.00  0.00    -0.014 C 
HETATM   25  C7  UNL     1      -3.049   7.594  12.982  1.00  0.00     0.010 C 
BRANCH  24  26
HETATM   26  C5  UNL     1      -2.276   5.284  13.669  1.00  0.00     0.008 C 
BRANCH  26  27
HETATM   27  C4  UNL     1      -2.377   4.837  12.209  1.00  0.00     0.028 C 
BRANCH  27  28
HETATM   28  C3  UNL     1      -3.174   3.568  12.075  1.00  0.00    -0.013 C 
HETATM   29  C2  UNL     1      -2.739   2.365  11.642  1.00  0.00     0.008 C 
HETATM   30  C1  UNL     1      -3.626   1.155  11.622  1.00  0.00     0.055 C 
BRANCH  29  31
HETATM   31  C30 UNL     1      -1.366   2.175  11.122  1.00  0.00     0.171 C 
HETATM   32  O2  UNL     1      -0.321   2.378  11.711  1.00  0.00    -0.646 OA
BRANCH  31  33
HETATM   33  O3  UNL     1      -1.382   1.745   9.848  1.00  0.00    -0.773 OA
HETATM   34  H46 UNL     1      -0.433   1.639   9.632  1.00  0.00     0.167 HD
ENDBRANCH  31  33
ENDBRANCH  29  31
ENDBRANCH  27  28
ENDBRANCH  26  27
ENDBRANCH  24  26
ENDBRANCH   1  24
TORSDOF 6
ENDMDL
