MODEL 1
REMARK minimizedAffinity -8.68863297
REMARK CNNscore 0.741144776
REMARK CNNaffinity 6.94117355
REMARK  12 active torsions:
REMARK  status: ('A' for Active; 'I' for Inactive)
REMARK    1  A    between atoms: O1_2  and  C2_3 
REMARK    2  A    between atoms: C2_3  and  C3_4 
REMARK    3  A    between atoms: C3_4  and  C4_5 
REMARK    4  A    between atoms: C4_5  and  O2_6 
REMARK    5  A    between atoms: O2_6  and  C5_7 
REMARK    6  A    between atoms: C20_23  and  C21_24 
REMARK    7  A    between atoms: C21_24  and  O4_26 
REMARK    8  A    between atoms: C21_24  and  C23_27 
REMARK    9  A    between atoms: C23_27  and  O5_28 
REMARK   10  A    between atoms: C23_27  and  C24_29 
REMARK   11  A    between atoms: C29_36  and  O7_37 
REMARK   12  A    between atoms: C34_42  and  O8_43 
ROOT
HETATM    1  C5  UNL     1      -0.827  51.827 -20.238  1.00  0.00     0.122 C 
HETATM    2  C6  UNL     1      -0.245  50.757 -21.175  1.00  0.00     0.033 C 
HETATM    3  C7  UNL     1      -1.323  50.116 -22.042  1.00  0.00     0.013 C 
HETATM    4  C8  UNL     1      -2.413  49.375 -21.200  1.00  0.00    -0.026 C 
HETATM    5  C9  UNL     1      -2.006  47.883 -21.069  1.00  0.00     0.016 C 
HETATM    6  C10 UNL     1      -2.450  49.954 -19.754  1.00  0.00     0.071 C 
HETATM    7  C11 UNL     1      -2.240  51.471 -19.744  1.00  0.00     0.045 C 
HETATM    8  C12 UNL     1      -3.693  49.575 -18.977  1.00  0.00     0.154 C 
HETATM    9  O3  UNL     1      -3.720  49.588 -17.747  1.00  0.00    -0.293 OA
HETATM   10  C13 UNL     1      -4.940  49.250 -19.700  1.00  0.00     0.057 C 
HETATM   11  C14 UNL     1      -5.015  49.282 -21.037  1.00  0.00    -0.037 C 
HETATM   12  C15 UNL     1      -3.804  49.548 -21.931  1.00  0.00     0.026 C 
HETATM   13  C16 UNL     1      -3.852  48.776 -23.282  1.00  0.00     0.011 C 
HETATM   14  C17 UNL     1      -5.232  48.700 -23.955  1.00  0.00     0.014 C 
HETATM   15  C18 UNL     1      -6.317  48.214 -22.970  1.00  0.00    -0.002 C 
HETATM   16  C19 UNL     1      -6.000  46.768 -22.522  1.00  0.00     0.019 C 
HETATM   17  C20 UNL     1      -7.795  48.366 -23.480  1.00  0.00     0.034 C 
HETATM   18  C32 UNL     1      -8.619  48.471 -22.167  1.00  0.00     0.012 C 
HETATM   19  C33 UNL     1      -7.629  48.827 -21.040  1.00  0.00     0.044 C 
HETATM   20  C34 UNL     1      -6.335  49.206 -21.769  1.00  0.00     0.089 C 
ENDROOT
BRANCH  17  21
HETATM   21  C21 UNL     1      -8.391  47.421 -24.587  1.00  0.00     0.087 C 
HETATM   22  C22 UNL     1      -9.852  47.017 -24.351  1.00  0.00     0.049 C 
BRANCH  21  23
HETATM   23  O4  UNL     1      -7.622  46.206 -24.592  1.00  0.00    -0.387 OA
HETATM   24  H34 UNL     1      -6.688  46.443 -24.722  1.00  0.00     0.210 HD
ENDBRANCH  21  23
BRANCH  21  25
HETATM   25  C23 UNL     1      -8.222  48.099 -26.006  1.00  0.00     0.181 C 
BRANCH  25  26
HETATM   26  O5  UNL     1      -9.188  49.140 -26.179  1.00  0.00    -0.390 OA
HETATM   27  H36 UNL     1      -8.793  49.825 -26.741  1.00  0.00     0.210 HD
ENDBRANCH  25  26
BRANCH  25  28
HETATM   28  C24 UNL     1      -8.234  47.110 -27.214  1.00  0.00     0.158 C 
HETATM   29  O6  UNL     1      -9.490  47.168 -27.926  1.00  0.00    -0.373 OA
HETATM   30  C25 UNL     1      -9.318  47.903 -29.157  1.00  0.00     0.185 C 
HETATM   31  C26 UNL     1      -7.850  48.294 -29.262  1.00  0.00     0.027 C 
HETATM   32  C29 UNL     1      -9.787  47.025 -30.339  1.00  0.00     0.383 C 
HETATM   33  C27 UNL     1      -7.318  48.262 -30.696  1.00  0.00     0.038 C 
HETATM   34  C30 UNL     1      -7.174  47.327 -28.303  1.00  0.00     0.020 C 
HETATM   35  C28 UNL     1      -8.440  48.557 -31.691  1.00  0.00     0.273 C 
HETATM   36  N1  UNL     1      -9.462  47.518 -31.664  1.00  0.00     0.114 N 
HETATM   37  H44 UNL     1     -10.332  47.857 -32.075  1.00  0.00     0.319 HD
HETATM   38  C31 UNL     1      -5.793  47.764 -27.845  1.00  0.00     0.013 C 
BRANCH  32  39
HETATM   39  O7  UNL     1     -11.199  46.887 -30.277  1.00  0.00    -0.366 OA
HETATM   40  H46 UNL     1     -11.383  46.625 -29.356  1.00  0.00     0.212 HD
ENDBRANCH  32  39
ENDBRANCH  25  28
ENDBRANCH  21  25
ENDBRANCH  17  21
BRANCH  20  41
HETATM   41  O8  UNL     1      -6.541  50.548 -22.259  1.00  0.00    -0.384 OA
HETATM   42  H55 UNL     1      -6.615  51.128 -21.480  1.00  0.00     0.211 HD
ENDBRANCH  20  41
BRANCH   1  43
HETATM   43  O2  UNL     1       0.075  51.928 -19.132  1.00  0.00    -0.386 OA
BRANCH  43  44
HETATM   44  C4  UNL     1       1.131  52.862 -19.339  1.00  0.00     0.170 C 
BRANCH  44  45
HETATM   45  C3  UNL     1       0.632  53.996 -20.226  1.00  0.00     0.052 C 
BRANCH  45  46
HETATM   46  C2  UNL     1       1.560  54.244 -21.413  1.00  0.00     0.169 C 
BRANCH  46  47
HETATM   47  O1  UNL     1       1.063  53.608 -22.594  1.00  0.00    -0.396 OA
HETATM   48  C1  UNL     1       1.061  54.460 -23.731  1.00  0.00     0.201 C 
ENDBRANCH  46  47
ENDBRANCH  45  46
ENDBRANCH  44  45
ENDBRANCH  43  44
ENDBRANCH   1  43
TORSDOF 12
ENDMDL
MODEL 2
REMARK minimizedAffinity -8.10676193
REMARK CNNscore 0.706917584
REMARK CNNaffinity 7.14487982
REMARK  12 active torsions:
REMARK  status: ('A' for Active; 'I' for Inactive)
REMARK    1  A    between atoms: O1_2  and  C2_3 
REMARK    2  A    between atoms: C2_3  and  C3_4 
REMARK    3  A    between atoms: C3_4  and  C4_5 
REMARK    4  A    between atoms: C4_5  and  O2_6 
REMARK    5  A    between atoms: O2_6  and  C5_7 
REMARK    6  A    between atoms: C20_23  and  C21_24 
REMARK    7  A    between atoms: C21_24  and  O4_26 
REMARK    8  A    between atoms: C21_24  and  C23_27 
REMARK    9  A    between atoms: C23_27  and  O5_28 
REMARK   10  A    between atoms: C23_27  and  C24_29 
REMARK   11  A    between atoms: C29_36  and  O7_37 
REMARK   12  A    between atoms: C34_42  and  O8_43 
ROOT
HETATM    1  C5  UNL     1      -1.005  51.520 -20.294  1.00  0.00     0.122 C 
HETATM    2  C6  UNL     1      -0.357  50.371 -21.083  1.00  0.00     0.033 C 
HETATM    3  C7  UNL     1      -1.314  49.782 -22.115  1.00  0.00     0.013 C 
HETATM    4  C8  UNL     1      -2.594  49.161 -21.464  1.00  0.00    -0.026 C 
HETATM    5  C9  UNL     1      -2.342  47.649 -21.224  1.00  0.00     0.016 C 
HETATM    6  C10 UNL     1      -2.839  49.799 -20.064  1.00  0.00     0.071 C 
HETATM    7  C11 UNL     1      -2.508  51.295 -20.055  1.00  0.00     0.045 C 
HETATM    8  C12 UNL     1      -4.228  49.548 -19.514  1.00  0.00     0.154 C 
HETATM    9  O3  UNL     1      -4.472  49.613 -18.310  1.00  0.00    -0.293 OA
HETATM   10  C13 UNL     1      -5.349  49.293 -20.441  1.00  0.00     0.057 C 
HETATM   11  C14 UNL     1      -5.182  49.277 -21.771  1.00  0.00    -0.037 C 
HETATM   12  C15 UNL     1      -3.814  49.413 -22.438  1.00  0.00     0.026 C 
HETATM   13  C16 UNL     1      -3.685  48.593 -23.756  1.00  0.00     0.011 C 
HETATM   14  C17 UNL     1      -4.925  48.597 -24.664  1.00  0.00     0.014 C 
HETATM   15  C18 UNL     1      -6.205  48.237 -23.879  1.00  0.00    -0.002 C 
HETATM   16  C19 UNL     1      -6.094  46.789 -23.345  1.00  0.00     0.019 C 
HETATM   17  C20 UNL     1      -7.550  48.482 -24.651  1.00  0.00     0.034 C 
HETATM   18  C32 UNL     1      -8.583  48.703 -23.512  1.00  0.00     0.012 C 
HETATM   19  C33 UNL     1      -7.782  49.026 -22.234  1.00  0.00     0.044 C 
HETATM   20  C34 UNL     1      -6.353  49.275 -22.726  1.00  0.00     0.089 C 
ENDROOT
BRANCH  17  21
HETATM   21  C21 UNL     1      -8.017  47.543 -25.824  1.00  0.00     0.087 C 
HETATM   22  C22 UNL     1      -7.887  46.045 -25.520  1.00  0.00     0.049 C 
BRANCH  21  23
HETATM   23  O4  UNL     1      -7.178  47.808 -26.962  1.00  0.00    -0.387 OA
HETATM   24  H34 UNL     1      -7.231  48.758 -27.158  1.00  0.00     0.210 HD
ENDBRANCH  21  23
BRANCH  21  25
HETATM   25  C23 UNL     1      -9.502  47.904 -26.231  1.00  0.00     0.181 C 
BRANCH  25  26
HETATM   26  O5  UNL     1     -10.422  47.009 -25.600  1.00  0.00    -0.390 OA
HETATM   27  H36 UNL     1     -11.245  47.495 -25.431  1.00  0.00     0.210 HD
ENDBRANCH  25  26
BRANCH  25  28
HETATM   28  C24 UNL     1      -9.760  47.992 -27.768  1.00  0.00     0.158 C 
HETATM   29  O6  UNL     1      -8.953  47.035 -28.489  1.00  0.00    -0.373 OA
HETATM   30  C25 UNL     1      -9.775  45.922 -28.907  1.00  0.00     0.185 C 
HETATM   31  C26 UNL     1     -11.205  46.212 -28.469  1.00  0.00     0.027 C 
HETATM   32  C29 UNL     1      -9.644  45.745 -30.437  1.00  0.00     0.383 C 
HETATM   33  C27 UNL     1     -12.253  45.712 -29.465  1.00  0.00     0.038 C 
HETATM   34  C30 UNL     1     -11.192  47.717 -28.251  1.00  0.00     0.020 C 
HETATM   35  C28 UNL     1     -11.734  44.490 -30.222  1.00  0.00     0.273 C 
HETATM   36  N1  UNL     1     -10.584  44.827 -31.052  1.00  0.00     0.114 N 
HETATM   37  H44 UNL     1     -10.060  43.989 -31.300  1.00  0.00     0.319 HD
HETATM   38  C31 UNL     1     -12.325  48.231 -27.378  1.00  0.00     0.013 C 
BRANCH  32  39
HETATM   39  O7  UNL     1      -8.339  45.270 -30.734  1.00  0.00    -0.366 OA
HETATM   40  H46 UNL     1      -7.741  45.867 -30.247  1.00  0.00     0.212 HD
ENDBRANCH  32  39
ENDBRANCH  25  28
ENDBRANCH  21  25
ENDBRANCH  17  21
BRANCH  20  41
HETATM   41  O8  UNL     1      -6.356  50.608 -23.280  1.00  0.00    -0.384 OA
HETATM   42  H55 UNL     1      -6.519  51.222 -22.542  1.00  0.00     0.211 HD
ENDBRANCH  20  41
BRANCH   1  43
HETATM   43  O2  UNL     1      -0.309  51.594 -19.047  1.00  0.00    -0.386 OA
BRANCH  43  44
HETATM   44  C4  UNL     1       0.740  52.559 -19.035  1.00  0.00     0.170 C 
BRANCH  44  45
HETATM   45  C3  UNL     1       0.341  53.744 -19.905  1.00  0.00     0.052 C 
BRANCH  45  46
HETATM   46  C2  UNL     1       1.378  54.030 -20.991  1.00  0.00     0.169 C 
BRANCH  46  47
HETATM   47  O1  UNL     1       0.913  53.593 -22.271  1.00  0.00    -0.396 OA
HETATM   48  C1  UNL     1       1.356  54.416 -23.340  1.00  0.00     0.201 C 
ENDBRANCH  46  47
ENDBRANCH  45  46
ENDBRANCH  44  45
ENDBRANCH  43  44
ENDBRANCH   1  43
TORSDOF 12
ENDMDL
MODEL 3
REMARK minimizedAffinity -8.75736141
REMARK CNNscore 0.67661494
REMARK CNNaffinity 6.9943614
REMARK  12 active torsions:
REMARK  status: ('A' for Active; 'I' for Inactive)
REMARK    1  A    between atoms: O1_2  and  C2_3 
REMARK    2  A    between atoms: C2_3  and  C3_4 
REMARK    3  A    between atoms: C3_4  and  C4_5 
REMARK    4  A    between atoms: C4_5  and  O2_6 
REMARK    5  A    between atoms: O2_6  and  C5_7 
REMARK    6  A    between atoms: C20_23  and  C21_24 
REMARK    7  A    between atoms: C21_24  and  O4_26 
REMARK    8  A    between atoms: C21_24  and  C23_27 
REMARK    9  A    between atoms: C23_27  and  O5_28 
REMARK   10  A    between atoms: C23_27  and  C24_29 
REMARK   11  A    between atoms: C29_36  and  O7_37 
REMARK   12  A    between atoms: C34_42  and  O8_43 
ROOT
HETATM    1  C5  UNL     1      -0.640  51.707 -19.684  1.00  0.00     0.122 C 
HETATM    2  C6  UNL     1      -0.038  50.578 -20.535  1.00  0.00     0.033 C 
HETATM    3  C7  UNL     1      -1.094  49.889 -21.393  1.00  0.00     0.013 C 
HETATM    4  C8  UNL     1      -2.213  49.207 -20.538  1.00  0.00    -0.026 C 
HETATM    5  C9  UNL     1      -1.819  47.724 -20.303  1.00  0.00     0.016 C 
HETATM    6  C10 UNL     1      -2.288  49.875 -19.133  1.00  0.00     0.071 C 
HETATM    7  C11 UNL     1      -2.069  51.389 -19.211  1.00  0.00     0.045 C 
HETATM    8  C12 UNL     1      -3.556  49.550 -18.370  1.00  0.00     0.154 C 
HETATM    9  O3  UNL     1      -3.618  49.641 -17.145  1.00  0.00    -0.293 OA
HETATM   10  C13 UNL     1      -4.783  49.187 -19.108  1.00  0.00     0.057 C 
HETATM   11  C14 UNL     1      -4.819  49.136 -20.446  1.00  0.00    -0.037 C 
HETATM   12  C15 UNL     1      -3.581  49.341 -21.319  1.00  0.00     0.026 C 
HETATM   13  C16 UNL     1      -3.594  48.485 -22.621  1.00  0.00     0.011 C 
HETATM   14  C17 UNL     1      -4.955  48.374 -23.327  1.00  0.00     0.014 C 
HETATM   15  C18 UNL     1      -6.072  47.956 -22.346  1.00  0.00    -0.002 C 
HETATM   16  C19 UNL     1      -5.777  46.539 -21.800  1.00  0.00     0.019 C 
HETATM   17  C20 UNL     1      -7.533  48.082 -22.908  1.00  0.00     0.034 C 
HETATM   18  C32 UNL     1      -8.394  48.273 -21.629  1.00  0.00     0.012 C 
HETATM   19  C33 UNL     1      -7.435  48.694 -20.497  1.00  0.00     0.044 C 
HETATM   20  C34 UNL     1      -6.118  49.021 -21.210  1.00  0.00     0.089 C 
ENDROOT
BRANCH  17  21
HETATM   21  C21 UNL     1      -8.103  47.073 -23.971  1.00  0.00     0.087 C 
HETATM   22  C22 UNL     1      -9.632  46.949 -23.965  1.00  0.00     0.049 C 
BRANCH  21  23
HETATM   23  O4  UNL     1      -7.581  45.768 -23.666  1.00  0.00    -0.387 OA
HETATM   24  H34 UNL     1      -6.611  45.830 -23.646  1.00  0.00     0.210 HD
ENDBRANCH  21  23
BRANCH  21  25
HETATM   25  C23 UNL     1      -7.580  47.471 -25.410  1.00  0.00     0.181 C 
BRANCH  25  26
HETATM   26  O5  UNL     1      -7.008  48.782 -25.387  1.00  0.00    -0.390 OA
HETATM   27  H36 UNL     1      -6.295  48.810 -26.043  1.00  0.00     0.210 HD
ENDBRANCH  25  26
BRANCH  25  28
HETATM   28  C24 UNL     1      -8.633  47.333 -26.554  1.00  0.00     0.158 C 
HETATM   29  O6  UNL     1      -8.593  48.471 -27.443  1.00  0.00    -0.373 OA
HETATM   30  C25 UNL     1      -7.928  48.105 -28.672  1.00  0.00     0.185 C 
HETATM   31  C26 UNL     1      -7.568  46.629 -28.582  1.00  0.00     0.027 C 
HETATM   32  C29 UNL     1      -8.861  48.420 -29.864  1.00  0.00     0.383 C 
HETATM   33  C27 UNL     1      -7.687  45.897 -29.921  1.00  0.00     0.038 C 
HETATM   34  C30 UNL     1      -8.494  46.121 -27.487  1.00  0.00     0.020 C 
HETATM   35  C28 UNL     1      -7.427  46.856 -31.082  1.00  0.00     0.273 C 
HETATM   36  N1  UNL     1      -8.446  47.896 -31.150  1.00  0.00     0.114 N 
HETATM   37  H44 UNL     1      -8.116  48.689 -31.700  1.00  0.00     0.319 HD
HETATM   38  C31 UNL     1      -8.055  44.811 -26.856  1.00  0.00     0.013 C 
BRANCH  32  39
HETATM   39  O7  UNL     1      -8.971  49.829 -30.000  1.00  0.00    -0.366 OA
HETATM   40  H46 UNL     1      -9.180  50.151 -29.103  1.00  0.00     0.212 HD
ENDBRANCH  32  39
ENDBRANCH  25  28
ENDBRANCH  21  25
ENDBRANCH  17  21
BRANCH  20  41
HETATM   41  O8  UNL     1      -6.301  50.331 -21.789  1.00  0.00    -0.384 OA
HETATM   42  H55 UNL     1      -6.394  50.958 -21.050  1.00  0.00     0.211 HD
ENDBRANCH  20  41
BRANCH   1  43
HETATM   43  O2  UNL     1       0.231  51.872 -18.561  1.00  0.00    -0.386 OA
BRANCH  43  44
HETATM   44  C4  UNL     1       0.162  50.802 -17.622  1.00  0.00     0.170 C 
BRANCH  44  45
HETATM   45  C3  UNL     1       1.022  51.140 -16.411  1.00  0.00     0.052 C 
BRANCH  45  46
HETATM   46  C2  UNL     1       1.545  52.574 -16.464  1.00  0.00     0.169 C 
BRANCH  46  47
HETATM   47  O1  UNL     1       2.913  52.605 -16.878  1.00  0.00    -0.396 OA
HETATM   48  C1  UNL     1       3.829  52.536 -15.794  1.00  0.00     0.201 C 
ENDBRANCH  46  47
ENDBRANCH  45  46
ENDBRANCH  44  45
ENDBRANCH  43  44
ENDBRANCH   1  43
TORSDOF 12
ENDMDL
MODEL 4
REMARK minimizedAffinity -9.4891777
REMARK CNNscore 0.654593229
REMARK CNNaffinity 6.52814817
REMARK  12 active torsions:
REMARK  status: ('A' for Active; 'I' for Inactive)
REMARK    1  A    between atoms: O1_2  and  C2_3 
REMARK    2  A    between atoms: C2_3  and  C3_4 
REMARK    3  A    between atoms: C3_4  and  C4_5 
REMARK    4  A    between atoms: C4_5  and  O2_6 
REMARK    5  A    between atoms: O2_6  and  C5_7 
REMARK    6  A    between atoms: C20_23  and  C21_24 
REMARK    7  A    between atoms: C21_24  and  O4_26 
REMARK    8  A    between atoms: C21_24  and  C23_27 
REMARK    9  A    between atoms: C23_27  and  O5_28 
REMARK   10  A    between atoms: C23_27  and  C24_29 
REMARK   11  A    between atoms: C29_36  and  O7_37 
REMARK   12  A    between atoms: C34_42  and  O8_43 
ROOT
HETATM    1  C5  UNL     1      -3.623  52.469 -24.895  1.00  0.00     0.122 C 
HETATM    2  C6  UNL     1      -4.167  51.033 -24.839  1.00  0.00     0.033 C 
HETATM    3  C7  UNL     1      -4.144  50.474 -23.420  1.00  0.00     0.013 C 
HETATM    4  C8  UNL     1      -2.699  50.388 -22.830  1.00  0.00    -0.026 C 
HETATM    5  C9  UNL     1      -2.133  48.971 -23.113  1.00  0.00     0.016 C 
HETATM    6  C10 UNL     1      -1.765  51.395 -23.565  1.00  0.00     0.071 C 
HETATM    7  C11 UNL     1      -2.486  52.708 -23.886  1.00  0.00     0.045 C 
HETATM    8  C12 UNL     1      -0.461  51.657 -22.841  1.00  0.00     0.154 C 
HETATM    9  O3  UNL     1       0.535  52.081 -23.428  1.00  0.00    -0.293 OA
HETATM   10  C13 UNL     1      -0.384  51.478 -21.377  1.00  0.00     0.057 C 
HETATM   11  C14 UNL     1      -1.443  51.089 -20.653  1.00  0.00    -0.037 C 
HETATM   12  C15 UNL     1      -2.779  50.696 -21.281  1.00  0.00     0.026 C 
HETATM   13  C16 UNL     1      -3.520  49.568 -20.502  1.00  0.00     0.011 C 
HETATM   14  C17 UNL     1      -3.453  49.667 -18.969  1.00  0.00     0.014 C 
HETATM   15  C18 UNL     1      -2.002  49.858 -18.476  1.00  0.00    -0.002 C 
HETATM   16  C19 UNL     1      -1.163  48.611 -18.842  1.00  0.00     0.019 C 
HETATM   17  C20 UNL     1      -1.861  50.242 -16.959  1.00  0.00     0.034 C 
HETATM   18  C32 UNL     1      -0.505  50.999 -16.907  1.00  0.00     0.012 C 
HETATM   19  C33 UNL     1      -0.162  51.412 -18.352  1.00  0.00     0.044 C 
HETATM   20  C34 UNL     1      -1.448  51.152 -19.143  1.00  0.00     0.089 C 
ENDROOT
BRANCH  17  21
HETATM   21  C21 UNL     1      -2.104  49.195 -15.812  1.00  0.00     0.087 C 
HETATM   22  C22 UNL     1      -0.821  48.564 -15.252  1.00  0.00     0.049 C 
BRANCH  21  23
HETATM   23  O4  UNL     1      -2.889  48.119 -16.354  1.00  0.00    -0.387 OA
HETATM   24  H34 UNL     1      -3.700  48.501 -16.732  1.00  0.00     0.210 HD
ENDBRANCH  21  23
BRANCH  21  25
HETATM   25  C23 UNL     1      -2.947  49.865 -14.654  1.00  0.00     0.181 C 
BRANCH  25  26
HETATM   26  O5  UNL     1      -3.517  51.098 -15.103  1.00  0.00    -0.390 OA
HETATM   27  H36 UNL     1      -4.362  51.223 -14.644  1.00  0.00     0.210 HD
ENDBRANCH  25  26
BRANCH  25  28
HETATM   28  C24 UNL     1      -2.182  50.053 -13.306  1.00  0.00     0.158 C 
HETATM   29  O6  UNL     1      -1.522  51.337 -13.253  1.00  0.00    -0.373 OA
HETATM   30  C25 UNL     1      -2.265  52.231 -12.394  1.00  0.00     0.185 C 
HETATM   31  C26 UNL     1      -3.443  51.452 -11.824  1.00  0.00     0.027 C 
HETATM   32  C29 UNL     1      -1.323  52.776 -11.297  1.00  0.00     0.383 C 
HETATM   33  C27 UNL     1      -3.780  51.839 -10.382  1.00  0.00     0.038 C 
HETATM   34  C30 UNL     1      -3.017  50.005 -12.018  1.00  0.00     0.020 C 
HETATM   35  C28 UNL     1      -3.401  53.296 -10.116  1.00  0.00     0.273 C 
HETATM   36  N1  UNL     1      -1.961  53.497 -10.214  1.00  0.00     0.114 N 
HETATM   37  H44 UNL     1      -1.743  54.485 -10.347  1.00  0.00     0.319 HD
HETATM   38  C31 UNL     1      -4.161  49.006 -11.974  1.00  0.00     0.013 C 
BRANCH  32  39
HETATM   39  O7  UNL     1      -0.385  53.658 -11.895  1.00  0.00    -0.366 OA
HETATM   40  H46 UNL     1      -0.031  53.166 -12.658  1.00  0.00     0.212 HD
ENDBRANCH  32  39
ENDBRANCH  25  28
ENDBRANCH  21  25
ENDBRANCH  17  21
BRANCH  20  41
HETATM   41  O8  UNL     1      -2.324  52.259 -18.842  1.00  0.00    -0.384 OA
HETATM   42  H55 UNL     1      -1.912  53.058 -19.215  1.00  0.00     0.211 HD
ENDBRANCH  20  41
BRANCH   1  43
HETATM   43  O2  UNL     1      -3.152  52.670 -26.232  1.00  0.00    -0.386 OA
BRANCH  43  44
HETATM   44  C4  UNL     1      -2.146  51.742 -26.628  1.00  0.00     0.170 C 
BRANCH  44  45
HETATM   45  C3  UNL     1      -1.045  52.483 -27.375  1.00  0.00     0.052 C 
BRANCH  45  46
HETATM   46  C2  UNL     1       0.252  51.677 -27.430  1.00  0.00     0.169 C 
BRANCH  46  47
HETATM   47  O1  UNL     1       1.310  52.361 -26.753  1.00  0.00    -0.396 OA
HETATM   48  C1  UNL     1       2.519  51.619 -26.707  1.00  0.00     0.201 C 
ENDBRANCH  46  47
ENDBRANCH  45  46
ENDBRANCH  44  45
ENDBRANCH  43  44
ENDBRANCH   1  43
TORSDOF 12
ENDMDL
MODEL 5
REMARK minimizedAffinity -9.09566212
REMARK CNNscore 0.587865233
REMARK CNNaffinity 6.59511185
REMARK  12 active torsions:
REMARK  status: ('A' for Active; 'I' for Inactive)
REMARK    1  A    between atoms: O1_2  and  C2_3 
REMARK    2  A    between atoms: C2_3  and  C3_4 
REMARK    3  A    between atoms: C3_4  and  C4_5 
REMARK    4  A    between atoms: C4_5  and  O2_6 
REMARK    5  A    between atoms: O2_6  and  C5_7 
REMARK    6  A    between atoms: C20_23  and  C21_24 
REMARK    7  A    between atoms: C21_24  and  O4_26 
REMARK    8  A    between atoms: C21_24  and  C23_27 
REMARK    9  A    between atoms: C23_27  and  O5_28 
REMARK   10  A    between atoms: C23_27  and  C24_29 
REMARK   11  A    between atoms: C29_36  and  O7_37 
REMARK   12  A    between atoms: C34_42  and  O8_43 
ROOT
HETATM    1  C5  UNL     1      -3.884  52.164 -24.674  1.00  0.00     0.122 C 
HETATM    2  C6  UNL     1      -4.492  50.764 -24.494  1.00  0.00     0.033 C 
HETATM    3  C7  UNL     1      -4.413  50.293 -23.046  1.00  0.00     0.013 C 
HETATM    4  C8  UNL     1      -2.941  50.170 -22.532  1.00  0.00    -0.026 C 
HETATM    5  C9  UNL     1      -2.461  48.711 -22.754  1.00  0.00     0.016 C 
HETATM    6  C10 UNL     1      -2.005  51.080 -23.381  1.00  0.00     0.071 C 
HETATM    7  C11 UNL     1      -2.680  52.406 -23.747  1.00  0.00     0.045 C 
HETATM    8  C12 UNL     1      -0.649  51.319 -22.749  1.00  0.00     0.154 C 
HETATM    9  O3  UNL     1       0.329  51.654 -23.416  1.00  0.00    -0.293 OA
HETATM   10  C13 UNL     1      -0.496  51.227 -21.283  1.00  0.00     0.057 C 
HETATM   11  C14 UNL     1      -1.528  50.939 -20.477  1.00  0.00    -0.037 C 
HETATM   12  C15 UNL     1      -2.916  50.577 -21.004  1.00  0.00     0.026 C 
HETATM   13  C16 UNL     1      -3.663  49.539 -20.114  1.00  0.00     0.011 C 
HETATM   14  C17 UNL     1      -3.503  49.729 -18.597  1.00  0.00     0.014 C 
HETATM   15  C18 UNL     1      -2.018  49.875 -18.198  1.00  0.00    -0.002 C 
HETATM   16  C19 UNL     1      -1.262  48.567 -18.529  1.00  0.00     0.019 C 
HETATM   17  C20 UNL     1      -1.770  50.345 -16.720  1.00  0.00     0.034 C 
HETATM   18  C32 UNL     1      -0.379  51.034 -16.791  1.00  0.00     0.012 C 
HETATM   19  C33 UNL     1      -0.101  51.338 -18.277  1.00  0.00     0.044 C 
HETATM   20  C34 UNL     1      -1.443  51.095 -18.977  1.00  0.00     0.089 C 
ENDROOT
BRANCH  17  21
HETATM   21  C21 UNL     1      -1.995  49.385 -15.495  1.00  0.00     0.087 C 
HETATM   22  C22 UNL     1      -1.899  47.893 -15.838  1.00  0.00     0.049 C 
BRANCH  21  23
HETATM   23  O4  UNL     1      -3.326  49.608 -14.997  1.00  0.00    -0.387 OA
HETATM   24  H34 UNL     1      -3.413  50.554 -14.791  1.00  0.00     0.210 HD
ENDBRANCH  21  23
BRANCH  21  25
HETATM   25  C23 UNL     1      -0.984  49.758 -14.338  1.00  0.00     0.181 C 
BRANCH  25  26
HETATM   26  O5  UNL     1      -1.168  48.889 -13.217  1.00  0.00    -0.390 OA
HETATM   27  H36 UNL     1      -0.307  48.773 -12.782  1.00  0.00     0.210 HD
ENDBRANCH  25  26
BRANCH  25  28
HETATM   28  C24 UNL     1      -1.006  51.256 -13.902  1.00  0.00     0.158 C 
HETATM   29  O6  UNL     1      -2.341  51.804 -13.976  1.00  0.00    -0.373 OA
HETATM   30  C25 UNL     1      -2.896  51.914 -12.647  1.00  0.00     0.185 C 
HETATM   31  C26 UNL     1      -1.830  51.458 -11.660  1.00  0.00     0.027 C 
HETATM   32  C29 UNL     1      -3.345  53.374 -12.407  1.00  0.00     0.383 C 
HETATM   33  C27 UNL     1      -1.842  52.250 -10.351  1.00  0.00     0.038 C 
HETATM   34  C30 UNL     1      -0.548  51.573 -12.470  1.00  0.00     0.020 C 
HETATM   35  C28 UNL     1      -3.250  52.754 -10.042  1.00  0.00     0.273 C 
HETATM   36  N1  UNL     1      -3.704  53.711 -11.044  1.00  0.00     0.114 N 
HETATM   37  H44 UNL     1      -4.720  53.804 -11.020  1.00  0.00     0.319 HD
HETATM   38  C31 UNL     1       0.613  50.761 -11.921  1.00  0.00     0.013 C 
BRANCH  32  39
HETATM   39  O7  UNL     1      -4.477  53.645 -13.220  1.00  0.00    -0.366 OA
HETATM   40  H46 UNL     1      -4.223  53.340 -14.111  1.00  0.00     0.212 HD
ENDBRANCH  32  39
ENDBRANCH  25  28
ENDBRANCH  21  25
ENDBRANCH  17  21
BRANCH  20  41
HETATM   41  O8  UNL     1      -2.245  52.263 -18.700  1.00  0.00    -0.384 OA
HETATM   42  H55 UNL     1      -1.817  53.014 -19.147  1.00  0.00     0.211 HD
ENDBRANCH  20  41
BRANCH   1  43
HETATM   43  O2  UNL     1      -3.483  52.256 -26.044  1.00  0.00    -0.386 OA
BRANCH  43  44
HETATM   44  C4  UNL     1      -2.092  52.022 -26.250  1.00  0.00     0.170 C 
BRANCH  44  45
HETATM   45  C3  UNL     1      -1.917  50.907 -27.272  1.00  0.00     0.052 C 
BRANCH  45  46
HETATM   46  C2  UNL     1      -3.230  50.562 -27.973  1.00  0.00     0.169 C 
BRANCH  46  47
HETATM   47  O1  UNL     1      -3.337  49.154 -28.197  1.00  0.00    -0.396 OA
HETATM   48  C1  UNL     1      -4.086  48.482 -27.194  1.00  0.00     0.201 C 
ENDBRANCH  46  47
ENDBRANCH  45  46
ENDBRANCH  44  45
ENDBRANCH  43  44
ENDBRANCH   1  43
TORSDOF 12
ENDMDL
MODEL 6
REMARK minimizedAffinity -7.80482149
REMARK CNNscore 0.434341162
REMARK CNNaffinity 6.88445473
REMARK  12 active torsions:
REMARK  status: ('A' for Active; 'I' for Inactive)
REMARK    1  A    between atoms: O1_2  and  C2_3 
REMARK    2  A    between atoms: C2_3  and  C3_4 
REMARK    3  A    between atoms: C3_4  and  C4_5 
REMARK    4  A    between atoms: C4_5  and  O2_6 
REMARK    5  A    between atoms: O2_6  and  C5_7 
REMARK    6  A    between atoms: C20_23  and  C21_24 
REMARK    7  A    between atoms: C21_24  and  O4_26 
REMARK    8  A    between atoms: C21_24  and  C23_27 
REMARK    9  A    between atoms: C23_27  and  O5_28 
REMARK   10  A    between atoms: C23_27  and  C24_29 
REMARK   11  A    between atoms: C29_36  and  O7_37 
REMARK   12  A    between atoms: C34_42  and  O8_43 
ROOT
HETATM    1  C5  UNL     1      -1.489  48.275 -21.617  1.00  0.00     0.122 C 
HETATM    2  C6  UNL     1      -1.280  49.798 -21.635  1.00  0.00     0.033 C 
HETATM    3  C7  UNL     1      -0.621  50.294 -20.353  1.00  0.00     0.013 C 
HETATM    4  C8  UNL     1      -1.489  50.014 -19.082  1.00  0.00    -0.026 C 
HETATM    5  C9  UNL     1      -2.367  51.262 -18.799  1.00  0.00     0.016 C 
HETATM    6  C10 UNL     1      -2.468  48.834 -19.358  1.00  0.00     0.071 C 
HETATM    7  C11 UNL     1      -1.816  47.742 -20.212  1.00  0.00     0.045 C 
HETATM    8  C12 UNL     1      -3.084  48.246 -18.106  1.00  0.00     0.154 C 
HETATM    9  O3  UNL     1      -4.139  47.614 -18.135  1.00  0.00    -0.293 OA
HETATM   10  C13 UNL     1      -2.373  48.360 -16.816  1.00  0.00     0.057 C 
HETATM   11  C14 UNL     1      -1.185  48.970 -16.710  1.00  0.00    -0.037 C 
HETATM   12  C15 UNL     1      -0.514  49.690 -17.880  1.00  0.00     0.026 C 
HETATM   13  C16 UNL     1       0.310  50.939 -17.446  1.00  0.00     0.011 C 
HETATM   14  C17 UNL     1       1.117  50.783 -16.147  1.00  0.00     0.014 C 
HETATM   15  C18 UNL     1       0.242  50.236 -14.998  1.00  0.00    -0.002 C 
HETATM   16  C19 UNL     1      -0.873  51.255 -14.667  1.00  0.00     0.019 C 
HETATM   17  C20 UNL     1       1.032  49.785 -13.717  1.00  0.00     0.034 C 
HETATM   18  C32 UNL     1       0.097  48.724 -13.075  1.00  0.00     0.012 C 
HETATM   19  C33 UNL     1      -0.902  48.283 -14.163  1.00  0.00     0.044 C 
HETATM   20  C34 UNL     1      -0.338  48.867 -15.463  1.00  0.00     0.089 C 
ENDROOT
BRANCH  17  21
HETATM   21  C21 UNL     1       1.668  50.826 -12.725  1.00  0.00     0.087 C 
HETATM   22  C22 UNL     1       2.927  51.519 -13.262  1.00  0.00     0.049 C 
BRANCH  21  23
HETATM   23  O4  UNL     1       2.060  50.120 -11.535  1.00  0.00    -0.387 OA
HETATM   24  H34 UNL     1       1.278  49.658 -11.190  1.00  0.00     0.210 HD
ENDBRANCH  21  23
BRANCH  21  25
HETATM   25  C23 UNL     1       0.578  51.894 -12.310  1.00  0.00     0.181 C 
BRANCH  25  26
HETATM   26  O5  UNL     1       0.941  53.190 -12.793  1.00  0.00    -0.390 OA
HETATM   27  H36 UNL     1       0.125  53.677 -12.988  1.00  0.00     0.210 HD
ENDBRANCH  25  26
BRANCH  25  28
HETATM   28  C24 UNL     1       0.241  51.932 -10.786  1.00  0.00     0.158 C 
HETATM   29  O6  UNL     1       1.365  52.407 -10.013  1.00  0.00    -0.373 OA
HETATM   30  C25 UNL     1       1.131  53.772  -9.602  1.00  0.00     0.185 C 
HETATM   31  C26 UNL     1      -0.251  54.175 -10.099  1.00  0.00     0.027 C 
HETATM   32  C29 UNL     1       1.262  53.866  -8.065  1.00  0.00     0.383 C 
HETATM   33  C27 UNL     1      -0.994  55.100  -9.133  1.00  0.00     0.038 C 
HETATM   34  C30 UNL     1      -0.923  52.834 -10.351  1.00  0.00     0.020 C 
HETATM   35  C28 UNL     1      -0.004  55.943  -8.330  1.00  0.00     0.273 C 
HETATM   36  N1  UNL     1       0.824  55.112  -7.465  1.00  0.00     0.114 N 
HETATM   37  H44 UNL     1       1.664  55.613  -7.179  1.00  0.00     0.319 HD
HETATM   38  C31 UNL     1      -2.126  52.903 -11.277  1.00  0.00     0.013 C 
BRANCH  32  39
HETATM   39  O7  UNL     1       2.624  53.684  -7.708  1.00  0.00    -0.366 OA
HETATM   40  H46 UNL     1       2.901  52.880  -8.185  1.00  0.00     0.212 HD
ENDBRANCH  32  39
ENDBRANCH  25  28
ENDBRANCH  21  25
ENDBRANCH  17  21
BRANCH  20  41
HETATM   41  O8  UNL     1       0.746  47.993 -15.847  1.00  0.00    -0.384 OA
HETATM   42  H55 UNL     1       0.351  47.130 -16.064  1.00  0.00     0.211 HD
ENDBRANCH  20  41
BRANCH   1  43
HETATM   43  O2  UNL     1      -2.571  48.007 -22.515  1.00  0.00    -0.386 OA
BRANCH  43  44
HETATM   44  C4  UNL     1      -2.931  49.122 -23.325  1.00  0.00     0.170 C 
BRANCH  44  45
HETATM   45  C3  UNL     1      -3.058  48.670 -24.775  1.00  0.00     0.052 C 
BRANCH  45  46
HETATM   46  C2  UNL     1      -4.051  49.529 -25.556  1.00  0.00     0.169 C 
BRANCH  46  47
HETATM   47  O1  UNL     1      -3.405  50.669 -26.128  1.00  0.00    -0.396 OA
HETATM   48  C1  UNL     1      -3.052  50.488 -27.492  1.00  0.00     0.201 C 
ENDBRANCH  46  47
ENDBRANCH  45  46
ENDBRANCH  44  45
ENDBRANCH  43  44
ENDBRANCH   1  43
TORSDOF 12
ENDMDL
MODEL 7
REMARK minimizedAffinity -7.48991489
REMARK CNNscore 0.41270262
REMARK CNNaffinity 6.55633402
REMARK  12 active torsions:
REMARK  status: ('A' for Active; 'I' for Inactive)
REMARK    1  A    between atoms: O1_2  and  C2_3 
REMARK    2  A    between atoms: C2_3  and  C3_4 
REMARK    3  A    between atoms: C3_4  and  C4_5 
REMARK    4  A    between atoms: C4_5  and  O2_6 
REMARK    5  A    between atoms: O2_6  and  C5_7 
REMARK    6  A    between atoms: C20_23  and  C21_24 
REMARK    7  A    between atoms: C21_24  and  O4_26 
REMARK    8  A    between atoms: C21_24  and  C23_27 
REMARK    9  A    between atoms: C23_27  and  O5_28 
REMARK   10  A    between atoms: C23_27  and  C24_29 
REMARK   11  A    between atoms: C29_36  and  O7_37 
REMARK   12  A    between atoms: C34_42  and  O8_43 
ROOT
HETATM    1  C5  UNL     1      -0.574  51.701 -18.364  1.00  0.00     0.122 C 
HETATM    2  C6  UNL     1       0.121  50.954 -19.514  1.00  0.00     0.033 C 
HETATM    3  C7  UNL     1      -0.867  50.544 -20.601  1.00  0.00     0.013 C 
HETATM    4  C8  UNL     1      -1.965  49.561 -20.078  1.00  0.00    -0.026 C 
HETATM    5  C9  UNL     1      -1.488  48.106 -20.333  1.00  0.00     0.016 C 
HETATM    6  C10 UNL     1      -2.121  49.713 -18.536  1.00  0.00     0.071 C 
HETATM    7  C11 UNL     1      -1.993  51.174 -18.093  1.00  0.00     0.045 C 
HETATM    8  C12 UNL     1      -3.388  49.090 -17.986  1.00  0.00     0.154 C 
HETATM    9  O3  UNL     1      -3.491  48.760 -16.805  1.00  0.00    -0.293 OA
HETATM   10  C13 UNL     1      -4.569  48.937 -18.860  1.00  0.00     0.057 C 
HETATM   11  C14 UNL     1      -4.564  49.337 -20.139  1.00  0.00    -0.037 C 
HETATM   12  C15 UNL     1      -3.316  49.883 -20.833  1.00  0.00     0.026 C 
HETATM   13  C16 UNL     1      -3.240  49.515 -22.345  1.00  0.00     0.011 C 
HETATM   14  C17 UNL     1      -4.570  49.582 -23.112  1.00  0.00     0.014 C 
HETATM   15  C18 UNL     1      -5.686  48.805 -22.381  1.00  0.00    -0.002 C 
HETATM   16  C19 UNL     1      -5.320  47.303 -22.326  1.00  0.00     0.019 C 
HETATM   17  C20 UNL     1      -7.136  49.042 -22.937  1.00  0.00     0.034 C 
HETATM   18  C32 UNL     1      -8.043  48.750 -21.710  1.00  0.00     0.012 C 
HETATM   19  C33 UNL     1      -7.144  48.812 -20.459  1.00  0.00     0.044 C 
HETATM   20  C34 UNL     1      -5.830  49.423 -20.958  1.00  0.00     0.089 C 
ENDROOT
BRANCH  17  21
HETATM   21  C21 UNL     1      -7.612  48.423 -24.302  1.00  0.00     0.087 C 
HETATM   22  C22 UNL     1      -6.469  47.979 -25.225  1.00  0.00     0.049 C 
BRANCH  21  23
HETATM   23  O4  UNL     1      -8.347  49.434 -25.013  1.00  0.00    -0.387 OA
HETATM   24  H34 UNL     1      -9.066  49.743 -24.436  1.00  0.00     0.210 HD
ENDBRANCH  21  23
BRANCH  21  25
HETATM   25  C23 UNL     1      -8.602  47.222 -24.022  1.00  0.00     0.181 C 
BRANCH  25  26
HETATM   26  O5  UNL     1      -8.196  46.506 -22.852  1.00  0.00    -0.390 OA
HETATM   27  H36 UNL     1      -8.993  46.157 -22.422  1.00  0.00     0.210 HD
ENDBRANCH  25  26
BRANCH  25  28
HETATM   28  C24 UNL     1      -8.824  46.256 -25.228  1.00  0.00     0.158 C 
HETATM   29  O6  UNL     1      -8.270  44.949 -24.960  1.00  0.00    -0.373 OA
HETATM   30  C25 UNL     1      -9.336  44.023 -24.651  1.00  0.00     0.185 C 
HETATM   31  C26 UNL     1     -10.654  44.775 -24.779  1.00  0.00     0.027 C 
HETATM   32  C29 UNL     1      -9.245  42.811 -25.606  1.00  0.00     0.383 C 
HETATM   33  C27 UNL     1     -11.788  43.912 -25.337  1.00  0.00     0.038 C 
HETATM   34  C30 UNL     1     -10.277  45.974 -25.636  1.00  0.00     0.020 C 
HETATM   35  C28 UNL     1     -11.578  42.445 -24.966  1.00  0.00     0.273 C 
HETATM   36  N1  UNL     1     -10.377  41.905 -25.590  1.00  0.00     0.114 N 
HETATM   37  H44 UNL     1     -10.071  41.058 -25.111  1.00  0.00     0.319 HD
HETATM   38  C31 UNL     1     -11.255  47.133 -25.553  1.00  0.00     0.013 C 
BRANCH  32  39
HETATM   39  O7  UNL     1      -8.093  42.051 -25.273  1.00  0.00    -0.366 OA
HETATM   40  H46 UNL     1      -7.370  42.704 -25.224  1.00  0.00     0.212 HD
ENDBRANCH  32  39
ENDBRANCH  25  28
ENDBRANCH  21  25
ENDBRANCH  17  21
BRANCH  20  41
HETATM   41  O8  UNL     1      -6.077  50.840 -21.074  1.00  0.00    -0.384 OA
HETATM   42  H55 UNL     1      -6.230  51.177 -20.173  1.00  0.00     0.211 HD
ENDBRANCH  20  41
BRANCH   1  43
HETATM   43  O2  UNL     1       0.252  51.521 -17.210  1.00  0.00    -0.386 OA
BRANCH  43  44
HETATM   44  C4  UNL     1       1.321  52.460 -17.120  1.00  0.00     0.170 C 
BRANCH  44  45
HETATM   45  C3  UNL     1       2.157  52.153 -15.884  1.00  0.00     0.052 C 
BRANCH  45  46
HETATM   46  C2  UNL     1       1.299  51.647 -14.726  1.00  0.00     0.169 C 
BRANCH  46  47
HETATM   47  O1  UNL     1       0.468  52.690 -14.210  1.00  0.00    -0.396 OA
HETATM   48  C1  UNL     1      -0.256  52.308 -13.049  1.00  0.00     0.201 C 
ENDBRANCH  46  47
ENDBRANCH  45  46
ENDBRANCH  44  45
ENDBRANCH  43  44
ENDBRANCH   1  43
TORSDOF 12
ENDMDL
MODEL 8
REMARK minimizedAffinity -8.15290356
REMARK CNNscore 0.364657193
REMARK CNNaffinity 6.39134026
REMARK  12 active torsions:
REMARK  status: ('A' for Active; 'I' for Inactive)
REMARK    1  A    between atoms: O1_2  and  C2_3 
REMARK    2  A    between atoms: C2_3  and  C3_4 
REMARK    3  A    between atoms: C3_4  and  C4_5 
REMARK    4  A    between atoms: C4_5  and  O2_6 
REMARK    5  A    between atoms: O2_6  and  C5_7 
REMARK    6  A    between atoms: C20_23  and  C21_24 
REMARK    7  A    between atoms: C21_24  and  O4_26 
REMARK    8  A    between atoms: C21_24  and  C23_27 
REMARK    9  A    between atoms: C23_27  and  O5_28 
REMARK   10  A    between atoms: C23_27  and  C24_29 
REMARK   11  A    between atoms: C29_36  and  O7_37 
REMARK   12  A    between atoms: C34_42  and  O8_43 
ROOT
HETATM    1  C5  UNL     1     -11.464  47.887 -27.307  1.00  0.00     0.122 C 
HETATM    2  C6  UNL     1     -11.872  47.115 -26.042  1.00  0.00     0.033 C 
HETATM    3  C7  UNL     1     -10.919  47.383 -24.882  1.00  0.00     0.013 C 
HETATM    4  C8  UNL     1      -9.455  46.927 -25.187  1.00  0.00    -0.026 C 
HETATM    5  C9  UNL     1      -9.268  45.480 -24.657  1.00  0.00     0.016 C 
HETATM    6  C10 UNL     1      -9.227  46.869 -26.727  1.00  0.00     0.071 C 
HETATM    7  C11 UNL     1      -9.938  48.017 -27.450  1.00  0.00     0.045 C 
HETATM    8  C12 UNL     1      -7.768  46.799 -27.126  1.00  0.00     0.154 C 
HETATM    9  O3  UNL     1      -7.412  46.355 -28.218  1.00  0.00    -0.293 OA
HETATM   10  C13 UNL     1      -6.733  47.344 -26.224  1.00  0.00     0.057 C 
HETATM   11  C14 UNL     1      -7.042  47.910 -25.048  1.00  0.00    -0.037 C 
HETATM   12  C15 UNL     1      -8.465  47.945 -24.492  1.00  0.00     0.026 C 
HETATM   13  C16 UNL     1      -8.523  47.845 -22.939  1.00  0.00     0.011 C 
HETATM   14  C17 UNL     1      -7.442  48.632 -22.182  1.00  0.00     0.014 C 
HETATM   15  C18 UNL     1      -6.031  48.329 -22.731  1.00  0.00    -0.002 C 
HETATM   16  C19 UNL     1      -5.693  46.838 -22.494  1.00  0.00     0.019 C 
HETATM   17  C20 UNL     1      -4.896  49.283 -22.213  1.00  0.00     0.034 C 
HETATM   18  C32 UNL     1      -3.834  49.226 -23.346  1.00  0.00     0.012 C 
HETATM   19  C33 UNL     1      -4.539  48.664 -24.597  1.00  0.00     0.044 C 
HETATM   20  C34 UNL     1      -6.030  48.694 -24.246  1.00  0.00     0.089 C 
ENDROOT
BRANCH  17  21
HETATM   21  C21 UNL     1      -4.336  49.186 -20.746  1.00  0.00     0.087 C 
HETATM   22  C22 UNL     1      -3.524  47.915 -20.464  1.00  0.00     0.049 C 
BRANCH  21  23
HETATM   23  O4  UNL     1      -5.457  49.168 -19.846  1.00  0.00    -0.387 OA
HETATM   24  H34 UNL     1      -5.996  49.958 -20.022  1.00  0.00     0.210 HD
ENDBRANCH  21  23
BRANCH  21  25
HETATM   25  C23 UNL     1      -3.483  50.477 -20.420  1.00  0.00     0.181 C 
BRANCH  25  26
HETATM   26  O5  UNL     1      -3.939  51.585 -21.201  1.00  0.00    -0.390 OA
HETATM   27  H36 UNL     1      -3.803  52.394 -20.682  1.00  0.00     0.210 HD
ENDBRANCH  25  26
BRANCH  25  28
HETATM   28  C24 UNL     1      -1.938  50.294 -20.545  1.00  0.00     0.158 C 
HETATM   29  O6  UNL     1      -1.419  50.994 -21.698  1.00  0.00    -0.373 OA
HETATM   30  C25 UNL     1      -0.751  52.203 -21.273  1.00  0.00     0.185 C 
HETATM   31  C26 UNL     1      -0.802  52.251 -19.752  1.00  0.00     0.027 C 
HETATM   32  C29 UNL     1       0.694  52.201 -21.822  1.00  0.00     0.383 C 
HETATM   33  C27 UNL     1       0.457  52.852 -19.126  1.00  0.00     0.038 C 
HETATM   34  C30 UNL     1      -1.079  50.803 -19.378  1.00  0.00     0.020 C 
HETATM   35  C28 UNL     1       1.097  53.865 -20.074  1.00  0.00     0.273 C 
HETATM   36  N1  UNL     1       1.575  53.224 -21.293  1.00  0.00     0.114 N 
HETATM   37  H44 UNL     1       1.708  53.912 -22.035  1.00  0.00     0.319 HD
HETATM   38  C31 UNL     1      -1.637  50.616 -17.977  1.00  0.00     0.013 C 
BRANCH  32  39
HETATM   39  O7  UNL     1       0.650  52.371 -23.231  1.00  0.00    -0.366 OA
HETATM   40  H46 UNL     1      -0.003  51.716 -23.541  1.00  0.00     0.212 HD
ENDBRANCH  32  39
ENDBRANCH  25  28
ENDBRANCH  21  25
ENDBRANCH  17  21
BRANCH  20  41
HETATM   41  O8  UNL     1      -6.443  50.068 -24.407  1.00  0.00    -0.384 OA
HETATM   42  H55 UNL     1      -6.364  50.279 -25.354  1.00  0.00     0.211 HD
ENDBRANCH  20  41
BRANCH   1  43
HETATM   43  O2  UNL     1     -12.007  47.161 -28.414  1.00  0.00    -0.386 OA
BRANCH  43  44
HETATM   44  C4  UNL     1     -11.950  47.873 -29.647  1.00  0.00     0.170 C 
BRANCH  44  45
HETATM   45  C3  UNL     1     -11.357  46.970 -30.722  1.00  0.00     0.052 C 
BRANCH  45  46
HETATM   46  C2  UNL     1      -9.981  47.453 -31.178  1.00  0.00     0.169 C 
BRANCH  46  47
HETATM   47  O1  UNL     1      -9.084  46.353 -31.349  1.00  0.00    -0.396 OA
HETATM   48  C1  UNL     1      -8.959  45.934 -32.701  1.00  0.00     0.201 C 
ENDBRANCH  46  47
ENDBRANCH  45  46
ENDBRANCH  44  45
ENDBRANCH  43  44
ENDBRANCH   1  43
TORSDOF 12
ENDMDL
MODEL 9
REMARK minimizedAffinity -8.60635948
REMARK CNNscore 0.348395973
REMARK CNNaffinity 6.49833488
REMARK  12 active torsions:
REMARK  status: ('A' for Active; 'I' for Inactive)
REMARK    1  A    between atoms: O1_2  and  C2_3 
REMARK    2  A    between atoms: C2_3  and  C3_4 
REMARK    3  A    between atoms: C3_4  and  C4_5 
REMARK    4  A    between atoms: C4_5  and  O2_6 
REMARK    5  A    between atoms: O2_6  and  C5_7 
REMARK    6  A    between atoms: C20_23  and  C21_24 
REMARK    7  A    between atoms: C21_24  and  O4_26 
REMARK    8  A    between atoms: C21_24  and  C23_27 
REMARK    9  A    between atoms: C23_27  and  O5_28 
REMARK   10  A    between atoms: C23_27  and  C24_29 
REMARK   11  A    between atoms: C29_36  and  O7_37 
REMARK   12  A    between atoms: C34_42  and  O8_43 
ROOT
HETATM    1  C5  UNL     1     -10.617  47.808 -27.037  1.00  0.00     0.122 C 
HETATM    2  C6  UNL     1     -10.841  47.007 -25.745  1.00  0.00     0.033 C 
HETATM    3  C7  UNL     1      -9.871  47.424 -24.644  1.00  0.00     0.013 C 
HETATM    4  C8  UNL     1      -8.377  47.172 -25.030  1.00  0.00    -0.026 C 
HETATM    5  C9  UNL     1      -7.960  45.774 -24.501  1.00  0.00     0.016 C 
HETATM    6  C10 UNL     1      -8.231  47.122 -26.581  1.00  0.00     0.071 C 
HETATM    7  C11 UNL     1      -9.135  48.149 -27.270  1.00  0.00     0.045 C 
HETATM    8  C12 UNL     1      -6.801  47.251 -27.063  1.00  0.00     0.154 C 
HETATM    9  O3  UNL     1      -6.449  46.844 -28.170  1.00  0.00    -0.293 OA
HETATM   10  C13 UNL     1      -5.804  47.950 -26.226  1.00  0.00     0.057 C 
HETATM   11  C14 UNL     1      -6.122  48.485 -25.039  1.00  0.00    -0.037 C 
HETATM   12  C15 UNL     1      -7.502  48.329 -24.402  1.00  0.00     0.026 C 
HETATM   13  C16 UNL     1      -7.459  48.246 -22.847  1.00  0.00     0.011 C 
HETATM   14  C17 UNL     1      -6.457  49.189 -22.160  1.00  0.00     0.014 C 
HETATM   15  C18 UNL     1      -5.051  49.077 -22.788  1.00  0.00    -0.002 C 
HETATM   16  C19 UNL     1      -4.494  47.652 -22.559  1.00  0.00     0.019 C 
HETATM   17  C20 UNL     1      -4.034  50.189 -22.343  1.00  0.00     0.034 C 
HETATM   18  C32 UNL     1      -3.041  50.263 -23.536  1.00  0.00     0.012 C 
HETATM   19  C33 UNL     1      -3.729  49.589 -24.739  1.00  0.00     0.044 C 
HETATM   20  C34 UNL     1      -5.187  49.415 -24.302  1.00  0.00     0.089 C 
ENDROOT
BRANCH  17  21
HETATM   21  C21 UNL     1      -3.384  50.194 -20.911  1.00  0.00     0.087 C 
HETATM   22  C22 UNL     1      -4.394  50.083 -19.761  1.00  0.00     0.049 C 
BRANCH  21  23
HETATM   23  O4  UNL     1      -2.701  51.448 -20.741  1.00  0.00    -0.387 OA
HETATM   24  H34 UNL     1      -2.068  51.546 -21.473  1.00  0.00     0.210 HD
ENDBRANCH  21  23
BRANCH  21  25
HETATM   25  C23 UNL     1      -2.302  49.044 -20.817  1.00  0.00     0.181 C 
BRANCH  25  26
HETATM   26  O5  UNL     1      -2.553  48.217 -19.677  1.00  0.00    -0.390 OA
HETATM   27  H36 UNL     1      -2.264  47.316 -19.891  1.00  0.00     0.210 HD
ENDBRANCH  25  26
BRANCH  25  28
HETATM   28  C24 UNL     1      -0.820  49.531 -20.848  1.00  0.00     0.158 C 
HETATM   29  O6  UNL     1      -0.602  50.477 -21.919  1.00  0.00    -0.373 OA
HETATM   30  C25 UNL     1      -0.519  51.814 -21.378  1.00  0.00     0.185 C 
HETATM   31  C26 UNL     1      -0.641  51.710 -19.864  1.00  0.00     0.027 C 
HETATM   32  C29 UNL     1       0.812  52.458 -21.827  1.00  0.00     0.383 C 
HETATM   33  C27 UNL     1       0.227  52.726 -19.118  1.00  0.00     0.038 C 
HETATM   34  C30 UNL     1      -0.297  50.252 -19.597  1.00  0.00     0.020 C 
HETATM   35  C28 UNL     1       0.416  53.988 -19.958  1.00  0.00     0.273 C 
HETATM   36  N1  UNL     1       1.162  53.707 -21.178  1.00  0.00     0.114 N 
HETATM   37  H44 UNL     1       1.021  54.447 -21.866  1.00  0.00     0.319 HD
HETATM   38  C31 UNL     1      -0.775  49.734 -18.251  1.00  0.00     0.013 C 
BRANCH  32  39
HETATM   39  O7  UNL     1       0.752  52.712 -23.222  1.00  0.00    -0.366 OA
HETATM   40  H46 UNL     1       0.446  51.873 -23.614  1.00  0.00     0.212 HD
ENDBRANCH  32  39
ENDBRANCH  25  28
ENDBRANCH  21  25
ENDBRANCH  17  21
BRANCH  20  41
HETATM   41  O8  UNL     1      -5.797  50.715 -24.450  1.00  0.00    -0.384 OA
HETATM   42  H55 UNL     1      -5.803  50.920 -25.402  1.00  0.00     0.211 HD
ENDBRANCH  20  41
BRANCH   1  43
HETATM   43  O2  UNL     1     -11.115  46.997 -28.106  1.00  0.00    -0.386 OA
BRANCH  43  44
HETATM   44  C4  UNL     1     -12.133  46.085 -27.704  1.00  0.00     0.170 C 
BRANCH  44  45
HETATM   45  C3  UNL     1     -13.498  46.701 -27.982  1.00  0.00     0.052 C 
BRANCH  45  46
HETATM   46  C2  UNL     1     -14.420  45.736 -28.725  1.00  0.00     0.169 C 
BRANCH  46  47
HETATM   47  O1  UNL     1     -14.969  44.762 -27.834  1.00  0.00    -0.396 OA
HETATM   48  C1  UNL     1     -16.370  44.586 -27.988  1.00  0.00     0.201 C 
ENDBRANCH  46  47
ENDBRANCH  45  46
ENDBRANCH  44  45
ENDBRANCH  43  44
ENDBRANCH   1  43
TORSDOF 12
ENDMDL
