MODEL 1
REMARK minimizedAffinity -7.6041851
REMARK CNNscore 0.653492808
REMARK CNNaffinity 7.44697571
REMARK  9 active torsions:
REMARK  status: ('A' for Active; 'I' for Inactive)
REMARK    1  A    between atoms: C2_2  and  O1_3 
REMARK    2  A    between atoms: O1_3  and  C3_4 
REMARK    3  A    between atoms: C14_15  and  O2_16 
REMARK    4  A    between atoms: O2_16  and  C15_17 
REMARK    5  A    between atoms: C21_24  and  O4_25 
REMARK    6  A    between atoms: O4_25  and  C22_26 
REMARK    7  A    between atoms: C24_29  and  O6_30 
REMARK    8  A    between atoms: C25_31  and  O7_32 
REMARK    9  A    between atoms: C26_33  and  O8_34 
ROOT
HETATM    1  C3  UNL     1       5.114  55.780  -6.680  1.00  0.00     0.260 C 
HETATM    2  C4  UNL     1       4.192  56.984  -6.426  1.00  0.00     0.065 C 
HETATM    3  C5  UNL     1       2.714  56.601  -6.579  1.00  0.00    -0.007 C 
HETATM    4  C6  UNL     1       1.810  57.782  -6.232  1.00  0.00     0.010 C 
HETATM    5  C7  UNL     1       2.507  56.109  -8.029  1.00  0.00     0.027 C 
HETATM    6  C8  UNL     1       3.707  55.233  -8.508  1.00  0.00     0.130 C 
HETATM    7  C9  UNL     1       3.102  54.052  -9.308  1.00  0.00     0.042 C 
HETATM    8  C10 UNL     1       1.706  54.559  -9.715  1.00  0.00    -0.029 C 
HETATM    9  C11 UNL     1       1.949  55.577 -10.891  1.00  0.00     0.016 C 
HETATM   10  C12 UNL     1       0.647  53.538 -10.252  1.00  0.00     0.006 C 
HETATM   11  C13 UNL     1       0.969  52.049 -10.116  1.00  0.00     0.039 C 
HETATM   12  C14 UNL     1       0.085  51.252 -11.096  1.00  0.00     0.138 C 
HETATM   13  C17 UNL     1      -1.461  51.506 -10.960  1.00  0.00     0.035 C 
HETATM   14  C18 UNL     1      -2.330  51.152 -12.232  1.00  0.00    -0.015 C 
HETATM   15  C19 UNL     1      -2.033  52.094 -13.432  1.00  0.00     0.018 C 
HETATM   16  C20 UNL     1      -2.016  49.707 -12.703  1.00  0.00     0.018 C 
HETATM   17  C21 UNL     1      -3.862  51.241 -11.873  1.00  0.00     0.133 C 
HETATM   18  C27 UNL     1      -4.219  52.349 -10.875  1.00  0.00     0.034 C 
HETATM   19  C28 UNL     1      -3.183  53.451 -10.797  1.00  0.00     0.013 C 
HETATM   20  C29 UNL     1      -1.849  52.891 -10.341  1.00  0.00    -0.025 A 
HETATM   21  C30 UNL     1      -1.589  52.955  -8.855  1.00  0.00     0.021 A 
HETATM   22  C31 UNL     1      -0.778  53.850  -9.773  1.00  0.00    -0.027 A 
HETATM   23  C32 UNL     1      -1.043  55.342  -9.598  1.00  0.00     0.011 C 
HETATM   24  C33 UNL     1      -0.054  56.033  -8.630  1.00  0.00     0.011 C 
HETATM   25  C34 UNL     1       1.251  55.246  -8.380  1.00  0.00    -0.030 C 
HETATM   26  C35 UNL     1       1.020  54.244  -7.211  1.00  0.00     0.016 C 
HETATM   27  O9  UNL     1       4.468  54.739  -7.415  1.00  0.00    -0.356 OA
ENDROOT
BRANCH  17  28
HETATM   28  O4  UNL     1      -4.304  49.980 -11.333  1.00  0.00    -0.353 OA
BRANCH  28  29
HETATM   29  C22 UNL     1      -5.023  50.068 -10.096  1.00  0.00     0.291 C 
HETATM   30  O5  UNL     1      -4.149  49.649  -9.032  1.00  0.00    -0.356 OA
HETATM   31  C23 UNL     1      -4.073  48.229  -8.909  1.00  0.00     0.205 C 
HETATM   32  C24 UNL     1      -5.415  47.652  -8.430  1.00  0.00     0.173 C 
HETATM   33  C25 UNL     1      -6.568  48.598  -8.774  1.00  0.00     0.182 C 
HETATM   34  C26 UNL     1      -6.334  49.239 -10.137  1.00  0.00     0.204 C 
BRANCH  32  35
HETATM   35  O6  UNL     1      -5.443  47.457  -7.006  1.00  0.00    -0.391 OA
HETATM   36  H39 UNL     1      -4.649  46.951  -6.756  1.00  0.00     0.210 HD
ENDBRANCH  32  35
BRANCH  33  37
HETATM   37  O7  UNL     1      -7.812  47.879  -8.793  1.00  0.00    -0.390 OA
HETATM   38  H41 UNL     1      -7.929  47.540  -7.882  1.00  0.00     0.210 HD
ENDBRANCH  33  37
BRANCH  34  39
HETATM   39  O8  UNL     1      -7.467  50.054 -10.481  1.00  0.00    -0.388 OA
HETATM   40  H43 UNL     1      -8.244  49.519 -10.217  1.00  0.00     0.210 HD
ENDBRANCH  34  39
ENDBRANCH  28  29
ENDBRANCH  17  28
BRANCH  12  41
HETATM   41  O2  UNL     1       0.542  51.564 -12.432  1.00  0.00    -0.316 OA
BRANCH  41  42
HETATM   42  C15 UNL     1       1.539  50.788 -12.940  1.00  0.00     0.255 C 
HETATM   43  C16 UNL     1       2.324  51.564 -13.952  1.00  0.00     0.126 C 
HETATM   44  O3  UNL     1       1.761  49.623 -12.643  1.00  0.00    -0.266 OA
ENDBRANCH  41  42
ENDBRANCH  12  41
BRANCH   1  45
HETATM   45  O1  UNL     1       6.286  56.251  -7.346  1.00  0.00    -0.362 OA
BRANCH  45  46
HETATM   46  C2  UNL     1       7.476  55.572  -6.951  1.00  0.00     0.166 C 
HETATM   47  C1  UNL     1       7.413  55.168  -5.488  1.00  0.00     0.033 C 
ENDBRANCH  45  46
ENDBRANCH   1  45
TORSDOF 9
ENDMDL
MODEL 2
REMARK minimizedAffinity -7.37762737
REMARK CNNscore 0.644497752
REMARK CNNaffinity 6.96773148
REMARK  9 active torsions:
REMARK  status: ('A' for Active; 'I' for Inactive)
REMARK    1  A    between atoms: C2_2  and  O1_3 
REMARK    2  A    between atoms: O1_3  and  C3_4 
REMARK    3  A    between atoms: C14_15  and  O2_16 
REMARK    4  A    between atoms: O2_16  and  C15_17 
REMARK    5  A    between atoms: C21_24  and  O4_25 
REMARK    6  A    between atoms: O4_25  and  C22_26 
REMARK    7  A    between atoms: C24_29  and  O6_30 
REMARK    8  A    between atoms: C25_31  and  O7_32 
REMARK    9  A    between atoms: C26_33  and  O8_34 
ROOT
HETATM    1  C3  UNL     1       8.478  55.603  -4.240  1.00  0.00     0.260 C 
HETATM    2  C4  UNL     1       8.096  57.054  -4.581  1.00  0.00     0.065 C 
HETATM    3  C5  UNL     1       6.687  57.137  -5.184  1.00  0.00    -0.007 C 
HETATM    4  C6  UNL     1       6.288  58.591  -5.428  1.00  0.00     0.010 C 
HETATM    5  C7  UNL     1       6.686  56.301  -6.483  1.00  0.00     0.027 C 
HETATM    6  C8  UNL     1       7.503  54.982  -6.311  1.00  0.00     0.130 C 
HETATM    7  C9  UNL     1       6.702  53.867  -7.028  1.00  0.00     0.042 C 
HETATM    8  C10 UNL     1       5.795  54.636  -8.006  1.00  0.00    -0.029 C 
HETATM    9  C11 UNL     1       6.731  55.090  -9.188  1.00  0.00     0.016 C 
HETATM   10  C12 UNL     1       4.593  53.893  -8.681  1.00  0.00     0.006 C 
HETATM   11  C13 UNL     1       4.231  52.505  -8.149  1.00  0.00     0.039 C 
HETATM   12  C14 UNL     1       3.389  51.764  -9.207  1.00  0.00     0.138 C 
HETATM   13  C17 UNL     1       2.105  52.530  -9.696  1.00  0.00     0.035 C 
HETATM   14  C18 UNL     1       1.535  52.086 -11.101  1.00  0.00    -0.015 C 
HETATM   15  C19 UNL     1       2.493  52.447 -12.270  1.00  0.00     0.018 C 
HETATM   16  C20 UNL     1       1.343  50.546 -11.134  1.00  0.00     0.018 C 
HETATM   17  C21 UNL     1       0.137  52.771 -11.351  1.00  0.00     0.133 C 
HETATM   18  C27 UNL     1       0.016  54.193 -10.789  1.00  0.00     0.034 C 
HETATM   19  C28 UNL     1       1.350  54.868 -10.556  1.00  0.00     0.013 C 
HETATM   20  C29 UNL     1       2.168  54.087  -9.545  1.00  0.00    -0.025 A 
HETATM   21  C30 UNL     1       2.032  54.536  -8.110  1.00  0.00     0.021 A 
HETATM   22  C31 UNL     1       3.348  54.781  -8.826  1.00  0.00    -0.027 A 
HETATM   23  C32 UNL     1       3.680  56.252  -9.054  1.00  0.00     0.011 C 
HETATM   24  C33 UNL     1       4.573  56.861  -7.948  1.00  0.00     0.011 C 
HETATM   25  C34 UNL     1       5.327  55.821  -7.091  1.00  0.00    -0.030 C 
HETATM   26  C35 UNL     1       4.410  55.376  -5.915  1.00  0.00     0.016 C 
HETATM   27  O9  UNL     1       7.681  54.647  -4.942  1.00  0.00    -0.356 OA
ENDROOT
BRANCH  17  28
HETATM   28  O4  UNL     1      -0.906  51.961 -10.773  1.00  0.00    -0.353 OA
BRANCH  28  29
HETATM   29  C22 UNL     1      -2.133  51.931 -11.514  1.00  0.00     0.291 C 
HETATM   30  O5  UNL     1      -3.191  52.406 -10.660  1.00  0.00    -0.356 OA
HETATM   31  C23 UNL     1      -3.678  51.397  -9.776  1.00  0.00     0.205 C 
HETATM   32  C24 UNL     1      -4.408  50.294 -10.559  1.00  0.00     0.173 C 
HETATM   33  C25 UNL     1      -3.926  50.248 -12.012  1.00  0.00     0.182 C 
HETATM   34  C26 UNL     1      -2.426  50.516 -12.077  1.00  0.00     0.204 C 
BRANCH  32  35
HETATM   35  O6  UNL     1      -5.829  50.505 -10.595  1.00  0.00    -0.391 OA
HETATM   36  H39 UNL     1      -6.134  50.650  -9.681  1.00  0.00     0.210 HD
ENDBRANCH  32  35
BRANCH  33  37
HETATM   37  O7  UNL     1      -4.206  48.962 -12.588  1.00  0.00    -0.390 OA
HETATM   38  H41 UNL     1      -5.181  48.874 -12.565  1.00  0.00     0.210 HD
ENDBRANCH  33  37
BRANCH  34  39
HETATM   39  O8  UNL     1      -1.979  50.383 -13.437  1.00  0.00    -0.388 OA
HETATM   40  H43 UNL     1      -2.441  49.586 -13.772  1.00  0.00     0.210 HD
ENDBRANCH  34  39
ENDBRANCH  28  29
ENDBRANCH  17  28
BRANCH  12  41
HETATM   41  O2  UNL     1       4.266  51.469 -10.318  1.00  0.00    -0.316 OA
BRANCH  41  42
HETATM   42  C15 UNL     1       5.179  50.475 -10.137  1.00  0.00     0.255 C 
HETATM   43  C16 UNL     1       4.475  49.172  -9.907  1.00  0.00     0.126 C 
HETATM   44  O3  UNL     1       6.393  50.610 -10.137  1.00  0.00    -0.266 OA
ENDBRANCH  41  42
ENDBRANCH  12  41
BRANCH   1  45
HETATM   45  O1  UNL     1       9.869  55.435  -4.512  1.00  0.00    -0.362 OA
BRANCH  45  46
HETATM   46  C2  UNL     1      10.513  56.632  -4.944  1.00  0.00     0.166 C 
HETATM   47  C1  UNL     1      11.812  56.855  -4.188  1.00  0.00     0.033 C 
ENDBRANCH  45  46
ENDBRANCH   1  45
TORSDOF 9
ENDMDL
MODEL 3
REMARK minimizedAffinity -7.24346256
REMARK CNNscore 0.53811413
REMARK CNNaffinity 7.04512453
REMARK  9 active torsions:
REMARK  status: ('A' for Active; 'I' for Inactive)
REMARK    1  A    between atoms: C2_2  and  O1_3 
REMARK    2  A    between atoms: O1_3  and  C3_4 
REMARK    3  A    between atoms: C14_15  and  O2_16 
REMARK    4  A    between atoms: O2_16  and  C15_17 
REMARK    5  A    between atoms: C21_24  and  O4_25 
REMARK    6  A    between atoms: O4_25  and  C22_26 
REMARK    7  A    between atoms: C24_29  and  O6_30 
REMARK    8  A    between atoms: C25_31  and  O7_32 
REMARK    9  A    between atoms: C26_33  and  O8_34 
ROOT
HETATM    1  C3  UNL     1      -0.802  52.219 -13.300  1.00  0.00     0.260 C 
HETATM    2  C4  UNL     1      -2.028  51.902 -12.427  1.00  0.00     0.065 C 
HETATM    3  C5  UNL     1      -2.142  52.872 -11.245  1.00  0.00    -0.007 C 
HETATM    4  C6  UNL     1      -3.414  52.603 -10.444  1.00  0.00     0.010 C 
HETATM    5  C7  UNL     1      -0.865  52.717 -10.389  1.00  0.00     0.027 C 
HETATM    6  C8  UNL     1       0.403  52.551 -11.285  1.00  0.00     0.130 C 
HETATM    7  C9  UNL     1       1.524  53.392 -10.626  1.00  0.00     0.042 C 
HETATM    8  C10 UNL     1       1.059  53.549  -9.167  1.00  0.00    -0.029 C 
HETATM    9  C11 UNL     1       1.333  52.159  -8.480  1.00  0.00     0.016 C 
HETATM   10  C12 UNL     1       1.751  54.616  -8.253  1.00  0.00     0.006 C 
HETATM   11  C13 UNL     1       2.690  55.620  -8.924  1.00  0.00     0.039 C 
HETATM   12  C14 UNL     1       3.612  56.239  -7.854  1.00  0.00     0.138 C 
HETATM   13  C17 UNL     1       2.870  56.895  -6.632  1.00  0.00     0.035 C 
HETATM   14  C18 UNL     1       3.727  57.051  -5.313  1.00  0.00    -0.015 C 
HETATM   15  C19 UNL     1       4.083  55.680  -4.673  1.00  0.00     0.018 C 
HETATM   16  C20 UNL     1       5.068  57.763  -5.632  1.00  0.00     0.018 C 
HETATM   17  C21 UNL     1       2.935  57.919  -4.262  1.00  0.00     0.133 C 
HETATM   18  C27 UNL     1       1.416  57.707  -4.276  1.00  0.00     0.034 C 
HETATM   19  C28 UNL     1       0.993  56.394  -4.900  1.00  0.00     0.013 C 
HETATM   20  C29 UNL     1       1.438  56.330  -6.349  1.00  0.00    -0.025 A 
HETATM   21  C30 UNL     1       0.421  56.793  -7.364  1.00  0.00     0.021 A 
HETATM   22  C31 UNL     1       0.767  55.316  -7.304  1.00  0.00    -0.027 A 
HETATM   23  C32 UNL     1      -0.378  54.416  -6.850  1.00  0.00     0.011 C 
HETATM   24  C33 UNL     1      -1.191  53.817  -8.021  1.00  0.00     0.011 C 
HETATM   25  C34 UNL     1      -0.466  53.847  -9.384  1.00  0.00    -0.030 C 
HETATM   26  C35 UNL     1      -0.742  55.216 -10.072  1.00  0.00     0.016 C 
HETATM   27  O9  UNL     1       0.173  53.004 -12.612  1.00  0.00    -0.356 OA
ENDROOT
BRANCH  17  28
HETATM   28  O4  UNL     1       3.204  59.316  -4.493  1.00  0.00    -0.353 OA
BRANCH  28  29
HETATM   29  C22 UNL     1       3.702  60.035  -3.356  1.00  0.00     0.291 C 
HETATM   30  O5  UNL     1       2.723  59.957  -2.304  1.00  0.00    -0.356 OA
HETATM   31  C23 UNL     1       1.667  60.903  -2.464  1.00  0.00     0.205 C 
HETATM   32  C24 UNL     1       2.188  62.337  -2.272  1.00  0.00     0.173 C 
HETATM   33  C25 UNL     1       3.692  62.411  -2.550  1.00  0.00     0.182 C 
HETATM   34  C26 UNL     1       4.056  61.501  -3.718  1.00  0.00     0.204 C 
BRANCH  32  35
HETATM   35  O6  UNL     1       1.985  62.811  -0.930  1.00  0.00    -0.391 OA
HETATM   36  H39 UNL     1       1.051  62.664  -0.698  1.00  0.00     0.210 HD
ENDBRANCH  32  35
BRANCH  33  37
HETATM   37  O7  UNL     1       4.074  63.761  -2.860  1.00  0.00    -0.390 OA
HETATM   38  H41 UNL     1       3.865  64.280  -2.057  1.00  0.00     0.210 HD
ENDBRANCH  33  37
BRANCH  34  39
HETATM   39  O8  UNL     1       5.454  61.651  -4.019  1.00  0.00    -0.388 OA
HETATM   40  H43 UNL     1       5.617  62.615  -3.963  1.00  0.00     0.210 HD
ENDBRANCH  34  39
ENDBRANCH  28  29
ENDBRANCH  17  28
BRANCH  12  41
HETATM   41  O2  UNL     1       4.511  55.196  -7.411  1.00  0.00    -0.316 OA
BRANCH  41  42
HETATM   42  C15 UNL     1       5.439  54.760  -8.307  1.00  0.00     0.255 C 
HETATM   43  C16 UNL     1       6.679  55.594  -8.203  1.00  0.00     0.126 C 
HETATM   44  O3  UNL     1       5.292  53.841  -9.099  1.00  0.00    -0.266 OA
ENDBRANCH  41  42
ENDBRANCH  12  41
BRANCH   1  45
HETATM   45  O1  UNL     1      -0.256  50.983 -13.764  1.00  0.00    -0.362 OA
BRANCH  45  46
HETATM   46  C2  UNL     1       0.765  51.147 -14.747  1.00  0.00     0.166 C 
HETATM   47  C1  UNL     1       0.598  50.147 -15.877  1.00  0.00     0.033 C 
ENDBRANCH  45  46
ENDBRANCH   1  45
TORSDOF 9
ENDMDL
MODEL 4
REMARK minimizedAffinity -7.22152662
REMARK CNNscore 0.463147849
REMARK CNNaffinity 6.50832605
REMARK  9 active torsions:
REMARK  status: ('A' for Active; 'I' for Inactive)
REMARK    1  A    between atoms: C2_2  and  O1_3 
REMARK    2  A    between atoms: O1_3  and  C3_4 
REMARK    3  A    between atoms: C14_15  and  O2_16 
REMARK    4  A    between atoms: O2_16  and  C15_17 
REMARK    5  A    between atoms: C21_24  and  O4_25 
REMARK    6  A    between atoms: O4_25  and  C22_26 
REMARK    7  A    between atoms: C24_29  and  O6_30 
REMARK    8  A    between atoms: C25_31  and  O7_32 
REMARK    9  A    between atoms: C26_33  and  O8_34 
ROOT
HETATM    1  C3  UNL     1       7.476  48.945  -9.658  1.00  0.00     0.260 C 
HETATM    2  C4  UNL     1       8.467  49.196  -8.510  1.00  0.00     0.065 C 
HETATM    3  C5  UNL     1       7.808  49.961  -7.355  1.00  0.00    -0.007 C 
HETATM    4  C6  UNL     1       8.778  50.118  -6.186  1.00  0.00     0.010 C 
HETATM    5  C7  UNL     1       7.331  51.322  -7.909  1.00  0.00     0.027 C 
HETATM    6  C8  UNL     1       6.721  51.171  -9.339  1.00  0.00     0.130 C 
HETATM    7  C9  UNL     1       5.471  52.083  -9.387  1.00  0.00     0.042 C 
HETATM    8  C10 UNL     1       5.707  53.093  -8.248  1.00  0.00    -0.029 C 
HETATM    9  C11 UNL     1       6.790  54.100  -8.790  1.00  0.00     0.016 C 
HETATM   10  C12 UNL     1       4.517  53.980  -7.752  1.00  0.00     0.006 C 
HETATM   11  C13 UNL     1       3.115  53.628  -8.255  1.00  0.00     0.039 C 
HETATM   12  C14 UNL     1       2.192  54.848  -8.066  1.00  0.00     0.138 C 
HETATM   13  C17 UNL     1       2.134  55.422  -6.602  1.00  0.00     0.035 C 
HETATM   14  C18 UNL     1       1.657  56.923  -6.472  1.00  0.00    -0.015 C 
HETATM   15  C19 UNL     1       2.676  57.923  -7.086  1.00  0.00     0.018 C 
HETATM   16  C20 UNL     1       0.317  57.122  -7.229  1.00  0.00     0.018 C 
HETATM   17  C21 UNL     1       1.433  57.282  -4.954  1.00  0.00     0.133 C 
HETATM   18  C27 UNL     1       2.418  56.611  -3.989  1.00  0.00     0.034 C 
HETATM   19  C28 UNL     1       3.699  56.150  -4.653  1.00  0.00     0.013 C 
HETATM   20  C29 UNL     1       3.396  55.121  -5.726  1.00  0.00    -0.025 A 
HETATM   21  C30 UNL     1       3.463  53.679  -5.283  1.00  0.00     0.021 A 
HETATM   22  C31 UNL     1       4.528  54.197  -6.231  1.00  0.00    -0.027 A 
HETATM   23  C32 UNL     1       5.933  54.245  -5.640  1.00  0.00     0.011 C 
HETATM   24  C33 UNL     1       6.774  52.983  -5.946  1.00  0.00     0.011 C 
HETATM   25  C34 UNL     1       6.250  52.138  -7.128  1.00  0.00    -0.030 C 
HETATM   26  C35 UNL     1       5.186  51.133  -6.596  1.00  0.00     0.016 C 
HETATM   27  O9  UNL     1       6.353  49.827  -9.615  1.00  0.00    -0.356 OA
ENDROOT
BRANCH  17  28
HETATM   28  O4  UNL     1       0.094  56.918  -4.566  1.00  0.00    -0.353 OA
BRANCH  28  29
HETATM   29  C22 UNL     1      -0.249  57.222  -3.207  1.00  0.00     0.291 C 
HETATM   30  O5  UNL     1      -0.949  56.093  -2.651  1.00  0.00    -0.356 OA
HETATM   31  C23 UNL     1      -2.329  56.069  -3.014  1.00  0.00     0.205 C 
HETATM   32  C24 UNL     1      -3.084  57.234  -2.355  1.00  0.00     0.173 C 
HETATM   33  C25 UNL     1      -2.127  58.379  -2.012  1.00  0.00     0.182 C 
HETATM   34  C26 UNL     1      -1.075  58.530  -3.105  1.00  0.00     0.204 C 
BRANCH  32  35
HETATM   35  O6  UNL     1      -3.725  56.841  -1.130  1.00  0.00    -0.391 OA
HETATM   36  H39 UNL     1      -4.251  56.041  -1.310  1.00  0.00     0.210 HD
ENDBRANCH  32  35
BRANCH  33  37
HETATM   37  O7  UNL     1      -2.854  59.611  -1.876  1.00  0.00    -0.390 OA
HETATM   38  H41 UNL     1      -3.471  59.466  -1.129  1.00  0.00     0.210 HD
ENDBRANCH  33  37
BRANCH  34  39
HETATM   39  O8  UNL     1      -0.241  59.663  -2.808  1.00  0.00    -0.388 OA
HETATM   40  H43 UNL     1      -0.864  60.355  -2.503  1.00  0.00     0.210 HD
ENDBRANCH  34  39
ENDBRANCH  28  29
ENDBRANCH  17  28
BRANCH  12  41
HETATM   41  O2  UNL     1       2.629  55.862  -8.999  1.00  0.00    -0.316 OA
BRANCH  41  42
HETATM   42  C15 UNL     1       2.370  55.640 -10.318  1.00  0.00     0.255 C 
HETATM   43  C16 UNL     1       3.451  56.248 -11.158  1.00  0.00     0.126 C 
HETATM   44  O3  UNL     1       1.397  55.054 -10.766  1.00  0.00    -0.266 OA
ENDBRANCH  41  42
ENDBRANCH  12  41
BRANCH   1  45
HETATM   45  O1  UNL     1       8.188  49.054 -10.891  1.00  0.00    -0.362 OA
BRANCH  45  46
HETATM   46  C2  UNL     1       9.307  48.175 -10.980  1.00  0.00     0.166 C 
HETATM   47  C1  UNL     1       8.920  46.758 -10.594  1.00  0.00     0.033 C 
ENDBRANCH  45  46
ENDBRANCH   1  45
TORSDOF 9
ENDMDL
MODEL 5
REMARK minimizedAffinity -10.0703211
REMARK CNNscore 0.406937182
REMARK CNNaffinity 6.97055626
REMARK  9 active torsions:
REMARK  status: ('A' for Active; 'I' for Inactive)
REMARK    1  A    between atoms: C2_2  and  O1_3 
REMARK    2  A    between atoms: O1_3  and  C3_4 
REMARK    3  A    between atoms: C14_15  and  O2_16 
REMARK    4  A    between atoms: O2_16  and  C15_17 
REMARK    5  A    between atoms: C21_24  and  O4_25 
REMARK    6  A    between atoms: O4_25  and  C22_26 
REMARK    7  A    between atoms: C24_29  and  O6_30 
REMARK    8  A    between atoms: C25_31  and  O7_32 
REMARK    9  A    between atoms: C26_33  and  O8_34 
ROOT
HETATM    1  C3  UNL     1       0.555  53.365 -20.118  1.00  0.00     0.260 C 
HETATM    2  C4  UNL     1       1.236  53.109 -21.474  1.00  0.00     0.065 C 
HETATM    3  C5  UNL     1       0.215  52.716 -22.550  1.00  0.00    -0.007 C 
HETATM    4  C6  UNL     1       0.894  52.558 -23.908  1.00  0.00     0.010 C 
HETATM    5  C7  UNL     1      -0.475  51.414 -22.083  1.00  0.00     0.027 C 
HETATM    6  C8  UNL     1      -0.766  51.443 -20.550  1.00  0.00     0.130 C 
HETATM    7  C9  UNL     1      -2.174  50.827 -20.353  1.00  0.00     0.042 C 
HETATM    8  C10 UNL     1      -2.397  50.003 -21.634  1.00  0.00    -0.029 C 
HETATM    9  C11 UNL     1      -1.517  48.708 -21.467  1.00  0.00     0.016 C 
HETATM   10  C12 UNL     1      -3.838  49.493 -21.975  1.00  0.00     0.006 C 
HETATM   11  C13 UNL     1      -4.998  50.046 -21.145  1.00  0.00     0.039 C 
HETATM   12  C14 UNL     1      -6.211  49.104 -21.287  1.00  0.00     0.138 C 
HETATM   13  C17 UNL     1      -6.666  48.818 -22.765  1.00  0.00     0.035 C 
HETATM   14  C18 UNL     1      -7.512  47.501 -22.980  1.00  0.00    -0.015 C 
HETATM   15  C19 UNL     1      -6.677  46.214 -22.728  1.00  0.00     0.018 C 
HETATM   16  C20 UNL     1      -8.704  47.467 -21.986  1.00  0.00     0.018 C 
HETATM   17  C21 UNL     1      -8.082  47.466 -24.449  1.00  0.00     0.133 C 
HETATM   18  C27 UNL     1      -7.149  48.066 -25.508  1.00  0.00     0.034 C 
HETATM   19  C28 UNL     1      -5.698  48.118 -25.078  1.00  0.00     0.013 C 
HETATM   20  C29 UNL     1      -5.545  48.988 -23.844  1.00  0.00    -0.025 A 
HETATM   21  C30 UNL     1      -5.205  50.436 -24.105  1.00  0.00     0.021 A 
HETATM   22  C31 UNL     1      -4.149  49.544 -23.478  1.00  0.00    -0.027 A 
HETATM   23  C32 UNL     1      -2.927  49.298 -24.356  1.00  0.00     0.011 C 
HETATM   24  C33 UNL     1      -1.762  50.276 -24.077  1.00  0.00     0.011 C 
HETATM   25  C34 UNL     1      -1.844  50.997 -22.714  1.00  0.00    -0.030 C 
HETATM   26  C35 UNL     1      -2.706  52.284 -22.876  1.00  0.00     0.016 C 
HETATM   27  O9  UNL     1      -0.739  52.767 -20.033  1.00  0.00    -0.356 OA
ENDROOT
BRANCH  17  28
HETATM   28  O4  UNL     1      -9.338  48.171 -24.494  1.00  0.00    -0.353 OA
BRANCH  28  29
HETATM   29  C22 UNL     1     -10.361  47.540 -25.275  1.00  0.00     0.291 C 
HETATM   30  O5  UNL     1     -10.026  46.148 -25.424  1.00  0.00    -0.356 OA
HETATM   31  C23 UNL     1      -9.069  45.921 -26.459  1.00  0.00     0.205 C 
HETATM   32  C24 UNL     1      -9.677  46.224 -27.837  1.00  0.00     0.173 C 
HETATM   33  C25 UNL     1     -10.850  47.200 -27.713  1.00  0.00     0.182 C 
HETATM   34  C26 UNL     1     -10.552  48.245 -26.643  1.00  0.00     0.204 C 
BRANCH  32  35
HETATM   35  O6  UNL     1     -10.182  45.040 -28.479  1.00  0.00    -0.391 OA
HETATM   36  H39 UNL     1      -9.478  44.367 -28.463  1.00  0.00     0.210 HD
ENDBRANCH  32  35
BRANCH  33  37
HETATM   37  O7  UNL     1     -11.086  47.857 -28.969  1.00  0.00    -0.390 OA
HETATM   38  H41 UNL     1     -11.322  47.142 -29.595  1.00  0.00     0.210 HD
ENDBRANCH  33  37
BRANCH  34  39
HETATM   39  O8  UNL     1     -11.625  49.202 -26.603  1.00  0.00    -0.388 OA
HETATM   40  H43 UNL     1     -11.834  49.378 -27.543  1.00  0.00     0.210 HD
ENDBRANCH  34  39
ENDBRANCH  28  29
ENDBRANCH  17  28
BRANCH  12  41
HETATM   41  O2  UNL     1      -5.878  47.874 -20.603  1.00  0.00    -0.316 OA
BRANCH  41  42
HETATM   42  C15 UNL     1      -5.905  47.898 -19.242  1.00  0.00     0.255 C 
HETATM   43  C16 UNL     1      -4.573  47.479 -18.699  1.00  0.00     0.126 C 
HETATM   44  O3  UNL     1      -6.868  48.193 -18.550  1.00  0.00    -0.266 OA
ENDBRANCH  41  42
ENDBRANCH  12  41
BRANCH   1  45
HETATM   45  O1  UNL     1       1.425  52.894 -19.089  1.00  0.00    -0.362 OA
BRANCH  45  46
HETATM   46  C2  UNL     1       0.740  52.506 -17.900  1.00  0.00     0.166 C 
HETATM   47  C1  UNL     1       1.712  52.322 -16.747  1.00  0.00     0.033 C 
ENDBRANCH  45  46
ENDBRANCH   1  45
TORSDOF 9
ENDMDL
MODEL 6
REMARK minimizedAffinity -9.22066402
REMARK CNNscore 0.342885077
REMARK CNNaffinity 6.71353388
REMARK  9 active torsions:
REMARK  status: ('A' for Active; 'I' for Inactive)
REMARK    1  A    between atoms: C2_2  and  O1_3 
REMARK    2  A    between atoms: O1_3  and  C3_4 
REMARK    3  A    between atoms: C14_15  and  O2_16 
REMARK    4  A    between atoms: O2_16  and  C15_17 
REMARK    5  A    between atoms: C21_24  and  O4_25 
REMARK    6  A    between atoms: O4_25  and  C22_26 
REMARK    7  A    between atoms: C24_29  and  O6_30 
REMARK    8  A    between atoms: C25_31  and  O7_32 
REMARK    9  A    between atoms: C26_33  and  O8_34 
ROOT
HETATM    1  C3  UNL     1       0.440  53.324 -20.151  1.00  0.00     0.260 C 
HETATM    2  C4  UNL     1       1.100  53.078 -21.518  1.00  0.00     0.065 C 
HETATM    3  C5  UNL     1       0.067  52.668 -22.575  1.00  0.00    -0.007 C 
HETATM    4  C6  UNL     1       0.723  52.520 -23.946  1.00  0.00     0.010 C 
HETATM    5  C7  UNL     1      -0.595  51.357 -22.096  1.00  0.00     0.027 C 
HETATM    6  C8  UNL     1      -0.859  51.382 -20.557  1.00  0.00     0.130 C 
HETATM    7  C9  UNL     1      -2.253  50.744 -20.336  1.00  0.00     0.042 C 
HETATM    8  C10 UNL     1      -2.487  49.916 -21.612  1.00  0.00    -0.029 C 
HETATM    9  C11 UNL     1      -1.584  48.635 -21.461  1.00  0.00     0.016 C 
HETATM   10  C12 UNL     1      -3.925  49.383 -21.926  1.00  0.00     0.006 C 
HETATM   11  C13 UNL     1      -5.079  49.919 -21.075  1.00  0.00     0.039 C 
HETATM   12  C14 UNL     1      -6.280  48.959 -21.195  1.00  0.00     0.138 C 
HETATM   13  C17 UNL     1      -6.756  48.665 -22.665  1.00  0.00     0.035 C 
HETATM   14  C18 UNL     1      -7.586  47.334 -22.864  1.00  0.00    -0.015 C 
HETATM   15  C19 UNL     1      -6.727  46.061 -22.628  1.00  0.00     0.018 C 
HETATM   16  C20 UNL     1      -8.759  47.283 -21.850  1.00  0.00     0.018 C 
HETATM   17  C21 UNL     1      -8.182  47.290 -24.323  1.00  0.00     0.133 C 
HETATM   18  C27 UNL     1      -7.277  47.904 -25.399  1.00  0.00     0.034 C 
HETATM   19  C28 UNL     1      -5.820  47.979 -24.995  1.00  0.00     0.013 C 
HETATM   20  C29 UNL     1      -5.657  48.851 -23.764  1.00  0.00    -0.025 A 
HETATM   21  C30 UNL     1      -5.345  50.304 -24.031  1.00  0.00     0.021 A 
HETATM   22  C31 UNL     1      -4.264  49.429 -23.423  1.00  0.00    -0.027 A 
HETATM   23  C32 UNL     1      -3.055  49.202 -24.323  1.00  0.00     0.011 C 
HETATM   24  C33 UNL     1      -1.900  50.198 -24.066  1.00  0.00     0.011 C 
HETATM   25  C34 UNL     1      -1.969  50.918 -22.702  1.00  0.00    -0.030 C 
HETATM   26  C35 UNL     1      -2.853  52.191 -22.848  1.00  0.00     0.016 C 
HETATM   27  O9  UNL     1      -0.843  52.706 -20.042  1.00  0.00    -0.356 OA
ENDROOT
BRANCH  17  28
HETATM   28  O4  UNL     1      -9.449  47.976 -24.346  1.00  0.00    -0.353 OA
BRANCH  28  29
HETATM   29  C22 UNL     1     -10.472  47.337 -25.120  1.00  0.00     0.291 C 
HETATM   30  O5  UNL     1     -11.664  47.252 -24.318  1.00  0.00    -0.356 OA
HETATM   31  C23 UNL     1     -11.638  46.152 -23.409  1.00  0.00     0.205 C 
HETATM   32  C24 UNL     1     -11.702  44.817 -24.169  1.00  0.00     0.173 C 
HETATM   33  C25 UNL     1     -11.194  44.982 -25.603  1.00  0.00     0.182 C 
HETATM   34  C26 UNL     1     -10.013  45.947 -25.635  1.00  0.00     0.204 C 
BRANCH  32  35
HETATM   35  O6  UNL     1     -13.043  44.306 -24.254  1.00  0.00    -0.391 OA
HETATM   36  H39 UNL     1     -13.421  44.303 -23.356  1.00  0.00     0.210 HD
ENDBRANCH  32  35
BRANCH  33  37
HETATM   37  O7  UNL     1     -10.786  43.712 -26.135  1.00  0.00    -0.390 OA
HETATM   38  H41 UNL     1     -11.594  43.160 -26.138  1.00  0.00     0.210 HD
ENDBRANCH  33  37
BRANCH  34  39
HETATM   39  O8  UNL     1      -9.496  46.021 -26.974  1.00  0.00    -0.388 OA
HETATM   40  H43 UNL     1      -9.496  45.094 -27.291  1.00  0.00     0.210 HD
ENDBRANCH  34  39
ENDBRANCH  28  29
ENDBRANCH  17  28
BRANCH  12  41
HETATM   41  O2  UNL     1      -5.915  47.734 -20.518  1.00  0.00    -0.316 OA
BRANCH  41  42
HETATM   42  C15 UNL     1      -5.874  47.770 -19.157  1.00  0.00     0.255 C 
HETATM   43  C16 UNL     1      -7.208  48.185 -18.618  1.00  0.00     0.126 C 
HETATM   44  O3  UNL     1      -4.898  47.525 -18.464  1.00  0.00    -0.266 OA
ENDBRANCH  41  42
ENDBRANCH  12  41
BRANCH   1  45
HETATM   45  O1  UNL     1       1.336  52.867 -19.137  1.00  0.00    -0.362 OA
BRANCH  45  46
HETATM   46  C2  UNL     1       0.689  52.558 -17.904  1.00  0.00     0.166 C 
HETATM   47  C1  UNL     1       1.705  52.268 -16.813  1.00  0.00     0.033 C 
ENDBRANCH  45  46
ENDBRANCH   1  45
TORSDOF 9
ENDMDL
MODEL 7
REMARK minimizedAffinity -3.14842129
REMARK CNNscore 0.290032536
REMARK CNNaffinity 5.36509752
REMARK  9 active torsions:
REMARK  status: ('A' for Active; 'I' for Inactive)
REMARK    1  A    between atoms: C2_2  and  O1_3 
REMARK    2  A    between atoms: O1_3  and  C3_4 
REMARK    3  A    between atoms: C14_15  and  O2_16 
REMARK    4  A    between atoms: O2_16  and  C15_17 
REMARK    5  A    between atoms: C21_24  and  O4_25 
REMARK    6  A    between atoms: O4_25  and  C22_26 
REMARK    7  A    between atoms: C24_29  and  O6_30 
REMARK    8  A    between atoms: C25_31  and  O7_32 
REMARK    9  A    between atoms: C26_33  and  O8_34 
ROOT
HETATM    1  C3  UNL     1      -9.450  43.751 -28.054  1.00  0.00     0.260 C 
HETATM    2  C4  UNL     1      -9.027  44.799 -27.011  1.00  0.00     0.065 C 
HETATM    3  C5  UNL     1      -9.723  44.564 -25.665  1.00  0.00    -0.007 C 
HETATM    4  C6  UNL     1      -9.221  45.554 -24.615  1.00  0.00     0.010 C 
HETATM    5  C7  UNL     1     -11.246  44.681 -25.901  1.00  0.00     0.027 C 
HETATM    6  C8  UNL     1     -11.665  44.011 -27.247  1.00  0.00     0.130 C 
HETATM    7  C9  UNL     1     -12.990  43.257 -26.974  1.00  0.00     0.042 C 
HETATM    8  C10 UNL     1     -13.547  43.937 -25.711  1.00  0.00    -0.029 C 
HETATM    9  C11 UNL     1     -14.126  45.320 -26.191  1.00  0.00     0.016 C 
HETATM   10  C12 UNL     1     -14.708  43.246 -24.919  1.00  0.00     0.006 C 
HETATM   11  C13 UNL     1     -15.067  41.808 -25.300  1.00  0.00     0.039 C 
HETATM   12  C14 UNL     1     -16.483  41.489 -24.780  1.00  0.00     0.138 C 
HETATM   13  C17 UNL     1     -16.701  41.732 -23.242  1.00  0.00     0.035 C 
HETATM   14  C18 UNL     1     -18.201  41.933 -22.785  1.00  0.00    -0.015 C 
HETATM   15  C19 UNL     1     -18.814  43.253 -23.329  1.00  0.00     0.018 C 
HETATM   16  C20 UNL     1     -19.079  40.771 -23.322  1.00  0.00     0.018 C 
HETATM   17  C21 UNL     1     -18.283  41.937 -21.210  1.00  0.00     0.133 C 
HETATM   18  C27 UNL     1     -17.081  42.586 -20.512  1.00  0.00     0.034 C 
HETATM   19  C28 UNL     1     -16.300  43.529 -21.402  1.00  0.00     0.013 C 
HETATM   20  C29 UNL     1     -15.737  42.783 -22.597  1.00  0.00    -0.025 A 
HETATM   21  C30 UNL     1     -14.331  42.257 -22.434  1.00  0.00     0.021 A 
HETATM   22  C31 UNL     1     -14.569  43.405 -23.397  1.00  0.00    -0.027 A 
HETATM   23  C32 UNL     1     -13.920  44.722 -22.985  1.00  0.00     0.011 C 
HETATM   24  C33 UNL     1     -12.525  44.945 -23.616  1.00  0.00     0.011 C 
HETATM   25  C34 UNL     1     -12.238  44.071 -24.857  1.00  0.00    -0.030 C 
HETATM   26  C35 UNL     1     -11.657  42.705 -24.388  1.00  0.00     0.016 C 
HETATM   27  O9  UNL     1     -10.677  43.103 -27.714  1.00  0.00    -0.356 OA
ENDROOT
BRANCH  17  28
HETATM   28  O4  UNL     1     -18.413  40.583 -20.732  1.00  0.00    -0.353 OA
BRANCH  28  29
HETATM   29  C22 UNL     1     -19.761  40.127 -20.561  1.00  0.00     0.291 C 
HETATM   30  O5  UNL     1     -20.624  41.277 -20.482  1.00  0.00    -0.356 OA
HETATM   31  C23 UNL     1     -20.638  41.865 -19.182  1.00  0.00     0.205 C 
HETATM   32  C24 UNL     1     -21.310  40.926 -18.167  1.00  0.00     0.173 C 
HETATM   33  C25 UNL     1     -21.239  39.472 -18.641  1.00  0.00     0.182 C 
HETATM   34  C26 UNL     1     -19.900  39.206 -19.321  1.00  0.00     0.204 C 
BRANCH  32  35
HETATM   35  O6  UNL     1     -22.701  41.238 -17.978  1.00  0.00    -0.391 OA
HETATM   36  H39 UNL     1     -22.771  42.191 -17.787  1.00  0.00     0.210 HD
ENDBRANCH  32  35
BRANCH  33  37
HETATM   37  O7  UNL     1     -21.394  38.578 -17.527  1.00  0.00    -0.390 OA
HETATM   38  H41 UNL     1     -22.287  38.761 -17.171  1.00  0.00     0.210 HD
ENDBRANCH  33  37
BRANCH  34  39
HETATM   39  O8  UNL     1     -19.818  37.816 -19.680  1.00  0.00    -0.388 OA
HETATM   40  H43 UNL     1     -20.179  37.339 -18.905  1.00  0.00     0.210 HD
ENDBRANCH  34  39
ENDBRANCH  28  29
ENDBRANCH  17  28
BRANCH  12  41
HETATM   41  O2  UNL     1     -17.411  42.275 -25.562  1.00  0.00    -0.316 OA
BRANCH  41  42
HETATM   42  C15 UNL     1     -18.042  41.643 -26.590  1.00  0.00     0.255 C 
HETATM   43  C16 UNL     1     -19.511  41.932 -26.541  1.00  0.00     0.126 C 
HETATM   44  O3  UNL     1     -17.509  40.927 -27.425  1.00  0.00    -0.266 OA
ENDBRANCH  41  42
ENDBRANCH  12  41
BRANCH   1  45
HETATM   45  O1  UNL     1      -9.527  44.396 -29.326  1.00  0.00    -0.362 OA
BRANCH  45  46
HETATM   46  C2  UNL     1      -8.501  43.993 -30.231  1.00  0.00     0.166 C 
HETATM   47  C1  UNL     1      -8.677  44.656 -31.586  1.00  0.00     0.033 C 
ENDBRANCH  45  46
ENDBRANCH   1  45
TORSDOF 9
ENDMDL
MODEL 8
REMARK minimizedAffinity -8.96660042
REMARK CNNscore 0.24437803
REMARK CNNaffinity 6.60482645
REMARK  9 active torsions:
REMARK  status: ('A' for Active; 'I' for Inactive)
REMARK    1  A    between atoms: C2_2  and  O1_3 
REMARK    2  A    between atoms: O1_3  and  C3_4 
REMARK    3  A    between atoms: C14_15  and  O2_16 
REMARK    4  A    between atoms: O2_16  and  C15_17 
REMARK    5  A    between atoms: C21_24  and  O4_25 
REMARK    6  A    between atoms: O4_25  and  C22_26 
REMARK    7  A    between atoms: C24_29  and  O6_30 
REMARK    8  A    between atoms: C25_31  and  O7_32 
REMARK    9  A    between atoms: C26_33  and  O8_34 
ROOT
HETATM    1  C3  UNL     1      -0.183  52.694 -20.683  1.00  0.00     0.260 C 
HETATM    2  C4  UNL     1       0.376  52.497 -22.102  1.00  0.00     0.065 C 
HETATM    3  C5  UNL     1      -0.725  52.084 -23.087  1.00  0.00    -0.007 C 
HETATM    4  C6  UNL     1      -0.172  51.984 -24.507  1.00  0.00     0.010 C 
HETATM    5  C7  UNL     1      -1.316  50.745 -22.592  1.00  0.00     0.027 C 
HETATM    6  C8  UNL     1      -1.461  50.728 -21.037  1.00  0.00     0.130 C 
HETATM    7  C9  UNL     1      -2.818  50.049 -20.725  1.00  0.00     0.042 C 
HETATM    8  C10 UNL     1      -3.128  49.244 -22.000  1.00  0.00    -0.029 C 
HETATM    9  C11 UNL     1      -2.185  47.985 -21.950  1.00  0.00     0.016 C 
HETATM   10  C12 UNL     1      -4.573  48.681 -22.217  1.00  0.00     0.006 C 
HETATM   11  C13 UNL     1      -5.671  49.166 -21.268  1.00  0.00     0.039 C 
HETATM   12  C14 UNL     1      -6.853  48.178 -21.320  1.00  0.00     0.138 C 
HETATM   13  C17 UNL     1      -7.434  47.904 -22.756  1.00  0.00     0.035 C 
HETATM   14  C18 UNL     1      -8.243  46.557 -22.924  1.00  0.00    -0.015 C 
HETATM   15  C19 UNL     1      -7.338  45.302 -22.785  1.00  0.00     0.018 C 
HETATM   16  C20 UNL     1      -9.333  46.452 -21.825  1.00  0.00     0.018 C 
HETATM   17  C21 UNL     1      -8.948  46.531 -24.334  1.00  0.00     0.133 C 
HETATM   18  C27 UNL     1      -8.144  47.192 -25.460  1.00  0.00     0.034 C 
HETATM   19  C28 UNL     1      -6.662  47.297 -25.167  1.00  0.00     0.013 C 
HETATM   20  C29 UNL     1      -6.427  48.145 -23.931  1.00  0.00    -0.025 A 
HETATM   21  C30 UNL     1      -6.173  49.611 -24.185  1.00  0.00     0.021 A 
HETATM   22  C31 UNL     1      -5.027  48.752 -23.683  1.00  0.00    -0.027 A 
HETATM   23  C32 UNL     1      -3.884  48.576 -24.677  1.00  0.00     0.011 C 
HETATM   24  C33 UNL     1      -2.738  49.597 -24.485  1.00  0.00     0.011 C 
HETATM   25  C34 UNL     1      -2.721  50.284 -23.102  1.00  0.00    -0.030 C 
HETATM   26  C35 UNL     1      -3.644  51.536 -23.149  1.00  0.00     0.016 C 
HETATM   27  O9  UNL     1      -1.438  52.040 -20.492  1.00  0.00    -0.356 OA
ENDROOT
BRANCH  17  28
HETATM   28  O4  UNL     1     -10.230  47.183 -24.243  1.00  0.00    -0.353 OA
BRANCH  28  29
HETATM   29  C22 UNL     1     -11.353  46.366 -24.597  1.00  0.00     0.291 C 
HETATM   30  O5  UNL     1     -11.313  46.125 -26.015  1.00  0.00    -0.356 OA
HETATM   31  C23 UNL     1     -11.841  47.213 -26.773  1.00  0.00     0.205 C 
HETATM   32  C24 UNL     1     -13.355  47.350 -26.544  1.00  0.00     0.173 C 
HETATM   33  C25 UNL     1     -13.761  46.734 -25.203  1.00  0.00     0.182 C 
HETATM   34  C26 UNL     1     -12.692  47.012 -24.152  1.00  0.00     0.204 C 
BRANCH  32  35
HETATM   35  O6  UNL     1     -14.119  46.683 -27.562  1.00  0.00    -0.391 OA
HETATM   36  H39 UNL     1     -13.792  46.983 -28.429  1.00  0.00     0.210 HD
ENDBRANCH  32  35
BRANCH  33  37
HETATM   37  O7  UNL     1     -15.015  47.280 -24.764  1.00  0.00    -0.390 OA
HETATM   38  H41 UNL     1     -15.664  47.023 -25.451  1.00  0.00     0.210 HD
ENDBRANCH  33  37
BRANCH  34  39
HETATM   39  O8  UNL     1     -13.131  46.502 -22.882  1.00  0.00    -0.388 OA
HETATM   40  H43 UNL     1     -14.076  46.753 -22.828  1.00  0.00     0.210 HD
ENDBRANCH  34  39
ENDBRANCH  28  29
ENDBRANCH  17  28
BRANCH  12  41
HETATM   41  O2  UNL     1      -6.408  46.949 -20.702  1.00  0.00    -0.316 OA
BRANCH  41  42
HETATM   42  C15 UNL     1      -5.310  46.350 -21.241  1.00  0.00     0.255 C 
HETATM   43  C16 UNL     1      -5.540  44.874 -21.358  1.00  0.00     0.126 C 
HETATM   44  O3  UNL     1      -4.275  46.913 -21.566  1.00  0.00    -0.266 OA
ENDBRANCH  41  42
ENDBRANCH  12  41
BRANCH   1  45
HETATM   45  O1  UNL     1       0.799  52.238 -19.751  1.00  0.00    -0.362 OA
BRANCH  45  46
HETATM   46  C2  UNL     1       0.456  52.499 -18.392  1.00  0.00     0.166 C 
HETATM   47  C1  UNL     1       1.689  52.469 -17.504  1.00  0.00     0.033 C 
ENDBRANCH  45  46
ENDBRANCH   1  45
TORSDOF 9
ENDMDL
MODEL 9
REMARK minimizedAffinity -7.13691282
REMARK CNNscore 0.244364515
REMARK CNNaffinity 5.90557098
REMARK  9 active torsions:
REMARK  status: ('A' for Active; 'I' for Inactive)
REMARK    1  A    between atoms: C2_2  and  O1_3 
REMARK    2  A    between atoms: O1_3  and  C3_4 
REMARK    3  A    between atoms: C14_15  and  O2_16 
REMARK    4  A    between atoms: O2_16  and  C15_17 
REMARK    5  A    between atoms: C21_24  and  O4_25 
REMARK    6  A    between atoms: O4_25  and  C22_26 
REMARK    7  A    between atoms: C24_29  and  O6_30 
REMARK    8  A    between atoms: C25_31  and  O7_32 
REMARK    9  A    between atoms: C26_33  and  O8_34 
ROOT
HETATM    1  C3  UNL     1      -4.460  36.499 -35.607  1.00  0.00     0.260 C 
HETATM    2  C4  UNL     1      -3.102  37.005 -35.091  1.00  0.00     0.065 C 
HETATM    3  C5  UNL     1      -3.276  38.101 -34.033  1.00  0.00    -0.007 C 
HETATM    4  C6  UNL     1      -1.923  38.525 -33.464  1.00  0.00     0.010 C 
HETATM    5  C7  UNL     1      -4.027  39.277 -34.697  1.00  0.00     0.027 C 
HETATM    6  C8  UNL     1      -5.160  38.765 -35.642  1.00  0.00     0.130 C 
HETATM    7  C9  UNL     1      -6.376  39.698 -35.423  1.00  0.00     0.042 C 
HETATM    8  C10 UNL     1      -5.759  40.972 -34.817  1.00  0.00    -0.029 C 
HETATM    9  C11 UNL     1      -5.065  41.721 -36.015  1.00  0.00     0.016 C 
HETATM   10  C12 UNL     1      -6.696  42.030 -34.143  1.00  0.00     0.006 C 
HETATM   11  C13 UNL     1      -8.153  41.634 -33.902  1.00  0.00     0.039 C 
HETATM   12  C14 UNL     1      -8.995  42.909 -33.698  1.00  0.00     0.138 C 
HETATM   13  C17 UNL     1      -8.482  43.875 -32.567  1.00  0.00     0.035 C 
HETATM   14  C18 UNL     1      -8.961  45.376 -32.677  1.00  0.00    -0.015 C 
HETATM   15  C19 UNL     1      -8.354  46.102 -33.910  1.00  0.00     0.018 C 
HETATM   16  C20 UNL     1     -10.504  45.431 -32.836  1.00  0.00     0.018 C 
HETATM   17  C21 UNL     1      -8.563  46.161 -31.370  1.00  0.00     0.133 C 
HETATM   18  C27 UNL     1      -7.226  45.733 -30.752  1.00  0.00     0.034 C 
HETATM   19  C28 UNL     1      -6.306  45.030 -31.728  1.00  0.00     0.013 C 
HETATM   20  C29 UNL     1      -6.955  43.759 -32.244  1.00  0.00    -0.025 A 
HETATM   21  C30 UNL     1      -6.617  42.499 -31.484  1.00  0.00     0.021 A 
HETATM   22  C31 UNL     1      -6.073  42.666 -32.891  1.00  0.00    -0.027 A 
HETATM   23  C32 UNL     1      -4.556  42.797 -32.972  1.00  0.00     0.011 C 
HETATM   24  C33 UNL     1      -3.835  41.453 -33.231  1.00  0.00     0.011 C 
HETATM   25  C34 UNL     1      -4.742  40.342 -33.802  1.00  0.00    -0.030 C 
HETATM   26  C35 UNL     1      -5.424  39.591 -32.621  1.00  0.00     0.016 C 
HETATM   27  O9  UNL     1      -5.521  37.421 -35.353  1.00  0.00    -0.356 OA
ENDROOT
BRANCH  17  28
HETATM   28  O4  UNL     1      -9.597  46.000 -30.378  1.00  0.00    -0.353 OA
BRANCH  28  29
HETATM   29  C22 UNL     1     -10.300  47.201 -30.033  1.00  0.00     0.291 C 
HETATM   30  O5  UNL     1      -9.472  47.972 -29.143  1.00  0.00    -0.356 OA
HETATM   31  C23 UNL     1      -9.545  47.518 -27.792  1.00  0.00     0.205 C 
HETATM   32  C24 UNL     1     -10.939  47.788 -27.202  1.00  0.00     0.173 C 
HETATM   33  C25 UNL     1     -11.987  47.898 -28.312  1.00  0.00     0.182 C 
HETATM   34  C26 UNL     1     -11.690  46.892 -29.418  1.00  0.00     0.204 C 
BRANCH  32  35
HETATM   35  O6  UNL     1     -10.983  49.018 -26.459  1.00  0.00    -0.391 OA
HETATM   36  H39 UNL     1     -10.246  49.010 -25.822  1.00  0.00     0.210 HD
ENDBRANCH  32  35
BRANCH  33  37
HETATM   37  O7  UNL     1     -13.300  47.650 -27.782  1.00  0.00    -0.390 OA
HETATM   38  H41 UNL     1     -13.450  48.356 -27.121  1.00  0.00     0.210 HD
ENDBRANCH  33  37
BRANCH  34  39
HETATM   39  O8  UNL     1     -12.732  46.950 -30.406  1.00  0.00    -0.388 OA
HETATM   40  H43 UNL     1     -13.561  47.014 -29.888  1.00  0.00     0.210 HD
ENDBRANCH  34  39
ENDBRANCH  28  29
ENDBRANCH  17  28
BRANCH  12  41
HETATM   41  O2  UNL     1      -9.049  43.592 -34.972  1.00  0.00    -0.316 OA
BRANCH  41  42
HETATM   42  C15 UNL     1     -10.055  43.239 -35.819  1.00  0.00     0.255 C 
HETATM   43  C16 UNL     1      -9.498  42.472 -36.979  1.00  0.00     0.126 C 
HETATM   44  O3  UNL     1     -11.237  43.515 -35.680  1.00  0.00    -0.266 OA
ENDBRANCH  41  42
ENDBRANCH  12  41
BRANCH   1  45
HETATM   45  O1  UNL     1      -4.327  36.215 -37.000  1.00  0.00    -0.362 OA
BRANCH  45  46
HETATM   46  C2  UNL     1      -4.412  37.373 -37.827  1.00  0.00     0.166 C 
HETATM   47  C1  UNL     1      -4.142  37.026 -39.281  1.00  0.00     0.033 C 
ENDBRANCH  45  46
ENDBRANCH   1  45
TORSDOF 9
ENDMDL
