MODEL 1
REMARK minimizedAffinity -9.02988148
REMARK CNNscore 0.860543668
REMARK CNNaffinity 7.59282112
REMARK  8 active torsions:
REMARK  status: ('A' for Active; 'I' for Inactive)
REMARK    1  A    between atoms: C5_5  and  O1_6 
REMARK    2  A    between atoms: C9_10  and  C10_11 
REMARK    3  A    between atoms: C10_11  and  C11_12 
REMARK    4  A    between atoms: C11_12  and  C12_13 
REMARK    5  A    between atoms: C14_15  and  C15_16 
REMARK    6  A    between atoms: C15_16  and  C16_17 
REMARK    7  A    between atoms: C16_17  and  C17_18 
REMARK    8  A    between atoms: C23_24  and  O2_25 
ROOT
HETATM    1  C12 UNL     1      -4.740  48.330 -21.620  1.00  0.00    -0.087 C 
HETATM    2  C13 UNL     1      -5.894  47.669 -20.907  1.00  0.00     0.043 C 
HETATM    3  C14 UNL     1      -3.545  48.585 -21.046  1.00  0.00    -0.024 C 
ENDROOT
BRANCH   3   4
HETATM    4  C15 UNL     1      -3.155  48.266 -19.629  1.00  0.00     0.030 C 
BRANCH   4   5
HETATM    5  C16 UNL     1      -1.768  48.763 -19.181  1.00  0.00     0.042 C 
BRANCH   5   6
HETATM    6  C17 UNL     1      -1.470  50.287 -19.264  1.00  0.00     0.065 C 
HETATM    7  C18 UNL     1      -2.731  51.116 -18.965  1.00  0.00     0.046 C 
HETATM    8  C19 UNL     1      -0.340  50.572 -18.252  1.00  0.00     0.043 C 
HETATM    9  C20 UNL     1       0.149  52.006 -18.348  1.00  0.00     0.044 C 
HETATM   10  C21 UNL     1       0.359  52.389 -19.782  1.00  0.00    -0.021 A 
HETATM   11  C22 UNL     1       1.145  53.509 -20.088  1.00  0.00     0.046 A 
HETATM   12  C27 UNL     1      -0.247  51.664 -20.818  1.00  0.00     0.082 A 
HETATM   13  C23 UNL     1       1.338  53.879 -21.414  1.00  0.00     0.066 A 
HETATM   14  C24 UNL     1       0.755  53.155 -22.446  1.00  0.00     0.046 A 
HETATM   15  C25 UNL     1      -0.039  52.038 -22.158  1.00  0.00    -0.025 A 
HETATM   16  C26 UNL     1      -0.678  51.267 -23.274  1.00  0.00     0.051 C 
HETATM   17  O3  UNL     1      -1.037  50.563 -20.609  1.00  0.00    -0.340 OA
BRANCH  13  18
HETATM   18  O2  UNL     1       2.102  54.958 -21.748  1.00  0.00    -0.361 OA
HETATM   19  H36 UNL     1       2.472  55.338 -20.935  1.00  0.00     0.217 HD
ENDBRANCH  13  18
ENDBRANCH   5   6
ENDBRANCH   4   5
ENDBRANCH   3   4
BRANCH   1  20
HETATM   20  C11 UNL     1      -4.976  48.617 -23.095  1.00  0.00     0.034 C 
BRANCH  20  21
HETATM   21  C10 UNL     1      -3.723  48.403 -23.962  1.00  0.00     0.014 C 
BRANCH  21  22
HETATM   22  C9  UNL     1      -3.394  49.617 -24.872  1.00  0.00     0.024 C 
HETATM   23  C2  UNL     1      -4.166  50.907 -24.611  1.00  0.00    -0.084 C 
HETATM   24  C1  UNL     1      -5.331  51.008 -23.954  1.00  0.00     0.015 C 
HETATM   25  C3  UNL     1      -3.533  52.129 -25.245  1.00  0.00     0.036 C 
HETATM   26  C4  UNL     1      -2.867  51.797 -26.584  1.00  0.00     0.037 C 
HETATM   27  C5  UNL     1      -3.555  50.611 -27.261  1.00  0.00     0.127 C 
HETATM   28  C6  UNL     1      -3.439  49.288 -26.420  1.00  0.00    -0.014 C 
HETATM   29  C7  UNL     1      -2.158  48.506 -26.798  1.00  0.00     0.018 C 
HETATM   30  C8  UNL     1      -4.647  48.398 -26.792  1.00  0.00     0.018 C 
BRANCH  27  31
HETATM   31  O1  UNL     1      -3.049  50.454 -28.586  1.00  0.00    -0.395 OA
HETATM   32  H8  UNL     1      -2.078  50.453 -28.542  1.00  0.00     0.210 HD
ENDBRANCH  27  31
ENDBRANCH  21  22
ENDBRANCH  20  21
ENDBRANCH   1  20
TORSDOF 8
ENDMDL
MODEL 2
REMARK minimizedAffinity -9.61420059
REMARK CNNscore 0.704608619
REMARK CNNaffinity 7.40646791
REMARK  8 active torsions:
REMARK  status: ('A' for Active; 'I' for Inactive)
REMARK    1  A    between atoms: C5_5  and  O1_6 
REMARK    2  A    between atoms: C9_10  and  C10_11 
REMARK    3  A    between atoms: C10_11  and  C11_12 
REMARK    4  A    between atoms: C11_12  and  C12_13 
REMARK    5  A    between atoms: C14_15  and  C15_16 
REMARK    6  A    between atoms: C15_16  and  C16_17 
REMARK    7  A    between atoms: C16_17  and  C17_18 
REMARK    8  A    between atoms: C23_24  and  O2_25 
ROOT
HETATM    1  C12 UNL     1      -3.556  48.611 -25.479  1.00  0.00    -0.087 C 
HETATM    2  C13 UNL     1      -4.935  48.292 -25.999  1.00  0.00     0.043 C 
HETATM    3  C14 UNL     1      -3.223  48.607 -24.170  1.00  0.00    -0.024 C 
ENDROOT
BRANCH   3   4
HETATM    4  C15 UNL     1      -4.143  48.292 -23.022  1.00  0.00     0.030 C 
BRANCH   4   5
HETATM    5  C16 UNL     1      -3.711  48.826 -21.644  1.00  0.00     0.042 C 
BRANCH   5   6
HETATM    6  C17 UNL     1      -2.265  49.377 -21.487  1.00  0.00     0.065 C 
HETATM    7  C18 UNL     1      -1.245  48.231 -21.367  1.00  0.00     0.046 C 
HETATM    8  C19 UNL     1      -1.993  50.263 -22.721  1.00  0.00     0.043 C 
HETATM    9  C20 UNL     1      -0.662  50.985 -22.610  1.00  0.00     0.044 C 
HETATM   10  C21 UNL     1      -0.512  51.590 -21.247  1.00  0.00    -0.021 A 
HETATM   11  C22 UNL     1       0.444  52.597 -21.042  1.00  0.00     0.046 A 
HETATM   12  C27 UNL     1      -1.286  51.141 -20.168  1.00  0.00     0.082 A 
HETATM   13  C23 UNL     1       0.599  53.157 -19.779  1.00  0.00     0.066 A 
HETATM   14  C24 UNL     1      -0.178  52.729 -18.711  1.00  0.00     0.046 A 
HETATM   15  C25 UNL     1      -1.131  51.720 -18.897  1.00  0.00    -0.025 A 
HETATM   16  C26 UNL     1      -1.959  51.250 -17.737  1.00  0.00     0.051 C 
HETATM   17  O3  UNL     1      -2.235  50.157 -20.278  1.00  0.00    -0.340 OA
BRANCH  13  18
HETATM   18  O2  UNL     1       1.513  54.142 -19.546  1.00  0.00    -0.361 OA
HETATM   19  H36 UNL     1       1.949  54.364 -20.384  1.00  0.00     0.217 HD
ENDBRANCH  13  18
ENDBRANCH   5   6
ENDBRANCH   4   5
ENDBRANCH   3   4
BRANCH   1  20
HETATM   20  C11 UNL     1      -2.505  48.854 -26.551  1.00  0.00     0.034 C 
BRANCH  20  21
HETATM   21  C10 UNL     1      -1.276  49.622 -26.033  1.00  0.00     0.014 C 
BRANCH  21  22
HETATM   22  C9  UNL     1      -0.798  50.737 -27.002  1.00  0.00     0.024 C 
HETATM   23  C2  UNL     1       0.635  51.231 -26.835  1.00  0.00    -0.084 C 
HETATM   24  C1  UNL     1       1.395  51.088 -25.738  1.00  0.00     0.015 C 
HETATM   25  C3  UNL     1       1.151  52.007 -28.031  1.00  0.00     0.036 C 
HETATM   26  C4  UNL     1       0.044  52.830 -28.697  1.00  0.00     0.037 C 
HETATM   27  C5  UNL     1      -1.031  53.228 -27.684  1.00  0.00     0.127 C 
HETATM   28  C6  UNL     1      -1.772  51.983 -27.074  1.00  0.00    -0.014 C 
HETATM   29  C7  UNL     1      -3.004  51.601 -27.932  1.00  0.00     0.018 C 
HETATM   30  C8  UNL     1      -2.296  52.397 -25.680  1.00  0.00     0.018 C 
BRANCH  27  31
HETATM   31  O1  UNL     1      -1.935  54.155 -28.283  1.00  0.00    -0.395 OA
HETATM   32  H8  UNL     1      -2.226  53.789 -29.135  1.00  0.00     0.210 HD
ENDBRANCH  27  31
ENDBRANCH  21  22
ENDBRANCH  20  21
ENDBRANCH   1  20
TORSDOF 8
ENDMDL
MODEL 3
REMARK minimizedAffinity -9.61345196
REMARK CNNscore 0.580653667
REMARK CNNaffinity 6.5037818
REMARK  8 active torsions:
REMARK  status: ('A' for Active; 'I' for Inactive)
REMARK    1  A    between atoms: C5_5  and  O1_6 
REMARK    2  A    between atoms: C9_10  and  C10_11 
REMARK    3  A    between atoms: C10_11  and  C11_12 
REMARK    4  A    between atoms: C11_12  and  C12_13 
REMARK    5  A    between atoms: C14_15  and  C15_16 
REMARK    6  A    between atoms: C15_16  and  C16_17 
REMARK    7  A    between atoms: C16_17  and  C17_18 
REMARK    8  A    between atoms: C23_24  and  O2_25 
ROOT
HETATM    1  C12 UNL     1      -3.920  48.789 -27.058  1.00  0.00    -0.087 C 
HETATM    2  C13 UNL     1      -4.581  48.437 -25.749  1.00  0.00     0.043 C 
HETATM    3  C14 UNL     1      -2.827  49.575 -27.164  1.00  0.00    -0.024 C 
ENDROOT
BRANCH   3   4
HETATM    4  C15 UNL     1      -2.089  50.227 -26.027  1.00  0.00     0.030 C 
BRANCH   4   5
HETATM    5  C16 UNL     1      -1.303  51.503 -26.375  1.00  0.00     0.042 C 
BRANCH   5   6
HETATM    6  C17 UNL     1      -0.162  51.951 -25.417  1.00  0.00     0.065 C 
HETATM    7  C18 UNL     1       1.184  51.328 -25.828  1.00  0.00     0.046 C 
HETATM    8  C19 UNL     1      -0.122  53.493 -25.467  1.00  0.00     0.043 C 
HETATM    9  C20 UNL     1       0.855  54.061 -24.453  1.00  0.00     0.044 C 
HETATM   10  C21 UNL     1       0.671  53.393 -23.124  1.00  0.00    -0.021 A 
HETATM   11  C22 UNL     1       1.189  54.000 -21.971  1.00  0.00     0.046 A 
HETATM   12  C27 UNL     1       0.021  52.156 -23.023  1.00  0.00     0.082 A 
HETATM   13  C23 UNL     1       1.034  53.384 -20.735  1.00  0.00     0.066 A 
HETATM   14  C24 UNL     1       0.375  52.167 -20.625  1.00  0.00     0.046 A 
HETATM   15  C25 UNL     1      -0.142  51.543 -21.768  1.00  0.00    -0.025 A 
HETATM   16  C26 UNL     1      -0.842  50.222 -21.647  1.00  0.00     0.051 C 
HETATM   17  O3  UNL     1      -0.508  51.490 -24.098  1.00  0.00    -0.340 OA
BRANCH  13  18
HETATM   18  O2  UNL     1       1.519  53.949 -19.592  1.00  0.00    -0.361 OA
HETATM   19  H36 UNL     1       1.916  54.807 -19.816  1.00  0.00     0.217 HD
ENDBRANCH  13  18
ENDBRANCH   5   6
ENDBRANCH   4   5
ENDBRANCH   3   4
BRANCH   1  20
HETATM   20  C11 UNL     1      -4.516  48.111 -28.282  1.00  0.00     0.034 C 
BRANCH  20  21
HETATM   21  C10 UNL     1      -5.986  47.699 -28.091  1.00  0.00     0.014 C 
BRANCH  21  22
HETATM   22  C9  UNL     1      -6.853  47.917 -29.360  1.00  0.00     0.024 C 
HETATM   23  C2  UNL     1      -8.275  48.428 -29.147  1.00  0.00    -0.084 C 
HETATM   24  C1  UNL     1      -8.975  48.357 -28.004  1.00  0.00     0.015 C 
HETATM   25  C3  UNL     1      -8.912  48.985 -30.405  1.00  0.00     0.036 C 
HETATM   26  C4  UNL     1      -8.464  48.223 -31.656  1.00  0.00     0.037 C 
HETATM   27  C5  UNL     1      -8.109  46.775 -31.320  1.00  0.00     0.127 C 
HETATM   28  C6  UNL     1      -6.890  46.668 -30.332  1.00  0.00    -0.014 C 
HETATM   29  C7  UNL     1      -5.554  46.607 -31.112  1.00  0.00     0.018 C 
HETATM   30  C8  UNL     1      -7.035  45.334 -29.565  1.00  0.00     0.018 C 
BRANCH  27  31
HETATM   31  O1  UNL     1      -7.892  46.041 -32.525  1.00  0.00    -0.395 OA
HETATM   32  H8  UNL     1      -7.274  46.545 -33.080  1.00  0.00     0.210 HD
ENDBRANCH  27  31
ENDBRANCH  21  22
ENDBRANCH  20  21
ENDBRANCH   1  20
TORSDOF 8
ENDMDL
MODEL 4
REMARK minimizedAffinity -8.30200481
REMARK CNNscore 0.552113771
REMARK CNNaffinity 6.78133726
REMARK  8 active torsions:
REMARK  status: ('A' for Active; 'I' for Inactive)
REMARK    1  A    between atoms: C5_5  and  O1_6 
REMARK    2  A    between atoms: C9_10  and  C10_11 
REMARK    3  A    between atoms: C10_11  and  C11_12 
REMARK    4  A    between atoms: C11_12  and  C12_13 
REMARK    5  A    between atoms: C14_15  and  C15_16 
REMARK    6  A    between atoms: C15_16  and  C16_17 
REMARK    7  A    between atoms: C16_17  and  C17_18 
REMARK    8  A    between atoms: C23_24  and  O2_25 
ROOT
HETATM    1  C12 UNL     1      -4.258  47.041 -19.235  1.00  0.00    -0.087 C 
HETATM    2  C13 UNL     1      -5.160  47.033 -18.026  1.00  0.00     0.043 C 
HETATM    3  C14 UNL     1      -3.090  47.715 -19.302  1.00  0.00    -0.024 C 
ENDROOT
BRANCH   3   4
HETATM    4  C15 UNL     1      -2.490  48.560 -18.212  1.00  0.00     0.030 C 
BRANCH   4   5
HETATM    5  C16 UNL     1      -1.077  49.108 -18.482  1.00  0.00     0.042 C 
BRANCH   5   6
HETATM    6  C17 UNL     1      -0.921  50.624 -18.790  1.00  0.00     0.065 C 
HETATM    7  C18 UNL     1      -2.212  51.393 -18.459  1.00  0.00     0.046 C 
HETATM    8  C19 UNL     1       0.277  51.124 -17.954  1.00  0.00     0.043 C 
HETATM    9  C20 UNL     1       0.628  52.564 -18.285  1.00  0.00     0.044 C 
HETATM   10  C21 UNL     1       0.658  52.763 -19.770  1.00  0.00    -0.021 A 
HETATM   11  C22 UNL     1       1.310  53.886 -20.301  1.00  0.00     0.046 A 
HETATM   12  C27 UNL     1       0.015  51.864 -20.632  1.00  0.00     0.082 A 
HETATM   13  C23 UNL     1       1.335  54.086 -21.676  1.00  0.00     0.066 A 
HETATM   14  C24 UNL     1       0.716  53.190 -22.537  1.00  0.00     0.046 A 
HETATM   15  C25 UNL     1       0.054  52.067 -22.023  1.00  0.00    -0.025 A 
HETATM   16  C26 UNL     1      -0.626  51.108 -22.954  1.00  0.00     0.051 C 
HETATM   17  O3  UNL     1      -0.651  50.747 -20.198  1.00  0.00    -0.340 OA
BRANCH  13  18
HETATM   18  O2  UNL     1       1.966  55.163 -22.226  1.00  0.00    -0.361 OA
HETATM   19  H36 UNL     1       2.383  55.675 -21.514  1.00  0.00     0.217 HD
ENDBRANCH  13  18
ENDBRANCH   5   6
ENDBRANCH   4   5
ENDBRANCH   3   4
BRANCH   1  20
HETATM   20  C11 UNL     1      -4.708  46.142 -20.377  1.00  0.00     0.034 C 
BRANCH  20  21
HETATM   21  C10 UNL     1      -4.527  46.786 -21.763  1.00  0.00     0.014 C 
BRANCH  21  22
HETATM   22  C9  UNL     1      -5.566  47.900 -22.061  1.00  0.00     0.024 C 
HETATM   23  C2  UNL     1      -6.935  47.453 -22.563  1.00  0.00    -0.084 C 
HETATM   24  C1  UNL     1      -7.221  46.266 -23.120  1.00  0.00     0.015 C 
HETATM   25  C3  UNL     1      -8.000  48.527 -22.454  1.00  0.00     0.036 C 
HETATM   26  C4  UNL     1      -7.425  49.925 -22.697  1.00  0.00     0.037 C 
HETATM   27  C5  UNL     1      -6.209  49.867 -23.623  1.00  0.00     0.127 C 
HETATM   28  C6  UNL     1      -5.019  49.050 -23.002  1.00  0.00    -0.014 C 
HETATM   29  C7  UNL     1      -4.093  49.972 -22.170  1.00  0.00     0.018 C 
HETATM   30  C8  UNL     1      -4.179  48.495 -24.176  1.00  0.00     0.018 C 
BRANCH  27  31
HETATM   31  O1  UNL     1      -5.821  51.190 -23.990  1.00  0.00    -0.395 OA
HETATM   32  H8  UNL     1      -5.752  51.723 -23.180  1.00  0.00     0.210 HD
ENDBRANCH  27  31
ENDBRANCH  21  22
ENDBRANCH  20  21
ENDBRANCH   1  20
TORSDOF 8
ENDMDL
MODEL 5
REMARK minimizedAffinity -9.39806175
REMARK CNNscore 0.523175418
REMARK CNNaffinity 7.13543653
REMARK  8 active torsions:
REMARK  status: ('A' for Active; 'I' for Inactive)
REMARK    1  A    between atoms: C5_5  and  O1_6 
REMARK    2  A    between atoms: C9_10  and  C10_11 
REMARK    3  A    between atoms: C10_11  and  C11_12 
REMARK    4  A    between atoms: C11_12  and  C12_13 
REMARK    5  A    between atoms: C14_15  and  C15_16 
REMARK    6  A    between atoms: C15_16  and  C16_17 
REMARK    7  A    between atoms: C16_17  and  C17_18 
REMARK    8  A    between atoms: C23_24  and  O2_25 
ROOT
HETATM    1  C12 UNL     1      -3.958  48.461 -25.738  1.00  0.00    -0.087 C 
HETATM    2  C13 UNL     1      -5.125  48.086 -26.617  1.00  0.00     0.043 C 
HETATM    3  C14 UNL     1      -3.993  48.443 -24.388  1.00  0.00    -0.024 C 
ENDROOT
BRANCH   3   4
HETATM    4  C15 UNL     1      -5.172  48.057 -23.536  1.00  0.00     0.030 C 
BRANCH   4   5
HETATM    5  C16 UNL     1      -4.841  47.468 -22.153  1.00  0.00     0.042 C 
BRANCH   5   6
HETATM    6  C17 UNL     1      -3.748  48.167 -21.296  1.00  0.00     0.065 C 
HETATM    7  C18 UNL     1      -4.189  48.287 -19.826  1.00  0.00     0.046 C 
HETATM    8  C19 UNL     1      -2.463  47.324 -21.443  1.00  0.00     0.043 C 
HETATM    9  C20 UNL     1      -1.276  47.991 -20.771  1.00  0.00     0.044 C 
HETATM   10  C21 UNL     1      -1.224  49.445 -21.132  1.00  0.00    -0.021 A 
HETATM   11  C22 UNL     1      -0.033  50.160 -20.938  1.00  0.00     0.046 A 
HETATM   12  C27 UNL     1      -2.357  50.106 -21.626  1.00  0.00     0.082 A 
HETATM   13  C23 UNL     1       0.023  51.511 -21.258  1.00  0.00     0.066 A 
HETATM   14  C24 UNL     1      -1.090  52.169 -21.765  1.00  0.00     0.046 A 
HETATM   15  C25 UNL     1      -2.290  51.471 -21.958  1.00  0.00    -0.025 A 
HETATM   16  C26 UNL     1      -3.494  52.188 -22.492  1.00  0.00     0.051 C 
HETATM   17  O3  UNL     1      -3.561  49.487 -21.837  1.00  0.00    -0.340 OA
BRANCH  13  18
HETATM   18  O2  UNL     1       1.166  52.235 -21.090  1.00  0.00    -0.361 OA
HETATM   19  H36 UNL     1       1.864  51.641 -20.770  1.00  0.00     0.217 HD
ENDBRANCH  13  18
ENDBRANCH   5   6
ENDBRANCH   4   5
ENDBRANCH   3   4
BRANCH   1  20
HETATM   20  C11 UNL     1      -2.670  48.779 -26.481  1.00  0.00     0.034 C 
BRANCH  20  21
HETATM   21  C10 UNL     1      -1.761  49.764 -25.726  1.00  0.00     0.014 C 
BRANCH  21  22
HETATM   22  C9  UNL     1      -1.087  50.811 -26.655  1.00  0.00     0.024 C 
HETATM   23  C2  UNL     1       0.229  51.414 -26.176  1.00  0.00    -0.084 C 
HETATM   24  C1  UNL     1       0.675  51.429 -24.910  1.00  0.00     0.015 C 
HETATM   25  C3  UNL     1       1.013  52.105 -27.275  1.00  0.00     0.036 C 
HETATM   26  C4  UNL     1       0.091  52.783 -28.293  1.00  0.00     0.037 C 
HETATM   27  C5  UNL     1      -1.229  53.203 -27.644  1.00  0.00     0.127 C 
HETATM   28  C6  UNL     1      -2.056  51.975 -27.115  1.00  0.00    -0.014 C 
HETATM   29  C7  UNL     1      -2.999  51.430 -28.216  1.00  0.00     0.018 C 
HETATM   30  C8  UNL     1      -2.947  52.485 -25.959  1.00  0.00     0.018 C 
BRANCH  27  31
HETATM   31  O1  UNL     1      -1.978  54.005 -28.556  1.00  0.00    -0.395 OA
HETATM   32  H8  UNL     1      -2.016  53.540 -29.409  1.00  0.00     0.210 HD
ENDBRANCH  27  31
ENDBRANCH  21  22
ENDBRANCH  20  21
ENDBRANCH   1  20
TORSDOF 8
ENDMDL
MODEL 6
REMARK minimizedAffinity -8.64653873
REMARK CNNscore 0.509938955
REMARK CNNaffinity 6.96525908
REMARK  8 active torsions:
REMARK  status: ('A' for Active; 'I' for Inactive)
REMARK    1  A    between atoms: C5_5  and  O1_6 
REMARK    2  A    between atoms: C9_10  and  C10_11 
REMARK    3  A    between atoms: C10_11  and  C11_12 
REMARK    4  A    between atoms: C11_12  and  C12_13 
REMARK    5  A    between atoms: C14_15  and  C15_16 
REMARK    6  A    between atoms: C15_16  and  C16_17 
REMARK    7  A    between atoms: C16_17  and  C17_18 
REMARK    8  A    between atoms: C23_24  and  O2_25 
ROOT
HETATM    1  C12 UNL     1      -0.380  51.291 -20.899  1.00  0.00    -0.087 C 
HETATM    2  C13 UNL     1       0.263  52.650 -21.018  1.00  0.00     0.043 C 
HETATM    3  C14 UNL     1      -0.660  50.687 -19.724  1.00  0.00    -0.024 C 
ENDROOT
BRANCH   3   4
HETATM    4  C15 UNL     1      -0.387  51.245 -18.354  1.00  0.00     0.030 C 
BRANCH   4   5
HETATM    5  C16 UNL     1      -1.109  50.550 -17.185  1.00  0.00     0.042 C 
BRANCH   5   6
HETATM    6  C17 UNL     1      -0.360  50.419 -15.829  1.00  0.00     0.065 C 
HETATM    7  C18 UNL     1      -1.122  51.141 -14.703  1.00  0.00     0.046 C 
HETATM    8  C19 UNL     1      -0.213  48.909 -15.548  1.00  0.00     0.043 C 
HETATM    9  C20 UNL     1       0.640  48.649 -14.319  1.00  0.00     0.044 C 
HETATM   10  C21 UNL     1       1.878  49.493 -14.358  1.00  0.00    -0.021 A 
HETATM   11  C22 UNL     1       2.967  49.156 -13.541  1.00  0.00     0.046 A 
HETATM   12  C27 UNL     1       1.948  50.633 -15.171  1.00  0.00     0.082 A 
HETATM   13  C23 UNL     1       4.116  49.939 -13.561  1.00  0.00     0.066 A 
HETATM   14  C24 UNL     1       4.199  51.059 -14.377  1.00  0.00     0.046 A 
HETATM   15  C25 UNL     1       3.117  51.414 -15.194  1.00  0.00    -0.025 A 
HETATM   16  C26 UNL     1       3.205  52.632 -16.064  1.00  0.00     0.051 C 
HETATM   17  O3  UNL     1       0.928  51.039 -15.992  1.00  0.00    -0.340 OA
BRANCH  13  18
HETATM   18  O2  UNL     1       5.196  49.636 -12.785  1.00  0.00    -0.361 OA
HETATM   19  H36 UNL     1       5.010  48.814 -12.303  1.00  0.00     0.217 HD
ENDBRANCH  13  18
ENDBRANCH   5   6
ENDBRANCH   4   5
ENDBRANCH   3   4
BRANCH   1  20
HETATM   20  C11 UNL     1      -0.796  50.659 -22.219  1.00  0.00     0.034 C 
BRANCH  20  21
HETATM   21  C10 UNL     1      -1.340  51.679 -23.235  1.00  0.00     0.014 C 
BRANCH  21  22
HETATM   22  C9  UNL     1      -0.771  51.482 -24.666  1.00  0.00     0.024 C 
HETATM   23  C2  UNL     1       0.234  52.518 -25.160  1.00  0.00    -0.084 C 
HETATM   24  C1  UNL     1       0.400  53.754 -24.664  1.00  0.00     0.015 C 
HETATM   25  C3  UNL     1       1.029  52.062 -26.368  1.00  0.00     0.036 C 
HETATM   26  C4  UNL     1       0.192  51.181 -27.301  1.00  0.00     0.037 C 
HETATM   27  C5  UNL     1      -1.293  51.534 -27.205  1.00  0.00     0.127 C 
HETATM   28  C6  UNL     1      -1.883  51.268 -25.772  1.00  0.00    -0.014 C 
HETATM   29  C7  UNL     1      -2.423  49.821 -25.659  1.00  0.00     0.018 C 
HETATM   30  C8  UNL     1      -3.085  52.222 -25.585  1.00  0.00     0.018 C 
BRANCH  27  31
HETATM   31  O1  UNL     1      -2.017  50.845 -28.223  1.00  0.00    -0.395 OA
HETATM   32  H8  UNL     1      -1.769  49.906 -28.190  1.00  0.00     0.210 HD
ENDBRANCH  27  31
ENDBRANCH  21  22
ENDBRANCH  20  21
ENDBRANCH   1  20
TORSDOF 8
ENDMDL
MODEL 7
REMARK minimizedAffinity -8.90063286
REMARK CNNscore 0.451865137
REMARK CNNaffinity 6.58157206
REMARK  8 active torsions:
REMARK  status: ('A' for Active; 'I' for Inactive)
REMARK    1  A    between atoms: C5_5  and  O1_6 
REMARK    2  A    between atoms: C9_10  and  C10_11 
REMARK    3  A    between atoms: C10_11  and  C11_12 
REMARK    4  A    between atoms: C11_12  and  C12_13 
REMARK    5  A    between atoms: C14_15  and  C15_16 
REMARK    6  A    between atoms: C15_16  and  C16_17 
REMARK    7  A    between atoms: C16_17  and  C17_18 
REMARK    8  A    between atoms: C23_24  and  O2_25 
ROOT
HETATM    1  C12 UNL     1      -4.838  48.168 -26.517  1.00  0.00    -0.087 C 
HETATM    2  C13 UNL     1      -4.861  48.326 -28.017  1.00  0.00     0.043 C 
HETATM    3  C14 UNL     1      -3.775  48.475 -25.742  1.00  0.00    -0.024 C 
ENDROOT
BRANCH   3   4
HETATM    4  C15 UNL     1      -2.455  49.016 -26.220  1.00  0.00     0.030 C 
BRANCH   4   5
HETATM    5  C16 UNL     1      -2.343  50.549 -26.302  1.00  0.00     0.042 C 
BRANCH   5   6
HETATM    6  C17 UNL     1      -1.036  51.221 -25.792  1.00  0.00     0.065 C 
HETATM    7  C18 UNL     1       0.208  50.509 -26.353  1.00  0.00     0.046 C 
HETATM    8  C19 UNL     1      -1.099  52.700 -26.229  1.00  0.00     0.043 C 
HETATM    9  C20 UNL     1       0.055  53.502 -25.656  1.00  0.00     0.044 C 
HETATM   10  C21 UNL     1       0.231  53.193 -24.200  1.00  0.00    -0.021 A 
HETATM   11  C22 UNL     1       0.972  54.070 -23.394  1.00  0.00     0.046 A 
HETATM   12  C27 UNL     1      -0.303  52.023 -23.641  1.00  0.00     0.082 A 
HETATM   13  C23 UNL     1       1.151  53.787 -22.045  1.00  0.00     0.066 A 
HETATM   14  C24 UNL     1       0.609  52.639 -21.481  1.00  0.00     0.046 A 
HETATM   15  C25 UNL     1      -0.127  51.749 -22.274  1.00  0.00    -0.025 A 
HETATM   16  C26 UNL     1      -0.699  50.504 -21.664  1.00  0.00     0.051 C 
HETATM   17  O3  UNL     1      -1.031  51.109 -24.357  1.00  0.00    -0.340 OA
BRANCH  13  18
HETATM   18  O2  UNL     1       1.859  54.621 -21.232  1.00  0.00    -0.361 OA
HETATM   19  H36 UNL     1       2.140  55.393 -21.749  1.00  0.00     0.217 HD
ENDBRANCH  13  18
ENDBRANCH   5   6
ENDBRANCH   4   5
ENDBRANCH   3   4
BRANCH   1  20
HETATM   20  C11 UNL     1      -6.152  47.718 -25.898  1.00  0.00     0.034 C 
BRANCH  20  21
HETATM   21  C10 UNL     1      -6.593  48.591 -24.710  1.00  0.00     0.014 C 
BRANCH  21  22
HETATM   22  C9  UNL     1      -5.601  48.549 -23.517  1.00  0.00     0.024 C 
HETATM   23  C2  UNL     1      -5.651  47.318 -22.618  1.00  0.00    -0.084 C 
HETATM   24  C1  UNL     1      -6.677  46.458 -22.515  1.00  0.00     0.015 C 
HETATM   25  C3  UNL     1      -4.426  47.159 -21.740  1.00  0.00     0.036 C 
HETATM   26  C4  UNL     1      -3.867  48.513 -21.291  1.00  0.00     0.037 C 
HETATM   27  C5  UNL     1      -4.974  49.566 -21.216  1.00  0.00     0.127 C 
HETATM   28  C6  UNL     1      -5.629  49.851 -22.616  1.00  0.00    -0.014 C 
HETATM   29  C7  UNL     1      -4.875  50.982 -23.357  1.00  0.00     0.018 C 
HETATM   30  C8  UNL     1      -7.068  50.352 -22.357  1.00  0.00     0.018 C 
BRANCH  27  31
HETATM   31  O1  UNL     1      -4.467  50.752 -20.606  1.00  0.00    -0.395 OA
HETATM   32  H8  UNL     1      -3.638  50.993 -21.053  1.00  0.00     0.210 HD
ENDBRANCH  27  31
ENDBRANCH  21  22
ENDBRANCH  20  21
ENDBRANCH   1  20
TORSDOF 8
ENDMDL
MODEL 8
REMARK minimizedAffinity -9.16196156
REMARK CNNscore 0.445663065
REMARK CNNaffinity 6.27770233
REMARK  8 active torsions:
REMARK  status: ('A' for Active; 'I' for Inactive)
REMARK    1  A    between atoms: C5_5  and  O1_6 
REMARK    2  A    between atoms: C9_10  and  C10_11 
REMARK    3  A    between atoms: C10_11  and  C11_12 
REMARK    4  A    between atoms: C11_12  and  C12_13 
REMARK    5  A    between atoms: C14_15  and  C15_16 
REMARK    6  A    between atoms: C15_16  and  C16_17 
REMARK    7  A    between atoms: C16_17  and  C17_18 
REMARK    8  A    between atoms: C23_24  and  O2_25 
ROOT
HETATM    1  C12 UNL     1      -3.777  48.812 -26.882  1.00  0.00    -0.087 C 
HETATM    2  C13 UNL     1      -4.381  48.450 -25.548  1.00  0.00     0.043 C 
HETATM    3  C14 UNL     1      -2.710  49.627 -27.032  1.00  0.00    -0.024 C 
ENDROOT
BRANCH   3   4
HETATM    4  C15 UNL     1      -1.949  50.305 -25.925  1.00  0.00     0.030 C 
BRANCH   4   5
HETATM    5  C16 UNL     1      -1.098  51.519 -26.336  1.00  0.00     0.042 C 
BRANCH   5   6
HETATM    6  C17 UNL     1       0.004  52.012 -25.357  1.00  0.00     0.065 C 
HETATM    7  C18 UNL     1       1.382  51.444 -25.741  1.00  0.00     0.046 C 
HETATM    8  C19 UNL     1      -0.016  53.555 -25.407  1.00  0.00     0.043 C 
HETATM    9  C20 UNL     1       0.918  54.161 -24.374  1.00  0.00     0.044 C 
HETATM   10  C21 UNL     1       0.735  53.486 -23.049  1.00  0.00    -0.021 A 
HETATM   11  C22 UNL     1       1.206  54.113 -21.886  1.00  0.00     0.046 A 
HETATM   12  C27 UNL     1       0.133  52.223 -22.959  1.00  0.00     0.082 A 
HETATM   13  C23 UNL     1       1.052  53.490 -20.653  1.00  0.00     0.066 A 
HETATM   14  C24 UNL     1       0.440  52.248 -20.555  1.00  0.00     0.046 A 
HETATM   15  C25 UNL     1      -0.030  51.605 -21.707  1.00  0.00    -0.025 A 
HETATM   16  C26 UNL     1      -0.678  50.256 -21.599  1.00  0.00     0.051 C 
HETATM   17  O3  UNL     1      -0.348  51.537 -24.045  1.00  0.00    -0.340 OA
BRANCH  13  18
HETATM   18  O2  UNL     1       1.492  54.074 -19.502  1.00  0.00    -0.361 OA
HETATM   19  H36 UNL     1       1.858  54.947 -19.718  1.00  0.00     0.217 HD
ENDBRANCH  13  18
ENDBRANCH   5   6
ENDBRANCH   4   5
ENDBRANCH   3   4
BRANCH   1  20
HETATM   20  C11 UNL     1      -4.399  48.111 -28.079  1.00  0.00     0.034 C 
BRANCH  20  21
HETATM   21  C10 UNL     1      -5.906  47.851 -27.915  1.00  0.00     0.014 C 
BRANCH  21  22
HETATM   22  C9  UNL     1      -6.431  46.701 -28.817  1.00  0.00     0.024 C 
HETATM   23  C2  UNL     1      -6.240  46.861 -30.322  1.00  0.00    -0.084 C 
HETATM   24  C1  UNL     1      -6.015  48.014 -30.970  1.00  0.00     0.015 C 
HETATM   25  C3  UNL     1      -6.405  45.566 -31.093  1.00  0.00     0.036 C 
HETATM   26  C4  UNL     1      -7.470  44.661 -30.466  1.00  0.00     0.037 C 
HETATM   27  C5  UNL     1      -8.530  45.485 -29.733  1.00  0.00     0.127 C 
HETATM   28  C6  UNL     1      -7.933  46.294 -28.524  1.00  0.00    -0.014 C 
HETATM   29  C7  UNL     1      -7.974  45.452 -27.225  1.00  0.00     0.018 C 
HETATM   30  C8  UNL     1      -8.840  47.526 -28.302  1.00  0.00     0.018 C 
BRANCH  27  31
HETATM   31  O1  UNL     1      -9.607  44.638 -29.336  1.00  0.00    -0.395 OA
HETATM   32  H8  UNL     1      -9.234  43.866 -28.879  1.00  0.00     0.210 HD
ENDBRANCH  27  31
ENDBRANCH  21  22
ENDBRANCH  20  21
ENDBRANCH   1  20
TORSDOF 8
ENDMDL
MODEL 9
REMARK minimizedAffinity -8.84500408
REMARK CNNscore 0.443093657
REMARK CNNaffinity 6.21193695
REMARK  8 active torsions:
REMARK  status: ('A' for Active; 'I' for Inactive)
REMARK    1  A    between atoms: C5_5  and  O1_6 
REMARK    2  A    between atoms: C9_10  and  C10_11 
REMARK    3  A    between atoms: C10_11  and  C11_12 
REMARK    4  A    between atoms: C11_12  and  C12_13 
REMARK    5  A    between atoms: C14_15  and  C15_16 
REMARK    6  A    between atoms: C15_16  and  C16_17 
REMARK    7  A    between atoms: C16_17  and  C17_18 
REMARK    8  A    between atoms: C23_24  and  O2_25 
ROOT
HETATM    1  C12 UNL     1      -4.889  48.361 -25.756  1.00  0.00    -0.087 C 
HETATM    2  C13 UNL     1      -4.545  48.484 -24.292  1.00  0.00     0.043 C 
HETATM    3  C14 UNL     1      -4.049  48.694 -26.760  1.00  0.00    -0.024 C 
ENDROOT
BRANCH   3   4
HETATM    4  C15 UNL     1      -2.654  49.234 -26.606  1.00  0.00     0.030 C 
BRANCH   4   5
HETATM    5  C16 UNL     1      -2.524  50.767 -26.562  1.00  0.00     0.042 C 
BRANCH   5   6
HETATM    6  C17 UNL     1      -1.169  51.379 -26.105  1.00  0.00     0.065 C 
HETATM    7  C18 UNL     1       0.018  50.551 -26.628  1.00  0.00     0.046 C 
HETATM    8  C19 UNL     1      -1.137  52.829 -26.635  1.00  0.00     0.043 C 
HETATM    9  C20 UNL     1       0.075  53.585 -26.122  1.00  0.00     0.044 C 
HETATM   10  C21 UNL     1       0.246  53.357 -24.651  1.00  0.00    -0.021 A 
HETATM   11  C22 UNL     1       1.054  54.231 -23.908  1.00  0.00     0.046 A 
HETATM   12  C27 UNL     1      -0.359  52.265 -24.015  1.00  0.00     0.082 A 
HETATM   13  C23 UNL     1       1.228  54.023 -22.545  1.00  0.00     0.066 A 
HETATM   14  C24 UNL     1       0.617  52.953 -21.905  1.00  0.00     0.046 A 
HETATM   15  C25 UNL     1      -0.187  52.066 -22.634  1.00  0.00    -0.025 A 
HETATM   16  C26 UNL     1      -0.835  50.904 -21.942  1.00  0.00     0.051 C 
HETATM   17  O3  UNL     1      -1.156  51.358 -24.666  1.00  0.00    -0.340 OA
BRANCH  13  18
HETATM   18  O2  UNL     1       2.000  54.857 -21.791  1.00  0.00    -0.361 OA
HETATM   19  H36 UNL     1       2.327  55.573 -22.359  1.00  0.00     0.217 HD
ENDBRANCH  13  18
ENDBRANCH   5   6
ENDBRANCH   4   5
ENDBRANCH   3   4
BRANCH   1  20
HETATM   20  C11 UNL     1      -6.244  47.734 -26.046  1.00  0.00     0.034 C 
BRANCH  20  21
HETATM   21  C10 UNL     1      -6.484  47.475 -27.544  1.00  0.00     0.014 C 
BRANCH  21  22
HETATM   22  C9  UNL     1      -7.803  46.707 -27.829  1.00  0.00     0.024 C 
HETATM   23  C2  UNL     1      -7.716  45.503 -28.761  1.00  0.00    -0.084 C 
HETATM   24  C1  UNL     1      -6.731  45.256 -29.639  1.00  0.00     0.015 C 
HETATM   25  C3  UNL     1      -8.922  44.588 -28.681  1.00  0.00     0.036 C 
HETATM   26  C4  UNL     1     -10.214  45.369 -28.426  1.00  0.00     0.037 C 
HETATM   27  C5  UNL     1     -10.120  46.787 -28.990  1.00  0.00     0.127 C 
HETATM   28  C6  UNL     1      -8.997  47.638 -28.293  1.00  0.00    -0.014 C 
HETATM   29  C7  UNL     1      -9.557  48.381 -27.055  1.00  0.00     0.018 C 
HETATM   30  C8  UNL     1      -8.539  48.714 -29.305  1.00  0.00     0.018 C 
BRANCH  27  31
HETATM   31  O1  UNL     1     -11.397  47.419 -28.919  1.00  0.00    -0.395 OA
HETATM   32  H8  UNL     1     -11.740  47.309 -28.016  1.00  0.00     0.210 HD
ENDBRANCH  27  31
ENDBRANCH  21  22
ENDBRANCH  20  21
ENDBRANCH   1  20
TORSDOF 8
ENDMDL
