MODEL 1
REMARK minimizedAffinity -8.06006908
REMARK CNNscore 0.505437255
REMARK CNNaffinity 6.66461802
REMARK  12 active torsions:
REMARK  status: ('A' for Active; 'I' for Inactive)
REMARK    1  A    between atoms: C2_2  and  C3_3 
REMARK    2  A    between atoms: C2_2  and  C9_10 
REMARK    3  A    between atoms: C3_3  and  C4_4 
REMARK    4  A    between atoms: C5_5  and  C6_6 
REMARK    5  A    between atoms: C6_6  and  O1_9 
REMARK    6  A    between atoms: C27_29  and  O3_30 
REMARK    7  A    between atoms: O3_30  and  C28_31 
REMARK    8  A    between atoms: C29_33  and  C30_34 
REMARK    9  A    between atoms: C30_34  and  O5_35 
REMARK   10  A    between atoms: C31_36  and  O6_37 
REMARK   11  A    between atoms: C32_38  and  O7_39 
REMARK   12  A    between atoms: C33_40  and  O8_41 
ROOT
HETATM    1  C9  UNL     1      -4.193  14.052  18.087  1.00  0.00    -0.002 C 
HETATM    2  C10 UNL     1      -3.597  15.216  17.242  1.00  0.00     0.006 C 
HETATM    3  C11 UNL     1      -2.526  14.581  16.304  1.00  0.00     0.011 C 
HETATM    4  C12 UNL     1      -2.727  13.052  16.459  1.00  0.00    -0.029 C 
HETATM    5  C13 UNL     1      -3.934  12.711  15.501  1.00  0.00     0.016 C 
HETATM    6  C14 UNL     1      -1.582  12.051  16.061  1.00  0.00     0.028 C 
HETATM    7  C15 UNL     1      -0.226  12.530  15.635  1.00  0.00    -0.021 C 
HETATM    8  C16 UNL     1       0.781  11.642  15.583  1.00  0.00     0.008 C 
HETATM    9  C17 UNL     1       0.618  10.179  16.031  1.00  0.00     0.092 C 
HETATM   10  O2  UNL     1       0.912  10.266  17.434  1.00  0.00    -0.374 OA
HETATM   11  C18 UNL     1      -0.329  10.721  18.062  1.00  0.00     0.179 C 
HETATM   12  C19 UNL     1      -1.466  10.756  16.968  1.00  0.00    -0.004 C 
HETATM   13  C20 UNL     1      -2.824  10.399  17.584  1.00  0.00     0.014 C 
HETATM   14  C21 UNL     1      -3.521  11.539  18.363  1.00  0.00     0.011 C 
HETATM   15  C22 UNL     1      -3.074  12.969  17.987  1.00  0.00    -0.032 C 
HETATM   16  C23 UNL     1      -1.858  13.422  18.846  1.00  0.00     0.016 C 
HETATM   17  C24 UNL     1      -0.838   9.653  16.094  1.00  0.00     0.036 C 
HETATM   18  C25 UNL     1      -1.424   9.233  14.747  1.00  0.00     0.011 C 
HETATM   19  C26 UNL     1      -0.504   9.514  13.558  1.00  0.00     0.033 C 
HETATM   20  C27 UNL     1       0.994   9.156  13.750  1.00  0.00     0.136 C 
HETATM   21  C34 UNL     1       1.494   9.166  15.239  1.00  0.00     0.014 C 
HETATM   22  C35 UNL     1       1.436   7.750  15.877  1.00  0.00     0.021 C 
HETATM   23  C36 UNL     1       2.996   9.539  15.268  1.00  0.00     0.021 C 
ENDROOT
BRANCH  20  24
HETATM   24  O3  UNL     1       1.300   7.878  13.173  1.00  0.00    -0.352 OA
BRANCH  24  25
HETATM   25  C28 UNL     1       1.972   7.941  11.905  1.00  0.00     0.292 C 
HETATM   26  O4  UNL     1       1.055   8.110  10.836  1.00  0.00    -0.348 OA
HETATM   27  C29 UNL     1       1.706   8.375   9.580  1.00  0.00     0.179 C 
HETATM   28  C31 UNL     1       3.022   7.574   9.404  1.00  0.00     0.180 C 
HETATM   29  C32 UNL     1       3.046   6.296  10.263  1.00  0.00     0.183 C 
HETATM   30  C33 UNL     1       2.727   6.606  11.738  1.00  0.00     0.204 C 
BRANCH  27  31
HETATM   31  C30 UNL     1       0.676   8.072   8.480  1.00  0.00     0.198 C 
BRANCH  31  32
HETATM   32  O5  UNL     1      -0.339   9.078   8.439  1.00  0.00    -0.398 OA
HETATM   33  H46 UNL     1      -0.849   8.925   7.623  1.00  0.00     0.209 HD
ENDBRANCH  31  32
ENDBRANCH  27  31
BRANCH  28  34
HETATM   34  O6  UNL     1       4.107   8.450   9.776  1.00  0.00    -0.390 OA
HETATM   35  H48 UNL     1       4.723   7.964  10.364  1.00  0.00     0.210 HD
ENDBRANCH  28  34
BRANCH  29  36
HETATM   36  O7  UNL     1       2.170   5.279   9.762  1.00  0.00    -0.390 OA
HETATM   37  H50 UNL     1       1.350   5.709   9.435  1.00  0.00     0.210 HD
ENDBRANCH  29  36
BRANCH  30  38
HETATM   38  O8  UNL     1       3.964   6.682  12.483  1.00  0.00    -0.388 OA
HETATM   39  H52 UNL     1       3.717   6.545  13.422  1.00  0.00     0.210 HD
ENDBRANCH  30  38
ENDBRANCH  24  25
ENDBRANCH  20  24
BRANCH   1  40
HETATM   40  C2  UNL     1      -4.904  14.422  19.428  1.00  0.00    -0.010 C 
HETATM   41  C1  UNL     1      -3.817  14.846  20.443  1.00  0.00     0.010 C 
BRANCH  40  42
HETATM   42  C3  UNL     1      -5.835  13.359  20.045  1.00  0.00     0.031 C 
BRANCH  42  43
HETATM   43  C4  UNL     1      -6.624  13.708  21.285  1.00  0.00    -0.027 C 
HETATM   44  C5  UNL     1      -7.754  13.133  21.738  1.00  0.00     0.006 C 
BRANCH  44  45
HETATM   45  C6  UNL     1      -8.506  13.511  22.997  1.00  0.00     0.068 C 
HETATM   46  C7  UNL     1      -8.038  14.878  23.497  1.00  0.00     0.050 C 
HETATM   47  C8  UNL     1     -10.019  13.525  22.737  1.00  0.00     0.050 C 
BRANCH  45  48
HETATM   48  O1  UNL     1      -8.246  12.558  24.033  1.00  0.00    -0.387 OA
HETATM   49  H15 UNL     1      -8.611  11.709  23.720  1.00  0.00     0.211 HD
ENDBRANCH  45  48
ENDBRANCH  44  45
ENDBRANCH  42  43
ENDBRANCH  40  42
ENDBRANCH   1  40
TORSDOF 12
ENDMDL
MODEL 2
REMARK minimizedAffinity -9.11189556
REMARK CNNscore 0.444084316
REMARK CNNaffinity 6.71930885
REMARK  12 active torsions:
REMARK  status: ('A' for Active; 'I' for Inactive)
REMARK    1  A    between atoms: C2_2  and  C3_3 
REMARK    2  A    between atoms: C2_2  and  C9_10 
REMARK    3  A    between atoms: C3_3  and  C4_4 
REMARK    4  A    between atoms: C5_5  and  C6_6 
REMARK    5  A    between atoms: C6_6  and  O1_9 
REMARK    6  A    between atoms: C27_29  and  O3_30 
REMARK    7  A    between atoms: O3_30  and  C28_31 
REMARK    8  A    between atoms: C29_33  and  C30_34 
REMARK    9  A    between atoms: C30_34  and  O5_35 
REMARK   10  A    between atoms: C31_36  and  O6_37 
REMARK   11  A    between atoms: C32_38  and  O7_39 
REMARK   12  A    between atoms: C33_40  and  O8_41 
ROOT
HETATM    1  C9  UNL     1      -2.922  13.110  18.164  1.00  0.00    -0.002 C 
HETATM    2  C10 UNL     1      -1.481  13.086  18.753  1.00  0.00     0.006 C 
HETATM    3  C11 UNL     1      -0.673  12.054  17.911  1.00  0.00     0.011 C 
HETATM    4  C12 UNL     1      -1.598  11.716  16.714  1.00  0.00    -0.029 C 
HETATM    5  C13 UNL     1      -1.373  12.896  15.692  1.00  0.00     0.016 C 
HETATM    6  C14 UNL     1      -1.380  10.398  15.885  1.00  0.00     0.028 C 
HETATM    7  C15 UNL     1      -0.363   9.371  16.283  1.00  0.00    -0.021 C 
HETATM    8  C16 UNL     1      -0.418   8.157  15.711  1.00  0.00     0.008 C 
HETATM    9  C17 UNL     1      -1.537   7.751  14.737  1.00  0.00     0.092 C 
HETATM   10  O2  UNL     1      -2.544   7.256  15.633  1.00  0.00    -0.374 OA
HETATM   11  C18 UNL     1      -3.242   8.443  16.128  1.00  0.00     0.179 C 
HETATM   12  C19 UNL     1      -2.703   9.706  15.350  1.00  0.00    -0.004 C 
HETATM   13  C20 UNL     1      -3.818  10.740  15.155  1.00  0.00     0.014 C 
HETATM   14  C21 UNL     1      -4.134  11.619  16.388  1.00  0.00     0.011 C 
HETATM   15  C22 UNL     1      -2.996  11.736  17.426  1.00  0.00    -0.032 C 
HETATM   16  C23 UNL     1      -3.083  10.600  18.487  1.00  0.00     0.016 C 
HETATM   17  C24 UNL     1      -2.316   8.920  14.081  1.00  0.00     0.036 C 
HETATM   18  C25 UNL     1      -1.610   9.569  12.892  1.00  0.00     0.011 C 
HETATM   19  C26 UNL     1      -0.207   9.020  12.631  1.00  0.00     0.033 C 
HETATM   20  C27 UNL     1      -0.047   7.478  12.713  1.00  0.00     0.136 C 
HETATM   21  C34 UNL     1      -1.093   6.751  13.632  1.00  0.00     0.014 C 
HETATM   22  C35 UNL     1      -2.311   6.230  12.819  1.00  0.00     0.021 C 
HETATM   23  C36 UNL     1      -0.449   5.472  14.221  1.00  0.00     0.021 C 
ENDROOT
BRANCH  20  24
HETATM   24  O3  UNL     1      -0.090   6.882  11.408  1.00  0.00    -0.352 OA
BRANCH  24  25
HETATM   25  C28 UNL     1       1.135   6.982  10.666  1.00  0.00     0.292 C 
HETATM   26  O4  UNL     1       1.641   5.704  10.317  1.00  0.00    -0.348 OA
HETATM   27  C29 UNL     1       2.754   5.774   9.407  1.00  0.00     0.179 C 
HETATM   28  C31 UNL     1       3.698   6.968   9.703  1.00  0.00     0.180 C 
HETATM   29  C32 UNL     1       3.604   7.437  11.166  1.00  0.00     0.183 C 
HETATM   30  C33 UNL     1       2.145   7.711  11.576  1.00  0.00     0.204 C 
BRANCH  27  31
HETATM   31  C30 UNL     1       3.473   4.418   9.489  1.00  0.00     0.198 C 
BRANCH  31  32
HETATM   32  O5  UNL     1       3.418   3.734   8.235  1.00  0.00    -0.398 OA
HETATM   33  H46 UNL     1       4.031   2.979   8.303  1.00  0.00     0.209 HD
ENDBRANCH  31  32
ENDBRANCH  27  31
BRANCH  28  34
HETATM   34  O6  UNL     1       3.322   8.038   8.808  1.00  0.00    -0.390 OA
HETATM   35  H48 UNL     1       3.266   8.875   9.317  1.00  0.00     0.210 HD
ENDBRANCH  28  34
BRANCH  29  36
HETATM   36  O7  UNL     1       4.218   6.519  12.079  1.00  0.00    -0.390 OA
HETATM   37  H50 UNL     1       4.022   5.605  11.778  1.00  0.00     0.210 HD
ENDBRANCH  29  36
BRANCH  30  38
HETATM   38  O8  UNL     1       1.891   9.133  11.497  1.00  0.00    -0.388 OA
HETATM   39  H52 UNL     1       1.106   9.295  12.061  1.00  0.00     0.210 HD
ENDBRANCH  30  38
ENDBRANCH  24  25
ENDBRANCH  20  24
BRANCH   1  40
HETATM   40  C2  UNL     1      -4.069  13.650  19.077  1.00  0.00    -0.010 C 
HETATM   41  C1  UNL     1      -3.501  14.818  19.918  1.00  0.00     0.010 C 
BRANCH  40  42
HETATM   42  C3  UNL     1      -4.782  12.627  19.984  1.00  0.00     0.031 C 
BRANCH  42  43
HETATM   43  C4  UNL     1      -5.989  13.070  20.778  1.00  0.00    -0.027 C 
HETATM   44  C5  UNL     1      -6.085  13.254  22.108  1.00  0.00     0.006 C 
BRANCH  44  45
HETATM   45  C6  UNL     1      -7.317  13.710  22.860  1.00  0.00     0.068 C 
HETATM   46  C7  UNL     1      -6.955  14.841  23.823  1.00  0.00     0.050 C 
HETATM   47  C8  UNL     1      -8.408  14.169  21.882  1.00  0.00     0.050 C 
BRANCH  45  48
HETATM   48  O1  UNL     1      -7.848  12.632  23.639  1.00  0.00    -0.387 OA
HETATM   49  H15 UNL     1      -8.133  11.951  23.000  1.00  0.00     0.211 HD
ENDBRANCH  45  48
ENDBRANCH  44  45
ENDBRANCH  42  43
ENDBRANCH  40  42
ENDBRANCH   1  40
TORSDOF 12
ENDMDL
MODEL 3
REMARK minimizedAffinity -7.26455355
REMARK CNNscore 0.359885901
REMARK CNNaffinity 6.93497467
REMARK  12 active torsions:
REMARK  status: ('A' for Active; 'I' for Inactive)
REMARK    1  A    between atoms: C2_2  and  C3_3 
REMARK    2  A    between atoms: C2_2  and  C9_10 
REMARK    3  A    between atoms: C3_3  and  C4_4 
REMARK    4  A    between atoms: C5_5  and  C6_6 
REMARK    5  A    between atoms: C6_6  and  O1_9 
REMARK    6  A    between atoms: C27_29  and  O3_30 
REMARK    7  A    between atoms: O3_30  and  C28_31 
REMARK    8  A    between atoms: C29_33  and  C30_34 
REMARK    9  A    between atoms: C30_34  and  O5_35 
REMARK   10  A    between atoms: C31_36  and  O6_37 
REMARK   11  A    between atoms: C32_38  and  O7_39 
REMARK   12  A    between atoms: C33_40  and  O8_41 
ROOT
HETATM    1  C9  UNL     1      -8.719  15.685   4.460  1.00  0.00    -0.002 C 
HETATM    2  C10 UNL     1      -9.567  14.922   5.519  1.00  0.00     0.006 C 
HETATM    3  C11 UNL     1     -10.803  14.342   4.767  1.00  0.00     0.011 C 
HETATM    4  C12 UNL     1     -10.489  14.571   3.266  1.00  0.00    -0.029 C 
HETATM    5  C13 UNL     1      -9.543  13.371   2.871  1.00  0.00     0.016 C 
HETATM    6  C14 UNL     1     -11.644  14.561   2.198  1.00  0.00     0.028 C 
HETATM    7  C15 UNL     1     -13.085  14.453   2.594  1.00  0.00    -0.021 C 
HETATM    8  C16 UNL     1     -14.026  14.732   1.676  1.00  0.00     0.008 C 
HETATM    9  C17 UNL     1     -13.680  15.247   0.268  1.00  0.00     0.092 C 
HETATM   10  O2  UNL     1     -13.619  16.666   0.480  1.00  0.00    -0.374 OA
HETATM   11  C18 UNL     1     -12.287  16.920   1.028  1.00  0.00     0.179 C 
HETATM   12  C19 UNL     1     -11.461  15.575   0.993  1.00  0.00    -0.004 C 
HETATM   13  C20 UNL     1      -9.976  15.855   0.737  1.00  0.00     0.014 C 
HETATM   14  C21 UNL     1      -9.168  16.334   1.965  1.00  0.00     0.011 C 
HETATM   15  C22 UNL     1      -9.769  15.963   3.339  1.00  0.00    -0.032 C 
HETATM   16  C23 UNL     1     -10.755  17.060   3.836  1.00  0.00     0.016 C 
HETATM   17  C24 UNL     1     -12.229  14.985  -0.207  1.00  0.00     0.036 C 
HETATM   18  C25 UNL     1     -11.975  13.574  -0.736  1.00  0.00     0.011 C 
HETATM   19  C26 UNL     1     -13.175  12.637  -0.597  1.00  0.00     0.033 C 
HETATM   20  C27 UNL     1     -14.558  13.231  -0.979  1.00  0.00     0.136 C 
HETATM   21  C34 UNL     1     -14.671  14.791  -0.841  1.00  0.00     0.014 C 
HETATM   22  C35 UNL     1     -14.382  15.512  -2.188  1.00  0.00     0.021 C 
HETATM   23  C36 UNL     1     -16.136  15.167  -0.512  1.00  0.00     0.021 C 
ENDROOT
BRANCH  20  24
HETATM   24  O3  UNL     1     -14.931  12.860  -2.315  1.00  0.00    -0.352 OA
BRANCH  24  25
HETATM   25  C28 UNL     1     -14.223  11.726  -2.839  1.00  0.00     0.292 C 
HETATM   26  O4  UNL     1     -13.451  12.072  -3.977  1.00  0.00    -0.348 OA
HETATM   27  C29 UNL     1     -12.579  11.010  -4.404  1.00  0.00     0.179 C 
HETATM   28  C31 UNL     1     -13.224   9.607  -4.255  1.00  0.00     0.180 C 
HETATM   29  C32 UNL     1     -14.762   9.668  -4.264  1.00  0.00     0.183 C 
HETATM   30  C33 UNL     1     -15.289  10.682  -3.230  1.00  0.00     0.204 C 
BRANCH  27  31
HETATM   31  C30 UNL     1     -12.180  11.327  -5.854  1.00  0.00     0.198 C 
BRANCH  31  32
HETATM   32  O5  UNL     1     -12.325  10.174  -6.687  1.00  0.00    -0.398 OA
HETATM   33  H46 UNL     1     -12.229  10.483  -7.607  1.00  0.00     0.209 HD
ENDBRANCH  31  32
ENDBRANCH  27  31
BRANCH  28  34
HETATM   34  O6  UNL     1     -12.750   9.052  -3.009  1.00  0.00    -0.390 OA
HETATM   35  H48 UNL     1     -13.511   8.671  -2.520  1.00  0.00     0.210 HD
ENDBRANCH  28  34
BRANCH  29  36
HETATM   36  O7  UNL     1     -15.295   9.952  -5.564  1.00  0.00    -0.390 OA
HETATM   37  H50 UNL     1     -14.713  10.613  -5.999  1.00  0.00     0.210 HD
ENDBRANCH  29  36
BRANCH  30  38
HETATM   38  O8  UNL     1     -15.697   9.973  -2.038  1.00  0.00    -0.388 OA
HETATM   39  H52 UNL     1     -16.310  10.576  -1.567  1.00  0.00     0.210 HD
ENDBRANCH  30  38
ENDBRANCH  24  25
ENDBRANCH  20  24
BRANCH   1  40
HETATM   40  C2  UNL     1      -7.717  16.766   4.977  1.00  0.00    -0.010 C 
HETATM   41  C1  UNL     1      -8.419  17.572   6.094  1.00  0.00     0.010 C 
BRANCH  40  42
HETATM   42  C3  UNL     1      -7.107  17.716   3.926  1.00  0.00     0.031 C 
BRANCH  42  43
HETATM   43  C4  UNL     1      -5.910  17.254   3.129  1.00  0.00    -0.027 C 
HETATM   44  C5  UNL     1      -5.866  16.308   2.173  1.00  0.00     0.006 C 
BRANCH  44  45
HETATM   45  C6  UNL     1      -4.640  15.884   1.391  1.00  0.00     0.068 C 
HETATM   46  C7  UNL     1      -4.097  17.066   0.588  1.00  0.00     0.050 C 
HETATM   47  C8  UNL     1      -3.561  15.337   2.336  1.00  0.00     0.050 C 
BRANCH  45  48
HETATM   48  O1  UNL     1      -4.980  14.848   0.463  1.00  0.00    -0.387 OA
HETATM   49  H15 UNL     1      -5.260  14.083   1.000  1.00  0.00     0.211 HD
ENDBRANCH  45  48
ENDBRANCH  44  45
ENDBRANCH  42  43
ENDBRANCH  40  42
ENDBRANCH   1  40
TORSDOF 12
ENDMDL
MODEL 4
REMARK minimizedAffinity -8.41735744
REMARK CNNscore 0.310934395
REMARK CNNaffinity 6.76808357
REMARK  12 active torsions:
REMARK  status: ('A' for Active; 'I' for Inactive)
REMARK    1  A    between atoms: C2_2  and  C3_3 
REMARK    2  A    between atoms: C2_2  and  C9_10 
REMARK    3  A    between atoms: C3_3  and  C4_4 
REMARK    4  A    between atoms: C5_5  and  C6_6 
REMARK    5  A    between atoms: C6_6  and  O1_9 
REMARK    6  A    between atoms: C27_29  and  O3_30 
REMARK    7  A    between atoms: O3_30  and  C28_31 
REMARK    8  A    between atoms: C29_33  and  C30_34 
REMARK    9  A    between atoms: C30_34  and  O5_35 
REMARK   10  A    between atoms: C31_36  and  O6_37 
REMARK   11  A    between atoms: C32_38  and  O7_39 
REMARK   12  A    between atoms: C33_40  and  O8_41 
ROOT
HETATM    1  C9  UNL     1       2.003   8.772  11.420  1.00  0.00    -0.002 C 
HETATM    2  C10 UNL     1       1.269   8.617  12.785  1.00  0.00     0.006 C 
HETATM    3  C11 UNL     1       2.341   8.838  13.895  1.00  0.00     0.011 C 
HETATM    4  C12 UNL     1       3.586   9.365  13.136  1.00  0.00    -0.029 C 
HETATM    5  C13 UNL     1       3.308  10.905  12.937  1.00  0.00     0.016 C 
HETATM    6  C14 UNL     1       5.014   9.278  13.788  1.00  0.00     0.028 C 
HETATM    7  C15 UNL     1       5.245   8.586  15.097  1.00  0.00    -0.021 C 
HETATM    8  C16 UNL     1       6.507   8.301  15.459  1.00  0.00     0.008 C 
HETATM    9  C17 UNL     1       7.712   8.572  14.542  1.00  0.00     0.092 C 
HETATM   10  O2  UNL     1       7.774   7.362  13.771  1.00  0.00    -0.374 OA
HETATM   11  C18 UNL     1       6.780   7.526  12.711  1.00  0.00     0.179 C 
HETATM   12  C19 UNL     1       6.205   8.995  12.780  1.00  0.00    -0.004 C 
HETATM   13  C20 UNL     1       5.866   9.512  11.377  1.00  0.00     0.014 C 
HETATM   14  C21 UNL     1       4.530   9.004  10.785  1.00  0.00     0.011 C 
HETATM   15  C22 UNL     1       3.490   8.517  11.818  1.00  0.00    -0.032 C 
HETATM   16  C23 UNL     1       3.675   7.003  12.132  1.00  0.00     0.016 C 
HETATM   17  C24 UNL     1       7.476   9.601  13.407  1.00  0.00     0.036 C 
HETATM   18  C25 UNL     1       7.565  11.062  13.842  1.00  0.00     0.011 C 
HETATM   19  C26 UNL     1       7.762  11.249  15.347  1.00  0.00     0.033 C 
HETATM   20  C27 UNL     1       8.794  10.310  16.026  1.00  0.00     0.136 C 
HETATM   21  C34 UNL     1       9.022   8.937  15.297  1.00  0.00     0.014 C 
HETATM   22  C35 UNL     1      10.236   8.992  14.328  1.00  0.00     0.021 C 
HETATM   23  C36 UNL     1       9.415   7.866  16.344  1.00  0.00     0.021 C 
ENDROOT
BRANCH  20  24
HETATM   24  O3  UNL     1      10.063  10.961  16.184  1.00  0.00    -0.352 OA
BRANCH  24  25
HETATM   25  C28 UNL     1      10.525  11.046  17.541  1.00  0.00     0.292 C 
HETATM   26  O4  UNL     1       9.523  11.558  18.403  1.00  0.00    -0.348 OA
HETATM   27  C29 UNL     1       9.884  11.470  19.793  1.00  0.00     0.179 C 
HETATM   28  C31 UNL     1      11.390  11.748  20.042  1.00  0.00     0.180 C 
HETATM   29  C32 UNL     1      12.018  12.600  18.924  1.00  0.00     0.183 C 
HETATM   30  C33 UNL     1      11.742  11.995  17.534  1.00  0.00     0.204 C 
BRANCH  27  31
HETATM   31  C30 UNL     1       8.970  12.448  20.547  1.00  0.00     0.198 C 
BRANCH  31  32
HETATM   32  O5  UNL     1       9.190  12.370  21.957  1.00  0.00    -0.398 OA
HETATM   33  H46 UNL     1       8.718  13.125  22.354  1.00  0.00     0.209 HD
ENDBRANCH  31  32
ENDBRANCH  27  31
BRANCH  28  34
HETATM   34  O6  UNL     1      12.050  10.466  20.127  1.00  0.00    -0.390 OA
HETATM   35  H48 UNL     1      12.865  10.489  19.581  1.00  0.00     0.210 HD
ENDBRANCH  28  34
BRANCH  29  36
HETATM   36  O7  UNL     1      11.593  13.968  18.970  1.00  0.00    -0.390 OA
HETATM   37  H50 UNL     1      10.642  13.989  19.212  1.00  0.00     0.210 HD
ENDBRANCH  29  36
BRANCH  30  38
HETATM   38  O8  UNL     1      12.904  11.249  17.105  1.00  0.00    -0.388 OA
HETATM   39  H52 UNL     1      12.826  11.173  16.131  1.00  0.00     0.210 HD
ENDBRANCH  30  38
ENDBRANCH  24  25
ENDBRANCH  20  24
BRANCH   1  40
HETATM   40  C2  UNL     1       1.335   8.129  10.163  1.00  0.00    -0.010 C 
HETATM   41  C1  UNL     1       0.455   6.950  10.639  1.00  0.00     0.010 C 
BRANCH  40  42
HETATM   42  C3  UNL     1       2.272   7.680   9.024  1.00  0.00     0.031 C 
BRANCH  42  43
HETATM   43  C4  UNL     1       3.159   6.476   9.238  1.00  0.00    -0.027 C 
HETATM   44  C5  UNL     1       3.034   5.248   8.701  1.00  0.00     0.006 C 
BRANCH  44  45
HETATM   45  C6  UNL     1       3.957   4.071   8.937  1.00  0.00     0.068 C 
HETATM   46  C7  UNL     1       4.318   3.413   7.606  1.00  0.00     0.050 C 
HETATM   47  C8  UNL     1       5.226   4.521   9.675  1.00  0.00     0.050 C 
BRANCH  45  48
HETATM   48  O1  UNL     1       3.303   3.085   9.745  1.00  0.00    -0.387 OA
HETATM   49  H15 UNL     1       3.142   3.507  10.610  1.00  0.00     0.211 HD
ENDBRANCH  45  48
ENDBRANCH  44  45
ENDBRANCH  42  43
ENDBRANCH  40  42
ENDBRANCH   1  40
TORSDOF 12
ENDMDL
MODEL 5
REMARK minimizedAffinity -10.5053968
REMARK CNNscore 0.284639359
REMARK CNNaffinity 7.19713783
REMARK  12 active torsions:
REMARK  status: ('A' for Active; 'I' for Inactive)
REMARK    1  A    between atoms: C2_2  and  C3_3 
REMARK    2  A    between atoms: C2_2  and  C9_10 
REMARK    3  A    between atoms: C3_3  and  C4_4 
REMARK    4  A    between atoms: C5_5  and  C6_6 
REMARK    5  A    between atoms: C6_6  and  O1_9 
REMARK    6  A    between atoms: C27_29  and  O3_30 
REMARK    7  A    between atoms: O3_30  and  C28_31 
REMARK    8  A    between atoms: C29_33  and  C30_34 
REMARK    9  A    between atoms: C30_34  and  O5_35 
REMARK   10  A    between atoms: C31_36  and  O6_37 
REMARK   11  A    between atoms: C32_38  and  O7_39 
REMARK   12  A    between atoms: C33_40  and  O8_41 
ROOT
HETATM    1  C9  UNL     1      -3.284   7.728  14.800  1.00  0.00    -0.002 C 
HETATM    2  C10 UNL     1      -2.917   6.435  15.587  1.00  0.00     0.006 C 
HETATM    3  C11 UNL     1      -1.488   6.022  15.125  1.00  0.00     0.011 C 
HETATM    4  C12 UNL     1      -0.985   7.226  14.288  1.00  0.00    -0.029 C 
HETATM    5  C13 UNL     1      -0.463   8.262  15.356  1.00  0.00     0.016 C 
HETATM    6  C14 UNL     1       0.197   7.049  13.265  1.00  0.00     0.028 C 
HETATM    7  C15 UNL     1       0.796   5.706  12.974  1.00  0.00    -0.021 C 
HETATM    8  C16 UNL     1       1.595   5.579  11.901  1.00  0.00     0.008 C 
HETATM    9  C17 UNL     1       1.842   6.731  10.912  1.00  0.00     0.092 C 
HETATM   10  O2  UNL     1       0.755   6.564   9.988  1.00  0.00    -0.374 OA
HETATM   11  C18 UNL     1      -0.398   7.200  10.625  1.00  0.00     0.179 C 
HETATM   12  C19 UNL     1       0.087   7.919  11.944  1.00  0.00    -0.004 C 
HETATM   13  C20 UNL     1      -0.725   9.194  12.198  1.00  0.00     0.014 C 
HETATM   14  C21 UNL     1      -2.126   8.979  12.815  1.00  0.00     0.011 C 
HETATM   15  C22 UNL     1      -2.318   7.649  13.576  1.00  0.00    -0.032 C 
HETATM   16  C23 UNL     1      -2.807   6.521  12.621  1.00  0.00     0.016 C 
HETATM   17  C24 UNL     1       1.526   8.152  11.441  1.00  0.00     0.036 C 
HETATM   18  C25 UNL     1       2.617   8.763  12.318  1.00  0.00     0.011 C 
HETATM   19  C26 UNL     1       3.781   7.815  12.608  1.00  0.00     0.033 C 
HETATM   20  C27 UNL     1       4.307   6.987  11.406  1.00  0.00     0.136 C 
HETATM   21  C34 UNL     1       3.257   6.729  10.267  1.00  0.00     0.014 C 
HETATM   22  C35 UNL     1       3.362   7.787   9.134  1.00  0.00     0.021 C 
HETATM   23  C36 UNL     1       3.584   5.386   9.570  1.00  0.00     0.021 C 
ENDROOT
BRANCH  20  24
HETATM   24  O3  UNL     1       5.471   7.596  10.827  1.00  0.00    -0.352 OA
BRANCH  24  25
HETATM   25  C28 UNL     1       6.461   8.016  11.778  1.00  0.00     0.292 C 
HETATM   26  O4  UNL     1       6.064   7.724  13.108  1.00  0.00    -0.348 OA
HETATM   27  C29 UNL     1       7.114   7.950  14.066  1.00  0.00     0.179 C 
HETATM   28  C31 UNL     1       7.977   9.194  13.729  1.00  0.00     0.180 C 
HETATM   29  C32 UNL     1       7.219  10.211  12.856  1.00  0.00     0.183 C 
HETATM   30  C33 UNL     1       6.621   9.540  11.604  1.00  0.00     0.204 C 
BRANCH  27  31
HETATM   31  C30 UNL     1       6.438   8.054  15.442  1.00  0.00     0.198 C 
BRANCH  31  32
HETATM   32  O5  UNL     1       7.401   7.954  16.494  1.00  0.00    -0.398 OA
HETATM   33  H46 UNL     1       6.940   8.201  17.316  1.00  0.00     0.209 HD
ENDBRANCH  31  32
ENDBRANCH  27  31
BRANCH  28  34
HETATM   34  O6  UNL     1       9.155   8.721  13.041  1.00  0.00    -0.390 OA
HETATM   35  H48 UNL     1       9.310   9.282  12.251  1.00  0.00     0.210 HD
ENDBRANCH  28  34
BRANCH  29  36
HETATM   36  O7  UNL     1       6.203  10.913  13.584  1.00  0.00    -0.390 OA
HETATM   37  H50 UNL     1       5.770  10.281  14.199  1.00  0.00     0.210 HD
ENDBRANCH  29  36
BRANCH  30  38
HETATM   38  O8  UNL     1       7.492   9.785  10.476  1.00  0.00    -0.388 OA
HETATM   39  H52 UNL     1       6.939   9.647   9.679  1.00  0.00     0.210 HD
ENDBRANCH  30  38
ENDBRANCH  24  25
ENDBRANCH  20  24
BRANCH   1  40
HETATM   40  C2  UNL     1      -4.798   8.090  14.668  1.00  0.00    -0.010 C 
HETATM   41  C1  UNL     1      -5.065   9.345  15.533  1.00  0.00     0.010 C 
BRANCH  40  42
HETATM   42  C3  UNL     1      -5.816   6.980  14.996  1.00  0.00     0.031 C 
BRANCH  42  43
HETATM   43  C4  UNL     1      -6.364   6.135  13.871  1.00  0.00    -0.027 C 
HETATM   44  C5  UNL     1      -7.101   5.011  13.961  1.00  0.00     0.006 C 
BRANCH  44  45
HETATM   45  C6  UNL     1      -7.639   4.201  12.801  1.00  0.00     0.068 C 
HETATM   46  C7  UNL     1      -8.432   5.102  11.854  1.00  0.00     0.050 C 
HETATM   47  C8  UNL     1      -6.494   3.510  12.049  1.00  0.00     0.050 C 
BRANCH  45  48
HETATM   48  O1  UNL     1      -8.529   3.185  13.279  1.00  0.00    -0.387 OA
HETATM   49  H15 UNL     1      -7.988   2.585  13.826  1.00  0.00     0.211 HD
ENDBRANCH  45  48
ENDBRANCH  44  45
ENDBRANCH  42  43
ENDBRANCH  40  42
ENDBRANCH   1  40
TORSDOF 12
ENDMDL
MODEL 6
REMARK minimizedAffinity -8.53909492
REMARK CNNscore 0.260736942
REMARK CNNaffinity 7.02426386
REMARK  12 active torsions:
REMARK  status: ('A' for Active; 'I' for Inactive)
REMARK    1  A    between atoms: C2_2  and  C3_3 
REMARK    2  A    between atoms: C2_2  and  C9_10 
REMARK    3  A    between atoms: C3_3  and  C4_4 
REMARK    4  A    between atoms: C5_5  and  C6_6 
REMARK    5  A    between atoms: C6_6  and  O1_9 
REMARK    6  A    between atoms: C27_29  and  O3_30 
REMARK    7  A    between atoms: O3_30  and  C28_31 
REMARK    8  A    between atoms: C29_33  and  C30_34 
REMARK    9  A    between atoms: C30_34  and  O5_35 
REMARK   10  A    between atoms: C31_36  and  O6_37 
REMARK   11  A    between atoms: C32_38  and  O7_39 
REMARK   12  A    between atoms: C33_40  and  O8_41 
ROOT
HETATM    1  C9  UNL     1      -1.056   6.743  13.636  1.00  0.00    -0.002 C 
HETATM    2  C10 UNL     1      -1.006   5.537  14.620  1.00  0.00     0.006 C 
HETATM    3  C11 UNL     1      -2.478   5.238  15.033  1.00  0.00     0.011 C 
HETATM    4  C12 UNL     1      -3.336   6.108  14.079  1.00  0.00    -0.029 C 
HETATM    5  C13 UNL     1      -3.420   5.270  12.745  1.00  0.00     0.016 C 
HETATM    6  C14 UNL     1      -4.824   6.463  14.443  1.00  0.00     0.028 C 
HETATM    7  C15 UNL     1      -5.427   6.084  15.762  1.00  0.00    -0.021 C 
HETATM    8  C16 UNL     1      -6.590   6.652  16.124  1.00  0.00     0.008 C 
HETATM    9  C17 UNL     1      -7.274   7.743  15.282  1.00  0.00     0.092 C 
HETATM   10  O2  UNL     1      -6.657   8.937  15.789  1.00  0.00    -0.374 OA
HETATM   11  C18 UNL     1      -5.375   9.037  15.091  1.00  0.00     0.179 C 
HETATM   12  C19 UNL     1      -5.307   7.905  13.993  1.00  0.00    -0.004 C 
HETATM   13  C20 UNL     1      -4.523   8.384  12.766  1.00  0.00     0.014 C 
HETATM   14  C21 UNL     1      -2.983   8.356  12.908  1.00  0.00     0.011 C 
HETATM   15  C22 UNL     1      -2.434   7.389  13.980  1.00  0.00    -0.032 C 
HETATM   16  C23 UNL     1      -2.330   8.088  15.367  1.00  0.00     0.016 C 
HETATM   17  C24 UNL     1      -6.834   7.824  13.799  1.00  0.00     0.036 C 
HETATM   18  C25 UNL     1      -7.496   6.798  12.881  1.00  0.00     0.011 C 
HETATM   19  C26 UNL     1      -8.392   5.799  13.614  1.00  0.00     0.033 C 
HETATM   20  C27 UNL     1      -9.328   6.388  14.703  1.00  0.00     0.136 C 
HETATM   21  C34 UNL     1      -8.828   7.727  15.355  1.00  0.00     0.014 C 
HETATM   22  C35 UNL     1      -9.438   8.973  14.654  1.00  0.00     0.021 C 
HETATM   23  C36 UNL     1      -9.349   7.810  16.809  1.00  0.00     0.021 C 
ENDROOT
BRANCH  20  24
HETATM   24  O3  UNL     1     -10.654   6.594  14.193  1.00  0.00    -0.352 OA
BRANCH  24  25
HETATM   25  C28 UNL     1     -11.115   7.951  14.261  1.00  0.00     0.292 C 
HETATM   26  O4  UNL     1     -11.976   8.156  15.369  1.00  0.00    -0.348 OA
HETATM   27  C29 UNL     1     -12.295   9.544  15.578  1.00  0.00     0.179 C 
HETATM   28  C31 UNL     1     -12.477  10.326  14.252  1.00  0.00     0.180 C 
HETATM   29  C32 UNL     1     -12.861   9.405  13.079  1.00  0.00     0.183 C 
HETATM   30  C33 UNL     1     -11.880   8.224  12.949  1.00  0.00     0.204 C 
BRANCH  27  31
HETATM   31  C30 UNL     1     -13.551   9.577  16.462  1.00  0.00     0.198 C 
BRANCH  31  32
HETATM   32  O5  UNL     1     -14.631  10.232  15.792  1.00  0.00    -0.398 OA
HETATM   33  H46 UNL     1     -15.430  10.065  16.323  1.00  0.00     0.209 HD
ENDBRANCH  31  32
ENDBRANCH  27  31
BRANCH  28  34
HETATM   34  O6  UNL     1     -11.227  10.994  13.976  1.00  0.00    -0.390 OA
HETATM   35  H48 UNL     1     -10.991  10.854  13.034  1.00  0.00     0.210 HD
ENDBRANCH  28  34
BRANCH  29  36
HETATM   36  O7  UNL     1     -14.210   8.929  13.172  1.00  0.00    -0.390 OA
HETATM   37  H50 UNL     1     -14.406   8.735  14.114  1.00  0.00     0.210 HD
ENDBRANCH  29  36
BRANCH  30  38
HETATM   38  O8  UNL     1     -10.919   8.522  11.910  1.00  0.00    -0.388 OA
HETATM   39  H52 UNL     1     -10.547   7.657  11.636  1.00  0.00     0.210 HD
ENDBRANCH  30  38
ENDBRANCH  24  25
ENDBRANCH  20  24
BRANCH   1  40
HETATM   40  C2  UNL     1       0.252   7.577  13.446  1.00  0.00    -0.010 C 
HETATM   41  C1  UNL     1      -0.022   8.657  12.373  1.00  0.00     0.010 C 
BRANCH  40  42
HETATM   42  C3  UNL     1       1.538   6.796  13.111  1.00  0.00     0.031 C 
BRANCH  42  43
HETATM   43  C4  UNL     1       1.989   6.711  11.671  1.00  0.00    -0.027 C 
HETATM   44  C5  UNL     1       1.547   7.428  10.620  1.00  0.00     0.006 C 
BRANCH  44  45
HETATM   45  C6  UNL     1       2.038   7.315   9.192  1.00  0.00     0.068 C 
HETATM   46  C7  UNL     1       1.034   7.964   8.240  1.00  0.00     0.050 C 
HETATM   47  C8  UNL     1       3.418   7.970   9.043  1.00  0.00     0.050 C 
BRANCH  45  48
HETATM   48  O1  UNL     1       2.161   5.937   8.820  1.00  0.00    -0.387 OA
HETATM   49  H15 UNL     1       2.853   5.561   9.395  1.00  0.00     0.211 HD
ENDBRANCH  45  48
ENDBRANCH  44  45
ENDBRANCH  42  43
ENDBRANCH  40  42
ENDBRANCH   1  40
TORSDOF 12
ENDMDL
MODEL 7
REMARK minimizedAffinity -9.66814518
REMARK CNNscore 0.244379416
REMARK CNNaffinity 6.75847626
REMARK  12 active torsions:
REMARK  status: ('A' for Active; 'I' for Inactive)
REMARK    1  A    between atoms: C2_2  and  C3_3 
REMARK    2  A    between atoms: C2_2  and  C9_10 
REMARK    3  A    between atoms: C3_3  and  C4_4 
REMARK    4  A    between atoms: C5_5  and  C6_6 
REMARK    5  A    between atoms: C6_6  and  O1_9 
REMARK    6  A    between atoms: C27_29  and  O3_30 
REMARK    7  A    between atoms: O3_30  and  C28_31 
REMARK    8  A    between atoms: C29_33  and  C30_34 
REMARK    9  A    between atoms: C30_34  and  O5_35 
REMARK   10  A    between atoms: C31_36  and  O6_37 
REMARK   11  A    between atoms: C32_38  and  O7_39 
REMARK   12  A    between atoms: C33_40  and  O8_41 
ROOT
HETATM    1  C9  UNL     1      -4.479   7.184  14.662  1.00  0.00    -0.002 C 
HETATM    2  C10 UNL     1      -4.107   5.904  15.467  1.00  0.00     0.006 C 
HETATM    3  C11 UNL     1      -2.566   5.720  15.324  1.00  0.00     0.011 C 
HETATM    4  C12 UNL     1      -2.075   7.033  14.663  1.00  0.00    -0.029 C 
HETATM    5  C13 UNL     1      -1.956   8.058  15.856  1.00  0.00     0.016 C 
HETATM    6  C14 UNL     1      -0.687   7.086  13.926  1.00  0.00     0.028 C 
HETATM    7  C15 UNL     1       0.152   5.859  13.731  1.00  0.00    -0.021 C 
HETATM    8  C16 UNL     1       1.175   5.912  12.861  1.00  0.00     0.008 C 
HETATM    9  C17 UNL     1       1.459   7.149  11.993  1.00  0.00     0.092 C 
HETATM   10  O2  UNL     1       0.635   6.898  10.843  1.00  0.00    -0.374 OA
HETATM   11  C18 UNL     1      -0.709   7.329  11.227  1.00  0.00     0.179 C 
HETATM   12  C19 UNL     1      -0.633   8.018  12.645  1.00  0.00    -0.004 C 
HETATM   13  C20 UNL     1      -1.659   9.152  12.754  1.00  0.00     0.014 C 
HETATM   14  C21 UNL     1      -3.114   8.709  13.033  1.00  0.00     0.011 C 
HETATM   15  C22 UNL     1      -3.269   7.318  13.685  1.00  0.00    -0.032 C 
HETATM   16  C23 UNL     1      -3.368   6.199  12.607  1.00  0.00     0.016 C 
HETATM   17  C24 UNL     1       0.830   8.477  12.487  1.00  0.00     0.036 C 
HETATM   18  C25 UNL     1       1.603   9.171  13.607  1.00  0.00     0.011 C 
HETATM   19  C26 UNL     1       2.802   8.372  14.118  1.00  0.00     0.033 C 
HETATM   20  C27 UNL     1       3.693   7.704  13.037  1.00  0.00     0.136 C 
HETATM   21  C34 UNL     1       2.965   7.382  11.682  1.00  0.00     0.014 C 
HETATM   22  C35 UNL     1       3.158   8.517  10.639  1.00  0.00     0.021 C 
HETATM   23  C36 UNL     1       3.629   6.144  11.031  1.00  0.00     0.021 C 
ENDROOT
BRANCH  20  24
HETATM   24  O3  UNL     1       4.853   8.502  12.755  1.00  0.00    -0.352 OA
BRANCH  24  25
HETATM   25  C28 UNL     1       5.782   8.610  13.844  1.00  0.00     0.292 C 
HETATM   26  O4  UNL     1       6.412   9.880  13.869  1.00  0.00    -0.348 OA
HETATM   27  C29 UNL     1       7.196  10.090  15.058  1.00  0.00     0.179 C 
HETATM   28  C31 UNL     1       7.932   8.808  15.528  1.00  0.00     0.180 C 
HETATM   29  C32 UNL     1       8.155   7.809  14.378  1.00  0.00     0.183 C 
HETATM   30  C33 UNL     1       6.840   7.507  13.634  1.00  0.00     0.204 C 
BRANCH  27  31
HETATM   31  C30 UNL     1       8.161  11.246  14.748  1.00  0.00     0.198 C 
BRANCH  31  32
HETATM   32  O5  UNL     1       8.804  11.050  13.486  1.00  0.00    -0.398 OA
HETATM   33  H46 UNL     1       9.256  11.886  13.273  1.00  0.00     0.209 HD
ENDBRANCH  31  32
ENDBRANCH  27  31
BRANCH  28  34
HETATM   34  O6  UNL     1       7.123   8.209  16.563  1.00  0.00    -0.390 OA
HETATM   35  H48 UNL     1       7.046   7.246  16.392  1.00  0.00     0.210 HD
ENDBRANCH  28  34
BRANCH  29  36
HETATM   36  O7  UNL     1       9.164   8.245  13.458  1.00  0.00    -0.390 OA
HETATM   37  H50 UNL     1       9.075   9.215  13.337  1.00  0.00     0.210 HD
ENDBRANCH  29  36
BRANCH  30  38
HETATM   38  O8  UNL     1       6.301   6.255  14.117  1.00  0.00    -0.388 OA
HETATM   39  H52 UNL     1       5.686   5.943  13.420  1.00  0.00     0.210 HD
ENDBRANCH  30  38
ENDBRANCH  24  25
ENDBRANCH  20  24
BRANCH   1  40
HETATM   40  C2  UNL     1      -5.964   7.346  14.207  1.00  0.00    -0.010 C 
HETATM   41  C1  UNL     1      -6.576   8.535  14.985  1.00  0.00     0.010 C 
BRANCH  40  42
HETATM   42  C3  UNL     1      -6.871   6.105  14.317  1.00  0.00     0.031 C 
BRANCH  42  43
HETATM   43  C4  UNL     1      -8.353   6.256  14.065  1.00  0.00    -0.027 C 
HETATM   44  C5  UNL     1      -9.156   7.274  14.428  1.00  0.00     0.006 C 
BRANCH  44  45
HETATM   45  C6  UNL     1     -10.639   7.388  14.144  1.00  0.00     0.068 C 
HETATM   46  C7  UNL     1     -11.176   8.712  14.685  1.00  0.00     0.050 C 
HETATM   47  C8  UNL     1     -10.909   7.275  12.637  1.00  0.00     0.050 C 
BRANCH  45  48
HETATM   48  O1  UNL     1     -11.349   6.331  14.800  1.00  0.00    -0.387 OA
HETATM   49  H15 UNL     1     -11.038   5.501  14.393  1.00  0.00     0.211 HD
ENDBRANCH  45  48
ENDBRANCH  44  45
ENDBRANCH  42  43
ENDBRANCH  40  42
ENDBRANCH   1  40
TORSDOF 12
ENDMDL
MODEL 8
REMARK minimizedAffinity -9.73703289
REMARK CNNscore 0.234539405
REMARK CNNaffinity 6.93985128
REMARK  12 active torsions:
REMARK  status: ('A' for Active; 'I' for Inactive)
REMARK    1  A    between atoms: C2_2  and  C3_3 
REMARK    2  A    between atoms: C2_2  and  C9_10 
REMARK    3  A    between atoms: C3_3  and  C4_4 
REMARK    4  A    between atoms: C5_5  and  C6_6 
REMARK    5  A    between atoms: C6_6  and  O1_9 
REMARK    6  A    between atoms: C27_29  and  O3_30 
REMARK    7  A    between atoms: O3_30  and  C28_31 
REMARK    8  A    between atoms: C29_33  and  C30_34 
REMARK    9  A    between atoms: C30_34  and  O5_35 
REMARK   10  A    between atoms: C31_36  and  O6_37 
REMARK   11  A    between atoms: C32_38  and  O7_39 
REMARK   12  A    between atoms: C33_40  and  O8_41 
ROOT
HETATM    1  C9  UNL     1       0.575   7.709  13.522  1.00  0.00    -0.002 C 
HETATM    2  C10 UNL     1       0.202   9.049  12.822  1.00  0.00     0.006 C 
HETATM    3  C11 UNL     1      -1.350   9.173  12.897  1.00  0.00     0.011 C 
HETATM    4  C12 UNL     1      -1.787   8.038  13.856  1.00  0.00    -0.029 C 
HETATM    5  C13 UNL     1      -1.557   8.628  15.301  1.00  0.00     0.016 C 
HETATM    6  C14 UNL     1      -3.270   7.514  13.850  1.00  0.00     0.028 C 
HETATM    7  C15 UNL     1      -4.275   7.999  12.850  1.00  0.00    -0.021 C 
HETATM    8  C16 UNL     1      -5.426   7.319  12.715  1.00  0.00     0.008 C 
HETATM    9  C17 UNL     1      -5.710   6.013  13.477  1.00  0.00     0.092 C 
HETATM   10  O2  UNL     1      -5.150   5.028  12.594  1.00  0.00    -0.374 OA
HETATM   11  C18 UNL     1      -3.715   5.023  12.879  1.00  0.00     0.179 C 
HETATM   12  C19 UNL     1      -3.442   5.961  14.119  1.00  0.00    -0.004 C 
HETATM   13  C20 UNL     1      -2.282   5.422  14.964  1.00  0.00     0.014 C 
HETATM   14  C21 UNL     1      -0.866   5.716  14.414  1.00  0.00     0.011 C 
HETATM   15  C22 UNL     1      -0.767   6.917  13.447  1.00  0.00    -0.032 C 
HETATM   16  C23 UNL     1      -1.009   6.474  11.975  1.00  0.00     0.016 C 
HETATM   17  C24 UNL     1      -4.841   5.767  14.737  1.00  0.00     0.036 C 
HETATM   18  C25 UNL     1      -5.303   6.515  15.986  1.00  0.00     0.011 C 
HETATM   19  C26 UNL     1      -6.477   7.463  15.741  1.00  0.00     0.033 C 
HETATM   20  C27 UNL     1      -7.628   6.916  14.854  1.00  0.00     0.136 C 
HETATM   21  C34 UNL     1      -7.207   5.794  13.838  1.00  0.00     0.014 C 
HETATM   22  C35 UNL     1      -7.446   4.372  14.417  1.00  0.00     0.021 C 
HETATM   23  C36 UNL     1      -8.127   5.864  12.596  1.00  0.00     0.021 C 
ENDROOT
BRANCH  20  24
HETATM   24  O3  UNL     1      -8.712   6.424  15.657  1.00  0.00    -0.352 OA
BRANCH  24  25
HETATM   25  C28 UNL     1      -9.946   7.138  15.495  1.00  0.00     0.292 C 
HETATM   26  O4  UNL     1     -10.256   7.343  14.126  1.00  0.00    -0.348 OA
HETATM   27  C29 UNL     1     -11.577   7.878  13.927  1.00  0.00     0.179 C 
HETATM   28  C31 UNL     1     -11.978   8.909  15.014  1.00  0.00     0.180 C 
HETATM   29  C32 UNL     1     -10.753   9.561  15.680  1.00  0.00     0.183 C 
HETATM   30  C33 UNL     1      -9.763   8.500  16.197  1.00  0.00     0.204 C 
BRANCH  27  31
HETATM   31  C30 UNL     1     -11.600   8.473  12.511  1.00  0.00     0.198 C 
BRANCH  31  32
HETATM   32  O5  UNL     1     -11.907   9.869  12.547  1.00  0.00    -0.398 OA
HETATM   33  H46 UNL     1     -11.734  10.215  11.653  1.00  0.00     0.209 HD
ENDBRANCH  31  32
ENDBRANCH  27  31
BRANCH  28  34
HETATM   34  O6  UNL     1     -12.768   8.204  15.997  1.00  0.00    -0.390 OA
HETATM   35  H48 UNL     1     -12.452   8.446  16.894  1.00  0.00     0.210 HD
ENDBRANCH  28  34
BRANCH  29  36
HETATM   36  O7  UNL     1     -10.087  10.491  14.817  1.00  0.00    -0.390 OA
HETATM   37  H50 UNL     1     -10.091  10.125  13.905  1.00  0.00     0.210 HD
ENDBRANCH  29  36
BRANCH  30  38
HETATM   38  O8  UNL     1      -9.968   8.315  17.617  1.00  0.00    -0.388 OA
HETATM   39  H52 UNL     1      -9.141   7.912  17.955  1.00  0.00     0.210 HD
ENDBRANCH  30  38
ENDBRANCH  24  25
ENDBRANCH  20  24
BRANCH   1  40
HETATM   40  C2  UNL     1       1.960   7.074  13.177  1.00  0.00    -0.010 C 
HETATM   41  C1  UNL     1       3.034   7.768  14.047  1.00  0.00     0.010 C 
BRANCH  40  42
HETATM   42  C3  UNL     1       2.381   7.073  11.694  1.00  0.00     0.031 C 
BRANCH  42  43
HETATM   43  C4  UNL     1       3.851   6.994  11.351  1.00  0.00    -0.027 C 
HETATM   44  C5  UNL     1       4.904   7.250  12.150  1.00  0.00     0.006 C 
BRANCH  44  45
HETATM   45  C6  UNL     1       6.364   7.147  11.763  1.00  0.00     0.068 C 
HETATM   46  C7  UNL     1       7.249   7.424  12.979  1.00  0.00     0.050 C 
HETATM   47  C8  UNL     1       6.671   5.760  11.182  1.00  0.00     0.050 C 
BRANCH  45  48
HETATM   48  O1  UNL     1       6.681   8.124  10.765  1.00  0.00    -0.387 OA
HETATM   49  H15 UNL     1       6.155   7.888   9.978  1.00  0.00     0.211 HD
ENDBRANCH  45  48
ENDBRANCH  44  45
ENDBRANCH  42  43
ENDBRANCH  40  42
ENDBRANCH   1  40
TORSDOF 12
ENDMDL
MODEL 9
REMARK minimizedAffinity -9.11794758
REMARK CNNscore 0.228535637
REMARK CNNaffinity 6.69135141
REMARK  12 active torsions:
REMARK  status: ('A' for Active; 'I' for Inactive)
REMARK    1  A    between atoms: C2_2  and  C3_3 
REMARK    2  A    between atoms: C2_2  and  C9_10 
REMARK    3  A    between atoms: C3_3  and  C4_4 
REMARK    4  A    between atoms: C5_5  and  C6_6 
REMARK    5  A    between atoms: C6_6  and  O1_9 
REMARK    6  A    between atoms: C27_29  and  O3_30 
REMARK    7  A    between atoms: O3_30  and  C28_31 
REMARK    8  A    between atoms: C29_33  and  C30_34 
REMARK    9  A    between atoms: C30_34  and  O5_35 
REMARK   10  A    between atoms: C31_36  and  O6_37 
REMARK   11  A    between atoms: C32_38  and  O7_39 
REMARK   12  A    between atoms: C33_40  and  O8_41 
ROOT
HETATM    1  C9  UNL     1      -2.706   7.526  13.899  1.00  0.00    -0.002 C 
HETATM    2  C10 UNL     1      -2.363   7.062  15.345  1.00  0.00     0.006 C 
HETATM    3  C11 UNL     1      -0.825   7.249  15.519  1.00  0.00     0.011 C 
HETATM    4  C12 UNL     1      -0.384   8.050  14.268  1.00  0.00    -0.029 C 
HETATM    5  C13 UNL     1      -0.722   9.551  14.617  1.00  0.00     0.016 C 
HETATM    6  C14 UNL     1       1.121   8.055  13.812  1.00  0.00     0.028 C 
HETATM    7  C15 UNL     1       2.153   7.203  14.487  1.00  0.00    -0.021 C 
HETATM    8  C16 UNL     1       3.342   7.037  13.884  1.00  0.00     0.008 C 
HETATM    9  C17 UNL     1       3.649   7.607  12.488  1.00  0.00     0.092 C 
HETATM   10  O2  UNL     1       3.187   6.552  11.630  1.00  0.00    -0.374 OA
HETATM   11  C18 UNL     1       1.741   6.745  11.522  1.00  0.00     0.179 C 
HETATM   12  C19 UNL     1       1.355   8.094  12.245  1.00  0.00    -0.004 C 
HETATM   13  C20 UNL     1       0.179   8.774  11.535  1.00  0.00     0.014 C 
HETATM   14  C21 UNL     1      -1.217   8.190  11.852  1.00  0.00     0.011 C 
HETATM   15  C22 UNL     1      -1.323   7.413  13.183  1.00  0.00    -0.032 C 
HETATM   16  C23 UNL     1      -0.981   5.908  12.983  1.00  0.00     0.016 C 
HETATM   17  C24 UNL     1       2.727   8.759  12.015  1.00  0.00     0.036 C 
HETATM   18  C25 UNL     1       3.083  10.134  12.579  1.00  0.00     0.011 C 
HETATM   19  C26 UNL     1       4.220  10.107  13.601  1.00  0.00     0.033 C 
HETATM   20  C27 UNL     1       5.442   9.220  13.245  1.00  0.00     0.136 C 
HETATM   21  C34 UNL     1       5.134   8.021  12.278  1.00  0.00     0.014 C 
HETATM   22  C35 UNL     1       5.412   8.390  10.794  1.00  0.00     0.021 C 
HETATM   23  C36 UNL     1       6.115   6.862  12.577  1.00  0.00     0.021 C 
ENDROOT
BRANCH  20  24
HETATM   24  O3  UNL     1       6.505  10.003  12.679  1.00  0.00    -0.352 OA
BRANCH  24  25
HETATM   25  C28 UNL     1       7.808   9.708  13.205  1.00  0.00     0.292 C 
HETATM   26  O4  UNL     1       7.729   9.002  14.432  1.00  0.00    -0.348 OA
HETATM   27  C29 UNL     1       9.008   8.521  14.882  1.00  0.00     0.179 C 
HETATM   28  C31 UNL     1      10.162   9.515  14.589  1.00  0.00     0.180 C 
HETATM   29  C32 UNL     1       9.661  10.964  14.448  1.00  0.00     0.183 C 
HETATM   30  C33 UNL     1       8.511  11.064  13.428  1.00  0.00     0.204 C 
BRANCH  27  31
HETATM   31  C30 UNL     1       8.859   8.213  16.380  1.00  0.00     0.198 C 
BRANCH  31  32
HETATM   32  O5  UNL     1       7.481   8.095  16.742  1.00  0.00    -0.398 OA
HETATM   33  H46 UNL     1       7.461   7.731  17.646  1.00  0.00     0.209 HD
ENDBRANCH  31  32
ENDBRANCH  27  31
BRANCH  28  34
HETATM   34  O6  UNL     1      10.796   9.082  13.367  1.00  0.00    -0.390 OA
HETATM   35  H48 UNL     1      10.929   9.859  12.783  1.00  0.00     0.210 HD
ENDBRANCH  28  34
BRANCH  29  36
HETATM   36  O7  UNL     1       9.271  11.537  15.703  1.00  0.00    -0.390 OA
HETATM   37  H50 UNL     1       8.817  10.844  16.232  1.00  0.00     0.210 HD
ENDBRANCH  29  36
BRANCH  30  38
HETATM   38  O8  UNL     1       9.041  11.520  12.162  1.00  0.00    -0.388 OA
HETATM   39  H52 UNL     1       8.275  11.880  11.667  1.00  0.00     0.210 HD
ENDBRANCH  30  38
ENDBRANCH  24  25
ENDBRANCH  20  24
BRANCH   1  40
HETATM   40  C2  UNL     1      -4.037   7.004  13.268  1.00  0.00    -0.010 C 
HETATM   41  C1  UNL     1      -5.113   8.100  13.448  1.00  0.00     0.010 C 
BRANCH  40  42
HETATM   42  C3  UNL     1      -4.562   5.643  13.765  1.00  0.00     0.031 C 
BRANCH  42  43
HETATM   43  C4  UNL     1      -4.425   4.434  12.870  1.00  0.00    -0.027 C 
HETATM   44  C5  UNL     1      -5.285   3.996  11.931  1.00  0.00     0.006 C 
BRANCH  44  45
HETATM   45  C6  UNL     1      -5.099   2.780  11.047  1.00  0.00     0.068 C 
HETATM   46  C7  UNL     1      -6.021   1.652  11.508  1.00  0.00     0.050 C 
HETATM   47  C8  UNL     1      -5.377   3.133   9.579  1.00  0.00     0.050 C 
BRANCH  45  48
HETATM   48  O1  UNL     1      -3.752   2.304  11.139  1.00  0.00    -0.387 OA
HETATM   49  H15 UNL     1      -3.187   3.014  10.779  1.00  0.00     0.211 HD
ENDBRANCH  45  48
ENDBRANCH  44  45
ENDBRANCH  42  43
ENDBRANCH  40  42
ENDBRANCH   1  40
TORSDOF 12
ENDMDL
