MODEL 1
REMARK minimizedAffinity -9.74520302
REMARK  7 active torsions:
REMARK  status: ('A' for Active; 'I' for Inactive)
REMARK    1  A    between atoms: C2_2  and  C30_33 
REMARK    2  A    between atoms: C3_3  and  C4_4 
REMARK    3  A    between atoms: C4_4  and  C5_5 
REMARK    4  A    between atoms: C5_5  and  C6_6 
REMARK    5  A    between atoms: C6_6  and  C8_8 
REMARK    6  A    between atoms: C19_20  and  O2_21 
REMARK    7  A    between atoms: C30_33  and  O5_35 
ROOT
HETATM    1  C8  UNL     1      -0.585  52.195 -20.431  1.00  0.00    -0.002 C 
HETATM    2  C9  UNL     1       0.077  51.630 -19.144  1.00  0.00     0.007 C 
HETATM    3  C10 UNL     1      -0.841  50.484 -18.647  1.00  0.00     0.018 C 
HETATM    4  C11 UNL     1      -2.117  50.613 -19.497  1.00  0.00     0.025 C 
HETATM    5  C12 UNL     1      -3.009  51.658 -18.772  1.00  0.00     0.024 C 
HETATM    6  C13 UNL     1      -2.958  49.343 -19.692  1.00  0.00     0.147 C 
HETATM    7  O1  UNL     1      -2.818  48.394 -18.918  1.00  0.00    -0.296 OA
HETATM    8  C14 UNL     1      -4.064  49.352 -20.819  1.00  0.00     0.055 C 
HETATM    9  C15 UNL     1      -3.577  50.178 -22.058  1.00  0.00     0.021 C 
HETATM   10  C16 UNL     1      -2.670  51.397 -21.810  1.00  0.00     0.012 C 
HETATM   11  C17 UNL     1      -1.516  51.031 -20.872  1.00  0.00    -0.026 C 
HETATM   12  C18 UNL     1      -0.678  49.897 -21.536  1.00  0.00     0.016 C 
HETATM   13  C19 UNL     1      -5.364  49.910 -20.128  1.00  0.00     0.135 C 
HETATM   14  C20 UNL     1      -6.372  48.756 -19.973  1.00  0.00     0.039 C 
HETATM   15  C21 UNL     1      -5.518  47.502 -20.110  1.00  0.00     0.012 C 
HETATM   16  C22 UNL     1      -6.239  46.133 -20.237  1.00  0.00     0.018 C 
HETATM   17  C23 UNL     1      -6.500  45.559 -18.827  1.00  0.00     0.023 C 
HETATM   18  C24 UNL     1      -7.594  46.189 -20.959  1.00  0.00     0.023 C 
HETATM   19  C25 UNL     1      -5.283  45.161 -20.948  1.00  0.00     0.135 C 
HETATM   20  O3  UNL     1      -5.687  44.168 -21.555  1.00  0.00    -0.297 OA
HETATM   21  C26 UNL     1      -3.799  45.444 -20.815  1.00  0.00     0.080 C 
HETATM   22  C27 UNL     1      -3.414  46.810 -21.388  1.00  0.00     0.018 C 
HETATM   23  C28 UNL     1      -4.534  47.879 -21.257  1.00  0.00    -0.022 C 
HETATM   24  C29 UNL     1      -5.259  47.913 -22.640  1.00  0.00     0.017 C 
ENDROOT
BRANCH  13  25
HETATM   25  O2  UNL     1      -5.954  51.006 -20.809  1.00  0.00    -0.394 OA
HETATM   26  H29 UNL     1      -6.412  50.676 -21.599  1.00  0.00     0.210 HD
ENDBRANCH  13  25
BRANCH   1  27
HETATM   27  C6  UNL     1       0.360  52.869 -21.469  1.00  0.00    -0.014 C 
HETATM   28  C7  UNL     1       1.683  53.230 -20.764  1.00  0.00     0.010 C 
BRANCH  27  29
HETATM   29  C5  UNL     1       0.661  52.053 -22.748  1.00  0.00     0.008 C 
BRANCH  29  30
HETATM   30  C4  UNL     1       0.128  52.707 -24.031  1.00  0.00     0.028 C 
BRANCH  30  31
HETATM   31  C3  UNL     1       0.840  52.184 -25.251  1.00  0.00    -0.013 C 
HETATM   32  C2  UNL     1       0.651  52.525 -26.542  1.00  0.00     0.008 C 
HETATM   33  C1  UNL     1       1.441  51.878 -27.644  1.00  0.00     0.055 C 
BRANCH  32  34
HETATM   34  C30 UNL     1      -0.299  53.593 -26.940  1.00  0.00     0.171 C 
HETATM   35  O4  UNL     1      -1.404  53.458 -27.436  1.00  0.00    -0.646 OA
BRANCH  34  36
HETATM   36  O5  UNL     1       0.185  54.818 -26.667  1.00  0.00    -0.773 OA
HETATM   37  H46 UNL     1      -0.535  55.412 -26.959  1.00  0.00     0.167 HD
ENDBRANCH  34  36
ENDBRANCH  32  34
ENDBRANCH  30  31
ENDBRANCH  29  30
ENDBRANCH  27  29
ENDBRANCH   1  27
TORSDOF 7
ENDMDL
MODEL 2
REMARK minimizedAffinity -9.57507515
REMARK  7 active torsions:
REMARK  status: ('A' for Active; 'I' for Inactive)
REMARK    1  A    between atoms: C2_2  and  C30_33 
REMARK    2  A    between atoms: C3_3  and  C4_4 
REMARK    3  A    between atoms: C4_4  and  C5_5 
REMARK    4  A    between atoms: C5_5  and  C6_6 
REMARK    5  A    between atoms: C6_6  and  C8_8 
REMARK    6  A    between atoms: C19_20  and  O2_21 
REMARK    7  A    between atoms: C30_33  and  O5_35 
ROOT
HETATM    1  C8  UNL     1      -3.661  50.399 -25.255  1.00  0.00    -0.002 C 
HETATM    2  C9  UNL     1      -3.950  51.917 -25.092  1.00  0.00     0.007 C 
HETATM    3  C10 UNL     1      -3.952  52.200 -23.569  1.00  0.00     0.018 C 
HETATM    4  C11 UNL     1      -3.937  50.807 -22.914  1.00  0.00     0.025 C 
HETATM    5  C12 UNL     1      -5.421  50.353 -22.844  1.00  0.00     0.024 C 
HETATM    6  C13 UNL     1      -3.354  50.707 -21.497  1.00  0.00     0.147 C 
HETATM    7  O1  UNL     1      -3.258  51.721 -20.805  1.00  0.00    -0.296 OA
HETATM    8  C14 UNL     1      -3.008  49.271 -20.938  1.00  0.00     0.055 C 
HETATM    9  C15 UNL     1      -2.466  48.352 -22.085  1.00  0.00     0.021 C 
HETATM   10  C16 UNL     1      -3.029  48.550 -23.504  1.00  0.00     0.012 C 
HETATM   11  C17 UNL     1      -3.007  50.031 -23.894  1.00  0.00    -0.026 C 
HETATM   12  C18 UNL     1      -1.532  50.533 -23.855  1.00  0.00     0.016 C 
HETATM   13  C19 UNL     1      -4.331  48.756 -20.255  1.00  0.00     0.135 C 
HETATM   14  C20 UNL     1      -4.125  48.753 -18.728  1.00  0.00     0.039 C 
HETATM   15  C21 UNL     1      -2.936  49.680 -18.516  1.00  0.00     0.012 C 
HETATM   16  C22 UNL     1      -2.293  49.739 -17.104  1.00  0.00     0.018 C 
HETATM   17  C23 UNL     1      -3.021  50.804 -16.255  1.00  0.00     0.023 C 
HETATM   18  C24 UNL     1      -2.352  48.419 -16.320  1.00  0.00     0.023 C 
HETATM   19  C25 UNL     1      -0.839  50.210 -17.267  1.00  0.00     0.135 C 
HETATM   20  O3  UNL     1       0.030  49.965 -16.429  1.00  0.00    -0.297 OA
HETATM   21  C26 UNL     1      -0.528  51.055 -18.487  1.00  0.00     0.080 C 
HETATM   22  C27 UNL     1      -0.814  50.315 -19.795  1.00  0.00     0.018 C 
HETATM   23  C28 UNL     1      -1.990  49.304 -19.695  1.00  0.00    -0.022 C 
HETATM   24  C29 UNL     1      -1.335  47.904 -19.474  1.00  0.00     0.017 C 
ENDROOT
BRANCH  13  25
HETATM   25  O2  UNL     1      -4.756  47.481 -20.709  1.00  0.00    -0.394 OA
HETATM   26  H29 UNL     1      -4.185  46.800 -20.315  1.00  0.00     0.210 HD
ENDBRANCH  13  25
BRANCH   1  27
HETATM   27  C6  UNL     1      -2.986  49.952 -26.586  1.00  0.00    -0.014 C 
HETATM   28  C7  UNL     1      -3.669  48.656 -27.068  1.00  0.00     0.010 C 
BRANCH  27  29
HETATM   29  C5  UNL     1      -2.980  50.991 -27.731  1.00  0.00     0.008 C 
BRANCH  29  30
HETATM   30  C4  UNL     1      -1.902  52.073 -27.571  1.00  0.00     0.028 C 
BRANCH  30  31
HETATM   31  C3  UNL     1      -0.563  51.469 -27.237  1.00  0.00    -0.013 C 
HETATM   32  C2  UNL     1       0.501  52.059 -26.654  1.00  0.00     0.008 C 
HETATM   33  C1  UNL     1       1.778  51.304 -26.416  1.00  0.00     0.055 C 
BRANCH  32  34
HETATM   34  C30 UNL     1       0.450  53.458 -26.165  1.00  0.00     0.171 C 
HETATM   35  O4  UNL     1       0.122  54.452 -26.789  1.00  0.00    -0.646 OA
BRANCH  34  36
HETATM   36  O5  UNL     1       0.802  53.546 -24.870  1.00  0.00    -0.773 OA
HETATM   37  H46 UNL     1       0.710  54.502 -24.680  1.00  0.00     0.167 HD
ENDBRANCH  34  36
ENDBRANCH  32  34
ENDBRANCH  30  31
ENDBRANCH  29  30
ENDBRANCH  27  29
ENDBRANCH   1  27
TORSDOF 7
ENDMDL
MODEL 3
REMARK minimizedAffinity -9.31734753
REMARK  7 active torsions:
REMARK  status: ('A' for Active; 'I' for Inactive)
REMARK    1  A    between atoms: C2_2  and  C30_33 
REMARK    2  A    between atoms: C3_3  and  C4_4 
REMARK    3  A    between atoms: C4_4  and  C5_5 
REMARK    4  A    between atoms: C5_5  and  C6_6 
REMARK    5  A    between atoms: C6_6  and  C8_8 
REMARK    6  A    between atoms: C19_20  and  O2_21 
REMARK    7  A    between atoms: C30_33  and  O5_35 
ROOT
HETATM    1  C8  UNL     1      -3.661  50.796 -25.486  1.00  0.00    -0.002 C 
HETATM    2  C9  UNL     1      -3.545  52.328 -25.257  1.00  0.00     0.007 C 
HETATM    3  C10 UNL     1      -3.443  52.535 -23.725  1.00  0.00     0.018 C 
HETATM    4  C11 UNL     1      -3.776  51.158 -23.123  1.00  0.00     0.025 C 
HETATM    5  C12 UNL     1      -5.325  51.099 -23.024  1.00  0.00     0.024 C 
HETATM    6  C13 UNL     1      -3.210  50.849 -21.730  1.00  0.00     0.147 C 
HETATM    7  O1  UNL     1      -2.841  51.772 -21.003  1.00  0.00    -0.296 OA
HETATM    8  C14 UNL     1      -3.236  49.349 -21.236  1.00  0.00     0.055 C 
HETATM    9  C15 UNL     1      -2.973  48.373 -22.432  1.00  0.00     0.021 C 
HETATM   10  C16 UNL     1      -3.494  48.771 -23.825  1.00  0.00     0.012 C 
HETATM   11  C17 UNL     1      -3.098  50.212 -24.160  1.00  0.00    -0.026 C 
HETATM   12  C18 UNL     1      -1.543  50.315 -24.147  1.00  0.00     0.016 C 
HETATM   13  C19 UNL     1      -4.632  49.162 -20.531  1.00  0.00     0.135 C 
HETATM   14  C20 UNL     1      -4.404  49.039 -19.013  1.00  0.00     0.039 C 
HETATM   15  C21 UNL     1      -3.011  49.619 -18.803  1.00  0.00     0.012 C 
HETATM   16  C22 UNL     1      -2.347  49.448 -17.410  1.00  0.00     0.018 C 
HETATM   17  C23 UNL     1      -2.757  50.626 -16.500  1.00  0.00     0.023 C 
HETATM   18  C24 UNL     1      -2.730  48.154 -16.674  1.00  0.00     0.023 C 
HETATM   19  C25 UNL     1      -0.824  49.536 -17.600  1.00  0.00     0.135 C 
HETATM   20  O3  UNL     1      -0.032  49.038 -16.799  1.00  0.00    -0.297 OA
HETATM   21  C26 UNL     1      -0.330  50.325 -18.797  1.00  0.00     0.080 C 
HETATM   22  C27 UNL     1      -0.824  49.741 -20.123  1.00  0.00     0.018 C 
HETATM   23  C28 UNL     1      -2.219  49.064 -20.024  1.00  0.00    -0.022 C 
HETATM   24  C29 UNL     1      -1.944  47.534 -19.876  1.00  0.00     0.017 C 
ENDROOT
BRANCH  13  25
HETATM   25  O2  UNL     1      -5.382  48.061 -21.020  1.00  0.00    -0.394 OA
HETATM   26  H29 UNL     1      -4.999  47.240 -20.669  1.00  0.00     0.210 HD
ENDBRANCH  13  25
BRANCH   1  27
HETATM   27  C6  UNL     1      -3.152  50.249 -26.852  1.00  0.00    -0.014 C 
HETATM   28  C7  UNL     1      -1.713  50.753 -27.074  1.00  0.00     0.010 C 
BRANCH  27  29
HETATM   29  C5  UNL     1      -3.198  48.714 -27.033  1.00  0.00     0.008 C 
BRANCH  29  30
HETATM   30  C4  UNL     1      -4.611  48.168 -27.286  1.00  0.00     0.028 C 
BRANCH  30  31
HETATM   31  C3  UNL     1      -4.932  48.140 -28.757  1.00  0.00    -0.013 C 
HETATM   32  C2  UNL     1      -6.132  47.967 -29.349  1.00  0.00     0.008 C 
HETATM   33  C1  UNL     1      -6.268  47.942 -30.845  1.00  0.00     0.055 C 
BRANCH  32  34
HETATM   34  C30 UNL     1      -7.385  47.851 -28.562  1.00  0.00     0.171 C 
HETATM   35  O4  UNL     1      -7.733  46.923 -27.853  1.00  0.00    -0.646 OA
BRANCH  34  36
HETATM   36  O5  UNL     1      -8.155  48.946 -28.687  1.00  0.00    -0.773 OA
HETATM   37  H46 UNL     1      -8.923  48.743 -28.116  1.00  0.00     0.167 HD
ENDBRANCH  34  36
ENDBRANCH  32  34
ENDBRANCH  30  31
ENDBRANCH  29  30
ENDBRANCH  27  29
ENDBRANCH   1  27
TORSDOF 7
ENDMDL
MODEL 4
REMARK minimizedAffinity -9.20620537
REMARK  7 active torsions:
REMARK  status: ('A' for Active; 'I' for Inactive)
REMARK    1  A    between atoms: C2_2  and  C30_33 
REMARK    2  A    between atoms: C3_3  and  C4_4 
REMARK    3  A    between atoms: C4_4  and  C5_5 
REMARK    4  A    between atoms: C5_5  and  C6_6 
REMARK    5  A    between atoms: C6_6  and  C8_8 
REMARK    6  A    between atoms: C19_20  and  O2_21 
REMARK    7  A    between atoms: C30_33  and  O5_35 
ROOT
HETATM    1  C8  UNL     1      -5.227  48.992 -20.874  1.00  0.00    -0.002 C 
HETATM    2  C9  UNL     1      -4.067  48.778 -19.863  1.00  0.00     0.007 C 
HETATM    3  C10 UNL     1      -2.755  49.068 -20.636  1.00  0.00     0.018 C 
HETATM    4  C11 UNL     1      -3.187  49.168 -22.110  1.00  0.00     0.025 C 
HETATM    5  C12 UNL     1      -3.198  47.711 -22.651  1.00  0.00     0.024 C 
HETATM    6  C13 UNL     1      -2.297  50.002 -23.044  1.00  0.00     0.147 C 
HETATM    7  O1  UNL     1      -1.136  50.252 -22.717  1.00  0.00    -0.296 OA
HETATM    8  C14 UNL     1      -2.879  50.408 -24.454  1.00  0.00     0.055 C 
HETATM    9  C15 UNL     1      -4.414  50.703 -24.350  1.00  0.00     0.021 C 
HETATM   10  C16 UNL     1      -5.245  49.891 -23.340  1.00  0.00     0.012 C 
HETATM   11  C17 UNL     1      -4.566  49.878 -21.966  1.00  0.00    -0.026 C 
HETATM   12  C18 UNL     1      -4.440  51.347 -21.461  1.00  0.00     0.016 C 
HETATM   13  C19 UNL     1      -2.503  49.223 -25.422  1.00  0.00     0.135 C 
HETATM   14  C20 UNL     1      -1.410  49.709 -26.391  1.00  0.00     0.039 C 
HETATM   15  C21 UNL     1      -0.833  50.942 -25.706  1.00  0.00     0.012 C 
HETATM   16  C22 UNL     1       0.148  51.837 -26.510  1.00  0.00     0.018 C 
HETATM   17  C23 UNL     1       1.587  51.309 -26.331  1.00  0.00     0.023 C 
HETATM   18  C24 UNL     1      -0.128  51.891 -28.021  1.00  0.00     0.023 C 
HETATM   19  C25 UNL     1       0.107  53.247 -25.900  1.00  0.00     0.135 C 
HETATM   20  O3  UNL     1       0.428  54.250 -26.539  1.00  0.00    -0.297 OA
HETATM   21  C26 UNL     1      -0.291  53.348 -24.439  1.00  0.00     0.080 C 
HETATM   22  C27 UNL     1      -1.697  52.803 -24.181  1.00  0.00     0.018 C 
HETATM   23  C28 UNL     1      -2.100  51.641 -25.129  1.00  0.00    -0.022 C 
HETATM   24  C29 UNL     1      -2.957  52.288 -26.263  1.00  0.00     0.017 C 
ENDROOT
BRANCH  13  25
HETATM   25  O2  UNL     1      -3.607  48.688 -26.134  1.00  0.00    -0.394 OA
HETATM   26  H29 UNL     1      -3.852  49.303 -26.844  1.00  0.00     0.210 HD
ENDBRANCH  13  25
BRANCH   1  27
HETATM   27  C6  UNL     1      -6.610  49.395 -20.281  1.00  0.00    -0.014 C 
HETATM   28  C7  UNL     1      -7.670  49.286 -21.395  1.00  0.00     0.010 C 
BRANCH  27  29
HETATM   29  C5  UNL     1      -7.078  48.600 -19.040  1.00  0.00     0.008 C 
BRANCH  29  30
HETATM   30  C4  UNL     1      -8.247  49.260 -18.295  1.00  0.00     0.028 C 
BRANCH  30  31
HETATM   31  C3  UNL     1      -9.567  48.654 -18.697  1.00  0.00    -0.013 C 
HETATM   32  C2  UNL     1     -10.345  47.802 -17.998  1.00  0.00     0.008 C 
HETATM   33  C1  UNL     1     -11.631  47.273 -18.568  1.00  0.00     0.055 C 
BRANCH  32  34
HETATM   34  C30 UNL     1     -10.007  47.388 -16.614  1.00  0.00     0.171 C 
HETATM   35  O4  UNL     1      -9.506  46.337 -16.255  1.00  0.00    -0.646 OA
BRANCH  34  36
HETATM   36  O5  UNL     1     -10.302  48.349 -15.721  1.00  0.00    -0.773 OA
HETATM   37  H46 UNL     1     -10.019  47.955 -14.871  1.00  0.00     0.167 HD
ENDBRANCH  34  36
ENDBRANCH  32  34
ENDBRANCH  30  31
ENDBRANCH  29  30
ENDBRANCH  27  29
ENDBRANCH   1  27
TORSDOF 7
ENDMDL
MODEL 5
REMARK minimizedAffinity -9.13166332
REMARK  7 active torsions:
REMARK  status: ('A' for Active; 'I' for Inactive)
REMARK    1  A    between atoms: C2_2  and  C30_33 
REMARK    2  A    between atoms: C3_3  and  C4_4 
REMARK    3  A    between atoms: C4_4  and  C5_5 
REMARK    4  A    between atoms: C5_5  and  C6_6 
REMARK    5  A    between atoms: C6_6  and  C8_8 
REMARK    6  A    between atoms: C19_20  and  O2_21 
REMARK    7  A    between atoms: C30_33  and  O5_35 
ROOT
HETATM    1  C8  UNL     1      -1.013  51.105 -20.518  1.00  0.00    -0.002 C 
HETATM    2  C9  UNL     1      -0.101  49.921 -20.945  1.00  0.00     0.007 C 
HETATM    3  C10 UNL     1      -1.049  48.777 -21.387  1.00  0.00     0.018 C 
HETATM    4  C11 UNL     1      -2.449  49.239 -20.944  1.00  0.00     0.025 C 
HETATM    5  C12 UNL     1      -2.593  48.802 -19.460  1.00  0.00     0.024 C 
HETATM    6  C13 UNL     1      -3.648  48.669 -21.714  1.00  0.00     0.147 C 
HETATM    7  O1  UNL     1      -3.513  47.640 -22.378  1.00  0.00    -0.296 OA
HETATM    8  C14 UNL     1      -5.051  49.368 -21.524  1.00  0.00     0.055 C 
HETATM    9  C15 UNL     1      -4.875  50.917 -21.367  1.00  0.00     0.021 C 
HETATM   10  C16 UNL     1      -3.613  51.437 -20.656  1.00  0.00     0.012 C 
HETATM   11  C17 UNL     1      -2.356  50.769 -21.224  1.00  0.00    -0.026 C 
HETATM   12  C18 UNL     1      -2.261  51.102 -22.743  1.00  0.00     0.016 C 
HETATM   13  C19 UNL     1      -5.714  48.654 -20.286  1.00  0.00     0.135 C 
HETATM   14  C20 UNL     1      -6.879  47.781 -20.788  1.00  0.00     0.039 C 
HETATM   15  C21 UNL     1      -6.595  47.609 -22.275  1.00  0.00     0.012 C 
HETATM   16  C22 UNL     1      -7.695  46.969 -23.164  1.00  0.00     0.018 C 
HETATM   17  C23 UNL     1      -7.529  45.434 -23.158  1.00  0.00     0.023 C 
HETATM   18  C24 UNL     1      -9.134  47.270 -22.715  1.00  0.00     0.023 C 
HETATM   19  C25 UNL     1      -7.467  47.441 -24.609  1.00  0.00     0.135 C 
HETATM   20  O3  UNL     1      -8.371  47.458 -25.446  1.00  0.00    -0.297 OA
HETATM   21  C26 UNL     1      -6.049  47.829 -24.985  1.00  0.00     0.080 C 
HETATM   22  C27 UNL     1      -5.522  48.991 -24.140  1.00  0.00     0.018 C 
HETATM   23  C28 UNL     1      -6.095  49.023 -22.697  1.00  0.00    -0.022 C 
HETATM   24  C29 UNL     1      -7.266  50.056 -22.722  1.00  0.00     0.017 C 
ENDROOT
BRANCH  13  25
HETATM   25  O2  UNL     1      -6.151  49.545 -19.273  1.00  0.00    -0.394 OA
HETATM   26  H29 UNL     1      -6.968  49.980 -19.567  1.00  0.00     0.210 HD
ENDBRANCH  13  25
BRANCH   1  27
HETATM   27  C6  UNL     1      -0.409  52.535 -20.639  1.00  0.00    -0.014 C 
HETATM   28  C7  UNL     1      -0.136  53.072 -19.219  1.00  0.00     0.010 C 
BRANCH  27  29
HETATM   29  C5  UNL     1       0.869  52.666 -21.498  1.00  0.00     0.008 C 
BRANCH  29  30
HETATM   30  C4  UNL     1       0.615  53.265 -22.889  1.00  0.00     0.028 C 
BRANCH  30  31
HETATM   31  C3  UNL     1       0.769  52.228 -23.970  1.00  0.00    -0.013 C 
HETATM   32  C2  UNL     1       0.401  52.306 -25.265  1.00  0.00     0.008 C 
HETATM   33  C1  UNL     1       0.611  51.155 -26.207  1.00  0.00     0.055 C 
BRANCH  32  34
HETATM   34  C30 UNL     1      -0.175  53.546 -25.842  1.00  0.00     0.171 C 
HETATM   35  O4  UNL     1       0.207  54.691 -25.673  1.00  0.00    -0.646 OA
BRANCH  34  36
HETATM   36  O5  UNL     1      -1.221  53.282 -26.645  1.00  0.00    -0.773 OA
HETATM   37  H46 UNL     1      -1.486  54.169 -26.962  1.00  0.00     0.167 HD
ENDBRANCH  34  36
ENDBRANCH  32  34
ENDBRANCH  30  31
ENDBRANCH  29  30
ENDBRANCH  27  29
ENDBRANCH   1  27
TORSDOF 7
ENDMDL
MODEL 6
REMARK minimizedAffinity -9.11943054
REMARK  7 active torsions:
REMARK  status: ('A' for Active; 'I' for Inactive)
REMARK    1  A    between atoms: C2_2  and  C30_33 
REMARK    2  A    between atoms: C3_3  and  C4_4 
REMARK    3  A    between atoms: C4_4  and  C5_5 
REMARK    4  A    between atoms: C5_5  and  C6_6 
REMARK    5  A    between atoms: C6_6  and  C8_8 
REMARK    6  A    between atoms: C19_20  and  O2_21 
REMARK    7  A    between atoms: C30_33  and  O5_35 
ROOT
HETATM    1  C8  UNL     1      -1.613  51.217 -22.066  1.00  0.00    -0.002 C 
HETATM    2  C9  UNL     1      -0.577  50.699 -21.031  1.00  0.00     0.007 C 
HETATM    3  C10 UNL     1      -1.332  49.699 -20.119  1.00  0.00     0.018 C 
HETATM    4  C11 UNL     1      -2.816  49.884 -20.484  1.00  0.00     0.025 C 
HETATM    5  C12 UNL     1      -3.322  51.073 -19.621  1.00  0.00     0.024 C 
HETATM    6  C13 UNL     1      -3.752  48.695 -20.229  1.00  0.00     0.147 C 
HETATM    7  O1  UNL     1      -3.410  47.806 -19.447  1.00  0.00    -0.296 OA
HETATM    8  C14 UNL     1      -5.183  48.721 -20.897  1.00  0.00     0.055 C 
HETATM    9  C15 UNL     1      -5.114  49.385 -22.314  1.00  0.00     0.021 C 
HETATM   10  C16 UNL     1      -4.100  50.522 -22.537  1.00  0.00     0.012 C 
HETATM   11  C17 UNL     1      -2.714  50.121 -22.020  1.00  0.00    -0.026 C 
HETATM   12  C18 UNL     1      -2.242  48.855 -22.798  1.00  0.00     0.016 C 
HETATM   13  C19 UNL     1      -6.114  49.465 -19.868  1.00  0.00     0.135 C 
HETATM   14  C20 UNL     1      -7.075  48.437 -19.242  1.00  0.00     0.039 C 
HETATM   15  C21 UNL     1      -6.409  47.096 -19.521  1.00  0.00     0.012 C 
HETATM   16  C22 UNL     1      -7.216  45.801 -19.232  1.00  0.00     0.018 C 
HETATM   17  C23 UNL     1      -6.998  45.379 -17.763  1.00  0.00     0.023 C 
HETATM   18  C24 UNL     1      -8.733  45.933 -19.443  1.00  0.00     0.023 C 
HETATM   19  C25 UNL     1      -6.641  44.680 -20.112  1.00  0.00     0.135 C 
HETATM   20  O3  UNL     1      -7.297  43.686 -20.424  1.00  0.00    -0.297 OA
HETATM   21  C26 UNL     1      -5.190  44.821 -20.535  1.00  0.00     0.080 C 
HETATM   22  C27 UNL     1      -4.945  46.087 -21.359  1.00  0.00     0.018 C 
HETATM   23  C28 UNL     1      -5.873  47.272 -20.973  1.00  0.00    -0.022 C 
HETATM   24  C29 UNL     1      -7.037  47.262 -22.013  1.00  0.00     0.017 C 
ENDROOT
BRANCH  13  25
HETATM   25  O2  UNL     1      -6.834  50.554 -20.424  1.00  0.00    -0.394 OA
HETATM   26  H29 UNL     1      -7.563  50.207 -20.964  1.00  0.00     0.210 HD
ENDBRANCH  13  25
BRANCH   1  27
HETATM   27  C6  UNL     1      -1.056  51.701 -23.437  1.00  0.00    -0.014 C 
HETATM   28  C7  UNL     1      -2.034  52.737 -24.024  1.00  0.00     0.010 C 
BRANCH  27  29
HETATM   29  C5  UNL     1       0.375  52.287 -23.423  1.00  0.00     0.008 C 
BRANCH  29  30
HETATM   30  C4  UNL     1       0.669  53.213 -24.613  1.00  0.00     0.028 C 
BRANCH  30  31
HETATM   31  C3  UNL     1       0.948  52.424 -25.866  1.00  0.00    -0.013 C 
HETATM   32  C2  UNL     1       0.451  52.616 -27.105  1.00  0.00     0.008 C 
HETATM   33  C1  UNL     1       0.824  51.710 -28.244  1.00  0.00     0.055 C 
BRANCH  32  34
HETATM   34  C30 UNL     1      -0.439  53.760 -27.424  1.00  0.00     0.171 C 
HETATM   35  O4  UNL     1      -0.186  54.948 -27.325  1.00  0.00    -0.646 OA
BRANCH  34  36
HETATM   36  O5  UNL     1      -1.632  53.348 -27.888  1.00  0.00    -0.773 OA
HETATM   37  H46 UNL     1      -2.101  54.187 -28.068  1.00  0.00     0.167 HD
ENDBRANCH  34  36
ENDBRANCH  32  34
ENDBRANCH  30  31
ENDBRANCH  29  30
ENDBRANCH  27  29
ENDBRANCH   1  27
TORSDOF 7
ENDMDL
MODEL 7
REMARK minimizedAffinity -9.05424118
REMARK  7 active torsions:
REMARK  status: ('A' for Active; 'I' for Inactive)
REMARK    1  A    between atoms: C2_2  and  C30_33 
REMARK    2  A    between atoms: C3_3  and  C4_4 
REMARK    3  A    between atoms: C4_4  and  C5_5 
REMARK    4  A    between atoms: C5_5  and  C6_6 
REMARK    5  A    between atoms: C6_6  and  C8_8 
REMARK    6  A    between atoms: C19_20  and  O2_21 
REMARK    7  A    between atoms: C30_33  and  O5_35 
ROOT
HETATM    1  C8  UNL     1      -6.504  48.238 -22.962  1.00  0.00    -0.002 C 
HETATM    2  C9  UNL     1      -7.110  49.558 -23.513  1.00  0.00     0.007 C 
HETATM    3  C10 UNL     1      -6.237  50.709 -22.951  1.00  0.00     0.018 C 
HETATM    4  C11 UNL     1      -5.344  50.037 -21.893  1.00  0.00     0.025 C 
HETATM    5  C12 UNL     1      -6.179  50.014 -20.583  1.00  0.00     0.024 C 
HETATM    6  C13 UNL     1      -4.004  50.716 -21.577  1.00  0.00     0.147 C 
HETATM    7  O1  UNL     1      -3.836  51.900 -21.873  1.00  0.00    -0.296 OA
HETATM    8  C14 UNL     1      -2.927  49.891 -20.770  1.00  0.00     0.055 C 
HETATM    9  C15 UNL     1      -2.971  48.380 -21.183  1.00  0.00     0.021 C 
HETATM   10  C16 UNL     1      -4.331  47.770 -21.567  1.00  0.00     0.012 C 
HETATM   11  C17 UNL     1      -5.061  48.665 -22.574  1.00  0.00    -0.026 C 
HETATM   12  C18 UNL     1      -4.179  48.793 -23.853  1.00  0.00     0.016 C 
HETATM   13  C19 UNL     1      -3.238  50.166 -19.251  1.00  0.00     0.135 C 
HETATM   14  C20 UNL     1      -2.123  51.058 -18.674  1.00  0.00     0.039 C 
HETATM   15  C21 UNL     1      -1.472  51.673 -19.906  1.00  0.00     0.012 C 
HETATM   16  C22 UNL     1      -0.147  52.461 -19.721  1.00  0.00     0.018 C 
HETATM   17  C23 UNL     1      -0.469  53.936 -19.399  1.00  0.00     0.023 C 
HETATM   18  C24 UNL     1       0.753  51.939 -18.590  1.00  0.00     0.023 C 
HETATM   19  C25 UNL     1       0.602  52.446 -21.062  1.00  0.00     0.135 C 
HETATM   20  O3  UNL     1       1.821  52.606 -21.137  1.00  0.00    -0.297 OA
HETATM   21  C26 UNL     1      -0.241  52.289 -22.313  1.00  0.00     0.080 C 
HETATM   22  C27 UNL     1      -1.024  50.974 -22.324  1.00  0.00     0.018 C 
HETATM   23  C28 UNL     1      -1.439  50.483 -20.910  1.00  0.00    -0.022 C 
HETATM   24  C29 UNL     1      -0.374  49.419 -20.495  1.00  0.00     0.017 C 
ENDROOT
BRANCH  13  25
HETATM   25  O2  UNL     1      -3.395  48.989 -18.473  1.00  0.00    -0.394 OA
HETATM   26  H29 UNL     1      -2.520  48.599 -18.311  1.00  0.00     0.210 HD
ENDBRANCH  13  25
BRANCH   1  27
HETATM   27  C6  UNL     1      -6.732  46.952 -23.810  1.00  0.00    -0.014 C 
HETATM   28  C7  UNL     1      -7.591  45.970 -22.988  1.00  0.00     0.010 C 
BRANCH  27  29
HETATM   29  C5  UNL     1      -7.371  47.158 -25.203  1.00  0.00     0.008 C 
BRANCH  29  30
HETATM   30  C4  UNL     1      -6.419  47.795 -26.226  1.00  0.00     0.028 C 
BRANCH  30  31
HETATM   31  C3  UNL     1      -6.686  47.283 -27.617  1.00  0.00    -0.013 C 
HETATM   32  C2  UNL     1      -5.982  47.515 -28.745  1.00  0.00     0.008 C 
HETATM   33  C1  UNL     1      -6.410  46.939 -30.064  1.00  0.00     0.055 C 
BRANCH  32  34
HETATM   34  C30 UNL     1      -4.722  48.299 -28.735  1.00  0.00     0.171 C 
HETATM   35  O4  UNL     1      -3.734  48.108 -28.047  1.00  0.00    -0.646 OA
BRANCH  34  36
HETATM   36  O5  UNL     1      -4.753  49.302 -29.629  1.00  0.00    -0.773 OA
HETATM   37  H46 UNL     1      -3.872  49.716 -29.528  1.00  0.00     0.167 HD
ENDBRANCH  34  36
ENDBRANCH  32  34
ENDBRANCH  30  31
ENDBRANCH  29  30
ENDBRANCH  27  29
ENDBRANCH   1  27
TORSDOF 7
ENDMDL
MODEL 8
REMARK minimizedAffinity -8.99023724
REMARK  7 active torsions:
REMARK  status: ('A' for Active; 'I' for Inactive)
REMARK    1  A    between atoms: C2_2  and  C30_33 
REMARK    2  A    between atoms: C3_3  and  C4_4 
REMARK    3  A    between atoms: C4_4  and  C5_5 
REMARK    4  A    between atoms: C5_5  and  C6_6 
REMARK    5  A    between atoms: C6_6  and  C8_8 
REMARK    6  A    between atoms: C19_20  and  O2_21 
REMARK    7  A    between atoms: C30_33  and  O5_35 
ROOT
HETATM    1  C8  UNL     1      -1.643  50.450 -22.668  1.00  0.00    -0.002 C 
HETATM    2  C9  UNL     1      -1.958  49.926 -24.096  1.00  0.00     0.007 C 
HETATM    3  C10 UNL     1      -3.061  48.849 -23.933  1.00  0.00     0.018 C 
HETATM    4  C11 UNL     1      -3.143  48.603 -22.416  1.00  0.00     0.025 C 
HETATM    5  C12 UNL     1      -2.048  47.548 -22.096  1.00  0.00     0.024 C 
HETATM    6  C13 UNL     1      -4.474  48.072 -21.865  1.00  0.00     0.147 C 
HETATM    7  O1  UNL     1      -5.277  47.533 -22.627  1.00  0.00    -0.296 OA
HETATM    8  C14 UNL     1      -4.707  48.134 -20.304  1.00  0.00     0.055 C 
HETATM    9  C15 UNL     1      -4.062  49.430 -19.704  1.00  0.00     0.021 C 
HETATM   10  C16 UNL     1      -2.768  49.964 -20.347  1.00  0.00     0.012 C 
HETATM   11  C17 UNL     1      -2.914  50.044 -21.870  1.00  0.00    -0.026 C 
HETATM   12  C18 UNL     1      -4.089  51.012 -22.205  1.00  0.00     0.016 C 
HETATM   13  C19 UNL     1      -4.122  46.786 -19.737  1.00  0.00     0.135 C 
HETATM   14  C20 UNL     1      -5.293  45.896 -19.281  1.00  0.00     0.039 C 
HETATM   15  C21 UNL     1      -6.501  46.483 -19.999  1.00  0.00     0.012 C 
HETATM   16  C22 UNL     1      -7.912  45.977 -19.596  1.00  0.00     0.018 C 
HETATM   17  C23 UNL     1      -8.268  44.731 -20.436  1.00  0.00     0.023 C 
HETATM   18  C24 UNL     1      -8.050  45.578 -18.118  1.00  0.00     0.023 C 
HETATM   19  C25 UNL     1      -8.928  47.071 -19.961  1.00  0.00     0.135 C 
HETATM   20  O3  UNL     1     -10.026  47.159 -19.410  1.00  0.00    -0.297 OA
HETATM   21  C26 UNL     1      -8.543  48.011 -21.087  1.00  0.00     0.080 C 
HETATM   22  C27 UNL     1      -7.266  48.795 -20.778  1.00  0.00     0.018 C 
HETATM   23  C28 UNL     1      -6.255  48.017 -19.890  1.00  0.00    -0.022 C 
HETATM   24  C29 UNL     1      -6.483  48.527 -18.432  1.00  0.00     0.017 C 
ENDROOT
BRANCH  13  25
HETATM   25  O2  UNL     1      -3.183  46.962 -18.688  1.00  0.00    -0.394 OA
HETATM   26  H29 UNL     1      -3.660  47.196 -17.874  1.00  0.00     0.210 HD
ENDBRANCH  13  25
BRANCH   1  27
HETATM   27  C6  UNL     1      -1.090  51.902 -22.559  1.00  0.00    -0.014 C 
HETATM   28  C7  UNL     1       0.244  51.859 -21.787  1.00  0.00     0.010 C 
BRANCH  27  29
HETATM   29  C5  UNL     1      -0.894  52.660 -23.892  1.00  0.00     0.008 C 
BRANCH  29  30
HETATM   30  C4  UNL     1       0.580  52.830 -24.289  1.00  0.00     0.028 C 
BRANCH  30  31
HETATM   31  C3  UNL     1       0.872  52.169 -25.611  1.00  0.00    -0.013 C 
HETATM   32  C2  UNL     1       0.530  52.584 -26.849  1.00  0.00     0.008 C 
HETATM   33  C1  UNL     1       0.886  51.780 -28.067  1.00  0.00     0.055 C 
BRANCH  32  34
HETATM   34  C30 UNL     1      -0.160  53.877 -27.079  1.00  0.00     0.171 C 
HETATM   35  O4  UNL     1       0.189  54.982 -26.702  1.00  0.00    -0.646 OA
BRANCH  34  36
HETATM   36  O5  UNL     1      -1.276  53.722 -27.812  1.00  0.00    -0.773 OA
HETATM   37  H46 UNL     1      -1.614  54.637 -27.898  1.00  0.00     0.167 HD
ENDBRANCH  34  36
ENDBRANCH  32  34
ENDBRANCH  30  31
ENDBRANCH  29  30
ENDBRANCH  27  29
ENDBRANCH   1  27
TORSDOF 7
ENDMDL
MODEL 9
REMARK minimizedAffinity -8.87520885
REMARK  7 active torsions:
REMARK  status: ('A' for Active; 'I' for Inactive)
REMARK    1  A    between atoms: C2_2  and  C30_33 
REMARK    2  A    between atoms: C3_3  and  C4_4 
REMARK    3  A    between atoms: C4_4  and  C5_5 
REMARK    4  A    between atoms: C5_5  and  C6_6 
REMARK    5  A    between atoms: C6_6  and  C8_8 
REMARK    6  A    between atoms: C19_20  and  O2_21 
REMARK    7  A    between atoms: C30_33  and  O5_35 
ROOT
HETATM    1  C8  UNL     1      -2.898  50.120 -22.489  1.00  0.00    -0.002 C 
HETATM    2  C9  UNL     1      -3.363  51.603 -22.491  1.00  0.00     0.007 C 
HETATM    3  C10 UNL     1      -3.297  52.084 -21.019  1.00  0.00     0.018 C 
HETATM    4  C11 UNL     1      -3.065  50.800 -20.201  1.00  0.00     0.025 C 
HETATM    5  C12 UNL     1      -4.473  50.193 -19.953  1.00  0.00     0.024 C 
HETATM    6  C13 UNL     1      -2.380  50.956 -18.836  1.00  0.00     0.147 C 
HETATM    7  O1  UNL     1      -2.364  52.058 -18.284  1.00  0.00    -0.296 OA
HETATM    8  C14 UNL     1      -1.822  49.656 -18.135  1.00  0.00     0.055 C 
HETATM    9  C15 UNL     1      -1.247  48.662 -19.200  1.00  0.00     0.021 C 
HETATM   10  C16 UNL     1      -1.925  48.604 -20.581  1.00  0.00     0.012 C 
HETATM   11  C17 UNL     1      -2.114  50.013 -21.151  1.00  0.00    -0.026 C 
HETATM   12  C18 UNL     1      -0.714  50.682 -21.297  1.00  0.00     0.016 C 
HETATM   13  C19 UNL     1      -3.020  49.089 -17.285  1.00  0.00     0.135 C 
HETATM   14  C20 UNL     1      -2.714  49.311 -15.793  1.00  0.00     0.039 C 
HETATM   15  C21 UNL     1      -1.637  50.389 -15.796  1.00  0.00     0.012 C 
HETATM   16  C22 UNL     1      -0.913  50.708 -14.460  1.00  0.00     0.018 C 
HETATM   17  C23 UNL     1      -1.709  51.785 -13.691  1.00  0.00     0.023 C 
HETATM   18  C24 UNL     1      -0.755  49.505 -13.516  1.00  0.00     0.023 C 
HETATM   19  C25 UNL     1       0.457  51.316 -14.799  1.00  0.00     0.135 C 
HETATM   20  O3  UNL     1       1.404  51.285 -14.012  1.00  0.00    -0.297 OA
HETATM   21  C26 UNL     1       0.577  52.022 -16.136  1.00  0.00     0.080 C 
HETATM   22  C27 UNL     1       0.298  51.087 -17.315  1.00  0.00     0.018 C 
HETATM   23  C28 UNL     1      -0.734  49.971 -16.994  1.00  0.00    -0.022 C 
HETATM   24  C29 UNL     1       0.103  48.696 -16.657  1.00  0.00     0.017 C 
ENDROOT
BRANCH  13  25
HETATM   25  O2  UNL     1      -3.313  47.724 -17.542  1.00  0.00    -0.394 OA
HETATM   26  H29 UNL     1      -2.637  47.172 -17.116  1.00  0.00     0.210 HD
ENDBRANCH  13  25
BRANCH   1  27
HETATM   27  C6  UNL     1      -2.265  49.581 -23.805  1.00  0.00    -0.014 C 
HETATM   28  C7  UNL     1      -3.183  48.480 -24.374  1.00  0.00     0.010 C 
BRANCH  27  29
HETATM   29  C5  UNL     1      -1.973  50.631 -24.902  1.00  0.00     0.008 C 
BRANCH  29  30
HETATM   30  C4  UNL     1      -0.578  51.264 -24.789  1.00  0.00     0.028 C 
BRANCH  30  31
HETATM   31  C3  UNL     1       0.172  51.177 -26.093  1.00  0.00    -0.013 C 
HETATM   32  C2  UNL     1       0.137  52.030 -27.138  1.00  0.00     0.008 C 
HETATM   33  C1  UNL     1       0.939  51.773 -28.381  1.00  0.00     0.055 C 
BRANCH  32  34
HETATM   34  C30 UNL     1      -0.645  53.290 -27.094  1.00  0.00     0.171 C 
HETATM   35  O4  UNL     1      -1.827  53.440 -27.349  1.00  0.00    -0.646 OA
BRANCH  34  36
HETATM   36  O5  UNL     1       0.110  54.331 -26.701  1.00  0.00    -0.773 OA
HETATM   37  H46 UNL     1      -0.523  55.077 -26.702  1.00  0.00     0.167 HD
ENDBRANCH  34  36
ENDBRANCH  32  34
ENDBRANCH  30  31
ENDBRANCH  29  30
ENDBRANCH  27  29
ENDBRANCH   1  27
TORSDOF 7
ENDMDL
