MODEL 1
REMARK minimizedAffinity -7.98194408
REMARK CNNscore 0.365806401
REMARK CNNaffinity 6.51383829
REMARK  12 active torsions:
REMARK  status: ('A' for Active; 'I' for Inactive)
REMARK    1  A    between atoms: C2_2  and  C3_3 
REMARK    2  A    between atoms: C2_2  and  C9_10 
REMARK    3  A    between atoms: C3_3  and  C4_4 
REMARK    4  A    between atoms: C5_5  and  C6_6 
REMARK    5  A    between atoms: C6_6  and  O1_9 
REMARK    6  A    between atoms: C27_30  and  O4_31 
REMARK    7  A    between atoms: O4_31  and  C28_32 
REMARK    8  A    between atoms: C29_34  and  C30_35 
REMARK    9  A    between atoms: C30_35  and  O6_36 
REMARK   10  A    between atoms: C31_37  and  O7_38 
REMARK   11  A    between atoms: C32_39  and  O8_40 
REMARK   12  A    between atoms: C33_41  and  O9_42 
ROOT
HETATM    1  C9  UNL     1      -3.151  14.252  19.476  1.00  0.00    -0.002 C 
HETATM    2  C10 UNL     1      -4.698  14.118  19.310  1.00  0.00     0.006 C 
HETATM    3  C11 UNL     1      -4.962  13.235  18.073  1.00  0.00     0.011 C 
HETATM    4  C12 UNL     1      -3.595  12.611  17.746  1.00  0.00    -0.028 C 
HETATM    5  C13 UNL     1      -3.446  11.398  18.723  1.00  0.00     0.016 C 
HETATM    6  C14 UNL     1      -3.400  12.155  16.265  1.00  0.00     0.035 C 
HETATM    7  C15 UNL     1      -4.361  11.058  15.832  1.00  0.00    -0.021 C 
HETATM    8  C16 UNL     1      -3.928   9.956  15.192  1.00  0.00     0.009 C 
HETATM    9  C17 UNL     1      -2.442   9.710  14.939  1.00  0.00     0.102 C 
HETATM   10  O2  UNL     1      -2.076  10.610  13.877  1.00  0.00    -0.304 OA
HETATM   11  C18 UNL     1      -1.793  11.840  14.411  1.00  0.00     0.270 C 
HETATM   12  O3  UNL     1      -1.547  12.827  13.737  1.00  0.00    -0.264 OA
HETATM   13  C19 UNL     1      -1.891  11.780  15.939  1.00  0.00     0.062 C 
HETATM   14  C20 UNL     1      -0.866  12.763  16.561  1.00  0.00     0.022 C 
HETATM   15  C21 UNL     1      -1.185  13.291  17.973  1.00  0.00     0.011 C 
HETATM   16  C22 UNL     1      -2.630  13.816  18.069  1.00  0.00    -0.032 C 
HETATM   17  C23 UNL     1      -2.778  15.030  17.095  1.00  0.00     0.016 C 
HETATM   18  C24 UNL     1      -1.653  10.258  16.151  1.00  0.00     0.045 C 
HETATM   19  C25 UNL     1      -0.209   9.733  16.229  1.00  0.00     0.012 C 
HETATM   20  C26 UNL     1       0.335   9.240  14.904  1.00  0.00     0.033 C 
HETATM   21  C27 UNL     1      -0.505   8.100  14.314  1.00  0.00     0.136 C 
HETATM   22  C34 UNL     1      -2.062   8.247  14.532  1.00  0.00     0.015 C 
HETATM   23  C35 UNL     1      -2.814   7.810  13.245  1.00  0.00     0.021 C 
HETATM   24  C36 UNL     1      -2.489   7.258  15.651  1.00  0.00     0.021 C 
ENDROOT
BRANCH  21  25
HETATM   25  O4  UNL     1      -0.185   8.003  12.917  1.00  0.00    -0.352 OA
BRANCH  25  26
HETATM   26  C28 UNL     1       1.212   7.998  12.628  1.00  0.00     0.292 C 
HETATM   27  O5  UNL     1       1.514   8.827  11.502  1.00  0.00    -0.348 OA
HETATM   28  C29 UNL     1       1.100   8.352  10.206  1.00  0.00     0.179 C 
HETATM   29  C31 UNL     1       1.485   6.891   9.953  1.00  0.00     0.180 C 
HETATM   30  C32 UNL     1       1.129   5.980  11.131  1.00  0.00     0.183 C 
HETATM   31  C33 UNL     1       1.677   6.543  12.443  1.00  0.00     0.204 C 
BRANCH  28  32
HETATM   32  C30 UNL     1      -0.387   8.628   9.950  1.00  0.00     0.198 C 
BRANCH  32  33
HETATM   33  O6  UNL     1      -0.549   9.182   8.645  1.00  0.00    -0.398 OA
HETATM   34  H44 UNL     1       0.047   9.952   8.609  1.00  0.00     0.209 HD
ENDBRANCH  32  33
ENDBRANCH  28  32
BRANCH  29  35
HETATM   35  O7  UNL     1       2.907   6.782   9.727  1.00  0.00    -0.390 OA
HETATM   36  H46 UNL     1       3.341   7.166  10.521  1.00  0.00     0.210 HD
ENDBRANCH  29  35
BRANCH  30  37
HETATM   37  O8  UNL     1       1.705   4.676  10.920  1.00  0.00    -0.390 OA
HETATM   38  H48 UNL     1       2.379   4.795  10.217  1.00  0.00     0.210 HD
ENDBRANCH  30  37
BRANCH  31  39
HETATM   39  O9  UNL     1       3.115   6.467  12.436  1.00  0.00    -0.388 OA
HETATM   40  H50 UNL     1       3.311   5.521  12.277  1.00  0.00     0.210 HD
ENDBRANCH  31  39
ENDBRANCH  25  26
ENDBRANCH  21  25
BRANCH   1  41
HETATM   41  C2  UNL     1      -2.747  15.641  20.053  1.00  0.00    -0.010 C 
HETATM   42  C1  UNL     1      -1.397  15.613  20.777  1.00  0.00     0.010 C 
BRANCH  41  43
HETATM   43  C3  UNL     1      -3.825  16.247  20.994  1.00  0.00     0.031 C 
BRANCH  43  44
HETATM   44  C4  UNL     1      -3.324  16.696  22.342  1.00  0.00    -0.027 C 
HETATM   45  C5  UNL     1      -3.444  15.953  23.457  1.00  0.00     0.006 C 
BRANCH  45  46
HETATM   46  C6  UNL     1      -2.978  16.288  24.853  1.00  0.00     0.068 C 
HETATM   47  C7  UNL     1      -1.913  17.386  24.785  1.00  0.00     0.050 C 
HETATM   48  C8  UNL     1      -4.084  16.685  25.836  1.00  0.00     0.050 C 
BRANCH  46  49
HETATM   49  O1  UNL     1      -2.370  15.094  25.351  1.00  0.00    -0.387 OA
HETATM   50  H15 UNL     1      -1.881  15.320  26.160  1.00  0.00     0.211 HD
ENDBRANCH  46  49
ENDBRANCH  45  46
ENDBRANCH  43  44
ENDBRANCH  41  43
ENDBRANCH   1  41
TORSDOF 12
ENDMDL
MODEL 2
REMARK minimizedAffinity -7.92048264
REMARK CNNscore 0.30295831
REMARK CNNaffinity 6.48771429
REMARK  12 active torsions:
REMARK  status: ('A' for Active; 'I' for Inactive)
REMARK    1  A    between atoms: C2_2  and  C3_3 
REMARK    2  A    between atoms: C2_2  and  C9_10 
REMARK    3  A    between atoms: C3_3  and  C4_4 
REMARK    4  A    between atoms: C5_5  and  C6_6 
REMARK    5  A    between atoms: C6_6  and  O1_9 
REMARK    6  A    between atoms: C27_30  and  O4_31 
REMARK    7  A    between atoms: O4_31  and  C28_32 
REMARK    8  A    between atoms: C29_34  and  C30_35 
REMARK    9  A    between atoms: C30_35  and  O6_36 
REMARK   10  A    between atoms: C31_37  and  O7_38 
REMARK   11  A    between atoms: C32_39  and  O8_40 
REMARK   12  A    between atoms: C33_41  and  O9_42 
ROOT
HETATM    1  C9  UNL     1      -3.417  14.081  19.674  1.00  0.00    -0.002 C 
HETATM    2  C10 UNL     1      -4.949  13.986  19.384  1.00  0.00     0.006 C 
HETATM    3  C11 UNL     1      -5.131  13.169  18.087  1.00  0.00     0.011 C 
HETATM    4  C12 UNL     1      -3.752  12.535  17.835  1.00  0.00    -0.028 C 
HETATM    5  C13 UNL     1      -3.698  11.274  18.759  1.00  0.00     0.016 C 
HETATM    6  C14 UNL     1      -3.450  12.148  16.353  1.00  0.00     0.035 C 
HETATM    7  C15 UNL     1      -4.392  11.092  15.793  1.00  0.00    -0.021 C 
HETATM    8  C16 UNL     1      -3.928  10.014  15.134  1.00  0.00     0.009 C 
HETATM    9  C17 UNL     1      -2.431   9.752  14.983  1.00  0.00     0.102 C 
HETATM   10  O2  UNL     1      -1.970  10.695  13.998  1.00  0.00    -0.304 OA
HETATM   11  C18 UNL     1      -1.710  11.892  14.613  1.00  0.00     0.270 C 
HETATM   12  O3  UNL     1      -1.397  12.905  14.010  1.00  0.00    -0.264 OA
HETATM   13  C19 UNL     1      -1.926  11.760  16.124  1.00  0.00     0.062 C 
HETATM   14  C20 UNL     1      -0.938  12.692  16.872  1.00  0.00     0.022 C 
HETATM   15  C21 UNL     1      -1.357  13.156  18.279  1.00  0.00     0.011 C 
HETATM   16  C22 UNL     1      -2.796  13.705  18.291  1.00  0.00    -0.032 C 
HETATM   17  C23 UNL     1      -2.849  14.967  17.370  1.00  0.00     0.016 C 
HETATM   18  C24 UNL     1      -1.730  10.225  16.278  1.00  0.00     0.045 C 
HETATM   19  C25 UNL     1      -0.305   9.668  16.440  1.00  0.00     0.012 C 
HETATM   20  C26 UNL     1       0.332   9.231  15.138  1.00  0.00     0.033 C 
HETATM   21  C27 UNL     1      -0.477   8.136  14.429  1.00  0.00     0.136 C 
HETATM   22  C34 UNL     1      -2.043   8.303  14.534  1.00  0.00     0.015 C 
HETATM   23  C35 UNL     1      -2.701   7.944  13.173  1.00  0.00     0.021 C 
HETATM   24  C36 UNL     1      -2.572   7.270  15.566  1.00  0.00     0.021 C 
ENDROOT
BRANCH  21  25
HETATM   25  O4  UNL     1      -0.052   8.101  13.057  1.00  0.00    -0.352 OA
BRANCH  25  26
HETATM   26  C28 UNL     1       0.380   6.819  12.603  1.00  0.00     0.292 C 
HETATM   27  O5  UNL     1       1.720   6.543  13.020  1.00  0.00    -0.348 OA
HETATM   28  C29 UNL     1       2.774   7.283  12.374  1.00  0.00     0.179 C 
HETATM   29  C31 UNL     1       2.647   7.299  10.847  1.00  0.00     0.180 C 
HETATM   30  C32 UNL     1       1.227   7.636  10.382  1.00  0.00     0.183 C 
HETATM   31  C33 UNL     1       0.198   6.744  11.077  1.00  0.00     0.204 C 
BRANCH  28  32
HETATM   32  C30 UNL     1       2.929   8.688  12.971  1.00  0.00     0.198 C 
BRANCH  32  33
HETATM   33  O6  UNL     1       3.791   9.465  12.140  1.00  0.00    -0.398 OA
HETATM   34  H44 UNL     1       4.607   8.942  12.044  1.00  0.00     0.209 HD
ENDBRANCH  32  33
ENDBRANCH  28  32
BRANCH  29  35
HETATM   35  O7  UNL     1       2.991   6.005  10.304  1.00  0.00    -0.390 OA
HETATM   36  H46 UNL     1       2.392   5.358  10.738  1.00  0.00     0.210 HD
ENDBRANCH  29  35
BRANCH  30  37
HETATM   37  O8  UNL     1       1.125   7.425   8.961  1.00  0.00    -0.390 OA
HETATM   38  H48 UNL     1       1.905   6.881   8.717  1.00  0.00     0.210 HD
ENDBRANCH  30  37
BRANCH  31  39
HETATM   39  O9  UNL     1       0.345   5.388  10.615  1.00  0.00    -0.388 OA
HETATM   40  H50 UNL     1       0.252   5.449   9.642  1.00  0.00     0.210 HD
ENDBRANCH  31  39
ENDBRANCH  25  26
ENDBRANCH  21  25
BRANCH   1  41
HETATM   41  C2  UNL     1      -3.038  15.433  20.349  1.00  0.00    -0.010 C 
HETATM   42  C1  UNL     1      -1.550  15.769  20.208  1.00  0.00     0.010 C 
BRANCH  41  43
HETATM   43  C3  UNL     1      -3.443  15.501  21.847  1.00  0.00     0.031 C 
BRANCH  43  44
HETATM   44  C4  UNL     1      -4.925  15.547  22.111  1.00  0.00    -0.027 C 
HETATM   45  C5  UNL     1      -5.572  14.625  22.846  1.00  0.00     0.006 C 
BRANCH  45  46
HETATM   46  C6  UNL     1      -7.042  14.568  23.185  1.00  0.00     0.068 C 
HETATM   47  C7  UNL     1      -7.508  13.110  23.186  1.00  0.00     0.050 C 
HETATM   48  C8  UNL     1      -7.441  15.251  24.496  1.00  0.00     0.050 C 
BRANCH  46  49
HETATM   49  O1  UNL     1      -7.707  15.257  22.123  1.00  0.00    -0.387 OA
HETATM   50  H15 UNL     1      -8.658  15.071  22.192  1.00  0.00     0.211 HD
ENDBRANCH  46  49
ENDBRANCH  45  46
ENDBRANCH  43  44
ENDBRANCH  41  43
ENDBRANCH   1  41
TORSDOF 12
ENDMDL
MODEL 3
REMARK minimizedAffinity -7.6388607
REMARK CNNscore 0.226372585
REMARK CNNaffinity 6.30330276
REMARK  12 active torsions:
REMARK  status: ('A' for Active; 'I' for Inactive)
REMARK    1  A    between atoms: C2_2  and  C3_3 
REMARK    2  A    between atoms: C2_2  and  C9_10 
REMARK    3  A    between atoms: C3_3  and  C4_4 
REMARK    4  A    between atoms: C5_5  and  C6_6 
REMARK    5  A    between atoms: C6_6  and  O1_9 
REMARK    6  A    between atoms: C27_30  and  O4_31 
REMARK    7  A    between atoms: O4_31  and  C28_32 
REMARK    8  A    between atoms: C29_34  and  C30_35 
REMARK    9  A    between atoms: C30_35  and  O6_36 
REMARK   10  A    between atoms: C31_37  and  O7_38 
REMARK   11  A    between atoms: C32_39  and  O8_40 
REMARK   12  A    between atoms: C33_41  and  O9_42 
ROOT
HETATM    1  C9  UNL     1      -8.645  -9.329   0.075  1.00  0.00    -0.002 C 
HETATM    2  C10 UNL     1     -10.063  -9.963  -0.080  1.00  0.00     0.006 C 
HETATM    3  C11 UNL     1     -10.429 -10.629   1.263  1.00  0.00     0.011 C 
HETATM    4  C12 UNL     1      -9.383 -10.094   2.255  1.00  0.00    -0.028 C 
HETATM    5  C13 UNL     1      -9.899  -8.680   2.683  1.00  0.00     0.016 C 
HETATM    6  C14 UNL     1      -9.123 -10.991   3.507  1.00  0.00     0.035 C 
HETATM    7  C15 UNL     1     -10.344 -11.166   4.397  1.00  0.00    -0.021 C 
HETATM    8  C16 UNL     1     -10.273 -10.994   5.731  1.00  0.00     0.009 C 
HETATM    9  C17 UNL     1      -8.984 -10.538   6.410  1.00  0.00     0.102 C 
HETATM   10  O2  UNL     1      -8.111 -11.682   6.395  1.00  0.00    -0.304 OA
HETATM   11  C18 UNL     1      -7.467 -11.737   5.187  1.00  0.00     0.270 C 
HETATM   12  O3  UNL     1      -6.738 -12.656   4.854  1.00  0.00    -0.264 OA
HETATM   13  C19 UNL     1      -7.851 -10.522   4.336  1.00  0.00     0.062 C 
HETATM   14  C20 UNL     1      -6.651 -10.118   3.441  1.00  0.00     0.022 C 
HETATM   15  C21 UNL     1      -6.982  -9.356   2.144  1.00  0.00     0.011 C 
HETATM   16  C22 UNL     1      -8.095 -10.057   1.344  1.00  0.00    -0.032 C 
HETATM   17  C23 UNL     1      -7.579 -11.468   0.913  1.00  0.00     0.016 C 
HETATM   18  C24 UNL     1      -8.273  -9.541   5.466  1.00  0.00     0.045 C 
HETATM   19  C25 UNL     1      -7.191  -8.701   6.167  1.00  0.00     0.012 C 
HETATM   20  C26 UNL     1      -6.658  -9.328   7.438  1.00  0.00     0.033 C 
HETATM   21  C27 UNL     1      -7.759  -9.563   8.481  1.00  0.00     0.136 C 
HETATM   22  C34 UNL     1      -9.144 -10.028   7.882  1.00  0.00     0.015 C 
HETATM   23  C35 UNL     1      -9.766 -11.124   8.790  1.00  0.00     0.021 C 
HETATM   24  C36 UNL     1     -10.117  -8.818   7.920  1.00  0.00     0.021 C 
ENDROOT
BRANCH  21  25
HETATM   25  O4  UNL     1      -7.260 -10.518   9.431  1.00  0.00    -0.352 OA
BRANCH  25  26
HETATM   26  C28 UNL     1      -6.338  -9.984  10.380  1.00  0.00     0.292 C 
HETATM   27  O5  UNL     1      -5.949 -10.970  11.340  1.00  0.00    -0.348 OA
HETATM   28  C29 UNL     1      -6.936 -11.367  12.311  1.00  0.00     0.179 C 
HETATM   29  C31 UNL     1      -7.636 -10.176  12.974  1.00  0.00     0.180 C 
HETATM   30  C32 UNL     1      -8.100  -9.130  11.957  1.00  0.00     0.183 C 
HETATM   31  C33 UNL     1      -6.955  -8.731  11.023  1.00  0.00     0.204 C 
BRANCH  28  32
HETATM   32  C30 UNL     1      -7.922 -12.389  11.732  1.00  0.00     0.198 C 
BRANCH  32  33
HETATM   33  O6  UNL     1      -8.242 -12.031  10.388  1.00  0.00    -0.398 OA
HETATM   34  H44 UNL     1      -8.548 -11.107  10.427  1.00  0.00     0.209 HD
ENDBRANCH  32  33
ENDBRANCH  28  32
BRANCH  29  35
HETATM   35  O7  UNL     1      -6.741  -9.522  13.900  1.00  0.00    -0.390 OA
HETATM   36  H46 UNL     1      -5.948  -9.266  13.378  1.00  0.00     0.210 HD
ENDBRANCH  29  35
BRANCH  30  37
HETATM   37  O8  UNL     1      -8.551  -7.951  12.652  1.00  0.00    -0.390 OA
HETATM   38  H48 UNL     1      -8.203  -8.033  13.566  1.00  0.00     0.210 HD
ENDBRANCH  30  37
BRANCH  31  39
HETATM   39  O9  UNL     1      -5.961  -7.999  11.765  1.00  0.00    -0.388 OA
HETATM   40  H50 UNL     1      -6.452  -7.251  12.163  1.00  0.00     0.210 HD
ENDBRANCH  31  39
ENDBRANCH  25  26
ENDBRANCH  21  25
BRANCH   1  41
HETATM   41  C2  UNL     1      -7.837  -9.381  -1.256  1.00  0.00    -0.010 C 
HETATM   42  C1  UNL     1      -6.405  -9.891  -1.061  1.00  0.00     0.010 C 
BRANCH  41  43
HETATM   43  C3  UNL     1      -7.803  -8.019  -2.003  1.00  0.00     0.031 C 
BRANCH  43  44
HETATM   44  C4  UNL     1      -7.733  -8.111  -3.505  1.00  0.00    -0.027 C 
HETATM   45  C5  UNL     1      -7.876  -9.265  -4.180  1.00  0.00     0.006 C 
BRANCH  45  46
HETATM   46  C6  UNL     1      -7.833  -9.481  -5.674  1.00  0.00     0.068 C 
HETATM   47  C7  UNL     1      -7.839 -10.983  -5.972  1.00  0.00     0.050 C 
HETATM   48  C8  UNL     1      -8.938  -8.781  -6.470  1.00  0.00     0.050 C 
BRANCH  46  49
HETATM   49  O1  UNL     1      -6.583  -8.936  -6.104  1.00  0.00    -0.387 OA
HETATM   50  H15 UNL     1      -6.424  -9.232  -7.016  1.00  0.00     0.211 HD
ENDBRANCH  46  49
ENDBRANCH  45  46
ENDBRANCH  43  44
ENDBRANCH  41  43
ENDBRANCH   1  41
TORSDOF 12
ENDMDL
MODEL 4
REMARK minimizedAffinity -7.28115463
REMARK CNNscore 0.220082656
REMARK CNNaffinity 6.29696798
REMARK  12 active torsions:
REMARK  status: ('A' for Active; 'I' for Inactive)
REMARK    1  A    between atoms: C2_2  and  C3_3 
REMARK    2  A    between atoms: C2_2  and  C9_10 
REMARK    3  A    between atoms: C3_3  and  C4_4 
REMARK    4  A    between atoms: C5_5  and  C6_6 
REMARK    5  A    between atoms: C6_6  and  O1_9 
REMARK    6  A    between atoms: C27_30  and  O4_31 
REMARK    7  A    between atoms: O4_31  and  C28_32 
REMARK    8  A    between atoms: C29_34  and  C30_35 
REMARK    9  A    between atoms: C30_35  and  O6_36 
REMARK   10  A    between atoms: C31_37  and  O7_38 
REMARK   11  A    between atoms: C32_39  and  O8_40 
REMARK   12  A    between atoms: C33_41  and  O9_42 
ROOT
HETATM    1  C9  UNL     1      -3.197  13.862  19.556  1.00  0.00    -0.002 C 
HETATM    2  C10 UNL     1      -4.736  13.730  19.327  1.00  0.00     0.006 C 
HETATM    3  C11 UNL     1      -4.949  12.920  18.031  1.00  0.00     0.011 C 
HETATM    4  C12 UNL     1      -3.566  12.324  17.718  1.00  0.00    -0.028 C 
HETATM    5  C13 UNL     1      -3.442  11.056  18.627  1.00  0.00     0.016 C 
HETATM    6  C14 UNL     1      -3.315  11.958  16.221  1.00  0.00     0.035 C 
HETATM    7  C15 UNL     1      -4.251  10.883  15.689  1.00  0.00    -0.021 C 
HETATM    8  C16 UNL     1      -3.786   9.823  15.001  1.00  0.00     0.009 C 
HETATM    9  C17 UNL     1      -2.291   9.601  14.788  1.00  0.00     0.102 C 
HETATM   10  O2  UNL     1      -1.894  10.565  13.795  1.00  0.00    -0.304 OA
HETATM   11  C18 UNL     1      -1.640  11.763  14.410  1.00  0.00     0.270 C 
HETATM   12  O3  UNL     1      -1.378  12.789  13.805  1.00  0.00    -0.264 OA
HETATM   13  C19 UNL     1      -1.792  11.611  15.927  1.00  0.00     0.062 C 
HETATM   14  C20 UNL     1      -0.798  12.562  16.643  1.00  0.00     0.022 C 
HETATM   15  C21 UNL     1      -1.171  13.004  18.071  1.00  0.00     0.011 C 
HETATM   16  C22 UNL     1      -2.622  13.514  18.146  1.00  0.00    -0.032 C 
HETATM   17  C23 UNL     1      -2.745  14.783  17.240  1.00  0.00     0.016 C 
HETATM   18  C24 UNL     1      -1.550  10.081  16.058  1.00  0.00     0.045 C 
HETATM   19  C25 UNL     1      -0.106   9.561  16.157  1.00  0.00     0.012 C 
HETATM   20  C26 UNL     1       0.490   9.151  14.826  1.00  0.00     0.033 C 
HETATM   21  C27 UNL     1      -0.319   8.042  14.140  1.00  0.00     0.136 C 
HETATM   22  C34 UNL     1      -1.884   8.167  14.310  1.00  0.00     0.015 C 
HETATM   23  C35 UNL     1      -2.586   7.803  12.973  1.00  0.00     0.021 C 
HETATM   24  C36 UNL     1      -2.343   7.112  15.352  1.00  0.00     0.021 C 
ENDROOT
BRANCH  21  25
HETATM   25  O4  UNL     1       0.050   8.030  12.752  1.00  0.00    -0.352 OA
BRANCH  25  26
HETATM   26  C28 UNL     1       0.749   6.858  12.335  1.00  0.00     0.292 C 
HETATM   27  O5  UNL     1       2.137   6.931  12.673  1.00  0.00    -0.348 OA
HETATM   28  C29 UNL     1       2.949   7.854  11.922  1.00  0.00     0.179 C 
HETATM   29  C31 UNL     1       2.740   7.739  10.408  1.00  0.00     0.180 C 
HETATM   30  C32 UNL     1       1.258   7.705  10.023  1.00  0.00     0.183 C 
HETATM   31  C33 UNL     1       0.509   6.643  10.831  1.00  0.00     0.204 C 
BRANCH  28  32
HETATM   32  C30 UNL     1       2.797   9.291  12.436  1.00  0.00     0.198 C 
BRANCH  32  33
HETATM   33  O6  UNL     1       3.888   9.603  13.302  1.00  0.00    -0.398 OA
HETATM   34  H44 UNL     1       3.899   8.900  13.977  1.00  0.00     0.209 HD
ENDBRANCH  32  33
ENDBRANCH  28  32
BRANCH  29  35
HETATM   35  O7  UNL     1       3.352   6.530   9.909  1.00  0.00    -0.390 OA
HETATM   36  H46 UNL     1       2.948   5.790  10.414  1.00  0.00     0.210 HD
ENDBRANCH  29  35
BRANCH  30  37
HETATM   37  O8  UNL     1       1.134   7.383   8.625  1.00  0.00    -0.390 OA
HETATM   38  H48 UNL     1       2.006   7.023   8.356  1.00  0.00     0.210 HD
ENDBRANCH  30  37
BRANCH  31  39
HETATM   39  O9  UNL     1       0.949   5.332  10.428  1.00  0.00    -0.388 OA
HETATM   40  H50 UNL     1       0.792   5.306   9.462  1.00  0.00     0.210 HD
ENDBRANCH  31  39
ENDBRANCH  25  26
ENDBRANCH  21  25
BRANCH   1  41
HETATM   41  C2  UNL     1      -2.825  15.218  20.228  1.00  0.00    -0.010 C 
HETATM   42  C1  UNL     1      -3.805  16.342  19.876  1.00  0.00     0.010 C 
BRANCH  41  43
HETATM   43  C3  UNL     1      -1.375  15.678  19.913  1.00  0.00     0.031 C 
BRANCH  43  44
HETATM   44  C4  UNL     1      -0.286  14.843  20.533  1.00  0.00    -0.027 C 
HETATM   45  C5  UNL     1       0.965  15.296  20.736  1.00  0.00     0.006 C 
BRANCH  45  46
HETATM   46  C6  UNL     1       2.132  14.562  21.351  1.00  0.00     0.068 C 
HETATM   47  C7  UNL     1       2.016  13.068  21.038  1.00  0.00     0.050 C 
HETATM   48  C8  UNL     1       3.517  15.080  20.951  1.00  0.00     0.050 C 
BRANCH  46  49
HETATM   49  O1  UNL     1       1.997  14.744  22.763  1.00  0.00    -0.387 OA
HETATM   50  H15 UNL     1       2.603  14.126  23.205  1.00  0.00     0.211 HD
ENDBRANCH  46  49
ENDBRANCH  45  46
ENDBRANCH  43  44
ENDBRANCH  41  43
ENDBRANCH   1  41
TORSDOF 12
ENDMDL
MODEL 5
REMARK minimizedAffinity -7.15556955
REMARK CNNscore 0.212311581
REMARK CNNaffinity 6.38322115
REMARK  12 active torsions:
REMARK  status: ('A' for Active; 'I' for Inactive)
REMARK    1  A    between atoms: C2_2  and  C3_3 
REMARK    2  A    between atoms: C2_2  and  C9_10 
REMARK    3  A    between atoms: C3_3  and  C4_4 
REMARK    4  A    between atoms: C5_5  and  C6_6 
REMARK    5  A    between atoms: C6_6  and  O1_9 
REMARK    6  A    between atoms: C27_30  and  O4_31 
REMARK    7  A    between atoms: O4_31  and  C28_32 
REMARK    8  A    between atoms: C29_34  and  C30_35 
REMARK    9  A    between atoms: C30_35  and  O6_36 
REMARK   10  A    between atoms: C31_37  and  O7_38 
REMARK   11  A    between atoms: C32_39  and  O8_40 
REMARK   12  A    between atoms: C33_41  and  O9_42 
ROOT
HETATM    1  C9  UNL     1     -12.693   9.073  15.594  1.00  0.00    -0.002 C 
HETATM    2  C10 UNL     1     -13.615  10.110  16.310  1.00  0.00     0.006 C 
HETATM    3  C11 UNL     1     -15.068   9.601  16.198  1.00  0.00     0.011 C 
HETATM    4  C12 UNL     1     -14.930   8.145  15.722  1.00  0.00    -0.028 C 
HETATM    5  C13 UNL     1     -14.615   7.313  17.010  1.00  0.00     0.016 C 
HETATM    6  C14 UNL     1     -16.171   7.561  14.975  1.00  0.00     0.035 C 
HETATM    7  C15 UNL     1     -17.426   7.496  15.833  1.00  0.00    -0.021 C 
HETATM    8  C16 UNL     1     -18.176   6.381  15.899  1.00  0.00     0.009 C 
HETATM    9  C17 UNL     1     -17.766   5.097  15.181  1.00  0.00     0.102 C 
HETATM   10  O2  UNL     1     -18.031   5.332  13.785  1.00  0.00    -0.304 OA
HETATM   11  C18 UNL     1     -16.966   5.995  13.233  1.00  0.00     0.270 C 
HETATM   12  O3  UNL     1     -16.953   6.411  12.087  1.00  0.00    -0.264 OA
HETATM   13  C19 UNL     1     -15.860   6.166  14.279  1.00  0.00     0.062 C 
HETATM   14  C20 UNL     1     -14.477   6.125  13.580  1.00  0.00     0.022 C 
HETATM   15  C21 UNL     1     -13.318   6.843  14.298  1.00  0.00     0.011 C 
HETATM   16  C22 UNL     1     -13.712   8.269  14.726  1.00  0.00    -0.032 C 
HETATM   17  C23 UNL     1     -14.023   9.101  13.440  1.00  0.00     0.016 C 
HETATM   18  C24 UNL     1     -16.224   4.993  15.232  1.00  0.00     0.045 C 
HETATM   19  C25 UNL     1     -15.695   3.583  14.914  1.00  0.00     0.012 C 
HETATM   20  C26 UNL     1     -16.664   2.731  14.121  1.00  0.00     0.033 C 
HETATM   21  C27 UNL     1     -18.001   2.534  14.849  1.00  0.00     0.136 C 
HETATM   22  C34 UNL     1     -18.514   3.801  15.639  1.00  0.00     0.015 C 
HETATM   23  C35 UNL     1     -20.049   3.945  15.455  1.00  0.00     0.021 C 
HETATM   24  C36 UNL     1     -18.271   3.557  17.154  1.00  0.00     0.021 C 
ENDROOT
BRANCH  21  25
HETATM   25  O4  UNL     1     -18.966   2.105  13.876  1.00  0.00    -0.352 OA
BRANCH  25  26
HETATM   26  C28 UNL     1     -18.444   1.933  12.559  1.00  0.00     0.292 C 
HETATM   27  O5  UNL     1     -19.089   2.803  11.625  1.00  0.00    -0.348 OA
HETATM   28  C29 UNL     1     -20.453   2.498  11.276  1.00  0.00     0.179 C 
HETATM   29  C31 UNL     1     -20.664   1.023  10.916  1.00  0.00     0.180 C 
HETATM   30  C32 UNL     1     -20.018   0.075  11.931  1.00  0.00     0.183 C 
HETATM   31  C33 UNL     1     -18.554   0.448  12.171  1.00  0.00     0.204 C 
BRANCH  28  32
HETATM   32  C30 UNL     1     -21.436   2.994  12.344  1.00  0.00     0.198 C 
BRANCH  32  33
HETATM   33  O6  UNL     1     -21.411   4.421  12.385  1.00  0.00    -0.398 OA
HETATM   34  H44 UNL     1     -20.476   4.666  12.509  1.00  0.00     0.209 HD
ENDBRANCH  32  33
ENDBRANCH  28  32
BRANCH  29  35
HETATM   35  O7  UNL     1     -20.091   0.738   9.622  1.00  0.00    -0.390 OA
HETATM   36  H46 UNL     1     -19.143   0.993   9.680  1.00  0.00     0.210 HD
ENDBRANCH  29  35
BRANCH  30  37
HETATM   37  O8  UNL     1     -20.066  -1.273  11.426  1.00  0.00    -0.390 OA
HETATM   38  H48 UNL     1     -20.263  -1.191  10.468  1.00  0.00     0.210 HD
ENDBRANCH  30  37
BRANCH  31  39
HETATM   39  O9  UNL     1     -17.786   0.176  10.983  1.00  0.00    -0.388 OA
HETATM   40  H50 UNL     1     -17.948  -0.771  10.797  1.00  0.00     0.210 HD
ENDBRANCH  31  39
ENDBRANCH  25  26
ENDBRANCH  21  25
BRANCH   1  41
HETATM   41  C2  UNL     1     -11.470   9.758  14.914  1.00  0.00    -0.010 C 
HETATM   42  C1  UNL     1     -11.193   9.214  13.509  1.00  0.00     0.010 C 
BRANCH  41  43
HETATM   43  C3  UNL     1     -10.172   9.674  15.765  1.00  0.00     0.031 C 
BRANCH  43  44
HETATM   44  C4  UNL     1      -9.164   8.656  15.303  1.00  0.00    -0.027 C 
HETATM   45  C5  UNL     1      -9.049   7.432  15.848  1.00  0.00     0.006 C 
BRANCH  45  46
HETATM   46  C6  UNL     1      -8.089   6.330  15.468  1.00  0.00     0.068 C 
HETATM   47  C7  UNL     1      -8.170   6.081  13.960  1.00  0.00     0.050 C 
HETATM   48  C8  UNL     1      -6.634   6.554  15.889  1.00  0.00     0.050 C 
BRANCH  46  49
HETATM   49  O1  UNL     1      -8.558   5.163  16.148  1.00  0.00    -0.387 OA
HETATM   50  H15 UNL     1      -8.097   4.393  15.777  1.00  0.00     0.211 HD
ENDBRANCH  46  49
ENDBRANCH  45  46
ENDBRANCH  43  44
ENDBRANCH  41  43
ENDBRANCH   1  41
TORSDOF 12
ENDMDL
MODEL 6
REMARK minimizedAffinity -7.99919462
REMARK CNNscore 0.189484745
REMARK CNNaffinity 6.03186989
REMARK  12 active torsions:
REMARK  status: ('A' for Active; 'I' for Inactive)
REMARK    1  A    between atoms: C2_2  and  C3_3 
REMARK    2  A    between atoms: C2_2  and  C9_10 
REMARK    3  A    between atoms: C3_3  and  C4_4 
REMARK    4  A    between atoms: C5_5  and  C6_6 
REMARK    5  A    between atoms: C6_6  and  O1_9 
REMARK    6  A    between atoms: C27_30  and  O4_31 
REMARK    7  A    between atoms: O4_31  and  C28_32 
REMARK    8  A    between atoms: C29_34  and  C30_35 
REMARK    9  A    between atoms: C30_35  and  O6_36 
REMARK   10  A    between atoms: C31_37  and  O7_38 
REMARK   11  A    between atoms: C32_39  and  O8_40 
REMARK   12  A    between atoms: C33_41  and  O9_42 
ROOT
HETATM    1  C9  UNL     1      -2.463  12.064  16.890  1.00  0.00    -0.002 C 
HETATM    2  C10 UNL     1      -3.109  11.154  17.982  1.00  0.00     0.006 C 
HETATM    3  C11 UNL     1      -1.981  10.672  18.918  1.00  0.00     0.011 C 
HETATM    4  C12 UNL     1      -0.777  11.560  18.560  1.00  0.00    -0.028 C 
HETATM    5  C13 UNL     1      -1.004  12.902  19.333  1.00  0.00     0.016 C 
HETATM    6  C14 UNL     1       0.625  10.960  18.892  1.00  0.00     0.035 C 
HETATM    7  C15 UNL     1       0.846  10.711  20.377  1.00  0.00    -0.021 C 
HETATM    8  C16 UNL     1       1.967  11.120  21.000  1.00  0.00     0.009 C 
HETATM    9  C17 UNL     1       3.039  11.925  20.269  1.00  0.00     0.102 C 
HETATM   10  O2  UNL     1       3.718  10.984  19.418  1.00  0.00    -0.304 OA
HETATM   11  C18 UNL     1       3.012  10.845  18.252  1.00  0.00     0.270 C 
HETATM   12  O3  UNL     1       3.299  10.039  17.382  1.00  0.00    -0.264 OA
HETATM   13  C19 UNL     1       1.813  11.799  18.253  1.00  0.00     0.062 C 
HETATM   14  C20 UNL     1       1.522  12.265  16.802  1.00  0.00     0.022 C 
HETATM   15  C21 UNL     1       0.081  12.713  16.497  1.00  0.00     0.011 C 
HETATM   16  C22 UNL     1      -0.951  11.685  16.996  1.00  0.00    -0.032 C 
HETATM   17  C23 UNL     1      -0.727  10.346  16.221  1.00  0.00     0.016 C 
HETATM   18  C24 UNL     1       2.331  12.861  19.263  1.00  0.00     0.045 C 
HETATM   19  C25 UNL     1       3.229  14.001  18.751  1.00  0.00     0.012 C 
HETATM   20  C26 UNL     1       4.711  13.717  18.881  1.00  0.00     0.033 C 
HETATM   21  C27 UNL     1       5.133  13.459  20.334  1.00  0.00     0.136 C 
HETATM   22  C34 UNL     1       4.086  12.641  21.188  1.00  0.00     0.015 C 
HETATM   23  C35 UNL     1       4.830  11.620  22.091  1.00  0.00     0.021 C 
HETATM   24  C36 UNL     1       3.363  13.630  22.142  1.00  0.00     0.021 C 
ENDROOT
BRANCH  21  25
HETATM   25  O4  UNL     1       6.406  12.795  20.306  1.00  0.00    -0.352 OA
BRANCH  25  26
HETATM   26  C28 UNL     1       7.531  13.673  20.310  1.00  0.00     0.292 C 
HETATM   27  O5  UNL     1       8.393  13.421  19.196  1.00  0.00    -0.348 OA
HETATM   28  C29 UNL     1       9.163  12.204  19.223  1.00  0.00     0.179 C 
HETATM   29  C31 UNL     1       9.883  11.980  20.557  1.00  0.00     0.180 C 
HETATM   30  C32 UNL     1       8.963  12.201  21.762  1.00  0.00     0.183 C 
HETATM   31  C33 UNL     1       8.252  13.552  21.664  1.00  0.00     0.204 C 
BRANCH  28  32
HETATM   32  C30 UNL     1       8.327  10.994  18.788  1.00  0.00     0.198 C 
BRANCH  32  33
HETATM   33  O6  UNL     1       9.181  10.013  18.200  1.00  0.00    -0.398 OA
HETATM   34  H44 UNL     1       9.671  10.477  17.498  1.00  0.00     0.209 HD
ENDBRANCH  32  33
ENDBRANCH  28  32
BRANCH  29  35
HETATM   35  O7  UNL     1      10.998  12.889  20.682  1.00  0.00    -0.390 OA
HETATM   36  H46 UNL     1      10.625  13.794  20.589  1.00  0.00     0.210 HD
ENDBRANCH  29  35
BRANCH  30  37
HETATM   37  O8  UNL     1       9.746  12.186  22.971  1.00  0.00    -0.390 OA
HETATM   38  H48 UNL     1      10.678  12.296  22.685  1.00  0.00     0.210 HD
ENDBRANCH  30  37
BRANCH  31  39
HETATM   39  O9  UNL     1       9.210  14.614  21.826  1.00  0.00    -0.388 OA
HETATM   40  H50 UNL     1       9.637  14.431  22.688  1.00  0.00     0.210 HD
ENDBRANCH  31  39
ENDBRANCH  25  26
ENDBRANCH  21  25
BRANCH   1  41
HETATM   41  C2  UNL     1      -3.196  11.939  15.521  1.00  0.00    -0.010 C 
HETATM   42  C1  UNL     1      -3.607  13.296  14.942  1.00  0.00     0.010 C 
BRANCH  41  43
HETATM   43  C3  UNL     1      -4.437  11.005  15.578  1.00  0.00     0.031 C 
BRANCH  43  44
HETATM   44  C4  UNL     1      -4.217   9.610  15.052  1.00  0.00    -0.027 C 
HETATM   45  C5  UNL     1      -5.091   8.605  15.240  1.00  0.00     0.006 C 
BRANCH  45  46
HETATM   46  C6  UNL     1      -4.986   7.178  14.759  1.00  0.00     0.068 C 
HETATM   47  C7  UNL     1      -6.358   6.701  14.276  1.00  0.00     0.050 C 
HETATM   48  C8  UNL     1      -3.929   6.926  13.680  1.00  0.00     0.050 C 
BRANCH  46  49
HETATM   49  O1  UNL     1      -4.617   6.413  15.909  1.00  0.00    -0.387 OA
HETATM   50  H15 UNL     1      -4.735   5.473  15.695  1.00  0.00     0.211 HD
ENDBRANCH  46  49
ENDBRANCH  45  46
ENDBRANCH  43  44
ENDBRANCH  41  43
ENDBRANCH   1  41
TORSDOF 12
ENDMDL
MODEL 7
REMARK minimizedAffinity -7.48781586
REMARK CNNscore 0.183062732
REMARK CNNaffinity 6.7824688
REMARK  12 active torsions:
REMARK  status: ('A' for Active; 'I' for Inactive)
REMARK    1  A    between atoms: C2_2  and  C3_3 
REMARK    2  A    between atoms: C2_2  and  C9_10 
REMARK    3  A    between atoms: C3_3  and  C4_4 
REMARK    4  A    between atoms: C5_5  and  C6_6 
REMARK    5  A    between atoms: C6_6  and  O1_9 
REMARK    6  A    between atoms: C27_30  and  O4_31 
REMARK    7  A    between atoms: O4_31  and  C28_32 
REMARK    8  A    between atoms: C29_34  and  C30_35 
REMARK    9  A    between atoms: C30_35  and  O6_36 
REMARK   10  A    between atoms: C31_37  and  O7_38 
REMARK   11  A    between atoms: C32_39  and  O8_40 
REMARK   12  A    between atoms: C33_41  and  O9_42 
ROOT
HETATM    1  C9  UNL     1     -12.054   9.106  15.854  1.00  0.00    -0.002 C 
HETATM    2  C10 UNL     1     -12.792  10.470  16.038  1.00  0.00     0.006 C 
HETATM    3  C11 UNL     1     -14.207  10.322  15.438  1.00  0.00     0.011 C 
HETATM    4  C12 UNL     1     -14.377   8.809  15.222  1.00  0.00    -0.028 C 
HETATM    5  C13 UNL     1     -14.783   8.231  16.619  1.00  0.00     0.016 C 
HETATM    6  C14 UNL     1     -15.414   8.397  14.130  1.00  0.00     0.035 C 
HETATM    7  C15 UNL     1     -16.838   8.835  14.444  1.00  0.00    -0.021 C 
HETATM    8  C16 UNL     1     -17.874   7.981  14.346  1.00  0.00     0.009 C 
HETATM    9  C17 UNL     1     -17.667   6.510  13.992  1.00  0.00     0.102 C 
HETATM   10  O2  UNL     1     -17.367   6.488  12.585  1.00  0.00    -0.304 OA
HETATM   11  C18 UNL     1     -16.029   6.730  12.409  1.00  0.00     0.270 C 
HETATM   12  O3  UNL     1     -15.507   6.866  11.315  1.00  0.00    -0.264 OA
HETATM   13  C19 UNL     1     -15.339   6.851  13.772  1.00  0.00     0.062 C 
HETATM   14  C20 UNL     1     -13.887   6.317  13.665  1.00  0.00     0.022 C 
HETATM   15  C21 UNL     1     -12.871   6.868  14.683  1.00  0.00     0.011 C 
HETATM   16  C22 UNL     1     -12.923   8.406  14.761  1.00  0.00    -0.032 C 
HETATM   17  C23 UNL     1     -12.513   8.983  13.367  1.00  0.00     0.016 C 
HETATM   18  C24 UNL     1     -16.343   6.044  14.641  1.00  0.00     0.045 C 
HETATM   19  C25 UNL     1     -16.204   4.513  14.714  1.00  0.00     0.012 C 
HETATM   20  C26 UNL     1     -17.068   3.772  13.715  1.00  0.00     0.033 C 
HETATM   21  C27 UNL     1     -18.561   4.075  13.894  1.00  0.00     0.136 C 
HETATM   22  C34 UNL     1     -18.888   5.572  14.276  1.00  0.00     0.015 C 
HETATM   23  C35 UNL     1     -20.150   6.046  13.503  1.00  0.00     0.021 C 
HETATM   24  C36 UNL     1     -19.251   5.618  15.785  1.00  0.00     0.021 C 
ENDROOT
BRANCH  21  25
HETATM   25  O4  UNL     1     -19.230   3.693  12.682  1.00  0.00    -0.352 OA
BRANCH  25  26
HETATM   26  C28 UNL     1     -20.401   2.901  12.875  1.00  0.00     0.292 C 
HETATM   27  O5  UNL     1     -20.067   1.550  13.205  1.00  0.00    -0.348 OA
HETATM   28  C29 UNL     1     -19.518   0.734  12.153  1.00  0.00     0.179 C 
HETATM   29  C31 UNL     1     -20.318   0.817  10.849  1.00  0.00     0.180 C 
HETATM   30  C32 UNL     1     -20.647   2.260  10.457  1.00  0.00     0.183 C 
HETATM   31  C33 UNL     1     -21.290   3.011  11.624  1.00  0.00     0.204 C 
BRANCH  28  32
HETATM   32  C30 UNL     1     -18.021   1.003  11.950  1.00  0.00     0.198 C 
BRANCH  32  33
HETATM   33  O6  UNL     1     -17.506   0.104  10.968  1.00  0.00    -0.398 OA
HETATM   34  H44 UNL     1     -17.749  -0.789  11.274  1.00  0.00     0.209 HD
ENDBRANCH  32  33
ENDBRANCH  28  32
BRANCH  29  35
HETATM   35  O7  UNL     1     -21.566   0.103  10.983  1.00  0.00    -0.390 OA
HETATM   36  H46 UNL     1     -22.031   0.505  11.751  1.00  0.00     0.210 HD
ENDBRANCH  29  35
BRANCH  30  37
HETATM   37  O8  UNL     1     -21.573   2.258   9.353  1.00  0.00    -0.390 OA
HETATM   38  H48 UNL     1     -21.941   1.349   9.318  1.00  0.00     0.210 HD
ENDBRANCH  30  37
BRANCH  31  39
HETATM   39  O9  UNL     1     -22.599   2.471  11.882  1.00  0.00    -0.388 OA
HETATM   40  H50 UNL     1     -23.071   2.550  11.028  1.00  0.00     0.210 HD
ENDBRANCH  31  39
ENDBRANCH  25  26
ENDBRANCH  21  25
BRANCH   1  41
HETATM   41  C2  UNL     1     -10.526   9.301  15.619  1.00  0.00    -0.010 C 
HETATM   42  C1  UNL     1     -10.162  10.745  15.261  1.00  0.00     0.010 C 
BRANCH  41  43
HETATM   43  C3  UNL     1      -9.947   8.340  14.545  1.00  0.00     0.031 C 
BRANCH  43  44
HETATM   44  C4  UNL     1      -8.907   7.370  15.042  1.00  0.00    -0.027 C 
HETATM   45  C5  UNL     1      -8.495   6.304  14.334  1.00  0.00     0.006 C 
BRANCH  45  46
HETATM   46  C6  UNL     1      -7.462   5.272  14.720  1.00  0.00     0.068 C 
HETATM   47  C7  UNL     1      -7.473   4.133  13.698  1.00  0.00     0.050 C 
HETATM   48  C8  UNL     1      -6.038   5.806  14.901  1.00  0.00     0.050 C 
BRANCH  46  49
HETATM   49  O1  UNL     1      -7.890   4.756  15.983  1.00  0.00    -0.387 OA
HETATM   50  H15 UNL     1      -7.374   3.955  16.171  1.00  0.00     0.211 HD
ENDBRANCH  46  49
ENDBRANCH  45  46
ENDBRANCH  43  44
ENDBRANCH  41  43
ENDBRANCH   1  41
TORSDOF 12
ENDMDL
MODEL 8
REMARK minimizedAffinity -8.10858727
REMARK CNNscore 0.168777481
REMARK CNNaffinity 4.73507452
REMARK  12 active torsions:
REMARK  status: ('A' for Active; 'I' for Inactive)
REMARK    1  A    between atoms: C2_2  and  C3_3 
REMARK    2  A    between atoms: C2_2  and  C9_10 
REMARK    3  A    between atoms: C3_3  and  C4_4 
REMARK    4  A    between atoms: C5_5  and  C6_6 
REMARK    5  A    between atoms: C6_6  and  O1_9 
REMARK    6  A    between atoms: C27_30  and  O4_31 
REMARK    7  A    between atoms: O4_31  and  C28_32 
REMARK    8  A    between atoms: C29_34  and  C30_35 
REMARK    9  A    between atoms: C30_35  and  O6_36 
REMARK   10  A    between atoms: C31_37  and  O7_38 
REMARK   11  A    between atoms: C32_39  and  O8_40 
REMARK   12  A    between atoms: C33_41  and  O9_42 
ROOT
HETATM    1  C9  UNL     1       6.131  12.570  22.192  1.00  0.00    -0.002 C 
HETATM    2  C10 UNL     1       5.726  11.358  23.089  1.00  0.00     0.006 C 
HETATM    3  C11 UNL     1       4.258  11.007  22.768  1.00  0.00     0.011 C 
HETATM    4  C12 UNL     1       3.947  11.790  21.481  1.00  0.00    -0.028 C 
HETATM    5  C13 UNL     1       4.530  10.924  20.315  1.00  0.00     0.016 C 
HETATM    6  C14 UNL     1       2.439  12.108  21.233  1.00  0.00     0.035 C 
HETATM    7  C15 UNL     1       1.573  10.868  21.066  1.00  0.00    -0.021 C 
HETATM    8  C16 UNL     1       0.698  10.752  20.049  1.00  0.00     0.009 C 
HETATM    9  C17 UNL     1       0.587  11.822  18.965  1.00  0.00     0.102 C 
HETATM   10  O2  UNL     1      -0.100  12.927  19.581  1.00  0.00    -0.304 OA
HETATM   11  C18 UNL     1       0.809  13.695  20.261  1.00  0.00     0.270 C 
HETATM   12  O3  UNL     1       0.499  14.646  20.959  1.00  0.00    -0.264 OA
HETATM   13  C19 UNL     1       2.222  13.142  20.046  1.00  0.00     0.062 C 
HETATM   14  C20 UNL     1       3.242  14.310  20.058  1.00  0.00     0.022 C 
HETATM   15  C21 UNL     1       4.690  13.960  20.449  1.00  0.00     0.011 C 
HETATM   16  C22 UNL     1       4.742  13.128  21.744  1.00  0.00    -0.032 C 
HETATM   17  C23 UNL     1       4.163  13.994  22.910  1.00  0.00     0.016 C 
HETATM   18  C24 UNL     1       2.002  12.388  18.705  1.00  0.00     0.045 C 
HETATM   19  C25 UNL     1       2.114  13.169  17.384  1.00  0.00     0.012 C 
HETATM   20  C26 UNL     1       0.789  13.688  16.865  1.00  0.00     0.033 C 
HETATM   21  C27 UNL     1      -0.222  12.561  16.612  1.00  0.00     0.136 C 
HETATM   22  C34 UNL     1      -0.182  11.391  17.671  1.00  0.00     0.015 C 
HETATM   23  C35 UNL     1      -1.630  10.937  18.004  1.00  0.00     0.021 C 
HETATM   24  C36 UNL     1       0.523  10.171  17.018  1.00  0.00     0.021 C 
ENDROOT
BRANCH  21  25
HETATM   25  O4  UNL     1      -1.527  13.155  16.547  1.00  0.00    -0.352 OA
BRANCH  25  26
HETATM   26  C28 UNL     1      -1.527  14.561  16.300  1.00  0.00     0.292 C 
HETATM   27  O5  UNL     1      -2.774  15.156  16.673  1.00  0.00    -0.348 OA
HETATM   28  C29 UNL     1      -3.914  14.867  15.841  1.00  0.00     0.179 C 
HETATM   29  C31 UNL     1      -3.626  15.044  14.347  1.00  0.00     0.180 C 
HETATM   30  C32 UNL     1      -2.316  14.375  13.920  1.00  0.00     0.183 C 
HETATM   31  C33 UNL     1      -1.162  14.807  14.826  1.00  0.00     0.204 C 
BRANCH  28  32
HETATM   32  C30 UNL     1      -4.523  13.498  16.170  1.00  0.00     0.198 C 
BRANCH  32  33
HETATM   33  O6  UNL     1      -5.940  13.557  16.005  1.00  0.00    -0.398 OA
HETATM   34  H44 UNL     1      -6.239  14.307  16.550  1.00  0.00     0.209 HD
ENDBRANCH  32  33
ENDBRANCH  28  32
BRANCH  29  35
HETATM   35  O7  UNL     1      -3.529  16.447  14.020  1.00  0.00    -0.390 OA
HETATM   36  H46 UNL     1      -2.824  16.815  14.598  1.00  0.00     0.210 HD
ENDBRANCH  29  35
BRANCH  30  37
HETATM   37  O8  UNL     1      -2.000  14.758  12.568  1.00  0.00    -0.390 OA
HETATM   38  H48 UNL     1      -2.563  15.538  12.375  1.00  0.00     0.210 HD
ENDBRANCH  30  37
BRANCH  31  39
HETATM   39  O9  UNL     1      -0.868  16.199  14.602  1.00  0.00    -0.388 OA
HETATM   40  H50 UNL     1      -0.688  16.261  13.642  1.00  0.00     0.210 HD
ENDBRANCH  31  39
ENDBRANCH  25  26
ENDBRANCH  21  25
BRANCH   1  41
HETATM   41  C2  UNL     1       7.145  13.510  22.912  1.00  0.00    -0.010 C 
HETATM   42  C1  UNL     1       7.303  14.861  22.207  1.00  0.00     0.010 C 
BRANCH  41  43
HETATM   43  C3  UNL     1       8.543  12.862  23.107  1.00  0.00     0.031 C 
BRANCH  43  44
HETATM   44  C4  UNL     1       9.121  12.198  21.885  1.00  0.00    -0.027 C 
HETATM   45  C5  UNL     1      10.210  12.657  21.242  1.00  0.00     0.006 C 
BRANCH  45  46
HETATM   46  C6  UNL     1      10.882  12.078  20.021  1.00  0.00     0.068 C 
HETATM   47  C7  UNL     1       9.860  11.284  19.204  1.00  0.00     0.050 C 
HETATM   48  C8  UNL     1      11.601  13.092  19.125  1.00  0.00     0.050 C 
BRANCH  46  49
HETATM   49  O1  UNL     1      11.869  11.172  20.520  1.00  0.00    -0.387 OA
HETATM   50  H15 UNL     1      12.184  10.631  19.777  1.00  0.00     0.211 HD
ENDBRANCH  46  49
ENDBRANCH  45  46
ENDBRANCH  43  44
ENDBRANCH  41  43
ENDBRANCH   1  41
TORSDOF 12
ENDMDL
MODEL 9
REMARK minimizedAffinity -9.67340851
REMARK CNNscore 0.155015409
REMARK CNNaffinity 6.72248411
REMARK  12 active torsions:
REMARK  status: ('A' for Active; 'I' for Inactive)
REMARK    1  A    between atoms: C2_2  and  C3_3 
REMARK    2  A    between atoms: C2_2  and  C9_10 
REMARK    3  A    between atoms: C3_3  and  C4_4 
REMARK    4  A    between atoms: C5_5  and  C6_6 
REMARK    5  A    between atoms: C6_6  and  O1_9 
REMARK    6  A    between atoms: C27_30  and  O4_31 
REMARK    7  A    between atoms: O4_31  and  C28_32 
REMARK    8  A    between atoms: C29_34  and  C30_35 
REMARK    9  A    between atoms: C30_35  and  O6_36 
REMARK   10  A    between atoms: C31_37  and  O7_38 
REMARK   11  A    between atoms: C32_39  and  O8_40 
REMARK   12  A    between atoms: C33_41  and  O9_42 
ROOT
HETATM    1  C9  UNL     1      -5.398   6.973  14.899  1.00  0.00    -0.002 C 
HETATM    2  C10 UNL     1      -5.905   7.438  13.497  1.00  0.00     0.006 C 
HETATM    3  C11 UNL     1      -4.733   8.149  12.787  1.00  0.00     0.011 C 
HETATM    4  C12 UNL     1      -3.499   7.797  13.635  1.00  0.00    -0.028 C 
HETATM    5  C13 UNL     1      -3.066   6.367  13.169  1.00  0.00     0.016 C 
HETATM    6  C14 UNL     1      -2.305   8.798  13.533  1.00  0.00     0.035 C 
HETATM    7  C15 UNL     1      -1.711   8.899  12.136  1.00  0.00    -0.021 C 
HETATM    8  C16 UNL     1      -0.383   8.825  11.929  1.00  0.00     0.009 C 
HETATM    9  C17 UNL     1       0.591   8.556  13.074  1.00  0.00     0.102 C 
HETATM   10  O2  UNL     1       0.660   9.785  13.821  1.00  0.00    -0.304 OA
HETATM   11  C18 UNL     1      -0.386   9.828  14.706  1.00  0.00     0.270 C 
HETATM   12  O3  UNL     1      -0.637  10.797  15.404  1.00  0.00    -0.264 OA
HETATM   13  C19 UNL     1      -1.187   8.525  14.630  1.00  0.00     0.062 C 
HETATM   14  C20 UNL     1      -1.770   8.194  16.028  1.00  0.00     0.022 C 
HETATM   15  C21 UNL     1      -3.036   7.317  16.060  1.00  0.00     0.011 C 
HETATM   16  C22 UNL     1      -4.112   7.839  15.089  1.00  0.00    -0.032 C 
HETATM   17  C23 UNL     1      -4.547   9.265  15.557  1.00  0.00     0.016 C 
HETATM   18  C24 UNL     1      -0.090   7.582  14.062  1.00  0.00     0.045 C 
HETATM   19  C25 UNL     1       0.894   6.911  15.037  1.00  0.00     0.012 C 
HETATM   20  C26 UNL     1       2.189   7.675  15.219  1.00  0.00     0.033 C 
HETATM   21  C27 UNL     1       2.951   7.859  13.900  1.00  0.00     0.136 C 
HETATM   22  C34 UNL     1       2.035   8.131  12.643  1.00  0.00     0.015 C 
HETATM   23  C35 UNL     1       2.692   9.211  11.741  1.00  0.00     0.021 C 
HETATM   24  C36 UNL     1       1.974   6.829  11.799  1.00  0.00     0.021 C 
ENDROOT
BRANCH  21  25
HETATM   25  O4  UNL     1       3.897   8.923  14.090  1.00  0.00    -0.352 OA
BRANCH  25  26
HETATM   26  C28 UNL     1       5.178   8.502  14.557  1.00  0.00     0.292 C 
HETATM   27  O5  UNL     1       6.184   9.477  14.270  1.00  0.00    -0.348 OA
HETATM   28  C29 UNL     1       6.579   9.628  12.893  1.00  0.00     0.179 C 
HETATM   29  C31 UNL     1       6.873   8.291  12.204  1.00  0.00     0.180 C 
HETATM   30  C32 UNL     1       5.783   7.247  12.464  1.00  0.00     0.183 C 
HETATM   31  C33 UNL     1       5.495   7.119  13.961  1.00  0.00     0.204 C 
BRANCH  28  32
HETATM   32  C30 UNL     1       5.585  10.493  12.109  1.00  0.00     0.198 C 
BRANCH  32  33
HETATM   33  O6  UNL     1       6.103  10.749  10.804  1.00  0.00    -0.398 OA
HETATM   34  H44 UNL     1       6.991  11.125  10.942  1.00  0.00     0.209 HD
ENDBRANCH  32  33
ENDBRANCH  28  32
BRANCH  29  35
HETATM   35  O7  UNL     1       8.124   7.748  12.681  1.00  0.00    -0.390 OA
HETATM   36  H46 UNL     1       8.034   7.671  13.657  1.00  0.00     0.210 HD
ENDBRANCH  29  35
BRANCH  30  37
HETATM   37  O8  UNL     1       6.220   5.965  11.975  1.00  0.00    -0.390 OA
HETATM   38  H48 UNL     1       7.189   6.047  11.843  1.00  0.00     0.210 HD
ENDBRANCH  30  37
BRANCH  31  39
HETATM   39  O9  UNL     1       6.630   6.530  14.622  1.00  0.00    -0.388 OA
HETATM   40  H50 UNL     1       6.775   5.682  14.153  1.00  0.00     0.210 HD
ENDBRANCH  31  39
ENDBRANCH  25  26
ENDBRANCH  21  25
BRANCH   1  41
HETATM   41  C2  UNL     1      -6.529   7.024  15.970  1.00  0.00    -0.010 C 
HETATM   42  C1  UNL     1      -7.149   5.649  16.242  1.00  0.00     0.010 C 
BRANCH  41  43
HETATM   43  C3  UNL     1      -7.653   8.038  15.623  1.00  0.00     0.031 C 
BRANCH  43  44
HETATM   44  C4  UNL     1      -8.893   7.440  15.013  1.00  0.00    -0.027 C 
HETATM   45  C5  UNL     1     -10.031   8.133  14.827  1.00  0.00     0.006 C 
BRANCH  45  46
HETATM   46  C6  UNL     1     -11.327   7.649  14.223  1.00  0.00     0.068 C 
HETATM   47  C7  UNL     1     -12.461   8.598  14.624  1.00  0.00     0.050 C 
HETATM   48  C8  UNL     1     -11.312   7.456  12.704  1.00  0.00     0.050 C 
BRANCH  46  49
HETATM   49  O1  UNL     1     -11.572   6.371  14.816  1.00  0.00    -0.387 OA
HETATM   50  H15 UNL     1     -12.487   6.116  14.613  1.00  0.00     0.211 HD
ENDBRANCH  46  49
ENDBRANCH  45  46
ENDBRANCH  43  44
ENDBRANCH  41  43
ENDBRANCH   1  41
TORSDOF 12
ENDMDL
