MODEL 1
REMARK minimizedAffinity -8.72177696
REMARK CNNscore 0.878577471
REMARK CNNaffinity 7.53736353
REMARK  12 active torsions:
REMARK  status: ('A' for Active; 'I' for Inactive)
REMARK    1  A    between atoms: C2_2  and  C17_19 
REMARK    2  A    between atoms: C3_3  and  C4_4 
REMARK    3  A    between atoms: C4_4  and  C5_5 
REMARK    4  A    between atoms: C5_5  and  C6_6 
REMARK    5  A    between atoms: C12_12  and  O1_13 
REMARK    6  A    between atoms: C17_19  and  C18_20 
REMARK    7  A    between atoms: C19_21  and  C20_22 
REMARK    8  A    between atoms: C20_22  and  C22_24 
REMARK    9  A    between atoms: C22_24  and  C23_26 
REMARK   10  A    between atoms: C23_26  and  O4_27 
REMARK   11  A    between atoms: C23_26  and  C24_28 
REMARK   12  A    between atoms: C24_28  and  C25_29 
ROOT
HETATM    1  C1  UNL     1      -5.990  49.954 -21.445  1.00  0.00     0.043 C 
HETATM    2  C2  UNL     1      -4.607  50.412 -21.824  1.00  0.00    -0.084 C 
HETATM    3  C3  UNL     1      -3.663  50.775 -20.932  1.00  0.00    -0.024 C 
ENDROOT
BRANCH   3   4
HETATM    4  C4  UNL     1      -3.747  50.698 -19.433  1.00  0.00     0.030 C 
BRANCH   4   5
HETATM    5  C5  UNL     1      -2.525  51.188 -18.645  1.00  0.00     0.042 C 
BRANCH   5   6
HETATM    6  C6  UNL     1      -1.177  50.440 -18.812  1.00  0.00     0.065 C 
HETATM    7  C7  UNL     1      -1.362  48.926 -18.613  1.00  0.00     0.046 C 
HETATM    8  C8  UNL     1      -0.052  50.918 -17.884  1.00  0.00     0.043 C 
HETATM    9  C9  UNL     1       0.317  52.364 -18.166  1.00  0.00     0.044 C 
HETATM   10  C10 UNL     1       0.473  52.586 -19.642  1.00  0.00    -0.021 A 
HETATM   11  C11 UNL     1       1.160  53.718 -20.103  1.00  0.00     0.046 A 
HETATM   12  C16 UNL     1      -0.082  51.689 -20.565  1.00  0.00     0.082 A 
HETATM   13  C12 UNL     1       1.306  53.927 -21.470  1.00  0.00     0.066 A 
HETATM   14  C13 UNL     1       0.774  53.030 -22.387  1.00  0.00     0.046 A 
HETATM   15  C14 UNL     1       0.076  51.900 -21.944  1.00  0.00    -0.025 A 
HETATM   16  C15 UNL     1      -0.491  50.930 -22.943  1.00  0.00     0.051 C 
HETATM   17  O2  UNL     1      -0.785  50.573 -20.199  1.00  0.00    -0.340 OA
BRANCH  13  18
HETATM   18  O1  UNL     1       1.969  55.016 -21.958  1.00  0.00    -0.361 OA
HETATM   19  H17 UNL     1       2.328  55.523 -21.209  1.00  0.00     0.217 HD
ENDBRANCH  13  18
ENDBRANCH   5   6
ENDBRANCH   4   5
ENDBRANCH   3   4
BRANCH   2  20
HETATM   20  C17 UNL     1      -4.335  50.476 -23.321  1.00  0.00     0.060 C 
BRANCH  20  21
HETATM   21  C18 UNL     1      -4.185  51.896 -23.789  1.00  0.00    -0.026 C 
HETATM   22  C19 UNL     1      -3.431  52.406 -24.781  1.00  0.00    -0.019 C 
BRANCH  22  23
HETATM   23  C20 UNL     1      -2.463  51.738 -25.729  1.00  0.00     0.076 C 
HETATM   24  C21 UNL     1      -3.039  50.572 -26.536  1.00  0.00     0.022 C 
BRANCH  23  25
HETATM   25  C22 UNL     1      -1.805  52.795 -26.628  1.00  0.00     0.162 C 
HETATM   26  O3  UNL     1      -2.313  53.173 -27.692  1.00  0.00    -0.294 OA
BRANCH  25  27
HETATM   27  C23 UNL     1      -0.515  53.475 -26.126  1.00  0.00     0.188 C 
BRANCH  27  28
HETATM   28  O4  UNL     1      -0.083  54.481 -27.040  1.00  0.00    -0.388 OA
HETATM   29  H31 UNL     1      -0.739  54.495 -27.768  1.00  0.00     0.210 HD
ENDBRANCH  27  28
BRANCH  27  30
HETATM   30  C24 UNL     1       0.651  52.528 -25.806  1.00  0.00     0.043 C 
BRANCH  30  31
HETATM   31  C25 UNL     1       1.186  51.576 -26.902  1.00  0.00    -0.020 C 
HETATM   32  C26 UNL     1       2.697  51.336 -26.827  1.00  0.00     0.009 C 
HETATM   33  C27 UNL     1       0.781  51.979 -28.317  1.00  0.00     0.009 C 
ENDBRANCH  30  31
ENDBRANCH  27  30
ENDBRANCH  25  27
ENDBRANCH  23  25
ENDBRANCH  22  23
ENDBRANCH  20  21
ENDBRANCH   2  20
TORSDOF 12
ENDMDL
MODEL 2
REMARK minimizedAffinity -8.95814323
REMARK CNNscore 0.863092601
REMARK CNNaffinity 7.55566263
REMARK  12 active torsions:
REMARK  status: ('A' for Active; 'I' for Inactive)
REMARK    1  A    between atoms: C2_2  and  C17_19 
REMARK    2  A    between atoms: C3_3  and  C4_4 
REMARK    3  A    between atoms: C4_4  and  C5_5 
REMARK    4  A    between atoms: C5_5  and  C6_6 
REMARK    5  A    between atoms: C12_12  and  O1_13 
REMARK    6  A    between atoms: C17_19  and  C18_20 
REMARK    7  A    between atoms: C19_21  and  C20_22 
REMARK    8  A    between atoms: C20_22  and  C22_24 
REMARK    9  A    between atoms: C22_24  and  C23_26 
REMARK   10  A    between atoms: C23_26  and  O4_27 
REMARK   11  A    between atoms: C23_26  and  C24_28 
REMARK   12  A    between atoms: C24_28  and  C25_29 
ROOT
HETATM    1  C1  UNL     1      -3.924  49.219 -21.729  1.00  0.00     0.043 C 
HETATM    2  C2  UNL     1      -4.158  50.689 -21.505  1.00  0.00    -0.084 C 
HETATM    3  C3  UNL     1      -4.052  51.295 -20.304  1.00  0.00    -0.024 C 
ENDROOT
BRANCH   3   4
HETATM    4  C4  UNL     1      -3.590  50.682 -19.011  1.00  0.00     0.030 C 
BRANCH   4   5
HETATM    5  C5  UNL     1      -2.289  51.229 -18.412  1.00  0.00     0.042 C 
BRANCH   5   6
HETATM    6  C6  UNL     1      -0.961  50.478 -18.689  1.00  0.00     0.065 C 
HETATM    7  C7  UNL     1      -1.135  48.963 -18.481  1.00  0.00     0.046 C 
HETATM    8  C8  UNL     1       0.237  50.947 -17.854  1.00  0.00     0.043 C 
HETATM    9  C9  UNL     1       0.588  52.394 -18.160  1.00  0.00     0.044 C 
HETATM   10  C10 UNL     1       0.625  52.620 -19.643  1.00  0.00    -0.021 A 
HETATM   11  C11 UNL     1       1.277  53.751 -20.155  1.00  0.00     0.046 A 
HETATM   12  C16 UNL     1      -0.006  51.728 -20.522  1.00  0.00     0.082 A 
HETATM   13  C12 UNL     1       1.313  53.964 -21.528  1.00  0.00     0.066 A 
HETATM   14  C13 UNL     1       0.705  53.072 -22.402  1.00  0.00     0.046 A 
HETATM   15  C14 UNL     1       0.040  51.943 -21.908  1.00  0.00    -0.025 A 
HETATM   16  C15 UNL     1      -0.609  50.979 -22.861  1.00  0.00     0.051 C 
HETATM   17  O2  UNL     1      -0.682  50.613 -20.103  1.00  0.00    -0.340 OA
BRANCH  13  18
HETATM   18  O1  UNL     1       1.938  55.052 -22.064  1.00  0.00    -0.361 OA
HETATM   19  H17 UNL     1       2.358  55.556 -21.345  1.00  0.00     0.217 HD
ENDBRANCH  13  18
ENDBRANCH   5   6
ENDBRANCH   4   5
ENDBRANCH   3   4
BRANCH   2  20
HETATM   20  C17 UNL     1      -4.566  51.475 -22.744  1.00  0.00     0.060 C 
BRANCH  20  21
HETATM   21  C18 UNL     1      -5.129  50.571 -23.805  1.00  0.00    -0.026 C 
HETATM   22  C19 UNL     1      -4.544  50.051 -24.899  1.00  0.00    -0.019 C 
BRANCH  22  23
HETATM   23  C20 UNL     1      -3.147  50.224 -25.449  1.00  0.00     0.076 C 
HETATM   24  C21 UNL     1      -2.604  49.032 -26.239  1.00  0.00     0.022 C 
BRANCH  23  25
HETATM   25  C22 UNL     1      -3.063  51.534 -26.247  1.00  0.00     0.162 C 
HETATM   26  O3  UNL     1      -3.537  52.599 -25.829  1.00  0.00    -0.294 OA
BRANCH  25  27
HETATM   27  C23 UNL     1      -2.269  51.530 -27.569  1.00  0.00     0.188 C 
BRANCH  27  28
HETATM   28  O4  UNL     1      -2.909  50.709 -28.543  1.00  0.00    -0.388 OA
HETATM   29  H31 UNL     1      -3.719  50.356 -28.119  1.00  0.00     0.210 HD
ENDBRANCH  27  28
BRANCH  27  30
HETATM   30  C24 UNL     1      -0.789  51.138 -27.450  1.00  0.00     0.043 C 
BRANCH  30  31
HETATM   31  C25 UNL     1       0.294  52.026 -28.108  1.00  0.00    -0.020 C 
HETATM   32  C26 UNL     1       1.690  51.847 -27.505  1.00  0.00     0.009 C 
HETATM   33  C27 UNL     1      -0.077  53.506 -28.162  1.00  0.00     0.009 C 
ENDBRANCH  30  31
ENDBRANCH  27  30
ENDBRANCH  25  27
ENDBRANCH  23  25
ENDBRANCH  22  23
ENDBRANCH  20  21
ENDBRANCH   2  20
TORSDOF 12
ENDMDL
MODEL 3
REMARK minimizedAffinity -8.25380898
REMARK CNNscore 0.490829378
REMARK CNNaffinity 6.49862719
REMARK  12 active torsions:
REMARK  status: ('A' for Active; 'I' for Inactive)
REMARK    1  A    between atoms: C2_2  and  C17_19 
REMARK    2  A    between atoms: C3_3  and  C4_4 
REMARK    3  A    between atoms: C4_4  and  C5_5 
REMARK    4  A    between atoms: C5_5  and  C6_6 
REMARK    5  A    between atoms: C12_12  and  O1_13 
REMARK    6  A    between atoms: C17_19  and  C18_20 
REMARK    7  A    between atoms: C19_21  and  C20_22 
REMARK    8  A    between atoms: C20_22  and  C22_24 
REMARK    9  A    between atoms: C22_24  and  C23_26 
REMARK   10  A    between atoms: C23_26  and  O4_27 
REMARK   11  A    between atoms: C23_26  and  C24_28 
REMARK   12  A    between atoms: C24_28  and  C25_29 
ROOT
HETATM    1  C1  UNL     1      -3.130  50.322 -25.735  1.00  0.00     0.043 C 
HETATM    2  C2  UNL     1      -4.088  49.383 -25.051  1.00  0.00    -0.084 C 
HETATM    3  C3  UNL     1      -4.389  49.440 -23.737  1.00  0.00    -0.024 C 
ENDROOT
BRANCH   3   4
HETATM    4  C4  UNL     1      -3.940  50.474 -22.743  1.00  0.00     0.030 C 
BRANCH   4   5
HETATM    5  C5  UNL     1      -3.278  49.958 -21.459  1.00  0.00     0.042 C 
BRANCH   5   6
HETATM    6  C6  UNL     1      -1.876  49.300 -21.550  1.00  0.00     0.065 C 
HETATM    7  C7  UNL     1      -1.972  47.892 -22.162  1.00  0.00     0.046 C 
HETATM    8  C8  UNL     1      -1.118  49.201 -20.220  1.00  0.00     0.043 C 
HETATM    9  C9  UNL     1      -0.817  50.579 -19.655  1.00  0.00     0.044 C 
HETATM   10  C10 UNL     1      -0.259  51.472 -20.723  1.00  0.00    -0.021 A 
HETATM   11  C11 UNL     1       0.425  52.641 -20.361  1.00  0.00     0.046 A 
HETATM   12  C16 UNL     1      -0.438  51.166 -22.080  1.00  0.00     0.082 A 
HETATM   13  C12 UNL     1       0.943  53.471 -21.349  1.00  0.00     0.066 A 
HETATM   14  C13 UNL     1       0.785  53.161 -22.693  1.00  0.00     0.046 A 
HETATM   15  C14 UNL     1       0.094  52.003 -23.073  1.00  0.00    -0.025 A 
HETATM   16  C15 UNL     1      -0.066  51.671 -24.530  1.00  0.00     0.051 C 
HETATM   17  O2  UNL     1      -1.111  50.058 -22.518  1.00  0.00    -0.340 OA
BRANCH  13  18
HETATM   18  O1  UNL     1       1.616  54.616 -21.036  1.00  0.00    -0.361 OA
HETATM   19  H17 UNL     1       1.693  54.678 -20.068  1.00  0.00     0.217 HD
ENDBRANCH  13  18
ENDBRANCH   5   6
ENDBRANCH   4   5
ENDBRANCH   3   4
BRANCH   2  20
HETATM   20  C17 UNL     1      -4.692  48.310 -25.946  1.00  0.00     0.060 C 
BRANCH  20  21
HETATM   21  C18 UNL     1      -4.304  48.513 -27.384  1.00  0.00    -0.026 C 
HETATM   22  C19 UNL     1      -4.957  48.182 -28.513  1.00  0.00    -0.019 C 
BRANCH  22  23
HETATM   23  C20 UNL     1      -6.273  47.468 -28.719  1.00  0.00     0.076 C 
HETATM   24  C21 UNL     1      -7.104  47.252 -27.452  1.00  0.00     0.022 C 
BRANCH  23  25
HETATM   25  C22 UNL     1      -7.076  48.171 -29.824  1.00  0.00     0.162 C 
HETATM   26  O3  UNL     1      -6.634  48.326 -30.971  1.00  0.00    -0.294 OA
BRANCH  25  27
HETATM   27  C23 UNL     1      -8.522  48.603 -29.509  1.00  0.00     0.188 C 
BRANCH  27  28
HETATM   28  O4  UNL     1      -8.576  49.341 -28.290  1.00  0.00    -0.388 OA
HETATM   29  H31 UNL     1      -7.656  49.399 -27.959  1.00  0.00     0.210 HD
ENDBRANCH  27  28
BRANCH  27  30
HETATM   30  C24 UNL     1      -9.559  47.471 -29.478  1.00  0.00     0.043 C 
BRANCH  30  31
HETATM   31  C25 UNL     1     -10.751  47.498 -30.465  1.00  0.00    -0.020 C 
HETATM   32  C26 UNL     1     -12.115  47.629 -29.782  1.00  0.00     0.009 C 
HETATM   33  C27 UNL     1     -10.758  46.330 -31.449  1.00  0.00     0.009 C 
ENDBRANCH  30  31
ENDBRANCH  27  30
ENDBRANCH  25  27
ENDBRANCH  23  25
ENDBRANCH  22  23
ENDBRANCH  20  21
ENDBRANCH   2  20
TORSDOF 12
ENDMDL
MODEL 4
REMARK minimizedAffinity -7.34919357
REMARK CNNscore 0.457886279
REMARK CNNaffinity 6.48694754
REMARK  12 active torsions:
REMARK  status: ('A' for Active; 'I' for Inactive)
REMARK    1  A    between atoms: C2_2  and  C17_19 
REMARK    2  A    between atoms: C3_3  and  C4_4 
REMARK    3  A    between atoms: C4_4  and  C5_5 
REMARK    4  A    between atoms: C5_5  and  C6_6 
REMARK    5  A    between atoms: C12_12  and  O1_13 
REMARK    6  A    between atoms: C17_19  and  C18_20 
REMARK    7  A    between atoms: C19_21  and  C20_22 
REMARK    8  A    between atoms: C20_22  and  C22_24 
REMARK    9  A    between atoms: C22_24  and  C23_26 
REMARK   10  A    between atoms: C23_26  and  O4_27 
REMARK   11  A    between atoms: C23_26  and  C24_28 
REMARK   12  A    between atoms: C24_28  and  C25_29 
ROOT
HETATM    1  C1  UNL     1      -3.776  48.612 -25.378  1.00  0.00     0.043 C 
HETATM    2  C2  UNL     1      -5.015  48.928 -24.583  1.00  0.00    -0.084 C 
HETATM    3  C3  UNL     1      -5.070  49.865 -23.614  1.00  0.00    -0.024 C 
ENDROOT
BRANCH   3   4
HETATM    4  C4  UNL     1      -3.986  50.827 -23.213  1.00  0.00     0.030 C 
BRANCH   4   5
HETATM    5  C5  UNL     1      -3.189  50.484 -21.948  1.00  0.00     0.042 C 
BRANCH   5   6
HETATM    6  C6  UNL     1      -1.813  49.786 -22.095  1.00  0.00     0.065 C 
HETATM    7  C7  UNL     1      -1.978  48.258 -22.158  1.00  0.00     0.046 C 
HETATM    8  C8  UNL     1      -0.796  50.119 -20.996  1.00  0.00     0.043 C 
HETATM    9  C9  UNL     1      -0.437  51.595 -21.007  1.00  0.00     0.044 C 
HETATM   10  C10 UNL     1      -0.144  52.052 -22.406  1.00  0.00    -0.021 A 
HETATM   11  C11 UNL     1       0.556  53.249 -22.612  1.00  0.00     0.046 A 
HETATM   12  C16 UNL     1      -0.584  51.308 -23.511  1.00  0.00     0.082 A 
HETATM   13  C12 UNL     1       0.829  53.675 -23.906  1.00  0.00     0.066 A 
HETATM   14  C13 UNL     1       0.412  52.931 -25.002  1.00  0.00     0.046 A 
HETATM   15  C14 UNL     1      -0.298  51.738 -24.816  1.00  0.00    -0.025 A 
HETATM   16  C15 UNL     1      -0.740  50.936 -26.008  1.00  0.00     0.051 C 
HETATM   17  O2  UNL     1      -1.291  50.142 -23.397  1.00  0.00    -0.340 OA
BRANCH  13  18
HETATM   18  O1  UNL     1       1.509  54.834 -24.147  1.00  0.00    -0.361 OA
HETATM   19  H17 UNL     1       1.780  55.218 -23.295  1.00  0.00     0.217 HD
ENDBRANCH  13  18
ENDBRANCH   5   6
ENDBRANCH   4   5
ENDBRANCH   3   4
BRANCH   2  20
HETATM   20  C17 UNL     1      -6.234  48.081 -24.922  1.00  0.00     0.060 C 
BRANCH  20  21
HETATM   21  C18 UNL     1      -7.475  48.624 -24.271  1.00  0.00    -0.026 C 
HETATM   22  C19 UNL     1      -8.763  48.261 -24.422  1.00  0.00    -0.019 C 
BRANCH  22  23
HETATM   23  C20 UNL     1      -9.396  47.220 -25.314  1.00  0.00     0.076 C 
HETATM   24  C21 UNL     1     -10.199  46.138 -24.587  1.00  0.00     0.022 C 
BRANCH  23  25
HETATM   25  C22 UNL     1     -10.218  47.910 -26.413  1.00  0.00     0.162 C 
HETATM   26  O3  UNL     1     -11.119  48.721 -26.160  1.00  0.00    -0.294 OA
BRANCH  25  27
HETATM   27  C23 UNL     1      -9.830  47.650 -27.883  1.00  0.00     0.188 C 
BRANCH  27  28
HETATM   28  O4  UNL     1      -9.546  46.269 -28.096  1.00  0.00    -0.388 OA
HETATM   29  H31 UNL     1      -9.685  45.821 -27.235  1.00  0.00     0.210 HD
ENDBRANCH  27  28
BRANCH  27  30
HETATM   30  C24 UNL     1      -8.676  48.507 -28.424  1.00  0.00     0.043 C 
BRANCH  30  31
HETATM   31  C25 UNL     1      -8.553  48.753 -29.947  1.00  0.00    -0.020 C 
HETATM   32  C26 UNL     1      -9.744  48.227 -30.754  1.00  0.00     0.009 C 
HETATM   33  C27 UNL     1      -7.241  48.251 -30.545  1.00  0.00     0.009 C 
ENDBRANCH  30  31
ENDBRANCH  27  30
ENDBRANCH  25  27
ENDBRANCH  23  25
ENDBRANCH  22  23
ENDBRANCH  20  21
ENDBRANCH   2  20
TORSDOF 12
ENDMDL
MODEL 5
REMARK minimizedAffinity -7.70573568
REMARK CNNscore 0.39858976
REMARK CNNaffinity 6.00203133
REMARK  12 active torsions:
REMARK  status: ('A' for Active; 'I' for Inactive)
REMARK    1  A    between atoms: C2_2  and  C17_19 
REMARK    2  A    between atoms: C3_3  and  C4_4 
REMARK    3  A    between atoms: C4_4  and  C5_5 
REMARK    4  A    between atoms: C5_5  and  C6_6 
REMARK    5  A    between atoms: C12_12  and  O1_13 
REMARK    6  A    between atoms: C17_19  and  C18_20 
REMARK    7  A    between atoms: C19_21  and  C20_22 
REMARK    8  A    between atoms: C20_22  and  C22_24 
REMARK    9  A    between atoms: C22_24  and  C23_26 
REMARK   10  A    between atoms: C23_26  and  O4_27 
REMARK   11  A    between atoms: C23_26  and  C24_28 
REMARK   12  A    between atoms: C24_28  and  C25_29 
ROOT
HETATM    1  C1  UNL     1      -4.457  48.126 -28.066  1.00  0.00     0.043 C 
HETATM    2  C2  UNL     1      -5.503  47.941 -26.999  1.00  0.00    -0.084 C 
HETATM    3  C3  UNL     1      -6.715  47.389 -27.220  1.00  0.00    -0.024 C 
ENDROOT
BRANCH   3   4
HETATM    4  C4  UNL     1      -7.216  46.770 -28.495  1.00  0.00     0.030 C 
BRANCH   4   5
HETATM    5  C5  UNL     1      -8.720  46.479 -28.579  1.00  0.00     0.042 C 
BRANCH   5   6
HETATM    6  C6  UNL     1      -9.354  46.204 -29.967  1.00  0.00     0.065 C 
HETATM    7  C7  UNL     1      -8.283  45.773 -30.983  1.00  0.00     0.046 C 
HETATM    8  C8  UNL     1     -10.144  47.376 -30.563  1.00  0.00     0.043 C 
HETATM    9  C9  UNL     1     -11.343  47.728 -29.698  1.00  0.00     0.044 C 
HETATM   10  C10 UNL     1     -12.096  46.487 -29.318  1.00  0.00    -0.021 A 
HETATM   11  C11 UNL     1     -13.413  46.592 -28.849  1.00  0.00     0.046 A 
HETATM   12  C16 UNL     1     -11.489  45.226 -29.400  1.00  0.00     0.082 A 
HETATM   13  C12 UNL     1     -14.113  45.444 -28.496  1.00  0.00     0.066 A 
HETATM   14  C13 UNL     1     -13.521  44.193 -28.595  1.00  0.00     0.046 A 
HETATM   15  C14 UNL     1     -12.202  44.069 -29.050  1.00  0.00    -0.025 A 
HETATM   16  C15 UNL     1     -11.572  42.710 -29.160  1.00  0.00     0.051 C 
HETATM   17  O2  UNL     1     -10.201  45.039 -29.826  1.00  0.00    -0.340 OA
BRANCH  13  18
HETATM   18  O1  UNL     1     -15.397  45.506 -28.038  1.00  0.00    -0.361 OA
HETATM   19  H17 UNL     1     -15.695  46.431 -28.070  1.00  0.00     0.217 HD
ENDBRANCH  13  18
ENDBRANCH   5   6
ENDBRANCH   4   5
ENDBRANCH   3   4
BRANCH   2  20
HETATM   20  C17 UNL     1      -5.119  48.456 -25.619  1.00  0.00     0.060 C 
BRANCH  20  21
HETATM   21  C18 UNL     1      -3.629  48.606 -25.487  1.00  0.00    -0.026 C 
HETATM   22  C19 UNL     1      -2.858  49.706 -25.574  1.00  0.00    -0.019 C 
BRANCH  22  23
HETATM   23  C20 UNL     1      -3.219  51.143 -25.867  1.00  0.00     0.076 C 
HETATM   24  C21 UNL     1      -2.846  52.146 -24.773  1.00  0.00     0.022 C 
BRANCH  23  25
HETATM   25  C22 UNL     1      -2.659  51.549 -27.239  1.00  0.00     0.162 C 
HETATM   26  O3  UNL     1      -3.154  51.154 -28.303  1.00  0.00    -0.294 OA
BRANCH  25  27
HETATM   27  C23 UNL     1      -1.499  52.565 -27.279  1.00  0.00     0.188 C 
BRANCH  27  28
HETATM   28  O4  UNL     1      -1.872  53.732 -28.009  1.00  0.00    -0.388 OA
HETATM   29  H31 UNL     1      -2.799  53.594 -28.298  1.00  0.00     0.210 HD
ENDBRANCH  27  28
BRANCH  27  30
HETATM   30  C24 UNL     1      -0.163  52.025 -27.809  1.00  0.00     0.043 C 
BRANCH  30  31
HETATM   31  C25 UNL     1       0.869  51.431 -26.821  1.00  0.00    -0.020 C 
HETATM   32  C26 UNL     1       0.677  51.896 -25.375  1.00  0.00     0.009 C 
HETATM   33  C27 UNL     1       2.319  51.630 -27.256  1.00  0.00     0.009 C 
ENDBRANCH  30  31
ENDBRANCH  27  30
ENDBRANCH  25  27
ENDBRANCH  23  25
ENDBRANCH  22  23
ENDBRANCH  20  21
ENDBRANCH   2  20
TORSDOF 12
ENDMDL
MODEL 6
REMARK minimizedAffinity -7.41323233
REMARK CNNscore 0.355089605
REMARK CNNaffinity 6.07315969
REMARK  12 active torsions:
REMARK  status: ('A' for Active; 'I' for Inactive)
REMARK    1  A    between atoms: C2_2  and  C17_19 
REMARK    2  A    between atoms: C3_3  and  C4_4 
REMARK    3  A    between atoms: C4_4  and  C5_5 
REMARK    4  A    between atoms: C5_5  and  C6_6 
REMARK    5  A    between atoms: C12_12  and  O1_13 
REMARK    6  A    between atoms: C17_19  and  C18_20 
REMARK    7  A    between atoms: C19_21  and  C20_22 
REMARK    8  A    between atoms: C20_22  and  C22_24 
REMARK    9  A    between atoms: C22_24  and  C23_26 
REMARK   10  A    between atoms: C23_26  and  O4_27 
REMARK   11  A    between atoms: C23_26  and  C24_28 
REMARK   12  A    between atoms: C24_28  and  C25_29 
ROOT
HETATM    1  C1  UNL     1      -5.029  48.131 -28.924  1.00  0.00     0.043 C 
HETATM    2  C2  UNL     1      -5.535  47.853 -27.533  1.00  0.00    -0.084 C 
HETATM    3  C3  UNL     1      -4.855  48.159 -26.409  1.00  0.00    -0.024 C 
ENDROOT
BRANCH   3   4
HETATM    4  C4  UNL     1      -3.555  48.909 -26.305  1.00  0.00     0.030 C 
BRANCH   4   5
HETATM    5  C5  UNL     1      -2.957  49.066 -24.902  1.00  0.00     0.042 C 
BRANCH   5   6
HETATM    6  C6  UNL     1      -3.537  50.150 -23.957  1.00  0.00     0.065 C 
HETATM    7  C7  UNL     1      -4.655  49.567 -23.075  1.00  0.00     0.046 C 
HETATM    8  C8  UNL     1      -4.077  51.402 -24.660  1.00  0.00     0.043 C 
HETATM    9  C9  UNL     1      -2.971  52.140 -25.395  1.00  0.00     0.044 C 
HETATM   10  C10 UNL     1      -1.765  52.286 -24.515  1.00  0.00    -0.021 A 
HETATM   11  C11 UNL     1      -0.784  53.235 -24.837  1.00  0.00     0.046 A 
HETATM   12  C16 UNL     1      -1.593  51.467 -23.390  1.00  0.00     0.082 A 
HETATM   13  C12 UNL     1       0.335  53.373 -24.023  1.00  0.00     0.066 A 
HETATM   14  C13 UNL     1       0.498  52.576 -22.898  1.00  0.00     0.046 A 
HETATM   15  C14 UNL     1      -0.466  51.616 -22.568  1.00  0.00    -0.025 A 
HETATM   16  C15 UNL     1      -0.285  50.763 -21.344  1.00  0.00     0.051 C 
HETATM   17  O2  UNL     1      -2.491  50.502 -23.020  1.00  0.00    -0.340 OA
BRANCH  13  18
HETATM   18  O1  UNL     1       1.310  54.286 -24.302  1.00  0.00    -0.361 OA
HETATM   19  H17 UNL     1       1.040  54.802 -25.082  1.00  0.00     0.217 HD
ENDBRANCH  13  18
ENDBRANCH   5   6
ENDBRANCH   4   5
ENDBRANCH   3   4
BRANCH   2  20
HETATM   20  C17 UNL     1      -6.886  47.155 -27.463  1.00  0.00     0.060 C 
BRANCH  20  21
HETATM   21  C18 UNL     1      -7.175  46.393 -28.727  1.00  0.00    -0.026 C 
HETATM   22  C19 UNL     1      -8.255  46.422 -29.529  1.00  0.00    -0.019 C 
BRANCH  22  23
HETATM   23  C20 UNL     1      -9.547  47.197 -29.416  1.00  0.00     0.076 C 
HETATM   24  C21 UNL     1      -9.913  48.039 -30.641  1.00  0.00     0.022 C 
BRANCH  23  25
HETATM   25  C22 UNL     1     -10.685  46.250 -29.005  1.00  0.00     0.162 C 
HETATM   26  O3  UNL     1     -11.057  45.308 -29.718  1.00  0.00    -0.294 OA
BRANCH  25  27
HETATM   27  C23 UNL     1     -11.309  46.428 -27.606  1.00  0.00     0.188 C 
BRANCH  27  28
HETATM   28  O4  UNL     1     -11.660  45.167 -27.042  1.00  0.00    -0.388 OA
HETATM   29  H31 UNL     1     -11.397  44.487 -27.697  1.00  0.00     0.210 HD
ENDBRANCH  27  28
BRANCH  27  30
HETATM   30  C24 UNL     1     -12.511  47.382 -27.535  1.00  0.00     0.043 C 
BRANCH  30  31
HETATM   31  C25 UNL     1     -13.946  46.803 -27.508  1.00  0.00    -0.020 C 
HETATM   32  C26 UNL     1     -14.332  46.169 -26.168  1.00  0.00     0.009 C 
HETATM   33  C27 UNL     1     -14.241  45.842 -28.657  1.00  0.00     0.009 C 
ENDBRANCH  30  31
ENDBRANCH  27  30
ENDBRANCH  25  27
ENDBRANCH  23  25
ENDBRANCH  22  23
ENDBRANCH  20  21
ENDBRANCH   2  20
TORSDOF 12
ENDMDL
MODEL 7
REMARK minimizedAffinity -8.45340538
REMARK CNNscore 0.322070897
REMARK CNNaffinity 6.1757431
REMARK  12 active torsions:
REMARK  status: ('A' for Active; 'I' for Inactive)
REMARK    1  A    between atoms: C2_2  and  C17_19 
REMARK    2  A    between atoms: C3_3  and  C4_4 
REMARK    3  A    between atoms: C4_4  and  C5_5 
REMARK    4  A    between atoms: C5_5  and  C6_6 
REMARK    5  A    between atoms: C12_12  and  O1_13 
REMARK    6  A    between atoms: C17_19  and  C18_20 
REMARK    7  A    between atoms: C19_21  and  C20_22 
REMARK    8  A    between atoms: C20_22  and  C22_24 
REMARK    9  A    between atoms: C22_24  and  C23_26 
REMARK   10  A    between atoms: C23_26  and  O4_27 
REMARK   11  A    between atoms: C23_26  and  C24_28 
REMARK   12  A    between atoms: C24_28  and  C25_29 
ROOT
HETATM    1  C1  UNL     1      -4.980  48.164 -28.802  1.00  0.00     0.043 C 
HETATM    2  C2  UNL     1      -5.470  48.016 -27.387  1.00  0.00    -0.084 C 
HETATM    3  C3  UNL     1      -4.675  48.108 -26.301  1.00  0.00    -0.024 C 
ENDROOT
BRANCH   3   4
HETATM    4  C4  UNL     1      -3.216  48.472 -26.266  1.00  0.00     0.030 C 
BRANCH   4   5
HETATM    5  C5  UNL     1      -2.777  49.470 -25.188  1.00  0.00     0.042 C 
BRANCH   5   6
HETATM    6  C6  UNL     1      -2.884  50.989 -25.484  1.00  0.00     0.065 C 
HETATM    7  C7  UNL     1      -4.119  51.595 -24.795  1.00  0.00     0.046 C 
HETATM    8  C8  UNL     1      -2.929  51.358 -26.972  1.00  0.00     0.043 C 
HETATM    9  C9  UNL     1      -1.644  50.958 -27.677  1.00  0.00     0.044 C 
HETATM   10  C10 UNL     1      -0.451  51.390 -26.875  1.00  0.00    -0.021 A 
HETATM   11  C11 UNL     1       0.807  51.463 -27.489  1.00  0.00     0.046 A 
HETATM   12  C16 UNL     1      -0.576  51.697 -25.513  1.00  0.00     0.082 A 
HETATM   13  C12 UNL     1       1.914  51.862 -26.749  1.00  0.00     0.066 A 
HETATM   14  C13 UNL     1       1.790  52.185 -25.405  1.00  0.00     0.046 A 
HETATM   15  C14 UNL     1       0.543  52.108 -24.772  1.00  0.00    -0.025 A 
HETATM   16  C15 UNL     1       0.418  52.467 -23.318  1.00  0.00     0.051 C 
HETATM   17  O2  UNL     1      -1.762  51.631 -24.833  1.00  0.00    -0.340 OA
BRANCH  13  18
HETATM   18  O1  UNL     1       3.154  51.947 -27.312  1.00  0.00    -0.361 OA
HETATM   19  H17 UNL     1       3.081  51.743 -28.261  1.00  0.00     0.217 HD
ENDBRANCH  13  18
ENDBRANCH   5   6
ENDBRANCH   4   5
ENDBRANCH   3   4
BRANCH   2  20
HETATM   20  C17 UNL     1      -6.956  47.715 -27.244  1.00  0.00     0.060 C 
BRANCH  20  21
HETATM   21  C18 UNL     1      -7.427  46.770 -28.315  1.00  0.00    -0.026 C 
HETATM   22  C19 UNL     1      -8.497  46.846 -29.127  1.00  0.00    -0.019 C 
BRANCH  22  23
HETATM   23  C20 UNL     1      -9.598  47.877 -29.216  1.00  0.00     0.076 C 
HETATM   24  C21 UNL     1     -10.359  47.908 -30.544  1.00  0.00     0.022 C 
BRANCH  23  25
HETATM   25  C22 UNL     1     -10.541  47.733 -28.012  1.00  0.00     0.162 C 
HETATM   26  O3  UNL     1     -10.132  47.727 -26.843  1.00  0.00    -0.294 OA
BRANCH  25  27
HETATM   27  C23 UNL     1     -12.060  47.697 -28.279  1.00  0.00     0.188 C 
BRANCH  27  28
HETATM   28  O4  UNL     1     -12.723  48.749 -27.581  1.00  0.00    -0.388 OA
HETATM   29  H31 UNL     1     -12.026  49.249 -27.107  1.00  0.00     0.210 HD
ENDBRANCH  27  28
BRANCH  27  30
HETATM   30  C24 UNL     1     -12.753  46.359 -27.981  1.00  0.00     0.043 C 
BRANCH  30  31
HETATM   31  C25 UNL     1     -14.272  46.332 -27.687  1.00  0.00    -0.020 C 
HETATM   32  C26 UNL     1     -14.610  46.225 -26.198  1.00  0.00     0.009 C 
HETATM   33  C27 UNL     1     -15.031  45.273 -28.483  1.00  0.00     0.009 C 
ENDBRANCH  30  31
ENDBRANCH  27  30
ENDBRANCH  25  27
ENDBRANCH  23  25
ENDBRANCH  22  23
ENDBRANCH  20  21
ENDBRANCH   2  20
TORSDOF 12
ENDMDL
MODEL 8
REMARK minimizedAffinity -7.01479053
REMARK CNNscore 0.294662207
REMARK CNNaffinity 6.24026918
REMARK  12 active torsions:
REMARK  status: ('A' for Active; 'I' for Inactive)
REMARK    1  A    between atoms: C2_2  and  C17_19 
REMARK    2  A    between atoms: C3_3  and  C4_4 
REMARK    3  A    between atoms: C4_4  and  C5_5 
REMARK    4  A    between atoms: C5_5  and  C6_6 
REMARK    5  A    between atoms: C12_12  and  O1_13 
REMARK    6  A    between atoms: C17_19  and  C18_20 
REMARK    7  A    between atoms: C19_21  and  C20_22 
REMARK    8  A    between atoms: C20_22  and  C22_24 
REMARK    9  A    between atoms: C22_24  and  C23_26 
REMARK   10  A    between atoms: C23_26  and  O4_27 
REMARK   11  A    between atoms: C23_26  and  C24_28 
REMARK   12  A    between atoms: C24_28  and  C25_29 
ROOT
HETATM    1  C1  UNL     1      -6.693  47.804 -27.103  1.00  0.00     0.043 C 
HETATM    2  C2  UNL     1      -5.308  48.208 -27.531  1.00  0.00    -0.084 C 
HETATM    3  C3  UNL     1      -4.911  48.289 -28.818  1.00  0.00    -0.024 C 
ENDROOT
BRANCH   3   4
HETATM    4  C4  UNL     1      -5.759  48.109 -30.047  1.00  0.00     0.030 C 
BRANCH   4   5
HETATM    5  C5  UNL     1      -6.040  46.668 -30.490  1.00  0.00     0.042 C 
BRANCH   5   6
HETATM    6  C6  UNL     1      -5.757  46.266 -31.961  1.00  0.00     0.065 C 
HETATM    7  C7  UNL     1      -4.296  45.818 -32.135  1.00  0.00     0.046 C 
HETATM    8  C8  UNL     1      -6.057  47.355 -32.999  1.00  0.00     0.043 C 
HETATM    9  C9  UNL     1      -7.535  47.708 -33.015  1.00  0.00     0.044 C 
HETATM   10  C10 UNL     1      -8.371  46.462 -33.033  1.00  0.00    -0.021 A 
HETATM   11  C11 UNL     1      -9.717  46.535 -33.418  1.00  0.00     0.046 A 
HETATM   12  C16 UNL     1      -7.828  45.228 -32.644  1.00  0.00     0.082 A 
HETATM   13  C12 UNL     1     -10.493  45.382 -33.436  1.00  0.00     0.066 A 
HETATM   14  C13 UNL     1      -9.954  44.157 -33.069  1.00  0.00     0.046 A 
HETATM   15  C14 UNL     1      -8.614  44.066 -32.671  1.00  0.00    -0.025 A 
HETATM   16  C15 UNL     1      -8.037  42.734 -32.283  1.00  0.00     0.051 C 
HETATM   17  O2  UNL     1      -6.531  45.074 -32.234  1.00  0.00    -0.340 OA
BRANCH  13  18
HETATM   18  O1  UNL     1     -11.806  45.414 -33.806  1.00  0.00    -0.361 OA
HETATM   19  H17 UNL     1     -12.030  46.319 -34.083  1.00  0.00     0.217 HD
ENDBRANCH  13  18
ENDBRANCH   5   6
ENDBRANCH   4   5
ENDBRANCH   3   4
BRANCH   2  20
HETATM   20  C17 UNL     1      -4.337  48.498 -26.395  1.00  0.00     0.060 C 
BRANCH  20  21
HETATM   21  C18 UNL     1      -2.988  48.905 -26.918  1.00  0.00    -0.026 C 
HETATM   22  C19 UNL     1      -2.405  50.118 -26.958  1.00  0.00    -0.019 C 
BRANCH  22  23
HETATM   23  C20 UNL     1      -2.915  51.473 -26.528  1.00  0.00     0.076 C 
HETATM   24  C21 UNL     1      -4.021  51.450 -25.471  1.00  0.00     0.022 C 
BRANCH  23  25
HETATM   25  C22 UNL     1      -1.734  52.362 -26.110  1.00  0.00     0.162 C 
HETATM   26  O3  UNL     1      -1.184  52.262 -25.006  1.00  0.00    -0.294 OA
BRANCH  25  27
HETATM   27  C23 UNL     1      -1.158  53.343 -27.152  1.00  0.00     0.188 C 
BRANCH  27  28
HETATM   28  O4  UNL     1      -2.132  53.659 -28.144  1.00  0.00    -0.388 OA
HETATM   29  H31 UNL     1      -2.946  53.170 -27.900  1.00  0.00     0.210 HD
ENDBRANCH  27  28
BRANCH  27  30
HETATM   30  C24 UNL     1       0.147  52.898 -27.829  1.00  0.00     0.043 C 
BRANCH  30  31
HETATM   31  C25 UNL     1       0.921  51.679 -27.273  1.00  0.00    -0.020 C 
HETATM   32  C26 UNL     1       1.617  51.948 -25.935  1.00  0.00     0.009 C 
HETATM   33  C27 UNL     1       1.903  51.070 -28.270  1.00  0.00     0.009 C 
ENDBRANCH  30  31
ENDBRANCH  27  30
ENDBRANCH  25  27
ENDBRANCH  23  25
ENDBRANCH  22  23
ENDBRANCH  20  21
ENDBRANCH   2  20
TORSDOF 12
ENDMDL
MODEL 9
REMARK minimizedAffinity -8.59779167
REMARK CNNscore 0.283325195
REMARK CNNaffinity 6.71866846
REMARK  12 active torsions:
REMARK  status: ('A' for Active; 'I' for Inactive)
REMARK    1  A    between atoms: C2_2  and  C17_19 
REMARK    2  A    between atoms: C3_3  and  C4_4 
REMARK    3  A    between atoms: C4_4  and  C5_5 
REMARK    4  A    between atoms: C5_5  and  C6_6 
REMARK    5  A    between atoms: C12_12  and  O1_13 
REMARK    6  A    between atoms: C17_19  and  C18_20 
REMARK    7  A    between atoms: C19_21  and  C20_22 
REMARK    8  A    between atoms: C20_22  and  C22_24 
REMARK    9  A    between atoms: C22_24  and  C23_26 
REMARK   10  A    between atoms: C23_26  and  O4_27 
REMARK   11  A    between atoms: C23_26  and  C24_28 
REMARK   12  A    between atoms: C24_28  and  C25_29 
ROOT
HETATM    1  C1  UNL     1      -2.324  46.991 -21.526  1.00  0.00     0.043 C 
HETATM    2  C2  UNL     1      -1.827  48.401 -21.704  1.00  0.00    -0.084 C 
HETATM    3  C3  UNL     1      -2.166  49.193 -22.742  1.00  0.00    -0.024 C 
ENDROOT
BRANCH   3   4
HETATM    4  C4  UNL     1      -3.155  48.893 -23.834  1.00  0.00     0.030 C 
BRANCH   4   5
HETATM    5  C5  UNL     1      -2.832  49.438 -25.230  1.00  0.00     0.042 C 
BRANCH   5   6
HETATM    6  C6  UNL     1      -2.926  50.966 -25.478  1.00  0.00     0.065 C 
HETATM    7  C7  UNL     1      -4.143  51.565 -24.752  1.00  0.00     0.046 C 
HETATM    8  C8  UNL     1      -2.989  51.381 -26.954  1.00  0.00     0.043 C 
HETATM    9  C9  UNL     1      -1.720  50.988 -27.691  1.00  0.00     0.044 C 
HETATM   10  C10 UNL     1      -0.510  51.383 -26.895  1.00  0.00    -0.021 A 
HETATM   11  C11 UNL     1       0.740  51.460 -27.526  1.00  0.00     0.046 A 
HETATM   12  C16 UNL     1      -0.610  51.649 -25.522  1.00  0.00     0.082 A 
HETATM   13  C12 UNL     1       1.862  51.824 -26.791  1.00  0.00     0.066 A 
HETATM   14  C13 UNL     1       1.763  52.108 -25.436  1.00  0.00     0.046 A 
HETATM   15  C14 UNL     1       0.525  52.025 -24.786  1.00  0.00    -0.025 A 
HETATM   16  C15 UNL     1       0.426  52.341 -23.320  1.00  0.00     0.051 C 
HETATM   17  O2  UNL     1      -1.787  51.575 -24.826  1.00  0.00    -0.340 OA
BRANCH  13  18
HETATM   18  O1  UNL     1       3.095  51.912 -27.371  1.00  0.00    -0.361 OA
HETATM   19  H17 UNL     1       3.004  51.738 -28.324  1.00  0.00     0.217 HD
ENDBRANCH  13  18
ENDBRANCH   5   6
ENDBRANCH   4   5
ENDBRANCH   3   4
BRANCH   2  20
HETATM   20  C17 UNL     1      -0.862  48.887 -20.632  1.00  0.00     0.060 C 
BRANCH  20  21
HETATM   21  C18 UNL     1      -1.361  48.551 -19.254  1.00  0.00    -0.026 C 
HETATM   22  C19 UNL     1      -1.047  49.094 -18.063  1.00  0.00    -0.019 C 
BRANCH  22  23
HETATM   23  C20 UNL     1      -0.070  50.189 -17.704  1.00  0.00     0.076 C 
HETATM   24  C21 UNL     1      -0.153  51.448 -18.570  1.00  0.00     0.022 C 
BRANCH  23  25
HETATM   25  C22 UNL     1      -0.180  50.510 -16.205  1.00  0.00     0.162 C 
HETATM   26  O3  UNL     1      -1.269  50.646 -15.632  1.00  0.00    -0.294 OA
BRANCH  25  27
HETATM   27  C23 UNL     1       1.120  50.562 -15.376  1.00  0.00     0.188 C 
BRANCH  27  28
HETATM   28  O4  UNL     1       0.891  50.105 -14.045  1.00  0.00    -0.388 OA
HETATM   29  H31 UNL     1      -0.055  49.855 -13.996  1.00  0.00     0.210 HD
ENDBRANCH  27  28
BRANCH  27  30
HETATM   30  C24 UNL     1       1.829  51.924 -15.343  1.00  0.00     0.043 C 
BRANCH  30  31
HETATM   31  C25 UNL     1       3.340  51.992 -15.015  1.00  0.00    -0.020 C 
HETATM   32  C26 UNL     1       4.206  52.455 -16.190  1.00  0.00     0.009 C 
HETATM   33  C27 UNL     1       3.897  50.702 -14.419  1.00  0.00     0.009 C 
ENDBRANCH  30  31
ENDBRANCH  27  30
ENDBRANCH  25  27
ENDBRANCH  23  25
ENDBRANCH  22  23
ENDBRANCH  20  21
ENDBRANCH   2  20
TORSDOF 12
ENDMDL
