MODEL 1
REMARK minimizedAffinity -7.10000658
REMARK CNNscore 0.70042932
REMARK CNNaffinity 6.92914629
REMARK  7 active torsions:
REMARK  status: ('A' for Active; 'I' for Inactive)
REMARK    1  A    between atoms: C4_4  and  C5_5 
REMARK    2  A    between atoms: C5_5  and  C6_6 
REMARK    3  A    between atoms: C6_6  and  C7_7 
REMARK    4  A    between atoms: C7_7  and  C9_9 
REMARK    5  A    between atoms: C22_22  and  O1_23 
REMARK    6  A    between atoms: C23_24  and  O2_25 
REMARK    7  A    between atoms: C24_26  and  O3_27 
ROOT
HETATM    1  C9  UNL     1      -2.142   7.108  13.038  1.00  0.00    -0.002 C 
HETATM    2  C10 UNL     1      -2.896   6.195  14.046  1.00  0.00     0.007 C 
HETATM    3  C11 UNL     1      -3.324   7.060  15.244  1.00  0.00     0.015 C 
HETATM    4  C12 UNL     1      -3.143   8.507  14.764  1.00  0.00    -0.013 C 
HETATM    5  C13 UNL     1      -4.420   8.883  13.949  1.00  0.00     0.021 C 
HETATM    6  C14 UNL     1      -2.996   9.613  15.804  1.00  0.00    -0.068 C 
HETATM    7  C15 UNL     1      -2.312  10.744  15.494  1.00  0.00    -0.065 C 
HETATM    8  C16 UNL     1      -1.594  10.898  14.150  1.00  0.00     0.036 C 
HETATM    9  C17 UNL     1      -1.620   9.697  13.178  1.00  0.00     0.015 C 
HETATM   10  C18 UNL     1      -1.822   8.365  13.914  1.00  0.00    -0.029 C 
HETATM   11  C19 UNL     1      -0.560   8.079  14.790  1.00  0.00     0.016 C 
HETATM   12  C20 UNL     1      -2.176  11.918  16.499  1.00  0.00     0.012 C 
HETATM   13  C21 UNL     1      -0.795  11.726  17.184  1.00  0.00     0.023 C 
HETATM   14  C22 UNL     1      -2.203  13.323  15.814  1.00  0.00     0.162 C 
HETATM   15  C23 UNL     1      -2.119  14.469  16.833  1.00  0.00     0.177 C 
HETATM   16  C24 UNL     1      -3.240  14.389  17.875  1.00  0.00     0.153 C 
HETATM   17  C25 UNL     1      -3.295  13.023  18.585  1.00  0.00     0.018 C 
HETATM   18  C26 UNL     1      -4.489  13.000  19.554  1.00  0.00     0.013 C 
HETATM   19  C27 UNL     1      -3.358  11.871  17.539  1.00  0.00     0.007 C 
HETATM   20  C28 UNL     1      -3.447  10.480  18.178  1.00  0.00     0.010 C 
HETATM   21  C29 UNL     1      -3.699   9.403  17.124  1.00  0.00     0.036 C 
ENDROOT
BRANCH   1  22
HETATM   22  C7  UNL     1      -0.988   6.366  12.292  1.00  0.00    -0.014 C 
HETATM   23  C8  UNL     1      -0.346   5.279  13.170  1.00  0.00     0.010 C 
BRANCH  22  24
HETATM   24  C6  UNL     1       0.159   7.318  11.840  1.00  0.00     0.008 C 
BRANCH  24  25
HETATM   25  C5  UNL     1       0.337   7.463  10.324  1.00  0.00     0.028 C 
BRANCH  25  26
HETATM   26  C4  UNL     1       1.415   6.541   9.818  1.00  0.00    -0.025 C 
HETATM   27  C2  UNL     1       2.061   6.583   8.636  1.00  0.00    -0.091 C 
HETATM   28  C1  UNL     1       1.840   7.603   7.553  1.00  0.00     0.042 C 
HETATM   29  C3  UNL     1       3.106   5.550   8.301  1.00  0.00     0.042 C 
ENDBRANCH  25  26
ENDBRANCH  24  25
ENDBRANCH  22  24
ENDBRANCH   1  22
BRANCH  14  30
HETATM   30  O1  UNL     1      -3.406  13.496  15.045  1.00  0.00    -0.392 OA
HETATM   31  H35 UNL     1      -3.507  14.457  14.900  1.00  0.00     0.210 HD
ENDBRANCH  14  30
BRANCH  15  32
HETATM   32  O2  UNL     1      -2.247  15.729  16.139  1.00  0.00    -0.390 OA
HETATM   33  H37 UNL     1      -1.426  15.854  15.628  1.00  0.00     0.210 HD
ENDBRANCH  15  32
BRANCH  16  34
HETATM   34  O3  UNL     1      -3.018  15.428  18.839  1.00  0.00    -0.393 OA
HETATM   35  H39 UNL     1      -2.960  16.250  18.316  1.00  0.00     0.210 HD
ENDBRANCH  16  34
TORSDOF 7
ENDMDL
MODEL 2
REMARK minimizedAffinity -6.57475471
REMARK CNNscore 0.546593308
REMARK CNNaffinity 5.88313866
REMARK  7 active torsions:
REMARK  status: ('A' for Active; 'I' for Inactive)
REMARK    1  A    between atoms: C4_4  and  C5_5 
REMARK    2  A    between atoms: C5_5  and  C6_6 
REMARK    3  A    between atoms: C6_6  and  C7_7 
REMARK    4  A    between atoms: C7_7  and  C9_9 
REMARK    5  A    between atoms: C22_22  and  O1_23 
REMARK    6  A    between atoms: C23_24  and  O2_25 
REMARK    7  A    between atoms: C24_26  and  O3_27 
ROOT
HETATM    1  C9  UNL     1      -5.495 -12.224   2.280  1.00  0.00    -0.002 C 
HETATM    2  C10 UNL     1      -4.086 -12.752   2.671  1.00  0.00     0.007 C 
HETATM    3  C11 UNL     1      -3.881 -12.495   4.175  1.00  0.00     0.015 C 
HETATM    4  C12 UNL     1      -5.283 -12.165   4.708  1.00  0.00    -0.013 C 
HETATM    5  C13 UNL     1      -6.006 -13.523   4.967  1.00  0.00     0.021 C 
HETATM    6  C14 UNL     1      -5.407 -11.392   6.016  1.00  0.00    -0.068 C 
HETATM    7  C15 UNL     1      -6.502 -10.621   6.243  1.00  0.00    -0.065 C 
HETATM    8  C16 UNL     1      -7.576 -10.428   5.169  1.00  0.00     0.036 C 
HETATM    9  C17 UNL     1      -7.346 -11.090   3.791  1.00  0.00     0.015 C 
HETATM   10  C18 UNL     1      -5.856 -11.319   3.506  1.00  0.00    -0.029 C 
HETATM   11  C19 UNL     1      -5.155  -9.931   3.349  1.00  0.00     0.016 C 
HETATM   12  C20 UNL     1      -6.699  -9.855   7.578  1.00  0.00     0.012 C 
HETATM   13  C21 UNL     1      -6.206  -8.407   7.306  1.00  0.00     0.023 C 
HETATM   14  C22 UNL     1      -8.192  -9.796   8.041  1.00  0.00     0.162 C 
HETATM   15  C23 UNL     1      -8.355  -9.078   9.388  1.00  0.00     0.177 C 
HETATM   16  C24 UNL     1      -7.505  -9.727  10.487  1.00  0.00     0.153 C 
HETATM   17  C25 UNL     1      -6.019  -9.841  10.099  1.00  0.00     0.018 C 
HETATM   18  C26 UNL     1      -5.255 -10.569  11.218  1.00  0.00     0.013 C 
HETATM   19  C27 UNL     1      -5.871 -10.552   8.722  1.00  0.00     0.007 C 
HETATM   20  C28 UNL     1      -4.411 -10.728   8.287  1.00  0.00     0.010 C 
HETATM   21  C29 UNL     1      -4.309 -11.594   7.033  1.00  0.00     0.036 C 
ENDROOT
BRANCH   1  22
HETATM   22  C7  UNL     1      -5.543 -11.632   0.836  1.00  0.00    -0.014 C 
HETATM   23  C8  UNL     1      -4.154 -11.176   0.359  1.00  0.00     0.010 C 
BRANCH  22  24
HETATM   24  C6  UNL     1      -6.490 -10.401   0.711  1.00  0.00     0.008 C 
BRANCH  24  25
HETATM   25  C5  UNL     1      -7.032 -10.127  -0.696  1.00  0.00     0.028 C 
BRANCH  25  26
HETATM   26  C4  UNL     1      -7.901  -8.896  -0.709  1.00  0.00    -0.025 C 
HETATM   27  C2  UNL     1      -8.171  -8.077  -1.744  1.00  0.00    -0.091 C 
HETATM   28  C1  UNL     1      -7.655  -8.239  -3.147  1.00  0.00     0.042 C 
HETATM   29  C3  UNL     1      -9.058  -6.873  -1.551  1.00  0.00     0.042 C 
ENDBRANCH  25  26
ENDBRANCH  24  25
ENDBRANCH  22  24
ENDBRANCH   1  22
BRANCH  14  30
HETATM   30  O1  UNL     1      -8.741 -11.119   8.169  1.00  0.00    -0.392 OA
HETATM   31  H35 UNL     1      -9.537 -11.036   8.730  1.00  0.00     0.210 HD
ENDBRANCH  14  30
BRANCH  15  32
HETATM   32  O2  UNL     1      -9.738  -9.149   9.796  1.00  0.00    -0.390 OA
HETATM   33  H37 UNL     1     -10.239  -8.565   9.196  1.00  0.00     0.210 HD
ENDBRANCH  15  32
BRANCH  16  34
HETATM   34  O3  UNL     1      -7.639  -8.930  11.672  1.00  0.00    -0.393 OA
HETATM   35  H39 UNL     1      -8.599  -8.874  11.832  1.00  0.00     0.210 HD
ENDBRANCH  16  34
TORSDOF 7
ENDMDL
MODEL 3
REMARK minimizedAffinity -8.92481041
REMARK CNNscore 0.519903302
REMARK CNNaffinity 7.21463394
REMARK  7 active torsions:
REMARK  status: ('A' for Active; 'I' for Inactive)
REMARK    1  A    between atoms: C4_4  and  C5_5 
REMARK    2  A    between atoms: C5_5  and  C6_6 
REMARK    3  A    between atoms: C6_6  and  C7_7 
REMARK    4  A    between atoms: C7_7  and  C9_9 
REMARK    5  A    between atoms: C22_22  and  O1_23 
REMARK    6  A    between atoms: C23_24  and  O2_25 
REMARK    7  A    between atoms: C24_26  and  O3_27 
ROOT
HETATM    1  C9  UNL     1      -4.559   6.513  14.518  1.00  0.00    -0.002 C 
HETATM    2  C10 UNL     1      -4.927   5.405  13.491  1.00  0.00     0.007 C 
HETATM    3  C11 UNL     1      -3.682   5.119  12.633  1.00  0.00     0.015 C 
HETATM    4  C12 UNL     1      -2.524   5.782  13.392  1.00  0.00    -0.013 C 
HETATM    5  C13 UNL     1      -2.073   4.784  14.503  1.00  0.00     0.021 C 
HETATM    6  C14 UNL     1      -1.251   6.131  12.630  1.00  0.00    -0.068 C 
HETATM    7  C15 UNL     1      -0.468   7.156  13.056  1.00  0.00    -0.065 C 
HETATM    8  C16 UNL     1      -0.886   8.041  14.233  1.00  0.00     0.036 C 
HETATM    9  C17 UNL     1      -2.261   7.770  14.886  1.00  0.00     0.015 C 
HETATM   10  C18 UNL     1      -3.235   7.091  13.914  1.00  0.00    -0.029 C 
HETATM   11  C19 UNL     1      -3.583   8.094  12.768  1.00  0.00     0.016 C 
HETATM   12  C20 UNL     1       0.862   7.519  12.345  1.00  0.00     0.012 C 
HETATM   13  C21 UNL     1       0.516   8.687  11.380  1.00  0.00     0.023 C 
HETATM   14  C22 UNL     1       1.978   7.998  13.329  1.00  0.00     0.162 C 
HETATM   15  C23 UNL     1       3.299   8.301  12.608  1.00  0.00     0.177 C 
HETATM   16  C24 UNL     1       3.806   7.093  11.813  1.00  0.00     0.153 C 
HETATM   17  C25 UNL     1       2.754   6.545  10.829  1.00  0.00     0.018 C 
HETATM   18  C26 UNL     1       3.312   5.294  10.132  1.00  0.00     0.013 C 
HETATM   19  C27 UNL     1       1.414   6.263  11.571  1.00  0.00     0.007 C 
HETATM   20  C28 UNL     1       0.329   5.684  10.656  1.00  0.00     0.010 C 
HETATM   21  C29 UNL     1      -0.895   5.247  11.459  1.00  0.00     0.036 C 
ENDROOT
BRANCH   1  22
HETATM   22  C7  UNL     1      -5.752   7.470  14.834  1.00  0.00    -0.014 C 
HETATM   23  C8  UNL     1      -5.271   8.815  15.400  1.00  0.00     0.010 C 
BRANCH  22  24
HETATM   24  C6  UNL     1      -6.755   6.876  15.869  1.00  0.00     0.008 C 
BRANCH  24  25
HETATM   25  C5  UNL     1      -7.715   5.814  15.321  1.00  0.00     0.028 C 
BRANCH  25  26
HETATM   26  C4  UNL     1      -8.276   6.231  13.987  1.00  0.00    -0.025 C 
HETATM   27  C2  UNL     1      -8.501   5.467  12.900  1.00  0.00    -0.091 C 
HETATM   28  C1  UNL     1      -8.243   3.989  12.802  1.00  0.00     0.042 C 
HETATM   29  C3  UNL     1      -9.055   6.078  11.639  1.00  0.00     0.042 C 
ENDBRANCH  25  26
ENDBRANCH  24  25
ENDBRANCH  22  24
ENDBRANCH   1  22
BRANCH  14  30
HETATM   30  O1  UNL     1       2.236   7.003  14.335  1.00  0.00    -0.392 OA
HETATM   31  H35 UNL     1       3.110   7.213  14.716  1.00  0.00     0.210 HD
ENDBRANCH  14  30
BRANCH  15  32
HETATM   32  O2  UNL     1       4.304   8.642  13.588  1.00  0.00    -0.390 OA
HETATM   33  H37 UNL     1       4.065   9.517  13.945  1.00  0.00     0.210 HD
ENDBRANCH  15  32
BRANCH  16  34
HETATM   34  O3  UNL     1       4.978   7.502  11.093  1.00  0.00    -0.393 OA
HETATM   35  H39 UNL     1       5.577   7.866  11.772  1.00  0.00     0.210 HD
ENDBRANCH  16  34
TORSDOF 7
ENDMDL
MODEL 4
REMARK minimizedAffinity -7.81010151
REMARK CNNscore 0.468342572
REMARK CNNaffinity 6.63975573
REMARK  7 active torsions:
REMARK  status: ('A' for Active; 'I' for Inactive)
REMARK    1  A    between atoms: C4_4  and  C5_5 
REMARK    2  A    between atoms: C5_5  and  C6_6 
REMARK    3  A    between atoms: C6_6  and  C7_7 
REMARK    4  A    between atoms: C7_7  and  C9_9 
REMARK    5  A    between atoms: C22_22  and  O1_23 
REMARK    6  A    between atoms: C23_24  and  O2_25 
REMARK    7  A    between atoms: C24_26  and  O3_27 
ROOT
HETATM    1  C9  UNL     1      -1.930   5.822  12.177  1.00  0.00    -0.002 C 
HETATM    2  C10 UNL     1      -2.959   5.167  13.141  1.00  0.00     0.007 C 
HETATM    3  C11 UNL     1      -3.199   6.136  14.312  1.00  0.00     0.015 C 
HETATM    4  C12 UNL     1      -2.605   7.471  13.841  1.00  0.00    -0.013 C 
HETATM    5  C13 UNL     1      -3.684   8.166  12.953  1.00  0.00     0.021 C 
HETATM    6  C14 UNL     1      -2.219   8.512  14.886  1.00  0.00    -0.068 C 
HETATM    7  C15 UNL     1      -1.236   9.409  14.614  1.00  0.00    -0.065 C 
HETATM    8  C16 UNL     1      -0.431   9.338  13.314  1.00  0.00     0.036 C 
HETATM    9  C17 UNL     1      -0.729   8.173  12.343  1.00  0.00     0.015 C 
HETATM   10  C18 UNL     1      -1.327   6.960  13.068  1.00  0.00    -0.029 C 
HETATM   11  C19 UNL     1      -0.242   6.356  14.016  1.00  0.00     0.016 C 
HETATM   12  C20 UNL     1      -0.841  10.519  15.623  1.00  0.00     0.012 C 
HETATM   13  C21 UNL     1       0.396   9.969  16.387  1.00  0.00     0.023 C 
HETATM   14  C22 UNL     1      -0.445  11.866  14.936  1.00  0.00     0.162 C 
HETATM   15  C23 UNL     1      -0.108  12.963  15.956  1.00  0.00     0.177 C 
HETATM   16  C24 UNL     1      -1.264  13.209  16.932  1.00  0.00     0.153 C 
HETATM   17  C25 UNL     1      -1.729  11.922  17.640  1.00  0.00     0.018 C 
HETATM   18  C26 UNL     1      -2.935  12.242  18.538  1.00  0.00     0.013 C 
HETATM   19  C27 UNL     1      -2.046  10.813  16.594  1.00  0.00     0.007 C 
HETATM   20  C28 UNL     1      -2.546   9.510  17.229  1.00  0.00     0.010 C 
HETATM   21  C29 UNL     1      -3.024   8.525  16.164  1.00  0.00     0.036 C 
ENDROOT
BRANCH   1  22
HETATM   22  C7  UNL     1      -0.983   4.781  11.500  1.00  0.00    -0.014 C 
HETATM   23  C8  UNL     1      -1.458   3.338  11.738  1.00  0.00     0.010 C 
BRANCH  22  24
HETATM   24  C6  UNL     1       0.485   4.865  12.015  1.00  0.00     0.008 C 
BRANCH  24  25
HETATM   25  C5  UNL     1       1.525   5.294  10.974  1.00  0.00     0.028 C 
BRANCH  25  26
HETATM   26  C4  UNL     1       1.005   6.428  10.130  1.00  0.00    -0.025 C 
HETATM   27  C2  UNL     1       1.600   7.027   9.079  1.00  0.00    -0.091 C 
HETATM   28  C1  UNL     1       2.942   6.661   8.508  1.00  0.00     0.042 C 
HETATM   29  C3  UNL     1       0.921   8.170   8.368  1.00  0.00     0.042 C 
ENDBRANCH  25  26
ENDBRANCH  24  25
ENDBRANCH  22  24
ENDBRANCH   1  22
BRANCH  14  30
HETATM   30  O1  UNL     1      -1.511  12.347  14.099  1.00  0.00    -0.392 OA
HETATM   31  H35 UNL     1      -1.338  13.296  13.947  1.00  0.00     0.210 HD
ENDBRANCH  14  30
BRANCH  15  32
HETATM   32  O2  UNL     1       0.151  14.198  15.254  1.00  0.00    -0.390 OA
HETATM   33  H37 UNL     1       1.002  14.086  14.791  1.00  0.00     0.210 HD
ENDBRANCH  15  32
BRANCH  16  34
HETATM   34  O3  UNL     1      -0.820  14.165  17.906  1.00  0.00    -0.393 OA
HETATM   35  H39 UNL     1      -0.511  14.930  17.385  1.00  0.00     0.210 HD
ENDBRANCH  16  34
TORSDOF 7
ENDMDL
MODEL 5
REMARK minimizedAffinity -7.69361687
REMARK CNNscore 0.379309595
REMARK CNNaffinity 6.34870386
REMARK  7 active torsions:
REMARK  status: ('A' for Active; 'I' for Inactive)
REMARK    1  A    between atoms: C4_4  and  C5_5 
REMARK    2  A    between atoms: C5_5  and  C6_6 
REMARK    3  A    between atoms: C6_6  and  C7_7 
REMARK    4  A    between atoms: C7_7  and  C9_9 
REMARK    5  A    between atoms: C22_22  and  O1_23 
REMARK    6  A    between atoms: C23_24  and  O2_25 
REMARK    7  A    between atoms: C24_26  and  O3_27 
ROOT
HETATM    1  C9  UNL     1      -1.522  12.516  18.988  1.00  0.00    -0.002 C 
HETATM    2  C10 UNL     1      -3.034  12.838  18.824  1.00  0.00     0.007 C 
HETATM    3  C11 UNL     1      -3.619  11.864  17.786  1.00  0.00     0.015 C 
HETATM    4  C12 UNL     1      -2.552  10.771  17.632  1.00  0.00    -0.013 C 
HETATM    5  C13 UNL     1      -2.761   9.759  18.802  1.00  0.00     0.021 C 
HETATM    6  C14 UNL     1      -2.548   9.921  16.367  1.00  0.00    -0.068 C 
HETATM    7  C15 UNL     1      -1.387   9.368  15.928  1.00  0.00    -0.065 C 
HETATM    8  C16 UNL     1      -0.054   9.661  16.622  1.00  0.00     0.036 C 
HETATM    9  C17 UNL     1      -0.060  10.657  17.804  1.00  0.00     0.015 C 
HETATM   10  C18 UNL     1      -1.237  11.638  17.723  1.00  0.00    -0.029 C 
HETATM   11  C19 UNL     1      -1.033  12.567  16.483  1.00  0.00     0.016 C 
HETATM   12  C20 UNL     1      -1.340   8.456  14.675  1.00  0.00     0.012 C 
HETATM   13  C21 UNL     1      -0.901   9.377  13.503  1.00  0.00     0.023 C 
HETATM   14  C22 UNL     1      -0.312   7.285  14.803  1.00  0.00     0.162 C 
HETATM   15  C23 UNL     1      -0.320   6.366  13.572  1.00  0.00     0.177 C 
HETATM   16  C24 UNL     1      -1.714   5.792  13.298  1.00  0.00     0.153 C 
HETATM   17  C25 UNL     1      -2.794   6.885  13.177  1.00  0.00     0.018 C 
HETATM   18  C26 UNL     1      -4.168   6.224  12.980  1.00  0.00     0.013 C 
HETATM   19  C27 UNL     1      -2.759   7.820  14.422  1.00  0.00     0.007 C 
HETATM   20  C28 UNL     1      -3.831   8.916  14.383  1.00  0.00     0.010 C 
HETATM   21  C29 UNL     1      -3.883   9.684  15.702  1.00  0.00     0.036 C 
ENDROOT
BRANCH   1  22
HETATM   22  C7  UNL     1      -0.657  13.786  19.264  1.00  0.00    -0.014 C 
HETATM   23  C8  UNL     1      -0.907  14.886  18.219  1.00  0.00     0.010 C 
BRANCH  22  24
HETATM   24  C6  UNL     1       0.874  13.496  19.257  1.00  0.00     0.008 C 
BRANCH  24  25
HETATM   25  C5  UNL     1       1.484  13.145  20.619  1.00  0.00     0.028 C 
BRANCH  25  26
HETATM   26  C4  UNL     1       1.672  11.657  20.758  1.00  0.00    -0.025 C 
HETATM   27  C2  UNL     1       2.444  10.992  21.641  1.00  0.00    -0.091 C 
HETATM   28  C1  UNL     1       3.290  11.623  22.712  1.00  0.00     0.042 C 
HETATM   29  C3  UNL     1       2.515   9.487  21.608  1.00  0.00     0.042 C 
ENDBRANCH  25  26
ENDBRANCH  24  25
ENDBRANCH  22  24
ENDBRANCH   1  22
BRANCH  14  30
HETATM   30  O1  UNL     1      -0.592   6.481  15.962  1.00  0.00    -0.392 OA
HETATM   31  H35 UNL     1      -0.133   5.630  15.827  1.00  0.00     0.210 HD
ENDBRANCH  14  30
BRANCH  15  32
HETATM   32  O2  UNL     1       0.579   5.259  13.803  1.00  0.00    -0.390 OA
HETATM   33  H37 UNL     1       1.484   5.621  13.777  1.00  0.00     0.210 HD
ENDBRANCH  15  32
BRANCH  16  34
HETATM   34  O3  UNL     1      -1.647   5.040  12.078  1.00  0.00    -0.393 OA
HETATM   35  H39 UNL     1      -0.925   4.398  12.217  1.00  0.00     0.210 HD
ENDBRANCH  16  34
TORSDOF 7
ENDMDL
MODEL 6
REMARK minimizedAffinity -8.88882542
REMARK CNNscore 0.35874784
REMARK CNNaffinity 6.61999846
REMARK  7 active torsions:
REMARK  status: ('A' for Active; 'I' for Inactive)
REMARK    1  A    between atoms: C4_4  and  C5_5 
REMARK    2  A    between atoms: C5_5  and  C6_6 
REMARK    3  A    between atoms: C6_6  and  C7_7 
REMARK    4  A    between atoms: C7_7  and  C9_9 
REMARK    5  A    between atoms: C22_22  and  O1_23 
REMARK    6  A    between atoms: C23_24  and  O2_25 
REMARK    7  A    between atoms: C24_26  and  O3_27 
ROOT
HETATM    1  C9  UNL     1      -3.726   3.700  12.526  1.00  0.00    -0.002 C 
HETATM    2  C10 UNL     1      -3.556   3.627  10.982  1.00  0.00     0.007 C 
HETATM    3  C11 UNL     1      -2.319   4.459  10.600  1.00  0.00     0.015 C 
HETATM    4  C12 UNL     1      -1.584   4.696  11.926  1.00  0.00    -0.013 C 
HETATM    5  C13 UNL     1      -0.727   3.424  12.210  1.00  0.00     0.021 C 
HETATM    6  C14 UNL     1      -0.608   5.863  12.026  1.00  0.00    -0.068 C 
HETATM    7  C15 UNL     1      -0.372   6.445  13.230  1.00  0.00    -0.065 C 
HETATM    8  C16 UNL     1      -1.142   6.021  14.484  1.00  0.00     0.036 C 
HETATM    9  C17 UNL     1      -2.244   4.949  14.325  1.00  0.00     0.015 C 
HETATM   10  C18 UNL     1      -2.808   4.912  12.898  1.00  0.00    -0.029 C 
HETATM   11  C19 UNL     1      -3.575   6.246  12.626  1.00  0.00     0.016 C 
HETATM   12  C20 UNL     1       0.649   7.602  13.393  1.00  0.00     0.012 C 
HETATM   13  C21 UNL     1      -0.190   8.909  13.353  1.00  0.00     0.023 C 
HETATM   14  C22 UNL     1       1.430   7.550  14.746  1.00  0.00     0.162 C 
HETATM   15  C23 UNL     1       2.470   8.675  14.861  1.00  0.00     0.177 C 
HETATM   16  C24 UNL     1       3.466   8.652  13.696  1.00  0.00     0.153 C 
HETATM   17  C25 UNL     1       2.773   8.680  12.320  1.00  0.00     0.018 C 
HETATM   18  C26 UNL     1       3.835   8.578  11.213  1.00  0.00     0.013 C 
HETATM   19  C27 UNL     1       1.707   7.549  12.227  1.00  0.00     0.007 C 
HETATM   20  C28 UNL     1       0.998   7.498  10.869  1.00  0.00     0.010 C 
HETATM   21  C29 UNL     1       0.107   6.263  10.757  1.00  0.00     0.036 C 
ENDROOT
BRANCH   1  22
HETATM   22  C7  UNL     1      -5.222   3.691  12.974  1.00  0.00    -0.014 C 
HETATM   23  C8  UNL     1      -6.137   3.084  11.898  1.00  0.00     0.010 C 
BRANCH  22  24
HETATM   24  C6  UNL     1      -5.775   5.114  13.286  1.00  0.00     0.008 C 
BRANCH  24  25
HETATM   25  C5  UNL     1      -7.268   5.318  13.002  1.00  0.00     0.028 C 
BRANCH  25  26
HETATM   26  C4  UNL     1      -7.941   6.032  14.145  1.00  0.00    -0.025 C 
HETATM   27  C2  UNL     1      -7.395   6.454  15.302  1.00  0.00    -0.091 C 
HETATM   28  C1  UNL     1      -5.951   6.304  15.695  1.00  0.00     0.042 C 
HETATM   29  C3  UNL     1      -8.245   7.140  16.341  1.00  0.00     0.042 C 
ENDBRANCH  25  26
ENDBRANCH  24  25
ENDBRANCH  22  24
ENDBRANCH   1  22
BRANCH  14  30
HETATM   30  O1  UNL     1       2.113   6.293  14.896  1.00  0.00    -0.392 OA
HETATM   31  H35 UNL     1       2.798   6.430  15.578  1.00  0.00     0.210 HD
ENDBRANCH  14  30
BRANCH  15  32
HETATM   32  O2  UNL     1       3.215   8.505  16.086  1.00  0.00    -0.390 OA
HETATM   33  H37 UNL     1       2.607   8.719  16.818  1.00  0.00     0.210 HD
ENDBRANCH  15  32
BRANCH  16  34
HETATM   34  O3  UNL     1       4.325   9.793  13.831  1.00  0.00    -0.393 OA
HETATM   35  H39 UNL     1       4.696   9.725  14.731  1.00  0.00     0.210 HD
ENDBRANCH  16  34
TORSDOF 7
ENDMDL
MODEL 7
REMARK minimizedAffinity -6.9275322
REMARK CNNscore 0.355229467
REMARK CNNaffinity 6.20924616
REMARK  7 active torsions:
REMARK  status: ('A' for Active; 'I' for Inactive)
REMARK    1  A    between atoms: C4_4  and  C5_5 
REMARK    2  A    between atoms: C5_5  and  C6_6 
REMARK    3  A    between atoms: C6_6  and  C7_7 
REMARK    4  A    between atoms: C7_7  and  C9_9 
REMARK    5  A    between atoms: C22_22  and  O1_23 
REMARK    6  A    between atoms: C23_24  and  O2_25 
REMARK    7  A    between atoms: C24_26  and  O3_27 
ROOT
HETATM    1  C9  UNL     1      -1.804   7.321  13.627  1.00  0.00    -0.002 C 
HETATM    2  C10 UNL     1      -2.470   6.414  14.698  1.00  0.00     0.007 C 
HETATM    3  C11 UNL     1      -2.997   7.318  15.827  1.00  0.00     0.015 C 
HETATM    4  C12 UNL     1      -2.962   8.735  15.240  1.00  0.00    -0.013 C 
HETATM    5  C13 UNL     1      -4.262   8.915  14.395  1.00  0.00     0.021 C 
HETATM    6  C14 UNL     1      -2.940   9.925  16.193  1.00  0.00    -0.068 C 
HETATM    7  C15 UNL     1      -2.373  11.095  15.800  1.00  0.00    -0.065 C 
HETATM    8  C16 UNL     1      -1.661  11.221  14.451  1.00  0.00     0.036 C 
HETATM    9  C17 UNL     1      -1.552   9.954  13.572  1.00  0.00     0.015 C 
HETATM   10  C18 UNL     1      -1.624   8.668  14.406  1.00  0.00    -0.029 C 
HETATM   11  C19 UNL     1      -0.349   8.580  15.304  1.00  0.00     0.016 C 
HETATM   12  C20 UNL     1      -2.370  12.349  16.714  1.00  0.00     0.012 C 
HETATM   13  C21 UNL     1      -0.983  12.352  17.415  1.00  0.00     0.023 C 
HETATM   14  C22 UNL     1      -2.534  13.688  15.925  1.00  0.00     0.162 C 
HETATM   15  C23 UNL     1      -2.579  14.909  16.854  1.00  0.00     0.177 C 
HETATM   16  C24 UNL     1      -3.696  14.792  17.897  1.00  0.00     0.153 C 
HETATM   17  C25 UNL     1      -3.618  13.484  18.708  1.00  0.00     0.018 C 
HETATM   18  C26 UNL     1      -4.813  13.411  19.672  1.00  0.00     0.013 C 
HETATM   19  C27 UNL     1      -3.551  12.257  17.752  1.00  0.00     0.007 C 
HETATM   20  C28 UNL     1      -3.503  10.916  18.494  1.00  0.00     0.010 C 
HETATM   21  C29 UNL     1      -3.631   9.743  17.523  1.00  0.00     0.036 C 
ENDROOT
BRANCH   1  22
HETATM   22  C7  UNL     1      -0.572   6.649  12.942  1.00  0.00    -0.014 C 
HETATM   23  C8  UNL     1      -0.383   7.140  11.498  1.00  0.00     0.010 C 
BRANCH  22  24
HETATM   24  C6  UNL     1      -0.679   5.095  12.880  1.00  0.00     0.008 C 
BRANCH  24  25
HETATM   25  C5  UNL     1      -1.581   4.541  11.772  1.00  0.00     0.028 C 
BRANCH  25  26
HETATM   26  C4  UNL     1      -1.037   3.243  11.234  1.00  0.00    -0.025 C 
HETATM   27  C2  UNL     1      -1.645   2.041  11.182  1.00  0.00    -0.091 C 
HETATM   28  C1  UNL     1      -3.041   1.746  11.655  1.00  0.00     0.042 C 
HETATM   29  C3  UNL     1      -0.921   0.845  10.619  1.00  0.00     0.042 C 
ENDBRANCH  25  26
ENDBRANCH  24  25
ENDBRANCH  22  24
ENDBRANCH   1  22
BRANCH  14  30
HETATM   30  O1  UNL     1      -3.740  13.677  15.142  1.00  0.00    -0.392 OA
HETATM   31  H35 UNL     1      -3.938  14.609  14.925  1.00  0.00     0.210 HD
ENDBRANCH  14  30
BRANCH  15  32
HETATM   32  O2  UNL     1      -2.829  16.094  16.067  1.00  0.00    -0.390 OA
HETATM   33  H37 UNL     1      -2.019  16.265  15.550  1.00  0.00     0.210 HD
ENDBRANCH  15  32
BRANCH  16  34
HETATM   34  O3  UNL     1      -3.593  15.918  18.780  1.00  0.00    -0.393 OA
HETATM   35  H39 UNL     1      -3.614  16.700  18.196  1.00  0.00     0.210 HD
ENDBRANCH  16  34
TORSDOF 7
ENDMDL
MODEL 8
REMARK minimizedAffinity -6.38171244
REMARK CNNscore 0.340726316
REMARK CNNaffinity 6.14144468
REMARK  7 active torsions:
REMARK  status: ('A' for Active; 'I' for Inactive)
REMARK    1  A    between atoms: C4_4  and  C5_5 
REMARK    2  A    between atoms: C5_5  and  C6_6 
REMARK    3  A    between atoms: C6_6  and  C7_7 
REMARK    4  A    between atoms: C7_7  and  C9_9 
REMARK    5  A    between atoms: C22_22  and  O1_23 
REMARK    6  A    between atoms: C23_24  and  O2_25 
REMARK    7  A    between atoms: C24_26  and  O3_27 
ROOT
HETATM    1  C9  UNL     1      -2.147  13.040  18.658  1.00  0.00    -0.002 C 
HETATM    2  C10 UNL     1      -3.689  13.023  18.464  1.00  0.00     0.007 C 
HETATM    3  C11 UNL     1      -4.041  11.835  17.551  1.00  0.00     0.015 C 
HETATM    4  C12 UNL     1      -2.769  10.975  17.523  1.00  0.00    -0.013 C 
HETATM    5  C13 UNL     1      -2.790  10.085  18.805  1.00  0.00     0.021 C 
HETATM    6  C14 UNL     1      -2.566  10.002  16.367  1.00  0.00    -0.068 C 
HETATM    7  C15 UNL     1      -1.308   9.652  15.992  1.00  0.00    -0.065 C 
HETATM    8  C16 UNL     1      -0.078  10.292  16.640  1.00  0.00     0.036 C 
HETATM    9  C17 UNL     1      -0.311  11.397  17.696  1.00  0.00     0.015 C 
HETATM   10  C18 UNL     1      -1.662  12.099  17.505  1.00  0.00    -0.029 C 
HETATM   11  C19 UNL     1      -1.628  12.898  16.163  1.00  0.00     0.016 C 
HETATM   12  C20 UNL     1      -1.050   8.629  14.855  1.00  0.00     0.012 C 
HETATM   13  C21 UNL     1      -0.785   9.477  13.580  1.00  0.00     0.023 C 
HETATM   14  C22 UNL     1       0.194   7.718  15.117  1.00  0.00     0.162 C 
HETATM   15  C23 UNL     1       0.399   6.680  14.004  1.00  0.00     0.177 C 
HETATM   16  C24 UNL     1      -0.843   5.803  13.806  1.00  0.00     0.153 C 
HETATM   17  C25 UNL     1      -2.121   6.629  13.561  1.00  0.00     0.018 C 
HETATM   18  C26 UNL     1      -3.326   5.680  13.450  1.00  0.00     0.013 C 
HETATM   19  C27 UNL     1      -2.303   7.690  14.686  1.00  0.00     0.007 C 
HETATM   20  C28 UNL     1      -3.576   8.529  14.523  1.00  0.00     0.010 C 
HETATM   21  C29 UNL     1      -3.811   9.418  15.742  1.00  0.00     0.036 C 
ENDROOT
BRANCH   1  22
HETATM   22  C7  UNL     1      -1.566  14.485  18.778  1.00  0.00    -0.014 C 
HETATM   23  C8  UNL     1      -0.699  14.649  20.037  1.00  0.00     0.010 C 
BRANCH  22  24
HETATM   24  C6  UNL     1      -2.669  15.584  18.841  1.00  0.00     0.008 C 
BRANCH  24  25
HETATM   25  C5  UNL     1      -2.672  16.583  17.678  1.00  0.00     0.028 C 
BRANCH  25  26
HETATM   26  C4  UNL     1      -3.362  16.003  16.472  1.00  0.00    -0.025 C 
HETATM   27  C2  UNL     1      -4.681  15.802  16.282  1.00  0.00    -0.091 C 
HETATM   28  C1  UNL     1      -5.768  16.141  17.263  1.00  0.00     0.042 C 
HETATM   29  C3  UNL     1      -5.181  15.185  15.000  1.00  0.00     0.042 C 
ENDBRANCH  25  26
ENDBRANCH  24  25
ENDBRANCH  22  24
ENDBRANCH   1  22
BRANCH  14  30
HETATM   30  O1  UNL     1       0.061   7.015  16.365  1.00  0.00    -0.392 OA
HETATM   31  H35 UNL     1       0.688   6.267  16.329  1.00  0.00     0.210 HD
ENDBRANCH  14  30
BRANCH  15  32
HETATM   32  O2  UNL     1       1.500   5.817  14.360  1.00  0.00    -0.390 OA
HETATM   33  H37 UNL     1       2.313   6.351  14.287  1.00  0.00     0.210 HD
ENDBRANCH  15  32
BRANCH  16  34
HETATM   34  O3  UNL     1      -0.598   4.943  12.683  1.00  0.00    -0.393 OA
HETATM   35  H39 UNL     1       0.237   4.485  12.894  1.00  0.00     0.210 HD
ENDBRANCH  16  34
TORSDOF 7
ENDMDL
MODEL 9
REMARK minimizedAffinity -8.17533779
REMARK CNNscore 0.304076582
REMARK CNNaffinity 6.64652014
REMARK  7 active torsions:
REMARK  status: ('A' for Active; 'I' for Inactive)
REMARK    1  A    between atoms: C4_4  and  C5_5 
REMARK    2  A    between atoms: C5_5  and  C6_6 
REMARK    3  A    between atoms: C6_6  and  C7_7 
REMARK    4  A    between atoms: C7_7  and  C9_9 
REMARK    5  A    between atoms: C22_22  and  O1_23 
REMARK    6  A    between atoms: C23_24  and  O2_25 
REMARK    7  A    between atoms: C24_26  and  O3_27 
ROOT
HETATM    1  C9  UNL     1      -2.670   5.792  12.428  1.00  0.00    -0.002 C 
HETATM    2  C10 UNL     1      -3.907   5.385  13.277  1.00  0.00     0.007 C 
HETATM    3  C11 UNL     1      -4.138   6.478  14.336  1.00  0.00     0.015 C 
HETATM    4  C12 UNL     1      -3.280   7.662  13.868  1.00  0.00    -0.013 C 
HETATM    5  C13 UNL     1      -4.109   8.432  12.793  1.00  0.00     0.021 C 
HETATM    6  C14 UNL     1      -2.871   8.719  14.887  1.00  0.00    -0.068 C 
HETATM    7  C15 UNL     1      -1.729   9.431  14.700  1.00  0.00    -0.065 C 
HETATM    8  C16 UNL     1      -0.784   9.127  13.535  1.00  0.00     0.036 C 
HETATM    9  C17 UNL     1      -1.138   7.941  12.609  1.00  0.00     0.015 C 
HETATM   10  C18 UNL     1      -2.013   6.899  13.319  1.00  0.00    -0.029 C 
HETATM   11  C19 UNL     1      -1.171   6.223  14.449  1.00  0.00     0.016 C 
HETATM   12  C20 UNL     1      -1.295  10.552  15.681  1.00  0.00     0.012 C 
HETATM   13  C21 UNL     1      -0.273   9.890  16.646  1.00  0.00     0.023 C 
HETATM   14  C22 UNL     1      -0.602  11.760  14.970  1.00  0.00     0.162 C 
HETATM   15  C23 UNL     1      -0.228  12.877  15.954  1.00  0.00     0.177 C 
HETATM   16  C24 UNL     1      -1.446  13.378  16.738  1.00  0.00     0.153 C 
HETATM   17  C25 UNL     1      -2.200  12.242  17.455  1.00  0.00     0.018 C 
HETATM   18  C26 UNL     1      -3.445  12.816  18.151  1.00  0.00     0.013 C 
HETATM   19  C27 UNL     1      -2.553  11.107  16.449  1.00  0.00     0.007 C 
HETATM   20  C28 UNL     1      -3.335   9.954  17.090  1.00  0.00     0.010 C 
HETATM   21  C29 UNL     1      -3.822   8.964  16.035  1.00  0.00     0.036 C 
ENDROOT
BRANCH   1  22
HETATM   22  C7  UNL     1      -1.823   4.566  11.961  1.00  0.00    -0.014 C 
HETATM   23  C8  UNL     1      -0.539   5.001  11.238  1.00  0.00     0.010 C 
BRANCH  22  24
HETATM   24  C6  UNL     1      -2.595   3.626  10.986  1.00  0.00     0.008 C 
BRANCH  24  25
HETATM   25  C5  UNL     1      -2.660   2.153  11.404  1.00  0.00     0.028 C 
BRANCH  25  26
HETATM   26  C4  UNL     1      -4.052   1.778  11.841  1.00  0.00    -0.025 C 
HETATM   27  C2  UNL     1      -5.227   2.178  11.317  1.00  0.00    -0.091 C 
HETATM   28  C1  UNL     1      -5.392   3.100  10.141  1.00  0.00     0.042 C 
HETATM   29  C3  UNL     1      -6.528   1.704  11.912  1.00  0.00     0.042 C 
ENDBRANCH  25  26
ENDBRANCH  24  25
ENDBRANCH  22  24
ENDBRANCH   1  22
BRANCH  14  30
HETATM   30  O1  UNL     1      -1.459  12.321  13.961  1.00  0.00    -0.392 OA
HETATM   31  H35 UNL     1      -1.117  13.217  13.774  1.00  0.00     0.210 HD
ENDBRANCH  14  30
BRANCH  15  32
HETATM   32  O2  UNL     1       0.316  13.994  15.217  1.00  0.00    -0.390 OA
HETATM   33  H37 UNL     1       1.191  13.715  14.888  1.00  0.00     0.210 HD
ENDBRANCH  15  32
BRANCH  16  34
HETATM   34  O3  UNL     1      -0.984  14.337  17.701  1.00  0.00    -0.393 OA
HETATM   35  H39 UNL     1      -0.491  14.999  17.181  1.00  0.00     0.210 HD
ENDBRANCH  16  34
TORSDOF 7
ENDMDL
