MODEL 1
REMARK minimizedAffinity -7.61964464
REMARK CNNscore 0.80565089
REMARK CNNaffinity 7.26735306
REMARK  15 active torsions:
REMARK  status: ('A' for Active; 'I' for Inactive)
REMARK    1  A    between atoms: O1_2  and  C2_3 
REMARK    2  A    between atoms: C3_4  and  O2_5 
REMARK    3  A    between atoms: C5_7  and  O3_8 
REMARK    4  A    between atoms: O3_8  and  C6_9 
REMARK    5  A    between atoms: C12_15  and  O4_16 
REMARK    6  A    between atoms: C13_17  and  O5_18 
REMARK    7  A    between atoms: C15_20  and  O6_21 
REMARK    8  A    between atoms: C21_27  and  C22_28 
REMARK    9  A    between atoms: C22_28  and  C24_30 
REMARK   10  A    between atoms: C25_31  and  C26_32 
REMARK   11  A    between atoms: C26_32  and  C28_34 
REMARK   12  A    between atoms: C28_34  and  C30_36 
REMARK   13  A    between atoms: C30_36  and  O7_37 
REMARK   14  A    between atoms: C32_39  and  O8_40 
REMARK   15  A    between atoms: C35_44  and  O10_45 
ROOT
HETATM    1  C6  UNL     1      -4.528  44.702 -19.351  1.00  0.00     0.154 C 
HETATM    2  C7  UNL     1      -4.466  45.127 -20.819  1.00  0.00     0.035 C 
HETATM    3  C8  UNL     1      -3.433  46.235 -21.066  1.00  0.00     0.012 C 
HETATM    4  C9  UNL     1      -3.643  47.497 -20.165  1.00  0.00    -0.029 C 
HETATM    5  C10 UNL     1      -4.963  48.143 -20.653  1.00  0.00     0.016 C 
HETATM    6  C11 UNL     1      -3.637  46.984 -18.683  1.00  0.00     0.054 C 
HETATM    7  C12 UNL     1      -4.701  45.906 -18.392  1.00  0.00     0.154 C 
HETATM    8  C13 UNL     1      -3.638  48.095 -17.617  1.00  0.00     0.128 C 
HETATM    9  C14 UNL     1      -2.451  49.043 -17.801  1.00  0.00     0.071 C 
HETATM   10  C15 UNL     1      -2.362  49.627 -19.225  1.00  0.00     0.071 C 
HETATM   11  C16 UNL     1      -2.413  48.483 -20.302  1.00  0.00     0.029 C 
HETATM   12  C17 UNL     1      -2.189  49.037 -21.729  1.00  0.00     0.009 C 
HETATM   13  C18 UNL     1      -0.898  49.872 -21.852  1.00  0.00     0.010 C 
HETATM   14  C19 UNL     1      -0.843  51.025 -20.836  1.00  0.00    -0.031 C 
HETATM   15  C20 UNL     1      -1.876  52.107 -21.232  1.00  0.00     0.016 C 
HETATM   16  C21 UNL     1       0.561  51.675 -20.610  1.00  0.00     0.004 C 
HETATM   17  C31 UNL     1       0.421  52.307 -19.197  1.00  0.00     0.038 C 
HETATM   18  C32 UNL     1      -0.706  51.545 -18.479  1.00  0.00     0.126 C 
HETATM   19  C33 UNL     1      -1.039  50.397 -19.426  1.00  0.00     0.058 C 
ENDROOT
BRANCH   1  20
HETATM   20  O3  UNL     1      -5.586  43.747 -19.222  1.00  0.00    -0.351 OA
BRANCH  20  21
HETATM   21  C5  UNL     1      -5.171  42.475 -18.728  1.00  0.00     0.291 C 
HETATM   22  C3  UNL     1      -4.631  42.540 -17.277  1.00  0.00     0.207 C 
HETATM   23  C2  UNL     1      -5.770  42.670 -16.236  1.00  0.00     0.185 C 
HETATM   24  C35 UNL     1      -6.944  41.722 -16.532  1.00  0.00     0.176 C 
HETATM   25  C34 UNL     1      -7.345  41.835 -18.007  1.00  0.00     0.205 C 
HETATM   26  O9  UNL     1      -6.248  41.541 -18.876  1.00  0.00    -0.356 OA
BRANCH  22  27
HETATM   27  O2  UNL     1      -3.816  41.367 -17.061  1.00  0.00    -0.383 OA
HETATM   28  C4  UNL     1      -2.752  41.236 -17.994  1.00  0.00     0.202 C 
ENDBRANCH  22  27
BRANCH  23  29
HETATM   29  O1  UNL     1      -6.295  44.014 -16.188  1.00  0.00    -0.385 OA
HETATM   30  C1  UNL     1      -7.335  44.168 -15.227  1.00  0.00     0.202 C 
ENDBRANCH  23  29
BRANCH  24  31
HETATM   31  O10 UNL     1      -6.549  40.386 -16.181  1.00  0.00    -0.386 OA
HETATM   32  C36 UNL     1      -6.605  40.118 -14.784  1.00  0.00     0.202 C 
ENDBRANCH  24  31
ENDBRANCH  20  21
ENDBRANCH   1  20
BRANCH   7  33
HETATM   33  O4  UNL     1      -6.025  46.439 -18.450  1.00  0.00    -0.393 OA
HETATM   34  H20 UNL     1      -5.979  47.364 -18.125  1.00  0.00     0.210 HD
ENDBRANCH   7  33
BRANCH   8  35
HETATM   35  O5  UNL     1      -4.865  48.824 -17.645  1.00  0.00    -0.395 OA
HETATM   36  H22 UNL     1      -4.839  49.445 -16.887  1.00  0.00     0.210 HD
ENDBRANCH   8  35
BRANCH  10  37
HETATM   37  O6  UNL     1      -3.440  50.546 -19.369  1.00  0.00    -0.389 OA
HETATM   38  H25 UNL     1      -4.240  50.126 -19.002  1.00  0.00     0.210 HD
ENDBRANCH  10  37
BRANCH  18  39
HETATM   39  O8  UNL     1      -0.244  51.051 -17.226  1.00  0.00    -0.395 OA
HETATM   40  H55 UNL     1       0.013  51.828 -16.700  1.00  0.00     0.210 HD
ENDBRANCH  18  39
BRANCH  16  41
HETATM   41  C22 UNL     1       1.117  52.683 -21.650  1.00  0.00     0.009 C 
HETATM   42  C23 UNL     1       1.126  54.131 -21.145  1.00  0.00     0.014 C 
BRANCH  41  43
HETATM   43  C24 UNL     1       0.376  52.542 -22.974  1.00  0.00    -0.026 C 
HETATM   44  C25 UNL     1       0.865  52.768 -24.206  1.00  0.00    -0.026 C 
BRANCH  44  45
HETATM   45  C26 UNL     1       0.111  52.640 -25.523  1.00  0.00     0.009 C 
HETATM   46  C27 UNL     1      -0.046  53.966 -26.278  1.00  0.00     0.014 C 
BRANCH  45  47
HETATM   47  C28 UNL     1       0.713  51.481 -26.375  1.00  0.00     0.012 C 
HETATM   48  C29 UNL     1       2.241  51.384 -26.285  1.00  0.00     0.012 C 
BRANCH  47  49
HETATM   49  C30 UNL     1       0.250  51.509 -27.844  1.00  0.00     0.168 C 
BRANCH  49  50
HETATM   50  O7  UNL     1      -1.153  51.342 -27.984  1.00  0.00    -0.400 OA
HETATM   51  H51 UNL     1      -1.590  52.144 -27.639  1.00  0.00     0.209 HD
ENDBRANCH  49  50
ENDBRANCH  47  49
ENDBRANCH  45  47
ENDBRANCH  44  45
ENDBRANCH  41  43
ENDBRANCH  16  41
TORSDOF 15
ENDMDL
MODEL 2
REMARK minimizedAffinity -7.78873873
REMARK CNNscore 0.714792728
REMARK CNNaffinity 7.05004358
REMARK  15 active torsions:
REMARK  status: ('A' for Active; 'I' for Inactive)
REMARK    1  A    between atoms: O1_2  and  C2_3 
REMARK    2  A    between atoms: C3_4  and  O2_5 
REMARK    3  A    between atoms: C5_7  and  O3_8 
REMARK    4  A    between atoms: O3_8  and  C6_9 
REMARK    5  A    between atoms: C12_15  and  O4_16 
REMARK    6  A    between atoms: C13_17  and  O5_18 
REMARK    7  A    between atoms: C15_20  and  O6_21 
REMARK    8  A    between atoms: C21_27  and  C22_28 
REMARK    9  A    between atoms: C22_28  and  C24_30 
REMARK   10  A    between atoms: C25_31  and  C26_32 
REMARK   11  A    between atoms: C26_32  and  C28_34 
REMARK   12  A    between atoms: C28_34  and  C30_36 
REMARK   13  A    between atoms: C30_36  and  O7_37 
REMARK   14  A    between atoms: C32_39  and  O8_40 
REMARK   15  A    between atoms: C35_44  and  O10_45 
ROOT
HETATM    1  C6  UNL     1     -14.097  45.521 -27.008  1.00  0.00     0.154 C 
HETATM    2  C7  UNL     1     -14.307  45.721 -28.511  1.00  0.00     0.035 C 
HETATM    3  C8  UNL     1     -12.983  45.779 -29.286  1.00  0.00     0.012 C 
HETATM    4  C9  UNL     1     -11.993  46.865 -28.748  1.00  0.00    -0.029 C 
HETATM    5  C10 UNL     1     -12.647  48.229 -29.081  1.00  0.00     0.016 C 
HETATM    6  C11 UNL     1     -11.788  46.556 -27.225  1.00  0.00     0.054 C 
HETATM    7  C12 UNL     1     -13.097  46.541 -26.409  1.00  0.00     0.154 C 
HETATM    8  C13 UNL     1     -10.694  47.394 -26.539  1.00  0.00     0.128 C 
HETATM    9  C14 UNL     1      -9.346  47.235 -27.245  1.00  0.00     0.071 C 
HETATM   10  C15 UNL     1      -9.420  47.530 -28.757  1.00  0.00     0.071 C 
HETATM   11  C16 UNL     1     -10.575  46.704 -29.431  1.00  0.00     0.029 C 
HETATM   12  C17 UNL     1     -10.577  46.884 -30.968  1.00  0.00     0.009 C 
HETATM   13  C18 UNL     1      -9.210  46.573 -31.610  1.00  0.00     0.010 C 
HETATM   14  C19 UNL     1      -8.068  47.400 -30.997  1.00  0.00    -0.031 C 
HETATM   15  C20 UNL     1      -8.215  48.878 -31.430  1.00  0.00     0.016 C 
HETATM   16  C21 UNL     1      -6.619  46.892 -31.287  1.00  0.00     0.004 C 
HETATM   17  C31 UNL     1      -5.802  47.500 -30.113  1.00  0.00     0.038 C 
HETATM   18  C32 UNL     1      -6.798  47.774 -28.974  1.00  0.00     0.126 C 
HETATM   19  C33 UNL     1      -8.101  47.147 -29.462  1.00  0.00     0.058 C 
ENDROOT
BRANCH   1  20
HETATM   20  O3  UNL     1     -15.381  45.584 -26.381  1.00  0.00    -0.351 OA
BRANCH  20  21
HETATM   21  C5  UNL     1     -15.892  44.319 -25.963  1.00  0.00     0.291 C 
HETATM   22  C3  UNL     1     -16.844  44.427 -24.745  1.00  0.00     0.207 C 
HETATM   23  C2  UNL     1     -18.243  44.958 -25.144  1.00  0.00     0.185 C 
HETATM   24  C35 UNL     1     -18.776  44.297 -26.427  1.00  0.00     0.176 C 
HETATM   25  C34 UNL     1     -17.695  44.323 -27.513  1.00  0.00     0.205 C 
HETATM   26  O9  UNL     1     -16.500  43.666 -27.085  1.00  0.00    -0.356 OA
BRANCH  22  27
HETATM   27  O2  UNL     1     -16.904  43.125 -24.121  1.00  0.00    -0.383 OA
HETATM   28  C4  UNL     1     -17.631  43.114 -22.901  1.00  0.00     0.202 C 
ENDBRANCH  22  27
BRANCH  23  29
HETATM   29  O1  UNL     1     -18.228  46.385 -25.362  1.00  0.00    -0.385 OA
HETATM   30  C1  UNL     1     -18.976  47.101 -24.385  1.00  0.00     0.202 C 
ENDBRANCH  23  29
BRANCH  24  31
HETATM   31  O10 UNL     1     -19.190  42.958 -26.110  1.00  0.00    -0.386 OA
HETATM   32  C36 UNL     1     -19.819  42.279 -27.190  1.00  0.00     0.202 C 
ENDBRANCH  24  31
ENDBRANCH  20  21
ENDBRANCH   1  20
BRANCH   7  33
HETATM   33  O4  UNL     1     -13.673  47.845 -26.309  1.00  0.00    -0.393 OA
HETATM   34  H20 UNL     1     -12.932  48.487 -26.274  1.00  0.00     0.210 HD
ENDBRANCH   7  33
BRANCH   8  35
HETATM   35  O5  UNL     1     -11.067  48.771 -26.487  1.00  0.00    -0.395 OA
HETATM   36  H22 UNL     1     -10.379  49.228 -25.958  1.00  0.00     0.210 HD
ENDBRANCH   8  35
BRANCH  10  37
HETATM   37  O6  UNL     1      -9.612  48.934 -28.900  1.00  0.00    -0.389 OA
HETATM   38  H25 UNL     1     -10.293  49.208 -28.258  1.00  0.00     0.210 HD
ENDBRANCH  10  37
BRANCH  18  39
HETATM   39  O8  UNL     1      -6.354  47.150 -27.773  1.00  0.00    -0.395 OA
HETATM   40  H55 UNL     1      -5.493  47.547 -27.558  1.00  0.00     0.210 HD
ENDBRANCH  18  39
BRANCH  16  41
HETATM   41  C22 UNL     1      -5.966  47.181 -32.665  1.00  0.00     0.009 C 
HETATM   42  C23 UNL     1      -4.797  48.170 -32.587  1.00  0.00     0.014 C 
BRANCH  41  43
HETATM   43  C24 UNL     1      -7.023  47.621 -33.671  1.00  0.00    -0.026 C 
HETATM   44  C25 UNL     1      -7.522  46.903 -34.692  1.00  0.00    -0.026 C 
BRANCH  44  45
HETATM   45  C26 UNL     1      -8.566  47.358 -35.703  1.00  0.00     0.009 C 
HETATM   46  C27 UNL     1      -7.978  47.783 -37.053  1.00  0.00     0.014 C 
BRANCH  45  47
HETATM   47  C28 UNL     1      -9.711  46.303 -35.801  1.00  0.00     0.012 C 
HETATM   48  C29 UNL     1      -9.446  45.032 -34.984  1.00  0.00     0.012 C 
BRANCH  47  49
HETATM   49  C30 UNL     1     -10.086  45.953 -37.253  1.00  0.00     0.168 C 
BRANCH  49  50
HETATM   50  O7  UNL     1      -9.626  44.670 -37.648  1.00  0.00    -0.400 OA
HETATM   51  H51 UNL     1     -10.141  43.999 -37.159  1.00  0.00     0.209 HD
ENDBRANCH  49  50
ENDBRANCH  47  49
ENDBRANCH  45  47
ENDBRANCH  44  45
ENDBRANCH  41  43
ENDBRANCH  16  41
TORSDOF 15
ENDMDL
MODEL 3
REMARK minimizedAffinity -7.86687088
REMARK CNNscore 0.648056149
REMARK CNNaffinity 7.11768198
REMARK  15 active torsions:
REMARK  status: ('A' for Active; 'I' for Inactive)
REMARK    1  A    between atoms: O1_2  and  C2_3 
REMARK    2  A    between atoms: C3_4  and  O2_5 
REMARK    3  A    between atoms: C5_7  and  O3_8 
REMARK    4  A    between atoms: O3_8  and  C6_9 
REMARK    5  A    between atoms: C12_15  and  O4_16 
REMARK    6  A    between atoms: C13_17  and  O5_18 
REMARK    7  A    between atoms: C15_20  and  O6_21 
REMARK    8  A    between atoms: C21_27  and  C22_28 
REMARK    9  A    between atoms: C22_28  and  C24_30 
REMARK   10  A    between atoms: C25_31  and  C26_32 
REMARK   11  A    between atoms: C26_32  and  C28_34 
REMARK   12  A    between atoms: C28_34  and  C30_36 
REMARK   13  A    between atoms: C30_36  and  O7_37 
REMARK   14  A    between atoms: C32_39  and  O8_40 
REMARK   15  A    between atoms: C35_44  and  O10_45 
ROOT
HETATM    1  C6  UNL     1      -4.823  44.561 -19.236  1.00  0.00     0.154 C 
HETATM    2  C7  UNL     1      -4.724  44.936 -20.716  1.00  0.00     0.035 C 
HETATM    3  C8  UNL     1      -3.678  46.029 -20.977  1.00  0.00     0.012 C 
HETATM    4  C9  UNL     1      -3.901  47.322 -20.124  1.00  0.00    -0.029 C 
HETATM    5  C10 UNL     1      -5.205  47.959 -20.664  1.00  0.00     0.016 C 
HETATM    6  C11 UNL     1      -3.933  46.860 -18.626  1.00  0.00     0.054 C 
HETATM    7  C12 UNL     1      -5.010  45.798 -18.323  1.00  0.00     0.154 C 
HETATM    8  C13 UNL     1      -3.951  48.006 -17.599  1.00  0.00     0.128 C 
HETATM    9  C14 UNL     1      -2.754  48.940 -17.786  1.00  0.00     0.071 C 
HETATM   10  C15 UNL     1      -2.628  49.475 -19.227  1.00  0.00     0.071 C 
HETATM   11  C16 UNL     1      -2.661  48.295 -20.265  1.00  0.00     0.029 C 
HETATM   12  C17 UNL     1      -2.400  48.799 -21.705  1.00  0.00     0.009 C 
HETATM   13  C18 UNL     1      -1.102  49.622 -21.826  1.00  0.00     0.010 C 
HETATM   14  C19 UNL     1      -1.062  50.809 -20.849  1.00  0.00    -0.031 C 
HETATM   15  C20 UNL     1      -2.078  51.882 -21.305  1.00  0.00     0.016 C 
HETATM   16  C21 UNL     1       0.340  51.457 -20.612  1.00  0.00     0.004 C 
HETATM   17  C31 UNL     1       0.172  52.138 -19.225  1.00  0.00     0.038 C 
HETATM   18  C32 UNL     1      -0.977  51.408 -18.508  1.00  0.00     0.126 C 
HETATM   19  C33 UNL     1      -1.296  50.230 -19.424  1.00  0.00     0.058 C 
ENDROOT
BRANCH   1  20
HETATM   20  O3  UNL     1      -5.890  43.617 -19.100  1.00  0.00    -0.351 OA
BRANCH  20  21
HETATM   21  C5  UNL     1      -6.804  43.604 -20.196  1.00  0.00     0.291 C 
HETATM   22  C3  UNL     1      -7.171  42.171 -20.657  1.00  0.00     0.207 C 
HETATM   23  C2  UNL     1      -8.175  41.488 -19.696  1.00  0.00     0.185 C 
HETATM   24  C35 UNL     1      -9.316  42.430 -19.277  1.00  0.00     0.176 C 
HETATM   25  C34 UNL     1      -8.741  43.776 -18.825  1.00  0.00     0.205 C 
HETATM   26  O9  UNL     1      -7.956  44.386 -19.853  1.00  0.00    -0.356 OA
BRANCH  22  27
HETATM   27  O2  UNL     1      -7.672  42.262 -22.008  1.00  0.00    -0.383 OA
HETATM   28  C4  UNL     1      -6.781  42.916 -22.901  1.00  0.00     0.202 C 
ENDBRANCH  22  27
BRANCH  23  29
HETATM   29  O1  UNL     1      -7.527  41.023 -18.493  1.00  0.00    -0.385 OA
HETATM   30  C1  UNL     1      -6.436  40.147 -18.756  1.00  0.00     0.202 C 
ENDBRANCH  23  29
BRANCH  24  31
HETATM   31  O10 UNL     1     -10.218  42.573 -20.386  1.00  0.00    -0.386 OA
HETATM   32  C36 UNL     1     -10.939  41.387 -20.700  1.00  0.00     0.202 C 
ENDBRANCH  24  31
ENDBRANCH  20  21
ENDBRANCH   1  20
BRANCH   7  33
HETATM   33  O4  UNL     1      -6.329  46.337 -18.430  1.00  0.00    -0.393 OA
HETATM   34  H20 UNL     1      -6.284  47.272 -18.137  1.00  0.00     0.210 HD
ENDBRANCH   7  33
BRANCH   8  35
HETATM   35  O5  UNL     1      -5.172  48.741 -17.680  1.00  0.00    -0.395 OA
HETATM   36  H22 UNL     1      -5.159  49.388 -16.943  1.00  0.00     0.210 HD
ENDBRANCH   8  35
BRANCH  10  37
HETATM   37  O6  UNL     1      -3.696  50.395 -19.427  1.00  0.00    -0.389 OA
HETATM   38  H25 UNL     1      -4.507  49.992 -19.066  1.00  0.00     0.210 HD
ENDBRANCH  10  37
BRANCH  18  39
HETATM   39  O8  UNL     1      -0.547  50.954 -17.229  1.00  0.00    -0.395 OA
HETATM   40  H55 UNL     1      -0.297  51.747 -16.724  1.00  0.00     0.210 HD
ENDBRANCH  18  39
BRANCH  16  41
HETATM   41  C22 UNL     1       0.927  52.426 -21.672  1.00  0.00     0.009 C 
HETATM   42  C23 UNL     1       0.933  53.891 -21.217  1.00  0.00     0.014 C 
BRANCH  41  43
HETATM   43  C24 UNL     1       0.217  52.244 -23.008  1.00  0.00    -0.026 C 
HETATM   44  C25 UNL     1       0.767  51.865 -24.175  1.00  0.00    -0.026 C 
BRANCH  44  45
HETATM   45  C26 UNL     1       0.052  51.702 -25.510  1.00  0.00     0.009 C 
HETATM   46  C27 UNL     1      -1.323  52.380 -25.563  1.00  0.00     0.014 C 
BRANCH  45  47
HETATM   47  C28 UNL     1       1.007  52.088 -26.681  1.00  0.00     0.012 C 
HETATM   48  C29 UNL     1       0.527  51.595 -28.052  1.00  0.00     0.012 C 
BRANCH  47  49
HETATM   49  C30 UNL     1       2.468  51.669 -26.429  1.00  0.00     0.168 C 
BRANCH  49  50
HETATM   50  O7  UNL     1       3.219  51.538 -27.626  1.00  0.00    -0.400 OA
HETATM   51  H51 UNL     1       3.346  52.430 -28.003  1.00  0.00     0.209 HD
ENDBRANCH  49  50
ENDBRANCH  47  49
ENDBRANCH  45  47
ENDBRANCH  44  45
ENDBRANCH  41  43
ENDBRANCH  16  41
TORSDOF 15
ENDMDL
MODEL 4
REMARK minimizedAffinity -8.28137398
REMARK CNNscore 0.581336498
REMARK CNNaffinity 6.52193308
REMARK  15 active torsions:
REMARK  status: ('A' for Active; 'I' for Inactive)
REMARK    1  A    between atoms: O1_2  and  C2_3 
REMARK    2  A    between atoms: C3_4  and  O2_5 
REMARK    3  A    between atoms: C5_7  and  O3_8 
REMARK    4  A    between atoms: O3_8  and  C6_9 
REMARK    5  A    between atoms: C12_15  and  O4_16 
REMARK    6  A    between atoms: C13_17  and  O5_18 
REMARK    7  A    between atoms: C15_20  and  O6_21 
REMARK    8  A    between atoms: C21_27  and  C22_28 
REMARK    9  A    between atoms: C22_28  and  C24_30 
REMARK   10  A    between atoms: C25_31  and  C26_32 
REMARK   11  A    between atoms: C26_32  and  C28_34 
REMARK   12  A    between atoms: C28_34  and  C30_36 
REMARK   13  A    between atoms: C30_36  and  O7_37 
REMARK   14  A    between atoms: C32_39  and  O8_40 
REMARK   15  A    between atoms: C35_44  and  O10_45 
ROOT
HETATM    1  C6  UNL     1     -13.722  45.353 -26.974  1.00  0.00     0.154 C 
HETATM    2  C7  UNL     1     -13.682  45.207 -28.496  1.00  0.00     0.035 C 
HETATM    3  C8  UNL     1     -12.253  45.282 -29.056  1.00  0.00     0.012 C 
HETATM    4  C9  UNL     1     -11.486  46.579 -28.634  1.00  0.00    -0.029 C 
HETATM    5  C10 UNL     1     -12.201  47.743 -29.362  1.00  0.00     0.016 C 
HETATM    6  C11 UNL     1     -11.525  46.623 -27.067  1.00  0.00     0.054 C 
HETATM    7  C12 UNL     1     -12.950  46.600 -26.477  1.00  0.00     0.154 C 
HETATM    8  C13 UNL     1     -10.657  47.724 -26.431  1.00  0.00     0.128 C 
HETATM    9  C14 UNL     1      -9.197  47.604 -26.871  1.00  0.00     0.071 C 
HETATM   10  C15 UNL     1      -9.030  47.568 -28.403  1.00  0.00     0.071 C 
HETATM   11  C16 UNL     1      -9.960  46.472 -29.040  1.00  0.00     0.029 C 
HETATM   12  C17 UNL     1      -9.707  46.328 -30.560  1.00  0.00     0.009 C 
HETATM   13  C18 UNL     1      -8.225  46.078 -30.900  1.00  0.00     0.010 C 
HETATM   14  C19 UNL     1      -7.297  47.160 -30.324  1.00  0.00    -0.031 C 
HETATM   15  C20 UNL     1      -7.509  48.483 -31.098  1.00  0.00     0.016 C 
HETATM   16  C21 UNL     1      -5.776  46.803 -30.269  1.00  0.00     0.004 C 
HETATM   17  C31 UNL     1      -5.244  47.745 -29.153  1.00  0.00     0.038 C 
HETATM   18  C32 UNL     1      -6.448  48.113 -28.270  1.00  0.00     0.126 C 
HETATM   19  C33 UNL     1      -7.576  47.229 -28.795  1.00  0.00     0.058 C 
ENDROOT
BRANCH   1  20
HETATM   20  O3  UNL     1     -15.098  45.371 -26.579  1.00  0.00    -0.351 OA
BRANCH  20  21
HETATM   21  C5  UNL     1     -15.302  45.515 -25.174  1.00  0.00     0.291 C 
HETATM   22  C3  UNL     1     -16.515  46.418 -24.833  1.00  0.00     0.207 C 
HETATM   23  C2  UNL     1     -17.864  45.686 -25.043  1.00  0.00     0.185 C 
HETATM   24  C35 UNL     1     -17.845  44.253 -24.485  1.00  0.00     0.176 C 
HETATM   25  C34 UNL     1     -16.586  43.524 -24.967  1.00  0.00     0.205 C 
HETATM   26  O9  UNL     1     -15.396  44.215 -24.579  1.00  0.00    -0.356 OA
BRANCH  22  27
HETATM   27  O2  UNL     1     -16.344  46.884 -23.477  1.00  0.00    -0.383 OA
HETATM   28  C4  UNL     1     -14.996  47.188 -23.147  1.00  0.00     0.202 C 
ENDBRANCH  22  27
BRANCH  23  29
HETATM   29  O1  UNL     1     -18.213  45.607 -26.442  1.00  0.00    -0.385 OA
HETATM   30  C1  UNL     1     -19.382  44.828 -26.676  1.00  0.00     0.202 C 
ENDBRANCH  23  29
BRANCH  24  31
HETATM   31  O10 UNL     1     -17.915  44.322 -23.053  1.00  0.00    -0.386 OA
HETATM   32  C36 UNL     1     -19.146  44.838 -22.559  1.00  0.00     0.202 C 
ENDBRANCH  24  31
ENDBRANCH  20  21
ENDBRANCH   1  20
BRANCH   7  33
HETATM   33  O4  UNL     1     -13.660  47.807 -26.763  1.00  0.00    -0.393 OA
HETATM   34  H20 UNL     1     -13.003  48.536 -26.763  1.00  0.00     0.210 HD
ENDBRANCH   7  33
BRANCH   8  35
HETATM   35  O5  UNL     1     -11.168  49.019 -26.750  1.00  0.00    -0.395 OA
HETATM   36  H22 UNL     1     -10.632  49.664 -26.241  1.00  0.00     0.210 HD
ENDBRANCH   8  35
BRANCH  10  37
HETATM   37  O6  UNL     1      -9.330  48.873 -28.888  1.00  0.00    -0.389 OA
HETATM   38  H25 UNL     1     -10.138  49.179 -28.436  1.00  0.00     0.210 HD
ENDBRANCH  10  37
BRANCH  18  39
HETATM   39  O8  UNL     1      -6.165  47.816 -26.907  1.00  0.00    -0.395 OA
HETATM   40  H55 UNL     1      -5.399  48.361 -26.659  1.00  0.00     0.210 HD
ENDBRANCH  18  39
BRANCH  16  41
HETATM   41  C22 UNL     1      -4.921  46.885 -31.562  1.00  0.00     0.009 C 
HETATM   42  C23 UNL     1      -5.138  48.182 -32.351  1.00  0.00     0.014 C 
BRANCH  41  43
HETATM   43  C24 UNL     1      -5.140  45.647 -32.422  1.00  0.00    -0.026 C 
HETATM   44  C25 UNL     1      -4.823  44.377 -32.114  1.00  0.00    -0.026 C 
BRANCH  44  45
HETATM   45  C26 UNL     1      -5.031  43.147 -32.988  1.00  0.00     0.009 C 
HETATM   46  C27 UNL     1      -3.790  42.254 -33.105  1.00  0.00     0.014 C 
BRANCH  45  47
HETATM   47  C28 UNL     1      -6.329  42.398 -32.558  1.00  0.00     0.012 C 
HETATM   48  C29 UNL     1      -6.212  40.870 -32.648  1.00  0.00     0.012 C 
BRANCH  47  49
HETATM   49  C30 UNL     1      -7.585  42.896 -33.296  1.00  0.00     0.168 C 
BRANCH  49  50
HETATM   50  O7  UNL     1      -7.368  43.093 -34.685  1.00  0.00    -0.400 OA
HETATM   51  H51 UNL     1      -7.247  42.217 -35.100  1.00  0.00     0.209 HD
ENDBRANCH  49  50
ENDBRANCH  47  49
ENDBRANCH  45  47
ENDBRANCH  44  45
ENDBRANCH  41  43
ENDBRANCH  16  41
TORSDOF 15
ENDMDL
MODEL 5
REMARK minimizedAffinity -9.12188721
REMARK CNNscore 0.572010994
REMARK CNNaffinity 7.04533386
REMARK  15 active torsions:
REMARK  status: ('A' for Active; 'I' for Inactive)
REMARK    1  A    between atoms: O1_2  and  C2_3 
REMARK    2  A    between atoms: C3_4  and  O2_5 
REMARK    3  A    between atoms: C5_7  and  O3_8 
REMARK    4  A    between atoms: O3_8  and  C6_9 
REMARK    5  A    between atoms: C12_15  and  O4_16 
REMARK    6  A    between atoms: C13_17  and  O5_18 
REMARK    7  A    between atoms: C15_20  and  O6_21 
REMARK    8  A    between atoms: C21_27  and  C22_28 
REMARK    9  A    between atoms: C22_28  and  C24_30 
REMARK   10  A    between atoms: C25_31  and  C26_32 
REMARK   11  A    between atoms: C26_32  and  C28_34 
REMARK   12  A    between atoms: C28_34  and  C30_36 
REMARK   13  A    between atoms: C30_36  and  O7_37 
REMARK   14  A    between atoms: C32_39  and  O8_40 
REMARK   15  A    between atoms: C35_44  and  O10_45 
ROOT
HETATM    1  C6  UNL     1      -0.743  51.170 -22.170  1.00  0.00     0.154 C 
HETATM    2  C7  UNL     1      -0.167  52.477 -21.623  1.00  0.00     0.035 C 
HETATM    3  C8  UNL     1       0.571  52.282 -20.291  1.00  0.00     0.012 C 
HETATM    4  C9  UNL     1      -0.303  51.594 -19.190  1.00  0.00    -0.029 C 
HETATM    5  C10 UNL     1      -1.403  52.622 -18.826  1.00  0.00     0.016 C 
HETATM    6  C11 UNL     1      -0.805  50.243 -19.807  1.00  0.00     0.054 C 
HETATM    7  C12 UNL     1      -1.594  50.413 -21.122  1.00  0.00     0.154 C 
HETATM    8  C13 UNL     1      -1.529  49.312 -18.818  1.00  0.00     0.128 C 
HETATM    9  C14 UNL     1      -0.647  48.988 -17.611  1.00  0.00     0.071 C 
HETATM   10  C15 UNL     1      -0.104  50.248 -16.907  1.00  0.00     0.071 C 
HETATM   11  C16 UNL     1       0.588  51.210 -17.940  1.00  0.00     0.029 C 
HETATM   12  C17 UNL     1       1.257  52.414 -17.233  1.00  0.00     0.009 C 
HETATM   13  C18 UNL     1       2.231  51.987 -16.117  1.00  0.00     0.010 C 
HETATM   14  C19 UNL     1       1.567  51.079 -15.069  1.00  0.00    -0.031 C 
HETATM   15  C20 UNL     1       0.573  51.911 -14.225  1.00  0.00     0.016 C 
HETATM   16  C21 UNL     1       2.537  50.284 -14.135  1.00  0.00     0.004 C 
HETATM   17  C31 UNL     1       1.659  49.088 -13.671  1.00  0.00     0.038 C 
HETATM   18  C32 UNL     1       0.556  48.909 -14.727  1.00  0.00     0.126 C 
HETATM   19  C33 UNL     1       0.948  49.877 -15.840  1.00  0.00     0.058 C 
ENDROOT
BRANCH   1  20
HETATM   20  O3  UNL     1      -1.488  51.488 -23.351  1.00  0.00    -0.351 OA
BRANCH  20  21
HETATM   21  C5  UNL     1      -1.084  50.763 -24.511  1.00  0.00     0.291 C 
HETATM   22  C3  UNL     1      -2.243  50.545 -25.518  1.00  0.00     0.207 C 
HETATM   23  C2  UNL     1      -2.564  51.828 -26.323  1.00  0.00     0.185 C 
HETATM   24  C35 UNL     1      -1.295  52.541 -26.820  1.00  0.00     0.176 C 
HETATM   25  C34 UNL     1      -0.295  52.686 -25.667  1.00  0.00     0.205 C 
HETATM   26  O9  UNL     1       0.046  51.418 -25.102  1.00  0.00    -0.356 OA
BRANCH  22  27
HETATM   27  O2  UNL     1      -1.879  49.435 -26.367  1.00  0.00    -0.383 OA
HETATM   28  C4  UNL     1      -2.945  48.523 -26.597  1.00  0.00     0.202 C 
ENDBRANCH  22  27
BRANCH  23  29
HETATM   29  O1  UNL     1      -3.318  52.775 -25.536  1.00  0.00    -0.385 OA
HETATM   30  C1  UNL     1      -4.365  52.164 -24.790  1.00  0.00     0.202 C 
ENDBRANCH  23  29
BRANCH  24  31
HETATM   31  O10 UNL     1      -0.750  51.788 -27.915  1.00  0.00    -0.386 OA
HETATM   32  C36 UNL     1       0.464  52.320 -28.432  1.00  0.00     0.202 C 
ENDBRANCH  24  31
ENDBRANCH  20  21
ENDBRANCH   1  20
BRANCH   7  33
HETATM   33  O4  UNL     1      -2.853  51.052 -20.904  1.00  0.00    -0.393 OA
HETATM   34  H20 UNL     1      -3.175  50.764 -20.023  1.00  0.00     0.210 HD
ENDBRANCH   7  33
BRANCH   8  35
HETATM   35  O5  UNL     1      -2.764  49.888 -18.391  1.00  0.00    -0.395 OA
HETATM   36  H22 UNL     1      -3.215  49.209 -17.845  1.00  0.00     0.210 HD
ENDBRANCH   8  35
BRANCH  10  37
HETATM   37  O6  UNL     1      -1.206  50.869 -16.251  1.00  0.00    -0.389 OA
HETATM   38  H25 UNL     1      -1.957  50.874 -16.873  1.00  0.00     0.210 HD
ENDBRANCH  10  37
BRANCH  18  39
HETATM   39  O8  UNL     1       0.545  47.568 -15.203  1.00  0.00    -0.395 OA
HETATM   40  H55 UNL     1       0.356  47.003 -14.434  1.00  0.00     0.210 HD
ENDBRANCH  18  39
BRANCH  16  41
HETATM   41  C22 UNL     1       3.219  51.006 -12.944  1.00  0.00     0.009 C 
HETATM   42  C23 UNL     1       3.823  50.042 -11.916  1.00  0.00     0.014 C 
BRANCH  41  43
HETATM   43  C24 UNL     1       2.256  51.998 -12.303  1.00  0.00    -0.026 C 
HETATM   44  C25 UNL     1       2.553  52.958 -11.409  1.00  0.00    -0.026 C 
BRANCH  44  45
HETATM   45  C26 UNL     1       1.580  53.934 -10.761  1.00  0.00     0.009 C 
HETATM   46  C27 UNL     1       0.670  53.292  -9.707  1.00  0.00     0.014 C 
BRANCH  45  47
HETATM   47  C28 UNL     1       2.342  55.203 -10.270  1.00  0.00     0.012 C 
HETATM   48  C29 UNL     1       3.733  55.363 -10.896  1.00  0.00     0.012 C 
BRANCH  47  49
HETATM   49  C30 UNL     1       2.416  55.305  -8.735  1.00  0.00     0.168 C 
BRANCH  49  50
HETATM   50  O7  UNL     1       2.634  56.632  -8.280  1.00  0.00    -0.400 OA
HETATM   51  H51 UNL     1       1.826  57.150  -8.459  1.00  0.00     0.209 HD
ENDBRANCH  49  50
ENDBRANCH  47  49
ENDBRANCH  45  47
ENDBRANCH  44  45
ENDBRANCH  41  43
ENDBRANCH  16  41
TORSDOF 15
ENDMDL
MODEL 6
REMARK minimizedAffinity -7.87478638
REMARK CNNscore 0.540832341
REMARK CNNaffinity 6.99548197
REMARK  15 active torsions:
REMARK  status: ('A' for Active; 'I' for Inactive)
REMARK    1  A    between atoms: O1_2  and  C2_3 
REMARK    2  A    between atoms: C3_4  and  O2_5 
REMARK    3  A    between atoms: C5_7  and  O3_8 
REMARK    4  A    between atoms: O3_8  and  C6_9 
REMARK    5  A    between atoms: C12_15  and  O4_16 
REMARK    6  A    between atoms: C13_17  and  O5_18 
REMARK    7  A    between atoms: C15_20  and  O6_21 
REMARK    8  A    between atoms: C21_27  and  C22_28 
REMARK    9  A    between atoms: C22_28  and  C24_30 
REMARK   10  A    between atoms: C25_31  and  C26_32 
REMARK   11  A    between atoms: C26_32  and  C28_34 
REMARK   12  A    between atoms: C28_34  and  C30_36 
REMARK   13  A    between atoms: C30_36  and  O7_37 
REMARK   14  A    between atoms: C32_39  and  O8_40 
REMARK   15  A    between atoms: C35_44  and  O10_45 
ROOT
HETATM    1  C6  UNL     1      -4.697  44.850 -19.369  1.00  0.00     0.154 C 
HETATM    2  C7  UNL     1      -4.408  45.074 -20.855  1.00  0.00     0.035 C 
HETATM    3  C8  UNL     1      -3.373  46.183 -21.092  1.00  0.00     0.012 C 
HETATM    4  C9  UNL     1      -3.754  47.545 -20.422  1.00  0.00    -0.029 C 
HETATM    5  C10 UNL     1      -4.992  48.059 -21.197  1.00  0.00     0.016 C 
HETATM    6  C11 UNL     1      -3.976  47.239 -18.900  1.00  0.00     0.054 C 
HETATM    7  C12 UNL     1      -5.048  46.164 -18.629  1.00  0.00     0.154 C 
HETATM    8  C13 UNL     1      -4.173  48.484 -18.015  1.00  0.00     0.128 C 
HETATM    9  C14 UNL     1      -2.994  49.450 -18.143  1.00  0.00     0.071 C 
HETATM   10  C15 UNL     1      -2.689  49.838 -19.604  1.00  0.00     0.071 C 
HETATM   11  C16 UNL     1      -2.541  48.557 -20.502  1.00  0.00     0.029 C 
HETATM   12  C17 UNL     1      -2.101  48.921 -21.941  1.00  0.00     0.009 C 
HETATM   13  C18 UNL     1      -0.827  49.788 -21.977  1.00  0.00     0.010 C 
HETATM   14  C19 UNL     1      -0.961  51.070 -21.139  1.00  0.00    -0.031 C 
HETATM   15  C20 UNL     1      -1.941  52.041 -21.840  1.00  0.00     0.016 C 
HETATM   16  C21 UNL     1       0.373  51.806 -20.790  1.00  0.00     0.004 C 
HETATM   17  C31 UNL     1      -0.007  52.618 -19.520  1.00  0.00     0.038 C 
HETATM   18  C32 UNL     1      -1.218  51.912 -18.887  1.00  0.00     0.126 C 
HETATM   19  C33 UNL     1      -1.369  50.631 -19.703  1.00  0.00     0.058 C 
ENDROOT
BRANCH   1  20
HETATM   20  O3  UNL     1      -5.740  43.875 -19.274  1.00  0.00    -0.351 OA
BRANCH  20  21
HETATM   21  C5  UNL     1      -5.705  43.093 -18.081  1.00  0.00     0.291 C 
HETATM   22  C3  UNL     1      -6.653  41.868 -18.137  1.00  0.00     0.207 C 
HETATM   23  C2  UNL     1      -6.078  40.724 -19.008  1.00  0.00     0.185 C 
HETATM   24  C35 UNL     1      -4.585  40.476 -18.735  1.00  0.00     0.176 C 
HETATM   25  C34 UNL     1      -3.823  41.805 -18.757  1.00  0.00     0.205 C 
HETATM   26  O9  UNL     1      -4.347  42.729 -17.800  1.00  0.00    -0.356 OA
BRANCH  22  27
HETATM   27  O2  UNL     1      -6.908  41.453 -16.777  1.00  0.00    -0.383 OA
HETATM   28  C4  UNL     1      -7.918  40.459 -16.667  1.00  0.00     0.202 C 
ENDBRANCH  22  27
BRANCH  23  29
HETATM   29  O1  UNL     1      -6.225  41.004 -20.417  1.00  0.00    -0.385 OA
HETATM   30  C1  UNL     1      -6.042  39.851 -21.231  1.00  0.00     0.202 C 
ENDBRANCH  23  29
BRANCH  24  31
HETATM   31  O10 UNL     1      -4.459  39.802 -17.473  1.00  0.00    -0.386 OA
HETATM   32  C36 UNL     1      -3.119  39.472 -17.127  1.00  0.00     0.202 C 
ENDBRANCH  24  31
ENDBRANCH  20  21
ENDBRANCH   1  20
BRANCH   7  33
HETATM   33  O4  UNL     1      -6.357  46.625 -18.969  1.00  0.00    -0.393 OA
HETATM   34  H20 UNL     1      -6.385  47.587 -18.775  1.00  0.00     0.210 HD
ENDBRANCH   7  33
BRANCH   8  35
HETATM   35  O5  UNL     1      -5.396  49.146 -18.338  1.00  0.00    -0.395 OA
HETATM   36  H22 UNL     1      -5.506  49.866 -17.680  1.00  0.00     0.210 HD
ENDBRANCH   8  35
BRANCH  10  37
HETATM   37  O6  UNL     1      -3.750  50.680 -20.043  1.00  0.00    -0.389 OA
HETATM   38  H25 UNL     1      -4.589  50.278 -19.751  1.00  0.00     0.210 HD
ENDBRANCH  10  37
BRANCH  18  39
HETATM   39  O8  UNL     1      -0.953  51.614 -17.520  1.00  0.00    -0.395 OA
HETATM   40  H55 UNL     1      -0.802  52.466 -17.076  1.00  0.00     0.210 HD
ENDBRANCH  18  39
BRANCH  16  41
HETATM   41  C22 UNL     1       1.067  52.688 -21.862  1.00  0.00     0.009 C 
HETATM   42  C23 UNL     1       1.188  54.160 -21.451  1.00  0.00     0.014 C 
BRANCH  41  43
HETATM   43  C24 UNL     1       0.376  52.524 -23.211  1.00  0.00    -0.026 C 
HETATM   44  C25 UNL     1       0.749  53.063 -24.385  1.00  0.00    -0.026 C 
BRANCH  44  45
HETATM   45  C26 UNL     1       0.042  52.908 -25.725  1.00  0.00     0.009 C 
HETATM   46  C27 UNL     1       0.064  54.176 -26.587  1.00  0.00     0.014 C 
BRANCH  45  47
HETATM   47  C28 UNL     1       0.548  51.624 -26.451  1.00  0.00     0.012 C 
HETATM   48  C29 UNL     1      -0.330  50.391 -26.200  1.00  0.00     0.012 C 
BRANCH  47  49
HETATM   49  C30 UNL     1       2.028  51.311 -26.162  1.00  0.00     0.168 C 
BRANCH  49  50
HETATM   50  O7  UNL     1       2.920  52.120 -26.913  1.00  0.00    -0.400 OA
HETATM   51  H51 UNL     1       2.857  53.035 -26.577  1.00  0.00     0.209 HD
ENDBRANCH  49  50
ENDBRANCH  47  49
ENDBRANCH  45  47
ENDBRANCH  44  45
ENDBRANCH  41  43
ENDBRANCH  16  41
TORSDOF 15
ENDMDL
MODEL 7
REMARK minimizedAffinity -7.81565428
REMARK CNNscore 0.526999414
REMARK CNNaffinity 6.76353502
REMARK  15 active torsions:
REMARK  status: ('A' for Active; 'I' for Inactive)
REMARK    1  A    between atoms: O1_2  and  C2_3 
REMARK    2  A    between atoms: C3_4  and  O2_5 
REMARK    3  A    between atoms: C5_7  and  O3_8 
REMARK    4  A    between atoms: O3_8  and  C6_9 
REMARK    5  A    between atoms: C12_15  and  O4_16 
REMARK    6  A    between atoms: C13_17  and  O5_18 
REMARK    7  A    between atoms: C15_20  and  O6_21 
REMARK    8  A    between atoms: C21_27  and  C22_28 
REMARK    9  A    between atoms: C22_28  and  C24_30 
REMARK   10  A    between atoms: C25_31  and  C26_32 
REMARK   11  A    between atoms: C26_32  and  C28_34 
REMARK   12  A    between atoms: C28_34  and  C30_36 
REMARK   13  A    between atoms: C30_36  and  O7_37 
REMARK   14  A    between atoms: C32_39  and  O8_40 
REMARK   15  A    between atoms: C35_44  and  O10_45 
ROOT
HETATM    1  C6  UNL     1      -0.857  51.077 -22.343  1.00  0.00     0.154 C 
HETATM    2  C7  UNL     1      -0.286  52.340 -21.697  1.00  0.00     0.035 C 
HETATM    3  C8  UNL     1       0.345  52.063 -20.324  1.00  0.00     0.012 C 
HETATM    4  C9  UNL     1      -0.628  51.357 -19.322  1.00  0.00    -0.029 C 
HETATM    5  C10 UNL     1      -1.722  52.403 -18.994  1.00  0.00     0.016 C 
HETATM    6  C11 UNL     1      -1.122  50.051 -20.035  1.00  0.00     0.054 C 
HETATM    7  C12 UNL     1      -1.805  50.302 -21.395  1.00  0.00     0.154 C 
HETATM    8  C13 UNL     1      -1.944  49.102 -19.145  1.00  0.00     0.128 C 
HETATM    9  C14 UNL     1      -1.164  48.698 -17.892  1.00  0.00     0.071 C 
HETATM   10  C15 UNL     1      -0.639  49.909 -17.094  1.00  0.00     0.071 C 
HETATM   11  C16 UNL     1       0.156  50.892 -18.029  1.00  0.00     0.029 C 
HETATM   12  C17 UNL     1       0.805  52.041 -17.221  1.00  0.00     0.009 C 
HETATM   13  C18 UNL     1       1.681  51.536 -16.058  1.00  0.00     0.010 C 
HETATM   14  C19 UNL     1       0.915  50.605 -15.103  1.00  0.00    -0.031 C 
HETATM   15  C20 UNL     1      -0.115  51.431 -14.298  1.00  0.00     0.016 C 
HETATM   16  C21 UNL     1       1.789  49.740 -14.138  1.00  0.00     0.004 C 
HETATM   17  C31 UNL     1       0.845  48.554 -13.794  1.00  0.00     0.038 C 
HETATM   18  C32 UNL     1      -0.182  48.457 -14.935  1.00  0.00     0.126 C 
HETATM   19  C33 UNL     1       0.320  49.458 -15.971  1.00  0.00     0.058 C 
ENDROOT
BRANCH   1  20
HETATM   20  O3  UNL     1      -1.503  51.468 -23.559  1.00  0.00    -0.351 OA
BRANCH  20  21
HETATM   21  C5  UNL     1      -1.123  50.699 -24.699  1.00  0.00     0.291 C 
HETATM   22  C3  UNL     1      -2.268  50.549 -25.732  1.00  0.00     0.207 C 
HETATM   23  C2  UNL     1      -2.477  51.839 -26.563  1.00  0.00     0.185 C 
HETATM   24  C35 UNL     1      -1.147  52.452 -27.035  1.00  0.00     0.176 C 
HETATM   25  C34 UNL     1      -0.169  52.543 -25.859  1.00  0.00     0.205 C 
HETATM   26  O9  UNL     1       0.066  51.263 -25.268  1.00  0.00    -0.356 OA
BRANCH  22  27
HETATM   27  O2  UNL     1      -1.964  49.403 -26.557  1.00  0.00    -0.383 OA
HETATM   28  C4  UNL     1      -3.014  48.447 -26.610  1.00  0.00     0.202 C 
ENDBRANCH  22  27
BRANCH  23  29
HETATM   29  O1  UNL     1      -3.180  52.849 -25.808  1.00  0.00    -0.385 OA
HETATM   30  C1  UNL     1      -4.218  52.310 -24.996  1.00  0.00     0.202 C 
ENDBRANCH  23  29
BRANCH  24  31
HETATM   31  O10 UNL     1      -0.631  51.646 -28.106  1.00  0.00    -0.386 OA
HETATM   32  C36 UNL     1       0.706  51.965 -28.475  1.00  0.00     0.202 C 
ENDBRANCH  24  31
ENDBRANCH  20  21
ENDBRANCH   1  20
BRANCH   7  33
HETATM   33  O4  UNL     1      -3.058  50.972 -21.241  1.00  0.00    -0.393 OA
HETATM   34  H20 UNL     1      -3.454  50.657 -20.400  1.00  0.00     0.210 HD
ENDBRANCH   7  33
BRANCH   8  35
HETATM   35  O5  UNL     1      -3.190  49.698 -18.783  1.00  0.00    -0.395 OA
HETATM   36  H22 UNL     1      -3.700  49.012 -18.302  1.00  0.00     0.210 HD
ENDBRANCH   8  35
BRANCH  10  37
HETATM   37  O6  UNL     1      -1.768  50.536 -16.493  1.00  0.00    -0.389 OA
HETATM   38  H25 UNL     1      -2.470  50.592 -17.167  1.00  0.00     0.210 HD
ENDBRANCH  10  37
BRANCH  18  39
HETATM   39  O8  UNL     1      -0.196  47.138 -15.470  1.00  0.00    -0.395 OA
HETATM   40  H55 UNL     1      -0.457  46.547 -14.744  1.00  0.00     0.210 HD
ENDBRANCH  18  39
BRANCH  16  41
HETATM   41  C22 UNL     1       2.401  50.388 -12.869  1.00  0.00     0.009 C 
HETATM   42  C23 UNL     1       3.221  51.649 -13.167  1.00  0.00     0.014 C 
BRANCH  41  43
HETATM   43  C24 UNL     1       3.201  49.357 -12.081  1.00  0.00    -0.026 C 
HETATM   44  C25 UNL     1       3.060  49.040 -10.782  1.00  0.00    -0.026 C 
BRANCH  44  45
HETATM   45  C26 UNL     1       3.876  48.020  -9.998  1.00  0.00     0.009 C 
HETATM   46  C27 UNL     1       4.934  48.646  -9.081  1.00  0.00     0.014 C 
BRANCH  45  47
HETATM   47  C28 UNL     1       2.927  47.005  -9.291  1.00  0.00     0.012 C 
HETATM   48  C29 UNL     1       3.051  45.574  -9.829  1.00  0.00     0.012 C 
BRANCH  47  49
HETATM   49  C30 UNL     1       1.456  47.462  -9.280  1.00  0.00     0.168 C 
BRANCH  49  50
HETATM   50  O7  UNL     1       0.761  47.055  -8.111  1.00  0.00    -0.400 OA
HETATM   51  H51 UNL     1       1.116  47.562  -7.355  1.00  0.00     0.209 HD
ENDBRANCH  49  50
ENDBRANCH  47  49
ENDBRANCH  45  47
ENDBRANCH  44  45
ENDBRANCH  41  43
ENDBRANCH  16  41
TORSDOF 15
ENDMDL
MODEL 8
REMARK minimizedAffinity -7.72268772
REMARK CNNscore 0.499934524
REMARK CNNaffinity 6.9521327
REMARK  15 active torsions:
REMARK  status: ('A' for Active; 'I' for Inactive)
REMARK    1  A    between atoms: O1_2  and  C2_3 
REMARK    2  A    between atoms: C3_4  and  O2_5 
REMARK    3  A    between atoms: C5_7  and  O3_8 
REMARK    4  A    between atoms: O3_8  and  C6_9 
REMARK    5  A    between atoms: C12_15  and  O4_16 
REMARK    6  A    between atoms: C13_17  and  O5_18 
REMARK    7  A    between atoms: C15_20  and  O6_21 
REMARK    8  A    between atoms: C21_27  and  C22_28 
REMARK    9  A    between atoms: C22_28  and  C24_30 
REMARK   10  A    between atoms: C25_31  and  C26_32 
REMARK   11  A    between atoms: C26_32  and  C28_34 
REMARK   12  A    between atoms: C28_34  and  C30_36 
REMARK   13  A    between atoms: C30_36  and  O7_37 
REMARK   14  A    between atoms: C32_39  and  O8_40 
REMARK   15  A    between atoms: C35_44  and  O10_45 
ROOT
HETATM    1  C6  UNL     1      -2.282  47.107 -15.756  1.00  0.00     0.154 C 
HETATM    2  C7  UNL     1      -3.245  46.404 -16.716  1.00  0.00     0.035 C 
HETATM    3  C8  UNL     1      -3.031  46.828 -18.176  1.00  0.00     0.012 C 
HETATM    4  C9  UNL     1      -3.111  48.375 -18.395  1.00  0.00    -0.029 C 
HETATM    5  C10 UNL     1      -4.589  48.758 -18.139  1.00  0.00     0.016 C 
HETATM    6  C11 UNL     1      -2.059  49.011 -17.421  1.00  0.00     0.054 C 
HETATM    7  C12 UNL     1      -2.279  48.644 -15.939  1.00  0.00     0.154 C 
HETATM    8  C13 UNL     1      -1.836  50.522 -17.612  1.00  0.00     0.128 C 
HETATM    9  C14 UNL     1      -1.416  50.846 -19.047  1.00  0.00     0.071 C 
HETATM   10  C15 UNL     1      -2.390  50.281 -20.100  1.00  0.00     0.071 C 
HETATM   11  C16 UNL     1      -2.645  48.749 -19.860  1.00  0.00     0.029 C 
HETATM   12  C17 UNL     1      -3.512  48.135 -20.986  1.00  0.00     0.009 C 
HETATM   13  C18 UNL     1      -2.940  48.399 -22.394  1.00  0.00     0.010 C 
HETATM   14  C19 UNL     1      -2.720  49.896 -22.670  1.00  0.00    -0.031 C 
HETATM   15  C20 UNL     1      -4.091  50.595 -22.824  1.00  0.00     0.016 C 
HETATM   16  C21 UNL     1      -1.797  50.242 -23.883  1.00  0.00     0.004 C 
HETATM   17  C31 UNL     1      -1.301  51.674 -23.536  1.00  0.00     0.038 C 
HETATM   18  C32 UNL     1      -1.433  51.834 -22.012  1.00  0.00     0.126 C 
HETATM   19  C33 UNL     1      -1.818  50.440 -21.525  1.00  0.00     0.058 C 
ENDROOT
BRANCH   1  20
HETATM   20  O3  UNL     1      -2.637  46.716 -14.426  1.00  0.00    -0.351 OA
BRANCH  20  21
HETATM   21  C5  UNL     1      -1.937  45.570 -13.945  1.00  0.00     0.291 C 
HETATM   22  C3  UNL     1      -0.409  45.652 -14.189  1.00  0.00     0.207 C 
HETATM   23  C2  UNL     1       0.291  46.608 -13.191  1.00  0.00     0.185 C 
HETATM   24  C35 UNL     1      -0.204  46.412 -11.749  1.00  0.00     0.176 C 
HETATM   25  C34 UNL     1      -1.736  46.393 -11.722  1.00  0.00     0.205 C 
HETATM   26  O9  UNL     1      -2.266  45.367 -12.564  1.00  0.00    -0.356 OA
BRANCH  22  27
HETATM   27  O2  UNL     1       0.115  44.308 -14.128  1.00  0.00    -0.383 OA
HETATM   28  C4  UNL     1       1.485  44.215 -14.494  1.00  0.00     0.202 C 
ENDBRANCH  22  27
BRANCH  23  29
HETATM   29  O1  UNL     1       0.078  47.992 -13.543  1.00  0.00    -0.385 OA
HETATM   30  C1  UNL     1       1.187  48.565 -14.228  1.00  0.00     0.202 C 
ENDBRANCH  23  29
BRANCH  24  31
HETATM   31  O10 UNL     1       0.359  45.194 -11.236  1.00  0.00    -0.386 OA
HETATM   32  C36 UNL     1      -0.214  44.767 -10.006  1.00  0.00     0.202 C 
ENDBRANCH  24  31
ENDBRANCH  20  21
ENDBRANCH   1  20
BRANCH   7  33
HETATM   33  O4  UNL     1      -3.470  49.238 -15.418  1.00  0.00    -0.393 OA
HETATM   34  H20 UNL     1      -3.579  50.107 -15.862  1.00  0.00     0.210 HD
ENDBRANCH   7  33
BRANCH   8  35
HETATM   35  O5  UNL     1      -3.008  51.257 -17.259  1.00  0.00    -0.395 OA
HETATM   36  H22 UNL     1      -2.769  52.207 -17.311  1.00  0.00     0.210 HD
ENDBRANCH   8  35
BRANCH  10  37
HETATM   37  O6  UNL     1      -3.589  51.044 -20.014  1.00  0.00    -0.389 OA
HETATM   38  H25 UNL     1      -3.808  51.146 -19.069  1.00  0.00     0.210 HD
ENDBRANCH  10  37
BRANCH  18  39
HETATM   39  O8  UNL     1      -0.189  52.241 -21.452  1.00  0.00    -0.395 OA
HETATM   40  H55 UNL     1       0.027  53.100 -21.854  1.00  0.00     0.210 HD
ENDBRANCH  18  39
BRANCH  16  41
HETATM   41  C22 UNL     1      -2.358  50.150 -25.326  1.00  0.00     0.009 C 
HETATM   42  C23 UNL     1      -2.611  48.710 -25.788  1.00  0.00     0.014 C 
BRANCH  41  43
HETATM   43  C24 UNL     1      -1.460  50.913 -26.294  1.00  0.00    -0.026 C 
HETATM   44  C25 UNL     1      -0.143  51.150 -26.164  1.00  0.00    -0.026 C 
BRANCH  44  45
HETATM   45  C26 UNL     1       0.743  51.928 -27.128  1.00  0.00     0.009 C 
HETATM   46  C27 UNL     1       0.727  51.384 -28.561  1.00  0.00     0.014 C 
BRANCH  45  47
HETATM   47  C28 UNL     1       0.445  53.455 -27.015  1.00  0.00     0.012 C 
HETATM   48  C29 UNL     1      -0.072  53.877 -25.633  1.00  0.00     0.012 C 
BRANCH  47  49
HETATM   49  C30 UNL     1      -0.483  53.973 -28.130  1.00  0.00     0.168 C 
BRANCH  49  50
HETATM   50  O7  UNL     1      -1.856  53.916 -27.775  1.00  0.00    -0.400 OA
HETATM   51  H51 UNL     1      -2.018  54.581 -27.079  1.00  0.00     0.209 HD
ENDBRANCH  49  50
ENDBRANCH  47  49
ENDBRANCH  45  47
ENDBRANCH  44  45
ENDBRANCH  41  43
ENDBRANCH  16  41
TORSDOF 15
ENDMDL
MODEL 9
REMARK minimizedAffinity -8.33926964
REMARK CNNscore 0.473616391
REMARK CNNaffinity 6.56679106
REMARK  15 active torsions:
REMARK  status: ('A' for Active; 'I' for Inactive)
REMARK    1  A    between atoms: O1_2  and  C2_3 
REMARK    2  A    between atoms: C3_4  and  O2_5 
REMARK    3  A    between atoms: C5_7  and  O3_8 
REMARK    4  A    between atoms: O3_8  and  C6_9 
REMARK    5  A    between atoms: C12_15  and  O4_16 
REMARK    6  A    between atoms: C13_17  and  O5_18 
REMARK    7  A    between atoms: C15_20  and  O6_21 
REMARK    8  A    between atoms: C21_27  and  C22_28 
REMARK    9  A    between atoms: C22_28  and  C24_30 
REMARK   10  A    between atoms: C25_31  and  C26_32 
REMARK   11  A    between atoms: C26_32  and  C28_34 
REMARK   12  A    between atoms: C28_34  and  C30_36 
REMARK   13  A    between atoms: C30_36  and  O7_37 
REMARK   14  A    between atoms: C32_39  and  O8_40 
REMARK   15  A    between atoms: C35_44  and  O10_45 
ROOT
HETATM    1  C6  UNL     1      -0.372  51.507 -22.337  1.00  0.00     0.154 C 
HETATM    2  C7  UNL     1       0.168  52.790 -21.703  1.00  0.00     0.035 C 
HETATM    3  C8  UNL     1       0.815  52.542 -20.333  1.00  0.00     0.012 C 
HETATM    4  C9  UNL     1      -0.130  51.815 -19.319  1.00  0.00    -0.029 C 
HETATM    5  C10 UNL     1      -1.251  52.831 -18.990  1.00  0.00     0.016 C 
HETATM    6  C11 UNL     1      -0.590  50.490 -20.020  1.00  0.00     0.054 C 
HETATM    7  C12 UNL     1      -1.290  50.712 -21.376  1.00  0.00     0.154 C 
HETATM    8  C13 UNL     1      -1.378  49.523 -19.118  1.00  0.00     0.128 C 
HETATM    9  C14 UNL     1      -0.578  49.151 -17.868  1.00  0.00     0.071 C 
HETATM   10  C15 UNL     1      -0.083  50.382 -17.082  1.00  0.00     0.071 C 
HETATM   11  C16 UNL     1       0.676  51.381 -18.029  1.00  0.00     0.029 C 
HETATM   12  C17 UNL     1       1.298  52.554 -17.233  1.00  0.00     0.009 C 
HETATM   13  C18 UNL     1       2.196  52.082 -16.073  1.00  0.00     0.010 C 
HETATM   14  C19 UNL     1       1.464  51.136 -15.107  1.00  0.00    -0.031 C 
HETATM   15  C20 UNL     1       0.416  51.938 -14.299  1.00  0.00     0.016 C 
HETATM   16  C21 UNL     1       2.369  50.303 -14.142  1.00  0.00     0.004 C 
HETATM   17  C31 UNL     1       1.462  49.093 -13.783  1.00  0.00     0.038 C 
HETATM   18  C32 UNL     1       0.431  48.958 -14.916  1.00  0.00     0.126 C 
HETATM   19  C33 UNL     1       0.896  49.967 -15.962  1.00  0.00     0.058 C 
ENDROOT
BRANCH   1  20
HETATM   20  O3  UNL     1      -1.037  51.871 -23.550  1.00  0.00    -0.351 OA
BRANCH  20  21
HETATM   21  C5  UNL     1      -0.711  51.047 -24.668  1.00  0.00     0.291 C 
HETATM   22  C3  UNL     1      -1.949  50.675 -25.523  1.00  0.00     0.207 C 
HETATM   23  C2  UNL     1      -2.416  51.851 -26.415  1.00  0.00     0.185 C 
HETATM   24  C35 UNL     1      -1.242  52.562 -27.109  1.00  0.00     0.176 C 
HETATM   25  C34 UNL     1      -0.143  52.870 -26.086  1.00  0.00     0.205 C 
HETATM   26  O9  UNL     1       0.320  51.684 -25.435  1.00  0.00    -0.356 OA
BRANCH  22  27
HETATM   27  O2  UNL     1      -1.611  49.498 -26.290  1.00  0.00    -0.383 OA
HETATM   28  C4  UNL     1      -2.745  48.761 -26.726  1.00  0.00     0.202 C 
ENDBRANCH  22  27
BRANCH  23  29
HETATM   29  O1  UNL     1      -3.139  52.842 -25.653  1.00  0.00    -0.385 OA
HETATM   30  C1  UNL     1      -4.147  52.274 -24.824  1.00  0.00     0.202 C 
ENDBRANCH  23  29
BRANCH  24  31
HETATM   31  O10 UNL     1      -0.768  51.723 -28.174  1.00  0.00    -0.386 OA
HETATM   32  C36 UNL     1       0.585  51.968 -28.542  1.00  0.00     0.202 C 
ENDBRANCH  24  31
ENDBRANCH  20  21
ENDBRANCH   1  20
BRANCH   7  33
HETATM   33  O4  UNL     1      -2.560  51.346 -21.218  1.00  0.00    -0.393 OA
HETATM   34  H20 UNL     1      -2.941  51.026 -20.372  1.00  0.00     0.210 HD
ENDBRANCH   7  33
BRANCH   8  35
HETATM   35  O5  UNL     1      -2.638  50.086 -18.751  1.00  0.00    -0.395 OA
HETATM   36  H22 UNL     1      -3.125  49.388 -18.262  1.00  0.00     0.210 HD
ENDBRANCH   8  35
BRANCH  10  37
HETATM   37  O6  UNL     1      -1.225  50.980 -16.477  1.00  0.00    -0.389 OA
HETATM   38  H25 UNL     1      -1.933  51.011 -17.146  1.00  0.00     0.210 HD
ENDBRANCH  10  37
BRANCH  18  39
HETATM   39  O8  UNL     1       0.451  47.636 -15.443  1.00  0.00    -0.395 OA
HETATM   40  H55 UNL     1       0.212  47.042 -14.711  1.00  0.00     0.210 HD
ENDBRANCH  18  39
BRANCH  16  41
HETATM   41  C22 UNL     1       2.972  50.978 -12.881  1.00  0.00     0.009 C 
HETATM   42  C23 UNL     1       3.915  50.059 -12.095  1.00  0.00     0.014 C 
BRANCH  41  43
HETATM   43  C24 UNL     1       1.863  51.548 -12.004  1.00  0.00    -0.026 C 
HETATM   44  C25 UNL     1       1.356  51.008 -10.882  1.00  0.00    -0.026 C 
BRANCH  44  45
HETATM   45  C26 UNL     1       0.236  51.577 -10.021  1.00  0.00     0.009 C 
HETATM   46  C27 UNL     1      -1.074  51.809 -10.784  1.00  0.00     0.014 C 
BRANCH  45  47
HETATM   47  C28 UNL     1       0.084  50.737  -8.717  1.00  0.00     0.012 C 
HETATM   48  C29 UNL     1       0.841  49.403  -8.755  1.00  0.00     0.012 C 
BRANCH  47  49
HETATM   49  C30 UNL     1      -1.385  50.522  -8.306  1.00  0.00     0.168 C 
BRANCH  49  50
HETATM   50  O7  UNL     1      -1.790  51.368  -7.241  1.00  0.00    -0.400 OA
HETATM   51  H51 UNL     1      -1.825  52.284  -7.577  1.00  0.00     0.209 HD
ENDBRANCH  49  50
ENDBRANCH  47  49
ENDBRANCH  45  47
ENDBRANCH  44  45
ENDBRANCH  41  43
ENDBRANCH  16  41
TORSDOF 15
ENDMDL
