MODEL 1
REMARK minimizedAffinity -8.10369778
REMARK CNNscore 0.700445652
REMARK CNNaffinity 6.47547531
REMARK  12 active torsions:
REMARK  status: ('A' for Active; 'I' for Inactive)
REMARK    1  A    between atoms: C2_2  and  C3_3 
REMARK    2  A    between atoms: C2_2  and  C9_11 
REMARK    3  A    between atoms: C3_3  and  C4_4 
REMARK    4  A    between atoms: C4_4  and  C5_6 
REMARK    5  A    between atoms: C5_6  and  C6_7 
REMARK    6  A    between atoms: C6_7  and  O2_10 
REMARK    7  A    between atoms: C25_28  and  O4_29 
REMARK    8  A    between atoms: C27_31  and  O5_32 
REMARK    9  A    between atoms: O5_32  and  C28_33 
REMARK   10  A    between atoms: C30_36  and  O7_37 
REMARK   11  A    between atoms: C31_38  and  O8_39 
REMARK   12  A    between atoms: C32_40  and  O9_41 
ROOT
HETATM    1  C9  UNL     1       1.926  54.147 -10.053  1.00  0.00     0.068 C 
HETATM    2  C10 UNL     1       2.992  53.387 -10.871  1.00  0.00     0.133 C 
HETATM    3  O3  UNL     1       2.752  52.650 -11.821  1.00  0.00    -0.298 OA
HETATM    4  C11 UNL     1       4.414  53.655 -10.403  1.00  0.00     0.089 C 
HETATM    5  C12 UNL     1       4.177  54.459  -9.117  1.00  0.00    -0.022 C 
HETATM    6  C13 UNL     1       3.986  53.418  -7.968  1.00  0.00     0.017 C 
HETATM    7  C14 UNL     1       5.316  55.475  -8.763  1.00  0.00     0.024 C 
HETATM    8  C15 UNL     1       6.662  54.859  -8.333  1.00  0.00     0.014 C 
HETATM    9  C16 UNL     1       6.886  54.563  -6.841  1.00  0.00     0.036 C 
HETATM   10  C17 UNL     1       7.057  55.696  -5.824  1.00  0.00    -0.064 C 
HETATM   11  C18 UNL     1       6.582  56.959  -5.998  1.00  0.00    -0.044 C 
HETATM   12  C19 UNL     1       5.880  57.457  -7.248  1.00  0.00     0.071 C 
HETATM   13  C20 UNL     1       4.821  56.525  -7.786  1.00  0.00    -0.075 C 
HETATM   14  C21 UNL     1       3.514  56.698  -7.493  1.00  0.00    -0.022 C 
HETATM   15  C22 UNL     1       2.381  55.949  -8.160  1.00  0.00     0.038 C 
HETATM   16  C23 UNL     1       2.851  55.264  -9.462  1.00  0.00    -0.022 C 
HETATM   17  C24 UNL     1       3.078  56.372 -10.549  1.00  0.00     0.017 C 
HETATM   18  C25 UNL     1       6.741  58.052  -4.950  1.00  0.00     0.150 C 
HETATM   19  C26 UNL     1       7.203  57.581  -3.580  1.00  0.00     0.069 C 
HETATM   20  C27 UNL     1       8.303  56.542  -3.704  1.00  0.00     0.139 C 
HETATM   21  C33 UNL     1       7.801  55.291  -4.509  1.00  0.00     0.003 C 
HETATM   22  C34 UNL     1       6.818  54.480  -3.633  1.00  0.00     0.022 C 
HETATM   23  C35 UNL     1       9.041  54.397  -4.765  1.00  0.00     0.022 C 
ENDROOT
BRANCH  20  24
HETATM   24  O5  UNL     1       9.462  57.083  -4.357  1.00  0.00    -0.352 OA
BRANCH  24  25
HETATM   25  C28 UNL     1      10.557  57.385  -3.488  1.00  0.00     0.291 C 
HETATM   26  O6  UNL     1      10.169  58.404  -2.569  1.00  0.00    -0.356 OA
HETATM   27  C29 UNL     1      11.165  58.630  -1.569  1.00  0.00     0.205 C 
HETATM   28  C30 UNL     1      12.599  58.639  -2.118  1.00  0.00     0.173 C 
HETATM   29  C31 UNL     1      12.626  58.879  -3.636  1.00  0.00     0.182 C 
HETATM   30  C32 UNL     1      11.719  57.886  -4.379  1.00  0.00     0.204 C 
BRANCH  28  31
HETATM   31  O7  UNL     1      13.361  59.620  -1.410  1.00  0.00    -0.391 OA
HETATM   32  H44 UNL     1      14.035  59.969  -2.027  1.00  0.00     0.210 HD
ENDBRANCH  28  31
BRANCH  29  33
HETATM   33  O8  UNL     1      12.247  60.232  -3.935  1.00  0.00    -0.390 OA
HETATM   34  H46 UNL     1      11.373  60.398  -3.529  1.00  0.00     0.210 HD
ENDBRANCH  29  33
BRANCH  30  35
HETATM   35  O9  UNL     1      12.499  56.752  -4.805  1.00  0.00    -0.388 OA
HETATM   36  H48 UNL     1      12.848  56.971  -5.686  1.00  0.00     0.210 HD
ENDBRANCH  30  35
ENDBRANCH  24  25
ENDBRANCH  20  24
BRANCH  18  37
HETATM   37  O4  UNL     1       5.485  58.710  -4.754  1.00  0.00    -0.391 OA
HETATM   38  H36 UNL     1       5.653  59.470  -4.174  1.00  0.00     0.210 HD
ENDBRANCH  18  37
BRANCH   1  39
HETATM   39  C2  UNL     1       0.675  54.528 -10.895  1.00  0.00     0.000 C 
HETATM   40  C1  UNL     1      -0.474  55.063 -10.031  1.00  0.00     0.011 C 
BRANCH  39  41
HETATM   41  C3  UNL     1       0.146  53.297 -11.676  1.00  0.00     0.083 C 
BRANCH  41  42
HETATM   42  C4  UNL     1      -1.034  52.577 -11.032  1.00  0.00     0.130 C 
HETATM   43  O1  UNL     1      -0.988  52.303  -9.828  1.00  0.00    -0.298 OA
BRANCH  42  44
HETATM   44  C5  UNL     1      -2.252  52.215 -11.871  1.00  0.00     0.115 C 
BRANCH  44  45
HETATM   45  C6  UNL     1      -3.573  52.903 -11.490  1.00  0.00     0.057 C 
HETATM   46  C7  UNL     1      -3.409  54.040 -10.484  1.00  0.00     0.045 C 
HETATM   47  C8  UNL     1      -4.524  51.847 -10.907  1.00  0.00     0.045 C 
BRANCH  45  48
HETATM   48  O2  UNL     1      -4.191  53.420 -12.667  1.00  0.00    -0.390 OA
HETATM   49  H15 UNL     1      -4.995  53.903 -12.410  1.00  0.00     0.210 HD
ENDBRANCH  45  48
ENDBRANCH  44  45
ENDBRANCH  42  44
ENDBRANCH  41  42
ENDBRANCH  39  41
ENDBRANCH   1  39
TORSDOF 12
ENDMDL
MODEL 2
REMARK minimizedAffinity -8.19366741
REMARK CNNscore 0.627763987
REMARK CNNaffinity 7.22180557
REMARK  12 active torsions:
REMARK  status: ('A' for Active; 'I' for Inactive)
REMARK    1  A    between atoms: C2_2  and  C3_3 
REMARK    2  A    between atoms: C2_2  and  C9_11 
REMARK    3  A    between atoms: C3_3  and  C4_4 
REMARK    4  A    between atoms: C4_4  and  C5_6 
REMARK    5  A    between atoms: C5_6  and  C6_7 
REMARK    6  A    between atoms: C6_7  and  O2_10 
REMARK    7  A    between atoms: C25_28  and  O4_29 
REMARK    8  A    between atoms: C27_31  and  O5_32 
REMARK    9  A    between atoms: O5_32  and  C28_33 
REMARK   10  A    between atoms: C30_36  and  O7_37 
REMARK   11  A    between atoms: C31_38  and  O8_39 
REMARK   12  A    between atoms: C32_40  and  O9_41 
ROOT
HETATM    1  C9  UNL     1       2.116  50.120 -13.031  1.00  0.00     0.068 C 
HETATM    2  C10 UNL     1       0.788  49.599 -12.442  1.00  0.00     0.133 C 
HETATM    3  O3  UNL     1       0.639  49.205 -11.291  1.00  0.00    -0.298 OA
HETATM    4  C11 UNL     1      -0.367  49.639 -13.431  1.00  0.00     0.089 C 
HETATM    5  C12 UNL     1       0.348  50.017 -14.736  1.00  0.00    -0.022 C 
HETATM    6  C13 UNL     1       0.857  48.682 -15.369  1.00  0.00     0.017 C 
HETATM    7  C14 UNL     1      -0.532  50.816 -15.755  1.00  0.00     0.024 C 
HETATM    8  C15 UNL     1      -1.684  50.032 -16.414  1.00  0.00     0.014 C 
HETATM    9  C16 UNL     1      -1.400  49.279 -17.723  1.00  0.00     0.036 C 
HETATM   10  C17 UNL     1      -1.138  50.032 -19.032  1.00  0.00    -0.064 C 
HETATM   11  C18 UNL     1      -0.673  51.309 -19.100  1.00  0.00    -0.044 C 
HETATM   12  C19 UNL     1      -0.413  52.202 -17.901  1.00  0.00     0.071 C 
HETATM   13  C20 UNL     1       0.335  51.536 -16.772  1.00  0.00    -0.075 C 
HETATM   14  C21 UNL     1       1.671  51.673 -16.633  1.00  0.00    -0.022 C 
HETATM   15  C22 UNL     1       2.455  51.224 -15.419  1.00  0.00     0.038 C 
HETATM   16  C23 UNL     1       1.523  50.953 -14.217  1.00  0.00    -0.022 C 
HETATM   17  C24 UNL     1       1.008  52.330 -13.672  1.00  0.00     0.017 C 
HETATM   18  C25 UNL     1      -0.393  52.015 -20.420  1.00  0.00     0.150 C 
HETATM   19  C26 UNL     1      -0.383  51.121 -21.650  1.00  0.00     0.069 C 
HETATM   20  C27 UNL     1      -1.523  50.119 -21.602  1.00  0.00     0.139 C 
HETATM   21  C33 UNL     1      -1.409  49.204 -20.331  1.00  0.00     0.003 C 
HETATM   22  C34 UNL     1      -0.238  48.211 -20.519  1.00  0.00     0.022 C 
HETATM   23  C35 UNL     1      -2.716  48.374 -20.259  1.00  0.00     0.022 C 
ENDROOT
BRANCH  20  24
HETATM   24  O5  UNL     1      -2.799  50.777 -21.590  1.00  0.00    -0.352 OA
BRANCH  24  25
HETATM   25  C28 UNL     1      -3.853  50.060 -22.237  1.00  0.00     0.291 C 
HETATM   26  O6  UNL     1      -3.470  49.756 -23.577  1.00  0.00    -0.356 OA
HETATM   27  C29 UNL     1      -4.413  48.895 -24.221  1.00  0.00     0.205 C 
HETATM   28  C30 UNL     1      -5.877  49.263 -23.938  1.00  0.00     0.173 C 
HETATM   29  C31 UNL     1      -6.014  50.710 -23.439  1.00  0.00     0.182 C 
HETATM   30  C32 UNL     1      -5.097  50.981 -22.235  1.00  0.00     0.204 C 
BRANCH  28  31
HETATM   31  O7  UNL     1      -6.650  49.030 -25.117  1.00  0.00    -0.391 OA
HETATM   32  H44 UNL     1      -7.382  49.680 -25.121  1.00  0.00     0.210 HD
ENDBRANCH  28  31
BRANCH  29  33
HETATM   33  O8  UNL     1      -5.737  51.634 -24.503  1.00  0.00    -0.390 OA
HETATM   34  H46 UNL     1      -4.851  51.427 -24.862  1.00  0.00     0.210 HD
ENDBRANCH  29  33
BRANCH  30  35
HETATM   35  O9  UNL     1      -5.833  50.764 -21.016  1.00  0.00    -0.388 OA
HETATM   36  H48 UNL     1      -6.249  51.613 -20.789  1.00  0.00     0.210 HD
ENDBRANCH  30  35
ENDBRANCH  24  25
ENDBRANCH  20  24
BRANCH  18  37
HETATM   37  O4  UNL     1       0.894  52.641 -20.361  1.00  0.00    -0.391 OA
HETATM   38  H36 UNL     1       0.985  53.175 -21.166  1.00  0.00     0.210 HD
ENDBRANCH  18  37
BRANCH   1  39
HETATM   39  C2  UNL     1       3.023  50.803 -11.968  1.00  0.00     0.000 C 
HETATM   40  C1  UNL     1       3.930  49.802 -11.240  1.00  0.00     0.011 C 
BRANCH  39  41
HETATM   41  C3  UNL     1       2.163  51.527 -10.899  1.00  0.00     0.083 C 
BRANCH  41  42
HETATM   42  C4  UNL     1       2.849  52.694 -10.195  1.00  0.00     0.130 C 
HETATM   43  O1  UNL     1       4.034  52.935 -10.445  1.00  0.00    -0.298 OA
BRANCH  42  44
HETATM   44  C5  UNL     1       2.066  53.549  -9.208  1.00  0.00     0.115 C 
BRANCH  44  45
HETATM   45  C6  UNL     1       1.699  54.967  -9.674  1.00  0.00     0.057 C 
HETATM   46  C7  UNL     1       2.801  55.998  -9.443  1.00  0.00     0.045 C 
HETATM   47  C8  UNL     1       0.428  55.411  -8.935  1.00  0.00     0.045 C 
BRANCH  45  48
HETATM   48  O2  UNL     1       1.386  54.937 -11.066  1.00  0.00    -0.390 OA
HETATM   49  H15 UNL     1       1.211  55.846 -11.365  1.00  0.00     0.210 HD
ENDBRANCH  45  48
ENDBRANCH  44  45
ENDBRANCH  42  44
ENDBRANCH  41  42
ENDBRANCH  39  41
ENDBRANCH   1  39
TORSDOF 12
ENDMDL
MODEL 3
REMARK minimizedAffinity -9.73008728
REMARK CNNscore 0.594110727
REMARK CNNaffinity 6.86767054
REMARK  12 active torsions:
REMARK  status: ('A' for Active; 'I' for Inactive)
REMARK    1  A    between atoms: C2_2  and  C3_3 
REMARK    2  A    between atoms: C2_2  and  C9_11 
REMARK    3  A    between atoms: C3_3  and  C4_4 
REMARK    4  A    between atoms: C4_4  and  C5_6 
REMARK    5  A    between atoms: C5_6  and  C6_7 
REMARK    6  A    between atoms: C6_7  and  O2_10 
REMARK    7  A    between atoms: C25_28  and  O4_29 
REMARK    8  A    between atoms: C27_31  and  O5_32 
REMARK    9  A    between atoms: O5_32  and  C28_33 
REMARK   10  A    between atoms: C30_36  and  O7_37 
REMARK   11  A    between atoms: C31_38  and  O8_39 
REMARK   12  A    between atoms: C32_40  and  O9_41 
ROOT
HETATM    1  C9  UNL     1      -1.143  52.142 -21.908  1.00  0.00     0.068 C 
HETATM    2  C10 UNL     1      -0.499  51.864 -23.283  1.00  0.00     0.133 C 
HETATM    3  O3  UNL     1       0.469  52.462 -23.738  1.00  0.00    -0.298 OA
HETATM    4  C11 UNL     1      -1.170  50.731 -24.045  1.00  0.00     0.089 C 
HETATM    5  C12 UNL     1      -2.400  50.448 -23.169  1.00  0.00    -0.022 C 
HETATM    6  C13 UNL     1      -3.517  51.435 -23.635  1.00  0.00     0.017 C 
HETATM    7  C14 UNL     1      -2.910  48.967 -23.220  1.00  0.00     0.024 C 
HETATM    8  C15 UNL     1      -3.541  48.514 -24.550  1.00  0.00     0.014 C 
HETATM    9  C16 UNL     1      -5.052  48.716 -24.747  1.00  0.00     0.036 C 
HETATM   10  C17 UNL     1      -6.073  47.888 -23.959  1.00  0.00    -0.064 C 
HETATM   11  C18 UNL     1      -5.818  47.300 -22.759  1.00  0.00    -0.044 C 
HETATM   12  C19 UNL     1      -4.473  47.311 -22.057  1.00  0.00     0.071 C 
HETATM   13  C20 UNL     1      -3.792  48.658 -22.024  1.00  0.00    -0.075 C 
HETATM   14  C21 UNL     1      -3.886  49.471 -20.950  1.00  0.00    -0.022 C 
HETATM   15  C22 UNL     1      -3.065  50.726 -20.752  1.00  0.00     0.038 C 
HETATM   16  C23 UNL     1      -1.853  50.761 -21.710  1.00  0.00    -0.022 C 
HETATM   17  C24 UNL     1      -0.802  49.707 -21.216  1.00  0.00     0.017 C 
HETATM   18  C25 UNL     1      -6.868  46.513 -21.987  1.00  0.00     0.150 C 
HETATM   19  C26 UNL     1      -8.296  46.663 -22.488  1.00  0.00     0.069 C 
HETATM   20  C27 UNL     1      -8.346  46.627 -24.005  1.00  0.00     0.139 C 
HETATM   21  C33 UNL     1      -7.488  47.789 -24.619  1.00  0.00     0.003 C 
HETATM   22  C34 UNL     1      -8.215  49.136 -24.397  1.00  0.00     0.022 C 
HETATM   23  C35 UNL     1      -7.427  47.540 -26.148  1.00  0.00     0.022 C 
ENDROOT
BRANCH  20  24
HETATM   24  O5  UNL     1      -7.868  45.373 -24.516  1.00  0.00    -0.352 OA
BRANCH  24  25
HETATM   25  C28 UNL     1      -8.855  44.575 -25.173  1.00  0.00     0.291 C 
HETATM   26  O6  UNL     1      -8.518  44.439 -26.553  1.00  0.00    -0.356 OA
HETATM   27  C29 UNL     1      -9.376  43.514 -27.225  1.00  0.00     0.205 C 
HETATM   28  C30 UNL     1     -10.856  43.653 -26.839  1.00  0.00     0.173 C 
HETATM   29  C31 UNL     1     -11.153  45.021 -26.204  1.00  0.00     0.182 C 
HETATM   30  C32 UNL     1     -10.208  45.313 -25.027  1.00  0.00     0.204 C 
BRANCH  28  31
HETATM   31  O7  UNL     1     -11.661  43.416 -27.995  1.00  0.00    -0.391 OA
HETATM   32  H44 UNL     1     -12.471  43.958 -27.904  1.00  0.00     0.210 HD
ENDBRANCH  28  31
BRANCH  29  33
HETATM   33  O8  UNL     1     -11.065  46.060 -27.192  1.00  0.00    -0.390 OA
HETATM   34  H46 UNL     1     -10.182  46.007 -27.611  1.00  0.00     0.210 HD
ENDBRANCH  29  33
BRANCH  30  35
HETATM   35  O9  UNL     1     -10.833  44.896 -23.798  1.00  0.00    -0.388 OA
HETATM   36  H48 UNL     1     -11.344  45.658 -23.475  1.00  0.00     0.210 HD
ENDBRANCH  30  35
ENDBRANCH  24  25
ENDBRANCH  20  24
BRANCH  18  37
HETATM   37  O4  UNL     1      -6.869  46.935 -20.619  1.00  0.00    -0.391 OA
HETATM   38  H36 UNL     1      -7.460  46.334 -20.139  1.00  0.00     0.210 HD
ENDBRANCH  18  37
BRANCH   1  39
HETATM   39  C2  UNL     1      -0.120  52.656 -20.855  1.00  0.00     0.000 C 
HETATM   40  C1  UNL     1       1.209  53.089 -21.490  1.00  0.00     0.011 C 
BRANCH  39  41
HETATM   41  C3  UNL     1       0.192  51.554 -19.810  1.00  0.00     0.083 C 
BRANCH  41  42
HETATM   42  C4  UNL     1       0.027  51.975 -18.353  1.00  0.00     0.130 C 
HETATM   43  O1  UNL     1      -0.992  51.640 -17.741  1.00  0.00    -0.298 OA
BRANCH  42  44
HETATM   44  C5  UNL     1       1.119  52.789 -17.671  1.00  0.00     0.115 C 
BRANCH  44  45
HETATM   45  C6  UNL     1       1.673  52.220 -16.355  1.00  0.00     0.057 C 
HETATM   46  C7  UNL     1       3.190  52.334 -16.224  1.00  0.00     0.045 C 
HETATM   47  C8  UNL     1       1.267  50.743 -16.251  1.00  0.00     0.045 C 
BRANCH  45  48
HETATM   48  O2  UNL     1       1.067  52.900 -15.257  1.00  0.00    -0.390 OA
HETATM   49  H15 UNL     1       1.465  52.575 -14.431  1.00  0.00     0.210 HD
ENDBRANCH  45  48
ENDBRANCH  44  45
ENDBRANCH  42  44
ENDBRANCH  41  42
ENDBRANCH  39  41
ENDBRANCH   1  39
TORSDOF 12
ENDMDL
MODEL 4
REMARK minimizedAffinity -8.23399448
REMARK CNNscore 0.498968542
REMARK CNNaffinity 6.20941687
REMARK  12 active torsions:
REMARK  status: ('A' for Active; 'I' for Inactive)
REMARK    1  A    between atoms: C2_2  and  C3_3 
REMARK    2  A    between atoms: C2_2  and  C9_11 
REMARK    3  A    between atoms: C3_3  and  C4_4 
REMARK    4  A    between atoms: C4_4  and  C5_6 
REMARK    5  A    between atoms: C5_6  and  C6_7 
REMARK    6  A    between atoms: C6_7  and  O2_10 
REMARK    7  A    between atoms: C25_28  and  O4_29 
REMARK    8  A    between atoms: C27_31  and  O5_32 
REMARK    9  A    between atoms: O5_32  and  C28_33 
REMARK   10  A    between atoms: C30_36  and  O7_37 
REMARK   11  A    between atoms: C31_38  and  O8_39 
REMARK   12  A    between atoms: C32_40  and  O9_41 
ROOT
HETATM    1  C9  UNL     1     -16.825  44.852 -24.128  1.00  0.00     0.068 C 
HETATM    2  C10 UNL     1     -17.705  44.728 -25.390  1.00  0.00     0.133 C 
HETATM    3  O3  UNL     1     -18.884  44.392 -25.393  1.00  0.00    -0.298 OA
HETATM    4  C11 UNL     1     -16.973  45.092 -26.673  1.00  0.00     0.089 C 
HETATM    5  C12 UNL     1     -15.528  45.252 -26.178  1.00  0.00    -0.022 C 
HETATM    6  C13 UNL     1     -14.887  43.828 -26.205  1.00  0.00     0.017 C 
HETATM    7  C14 UNL     1     -14.665  46.267 -27.001  1.00  0.00     0.024 C 
HETATM    8  C15 UNL     1     -14.305  45.840 -28.437  1.00  0.00     0.014 C 
HETATM    9  C16 UNL     1     -13.014  45.037 -28.659  1.00  0.00     0.036 C 
HETATM   10  C17 UNL     1     -11.636  45.685 -28.486  1.00  0.00    -0.064 C 
HETATM   11  C18 UNL     1     -11.396  46.779 -27.712  1.00  0.00    -0.044 C 
HETATM   12  C19 UNL     1     -12.460  47.563 -26.966  1.00  0.00     0.071 C 
HETATM   13  C20 UNL     1     -13.450  46.713 -26.207  1.00  0.00    -0.075 C 
HETATM   14  C21 UNL     1     -13.304  46.467 -24.887  1.00  0.00    -0.022 C 
HETATM   15  C22 UNL     1     -14.356  45.815 -24.017  1.00  0.00     0.038 C 
HETATM   16  C23 UNL     1     -15.737  45.818 -24.708  1.00  0.00    -0.022 C 
HETATM   17  C24 UNL     1     -16.292  47.286 -24.695  1.00  0.00     0.017 C 
HETATM   18  C25 UNL     1     -10.007  47.377 -27.537  1.00  0.00     0.150 C 
HETATM   19  C26 UNL     1      -8.858  46.516 -28.038  1.00  0.00     0.069 C 
HETATM   20  C27 UNL     1      -9.199  45.877 -29.372  1.00  0.00     0.139 C 
HETATM   21  C33 UNL     1     -10.472  44.967 -29.245  1.00  0.00     0.003 C 
HETATM   22  C34 UNL     1     -10.109  43.684 -28.463  1.00  0.00     0.022 C 
HETATM   23  C35 UNL     1     -10.861  44.540 -30.684  1.00  0.00     0.022 C 
ENDROOT
BRANCH  20  24
HETATM   24  O5  UNL     1      -9.432  46.869 -30.384  1.00  0.00    -0.352 OA
BRANCH  24  25
HETATM   25  C28 UNL     1      -8.277  47.243 -31.138  1.00  0.00     0.291 C 
HETATM   26  O6  UNL     1      -7.239  46.288 -30.927  1.00  0.00    -0.356 OA
HETATM   27  C29 UNL     1      -6.118  46.517 -31.784  1.00  0.00     0.205 C 
HETATM   28  C30 UNL     1      -5.739  48.000 -31.921  1.00  0.00     0.173 C 
HETATM   29  C31 UNL     1      -6.316  48.843 -30.772  1.00  0.00     0.182 C 
HETATM   30  C32 UNL     1      -7.832  48.635 -30.626  1.00  0.00     0.204 C 
BRANCH  28  31
HETATM   31  O7  UNL     1      -4.317  48.110 -32.000  1.00  0.00    -0.391 OA
HETATM   32  H44 UNL     1      -4.066  48.966 -31.598  1.00  0.00     0.210 HD
ENDBRANCH  28  31
BRANCH  29  33
HETATM   33  O8  UNL     1      -5.643  48.537 -29.540  1.00  0.00    -0.390 OA
HETATM   34  H46 UNL     1      -5.711  47.573 -29.390  1.00  0.00     0.210 HD
ENDBRANCH  29  33
BRANCH  30  35
HETATM   35  O9  UNL     1      -8.527  49.649 -31.376  1.00  0.00    -0.388 OA
HETATM   36  H48 UNL     1      -8.653  50.402 -30.773  1.00  0.00     0.210 HD
ENDBRANCH  30  35
ENDBRANCH  24  25
ENDBRANCH  20  24
BRANCH  18  37
HETATM   37  O4  UNL     1      -9.763  47.613 -26.146  1.00  0.00    -0.391 OA
HETATM   38  H36 UNL     1      -8.926  48.100 -26.086  1.00  0.00     0.210 HD
ENDBRANCH  18  37
BRANCH   1  39
HETATM   39  C2  UNL     1     -17.636  45.252 -22.863  1.00  0.00     0.000 C 
HETATM   40  C1  UNL     1     -16.796  46.045 -21.853  1.00  0.00     0.011 C 
BRANCH  39  41
HETATM   41  C3  UNL     1     -18.180  43.993 -22.140  1.00  0.00     0.083 C 
BRANCH  41  42
HETATM   42  C4  UNL     1     -19.648  44.060 -21.733  1.00  0.00     0.130 C 
HETATM   43  O1  UNL     1     -19.970  44.739 -20.752  1.00  0.00    -0.298 OA
BRANCH  42  44
HETATM   44  C5  UNL     1     -20.695  43.303 -22.539  1.00  0.00     0.115 C 
BRANCH  44  45
HETATM   45  C6  UNL     1     -21.470  42.206 -21.792  1.00  0.00     0.057 C 
HETATM   46  C7  UNL     1     -20.600  41.350 -20.876  1.00  0.00     0.045 C 
HETATM   47  C8  UNL     1     -22.157  41.301 -22.827  1.00  0.00     0.045 C 
BRANCH  45  48
HETATM   48  O2  UNL     1     -22.501  42.808 -21.012  1.00  0.00    -0.390 OA
HETATM   49  H15 UNL     1     -22.949  42.114 -20.498  1.00  0.00     0.210 HD
ENDBRANCH  45  48
ENDBRANCH  44  45
ENDBRANCH  42  44
ENDBRANCH  41  42
ENDBRANCH  39  41
ENDBRANCH   1  39
TORSDOF 12
ENDMDL
MODEL 5
REMARK minimizedAffinity -10.048645
REMARK CNNscore 0.465382934
REMARK CNNaffinity 7.18131399
REMARK  12 active torsions:
REMARK  status: ('A' for Active; 'I' for Inactive)
REMARK    1  A    between atoms: C2_2  and  C3_3 
REMARK    2  A    between atoms: C2_2  and  C9_11 
REMARK    3  A    between atoms: C3_3  and  C4_4 
REMARK    4  A    between atoms: C4_4  and  C5_6 
REMARK    5  A    between atoms: C5_6  and  C6_7 
REMARK    6  A    between atoms: C6_7  and  O2_10 
REMARK    7  A    between atoms: C25_28  and  O4_29 
REMARK    8  A    between atoms: C27_31  and  O5_32 
REMARK    9  A    between atoms: O5_32  and  C28_33 
REMARK   10  A    between atoms: C30_36  and  O7_37 
REMARK   11  A    between atoms: C31_38  and  O8_39 
REMARK   12  A    between atoms: C32_40  and  O9_41 
ROOT
HETATM    1  C9  UNL     1      -1.538  51.455 -21.965  1.00  0.00     0.068 C 
HETATM    2  C10 UNL     1      -2.139  50.034 -22.019  1.00  0.00     0.133 C 
HETATM    3  O3  UNL     1      -2.570  49.494 -23.032  1.00  0.00    -0.298 OA
HETATM    4  C11 UNL     1      -2.130  49.324 -20.675  1.00  0.00     0.089 C 
HETATM    5  C12 UNL     1      -1.683  50.447 -19.728  1.00  0.00    -0.022 C 
HETATM    6  C13 UNL     1      -2.973  51.226 -19.318  1.00  0.00     0.017 C 
HETATM    7  C14 UNL     1      -0.901  49.960 -18.460  1.00  0.00     0.024 C 
HETATM    8  C15 UNL     1      -1.723  49.177 -17.418  1.00  0.00     0.014 C 
HETATM    9  C16 UNL     1      -2.426  49.964 -16.301  1.00  0.00     0.036 C 
HETATM   10  C17 UNL     1      -1.627  50.647 -15.186  1.00  0.00    -0.064 C 
HETATM   11  C18 UNL     1      -0.327  51.033 -15.303  1.00  0.00    -0.044 C 
HETATM   12  C19 UNL     1       0.545  50.783 -16.518  1.00  0.00     0.071 C 
HETATM   13  C20 UNL     1      -0.113  51.099 -17.840  1.00  0.00    -0.075 C 
HETATM   14  C21 UNL     1       0.086  52.280 -18.463  1.00  0.00    -0.022 C 
HETATM   15  C22 UNL     1      -0.356  52.587 -19.877  1.00  0.00     0.038 C 
HETATM   16  C23 UNL     1      -0.704  51.294 -20.649  1.00  0.00    -0.022 C 
HETATM   17  C24 UNL     1       0.631  50.538 -20.975  1.00  0.00     0.017 C 
HETATM   18  C25 UNL     1       0.426  51.739 -14.184  1.00  0.00     0.150 C 
HETATM   19  C26 UNL     1      -0.433  52.250 -13.038  1.00  0.00     0.069 C 
HETATM   20  C27 UNL     1      -1.491  51.231 -12.656  1.00  0.00     0.139 C 
HETATM   21  C33 UNL     1      -2.432  50.920 -13.873  1.00  0.00     0.003 C 
HETATM   22  C34 UNL     1      -3.361  52.131 -14.124  1.00  0.00     0.022 C 
HETATM   23  C35 UNL     1      -3.328  49.726 -13.453  1.00  0.00     0.022 C 
ENDROOT
BRANCH  20  24
HETATM   24  O5  UNL     1      -0.897  50.005 -12.200  1.00  0.00    -0.352 OA
BRANCH  24  25
HETATM   25  C28 UNL     1      -1.188  49.663 -10.843  1.00  0.00     0.291 C 
HETATM   26  O6  UNL     1      -2.130  48.591 -10.813  1.00  0.00    -0.356 OA
HETATM   27  C29 UNL     1      -2.332  48.094  -9.488  1.00  0.00     0.205 C 
HETATM   28  C30 UNL     1      -2.436  49.197  -8.424  1.00  0.00     0.173 C 
HETATM   29  C31 UNL     1      -2.773  50.561  -9.049  1.00  0.00     0.182 C 
HETATM   30  C32 UNL     1      -1.793  50.922 -10.177  1.00  0.00     0.204 C 
BRANCH  28  31
HETATM   31  O7  UNL     1      -3.399  48.807  -7.444  1.00  0.00    -0.391 OA
HETATM   32  H44 UNL     1      -3.816  49.623  -7.101  1.00  0.00     0.210 HD
ENDBRANCH  28  31
BRANCH  29  33
HETATM   33  O8  UNL     1      -4.126  50.567  -9.534  1.00  0.00    -0.390 OA
HETATM   34  H46 UNL     1      -4.230  49.817 -10.153  1.00  0.00     0.210 HD
ENDBRANCH  29  33
BRANCH  30  35
HETATM   35  O9  UNL     1      -0.723  51.722  -9.640  1.00  0.00    -0.388 OA
HETATM   36  H48 UNL     1      -1.012  52.649  -9.702  1.00  0.00     0.210 HD
ENDBRANCH  30  35
ENDBRANCH  24  25
ENDBRANCH  20  24
BRANCH  18  37
HETATM   37  O4  UNL     1       1.113  52.877 -14.718  1.00  0.00    -0.391 OA
HETATM   38  H36 UNL     1       1.672  53.228 -14.006  1.00  0.00     0.210 HD
ENDBRANCH  18  37
BRANCH   1  39
HETATM   39  C2  UNL     1      -0.839  51.867 -23.292  1.00  0.00     0.000 C 
HETATM   40  C1  UNL     1       0.322  52.845 -23.065  1.00  0.00     0.011 C 
BRANCH  39  41
HETATM   41  C3  UNL     1      -1.848  52.545 -24.254  1.00  0.00     0.083 C 
BRANCH  41  42
HETATM   42  C4  UNL     1      -1.620  52.267 -25.737  1.00  0.00     0.130 C 
HETATM   43  O1  UNL     1      -2.348  52.815 -26.571  1.00  0.00    -0.298 OA
BRANCH  42  44
HETATM   44  C5  UNL     1      -0.498  51.333 -26.169  1.00  0.00     0.115 C 
BRANCH  44  45
HETATM   45  C6  UNL     1       0.709  51.989 -26.859  1.00  0.00     0.057 C 
HETATM   46  C7  UNL     1       0.729  51.805 -28.374  1.00  0.00     0.045 C 
HETATM   47  C8  UNL     1       1.995  51.398 -26.262  1.00  0.00     0.045 C 
BRANCH  45  48
HETATM   48  O2  UNL     1       0.714  53.385 -26.567  1.00  0.00    -0.390 OA
HETATM   49  H15 UNL     1       1.447  53.802 -27.054  1.00  0.00     0.210 HD
ENDBRANCH  45  48
ENDBRANCH  44  45
ENDBRANCH  42  44
ENDBRANCH  41  42
ENDBRANCH  39  41
ENDBRANCH   1  39
TORSDOF 12
ENDMDL
MODEL 6
REMARK minimizedAffinity -9.16676712
REMARK CNNscore 0.460604757
REMARK CNNaffinity 6.92776489
REMARK  12 active torsions:
REMARK  status: ('A' for Active; 'I' for Inactive)
REMARK    1  A    between atoms: C2_2  and  C3_3 
REMARK    2  A    between atoms: C2_2  and  C9_11 
REMARK    3  A    between atoms: C3_3  and  C4_4 
REMARK    4  A    between atoms: C4_4  and  C5_6 
REMARK    5  A    between atoms: C5_6  and  C6_7 
REMARK    6  A    between atoms: C6_7  and  O2_10 
REMARK    7  A    between atoms: C25_28  and  O4_29 
REMARK    8  A    between atoms: C27_31  and  O5_32 
REMARK    9  A    between atoms: O5_32  and  C28_33 
REMARK   10  A    between atoms: C30_36  and  O7_37 
REMARK   11  A    between atoms: C31_38  and  O8_39 
REMARK   12  A    between atoms: C32_40  and  O9_41 
ROOT
HETATM    1  C9  UNL     1      -1.249  50.786 -22.772  1.00  0.00     0.068 C 
HETATM    2  C10 UNL     1      -0.927  51.179 -21.315  1.00  0.00     0.133 C 
HETATM    3  O3  UNL     1       0.118  51.703 -20.945  1.00  0.00    -0.298 OA
HETATM    4  C11 UNL     1      -2.057  50.876 -20.345  1.00  0.00     0.089 C 
HETATM    5  C12 UNL     1      -3.029  50.081 -21.230  1.00  0.00    -0.022 C 
HETATM    6  C13 UNL     1      -2.567  48.590 -21.172  1.00  0.00     0.017 C 
HETATM    7  C14 UNL     1      -4.537  50.213 -20.826  1.00  0.00     0.024 C 
HETATM    8  C15 UNL     1      -4.941  49.551 -19.495  1.00  0.00     0.014 C 
HETATM    9  C16 UNL     1      -5.395  48.083 -19.518  1.00  0.00     0.036 C 
HETATM   10  C17 UNL     1      -6.730  47.674 -20.148  1.00  0.00    -0.064 C 
HETATM   11  C18 UNL     1      -7.375  48.393 -21.107  1.00  0.00    -0.044 C 
HETATM   12  C19 UNL     1      -6.913  49.735 -21.643  1.00  0.00     0.071 C 
HETATM   13  C20 UNL     1      -5.442  49.805 -21.975  1.00  0.00    -0.075 C 
HETATM   14  C21 UNL     1      -4.993  49.622 -23.235  1.00  0.00    -0.022 C 
HETATM   15  C22 UNL     1      -3.573  49.890 -23.685  1.00  0.00     0.038 C 
HETATM   16  C23 UNL     1      -2.810  50.751 -22.654  1.00  0.00    -0.022 C 
HETATM   17  C24 UNL     1      -3.365  52.217 -22.728  1.00  0.00     0.017 C 
HETATM   18  C25 UNL     1      -8.685  47.939 -21.736  1.00  0.00     0.150 C 
HETATM   19  C26 UNL     1      -9.086  46.501 -21.446  1.00  0.00     0.069 C 
HETATM   20  C27 UNL     1      -8.830  46.149 -19.992  1.00  0.00     0.139 C 
HETATM   21  C33 UNL     1      -7.310  46.314 -19.636  1.00  0.00     0.003 C 
HETATM   22  C34 UNL     1      -6.503  45.171 -20.295  1.00  0.00     0.022 C 
HETATM   23  C35 UNL     1      -7.188  46.145 -18.100  1.00  0.00     0.022 C 
ENDROOT
BRANCH  20  24
HETATM   24  O5  UNL     1      -9.608  46.971 -19.108  1.00  0.00    -0.352 OA
BRANCH  24  25
HETATM   25  C28 UNL     1     -11.022  46.894 -19.303  1.00  0.00     0.291 C 
HETATM   26  O6  UNL     1     -11.563  48.211 -19.394  1.00  0.00    -0.356 OA
HETATM   27  C29 UNL     1     -12.946  48.197 -19.756  1.00  0.00     0.205 C 
HETATM   28  C30 UNL     1     -13.762  47.113 -19.036  1.00  0.00     0.173 C 
HETATM   29  C31 UNL     1     -13.049  46.611 -17.770  1.00  0.00     0.182 C 
HETATM   30  C32 UNL     1     -11.611  46.160 -18.074  1.00  0.00     0.204 C 
BRANCH  28  31
HETATM   31  O7  UNL     1     -15.064  47.628 -18.746  1.00  0.00    -0.391 OA
HETATM   32  H44 UNL     1     -15.371  47.199 -17.922  1.00  0.00     0.210 HD
ENDBRANCH  28  31
BRANCH  29  33
HETATM   33  O8  UNL     1     -13.056  47.628 -16.756  1.00  0.00    -0.390 OA
HETATM   34  H46 UNL     1     -12.656  48.437 -17.135  1.00  0.00     0.210 HD
ENDBRANCH  29  33
BRANCH  30  35
HETATM   35  O9  UNL     1     -11.600  44.743 -18.331  1.00  0.00    -0.388 OA
HETATM   36  H48 UNL     1     -11.471  44.307 -17.471  1.00  0.00     0.210 HD
ENDBRANCH  30  35
ENDBRANCH  24  25
ENDBRANCH  20  24
BRANCH  18  37
HETATM   37  O4  UNL     1      -8.596  48.058 -23.160  1.00  0.00    -0.391 OA
HETATM   38  H36 UNL     1      -9.481  47.876 -23.514  1.00  0.00     0.210 HD
ENDBRANCH  18  37
BRANCH   1  39
HETATM   39  C2  UNL     1      -0.561  51.712 -23.815  1.00  0.00     0.000 C 
HETATM   40  C1  UNL     1       0.540  52.581 -23.192  1.00  0.00     0.011 C 
BRANCH  39  41
HETATM   41  C3  UNL     1      -1.597  52.661 -24.472  1.00  0.00     0.083 C 
BRANCH  41  42
HETATM   42  C4  UNL     1      -1.936  52.346 -25.926  1.00  0.00     0.130 C 
HETATM   43  O1  UNL     1      -2.976  52.802 -26.413  1.00  0.00    -0.298 OA
BRANCH  42  44
HETATM   44  C5  UNL     1      -0.992  51.489 -26.757  1.00  0.00     0.115 C 
BRANCH  44  45
HETATM   45  C6  UNL     1       0.183  52.220 -27.428  1.00  0.00     0.057 C 
HETATM   46  C7  UNL     1       1.553  51.800 -26.901  1.00  0.00     0.045 C 
HETATM   47  C8  UNL     1       0.002  53.731 -27.218  1.00  0.00     0.045 C 
BRANCH  45  48
HETATM   48  O2  UNL     1       0.141  51.983 -28.834  1.00  0.00    -0.390 OA
HETATM   49  H15 UNL     1       0.919  52.401 -29.243  1.00  0.00     0.210 HD
ENDBRANCH  45  48
ENDBRANCH  44  45
ENDBRANCH  42  44
ENDBRANCH  41  42
ENDBRANCH  39  41
ENDBRANCH   1  39
TORSDOF 12
ENDMDL
MODEL 7
REMARK minimizedAffinity -9.89928627
REMARK CNNscore 0.43881163
REMARK CNNaffinity 7.36472464
REMARK  12 active torsions:
REMARK  status: ('A' for Active; 'I' for Inactive)
REMARK    1  A    between atoms: C2_2  and  C3_3 
REMARK    2  A    between atoms: C2_2  and  C9_11 
REMARK    3  A    between atoms: C3_3  and  C4_4 
REMARK    4  A    between atoms: C4_4  and  C5_6 
REMARK    5  A    between atoms: C5_6  and  C6_7 
REMARK    6  A    between atoms: C6_7  and  O2_10 
REMARK    7  A    between atoms: C25_28  and  O4_29 
REMARK    8  A    between atoms: C27_31  and  O5_32 
REMARK    9  A    between atoms: O5_32  and  C28_33 
REMARK   10  A    between atoms: C30_36  and  O7_37 
REMARK   11  A    between atoms: C31_38  and  O8_39 
REMARK   12  A    between atoms: C32_40  and  O9_41 
ROOT
HETATM    1  C9  UNL     1      -3.681  50.479 -24.153  1.00  0.00     0.068 C 
HETATM    2  C10 UNL     1      -3.786  48.939 -24.131  1.00  0.00     0.133 C 
HETATM    3  O3  UNL     1      -4.351  48.262 -24.983  1.00  0.00    -0.298 OA
HETATM    4  C11 UNL     1      -3.087  48.304 -22.939  1.00  0.00     0.089 C 
HETATM    5  C12 UNL     1      -2.713  49.535 -22.101  1.00  0.00    -0.022 C 
HETATM    6  C13 UNL     1      -3.954  49.862 -21.210  1.00  0.00     0.017 C 
HETATM    7  C14 UNL     1      -1.428  49.361 -21.221  1.00  0.00     0.024 C 
HETATM    8  C15 UNL     1      -1.546  48.379 -20.039  1.00  0.00     0.014 C 
HETATM    9  C16 UNL     1      -2.024  48.923 -18.684  1.00  0.00     0.036 C 
HETATM   10  C17 UNL     1      -1.143  49.856 -17.846  1.00  0.00    -0.064 C 
HETATM   11  C18 UNL     1      -0.156  50.640 -18.359  1.00  0.00    -0.044 C 
HETATM   12  C19 UNL     1       0.269  50.658 -19.815  1.00  0.00     0.071 C 
HETATM   13  C20 UNL     1      -0.872  50.709 -20.802  1.00  0.00    -0.075 C 
HETATM   14  C21 UNL     1      -1.284  51.875 -21.346  1.00  0.00    -0.022 C 
HETATM   15  C22 UNL     1      -2.263  51.985 -22.493  1.00  0.00     0.038 C 
HETATM   16  C23 UNL     1      -2.436  50.631 -23.216  1.00  0.00    -0.022 C 
HETATM   17  C24 UNL     1      -1.133  50.343 -24.042  1.00  0.00     0.017 C 
HETATM   18  C25 UNL     1       0.678  51.581 -17.501  1.00  0.00     0.150 C 
HETATM   19  C26 UNL     1       0.159  51.814 -16.091  1.00  0.00     0.069 C 
HETATM   20  C27 UNL     1      -0.323  50.515 -15.469  1.00  0.00     0.139 C 
HETATM   21  C33 UNL     1      -1.482  49.885 -16.320  1.00  0.00     0.003 C 
HETATM   22  C34 UNL     1      -2.769  50.721 -16.130  1.00  0.00     0.022 C 
HETATM   23  C35 UNL     1      -1.752  48.476 -15.732  1.00  0.00     0.022 C 
ENDROOT
BRANCH  20  24
HETATM   24  O5  UNL     1       0.744  49.561 -15.354  1.00  0.00    -0.352 OA
BRANCH  24  25
HETATM   25  C28 UNL     1       1.404  49.544 -14.086  1.00  0.00     0.291 C 
HETATM   26  O6  UNL     1       2.797  49.792 -14.269  1.00  0.00    -0.356 OA
HETATM   27  C29 UNL     1       3.480  49.953 -13.024  1.00  0.00     0.205 C 
HETATM   28  C30 UNL     1       3.046  48.948 -11.947  1.00  0.00     0.173 C 
HETATM   29  C31 UNL     1       2.348  47.723 -12.560  1.00  0.00     0.182 C 
HETATM   30  C32 UNL     1       1.189  48.136 -13.480  1.00  0.00     0.204 C 
BRANCH  28  31
HETATM   31  O7  UNL     1       4.186  48.579 -11.169  1.00  0.00    -0.391 OA
HETATM   32  H44 UNL     1       4.050  47.658 -10.869  1.00  0.00     0.210 HD
ENDBRANCH  28  31
BRANCH  29  33
HETATM   33  O8  UNL     1       3.296  46.913 -13.274  1.00  0.00    -0.390 OA
HETATM   34  H46 UNL     1       3.742  47.481 -13.935  1.00  0.00     0.210 HD
ENDBRANCH  29  33
BRANCH  30  35
HETATM   35  O9  UNL     1      -0.040  48.137 -12.729  1.00  0.00    -0.388 OA
HETATM   36  H48 UNL     1      -0.408  47.240 -12.800  1.00  0.00     0.210 HD
ENDBRANCH  30  35
ENDBRANCH  24  25
ENDBRANCH  20  24
BRANCH  18  37
HETATM   37  O4  UNL     1       0.742  52.867 -18.129  1.00  0.00    -0.391 OA
HETATM   38  H36 UNL     1       1.375  53.398 -17.619  1.00  0.00     0.210 HD
ENDBRANCH  18  37
BRANCH   1  39
HETATM   39  C2  UNL     1      -3.656  51.062 -25.595  1.00  0.00     0.000 C 
HETATM   40  C1  UNL     1      -3.098  50.067 -26.621  1.00  0.00     0.011 C 
BRANCH  39  41
HETATM   41  C3  UNL     1      -2.781  52.341 -25.653  1.00  0.00     0.083 C 
BRANCH  41  42
HETATM   42  C4  UNL     1      -1.907  52.475 -26.896  1.00  0.00     0.130 C 
HETATM   43  O1  UNL     1      -2.209  53.308 -27.757  1.00  0.00    -0.298 OA
BRANCH  42  44
HETATM   44  C5  UNL     1      -0.675  51.595 -27.055  1.00  0.00     0.115 C 
BRANCH  44  45
HETATM   45  C6  UNL     1       0.686  52.310 -27.010  1.00  0.00     0.057 C 
HETATM   46  C7  UNL     1       1.627  51.918 -28.146  1.00  0.00     0.045 C 
HETATM   47  C8  UNL     1       1.358  51.997 -25.666  1.00  0.00     0.045 C 
BRANCH  45  48
HETATM   48  O2  UNL     1       0.476  53.720 -27.056  1.00  0.00    -0.390 OA
HETATM   49  H15 UNL     1       1.342  54.163 -27.086  1.00  0.00     0.210 HD
ENDBRANCH  45  48
ENDBRANCH  44  45
ENDBRANCH  42  44
ENDBRANCH  41  42
ENDBRANCH  39  41
ENDBRANCH   1  39
TORSDOF 12
ENDMDL
MODEL 8
REMARK minimizedAffinity -9.57770061
REMARK CNNscore 0.413070738
REMARK CNNaffinity 6.66233826
REMARK  12 active torsions:
REMARK  status: ('A' for Active; 'I' for Inactive)
REMARK    1  A    between atoms: C2_2  and  C3_3 
REMARK    2  A    between atoms: C2_2  and  C9_11 
REMARK    3  A    between atoms: C3_3  and  C4_4 
REMARK    4  A    between atoms: C4_4  and  C5_6 
REMARK    5  A    between atoms: C5_6  and  C6_7 
REMARK    6  A    between atoms: C6_7  and  O2_10 
REMARK    7  A    between atoms: C25_28  and  O4_29 
REMARK    8  A    between atoms: C27_31  and  O5_32 
REMARK    9  A    between atoms: O5_32  and  C28_33 
REMARK   10  A    between atoms: C30_36  and  O7_37 
REMARK   11  A    between atoms: C31_38  and  O8_39 
REMARK   12  A    between atoms: C32_40  and  O9_41 
ROOT
HETATM    1  C9  UNL     1      -1.116  52.199 -22.083  1.00  0.00     0.068 C 
HETATM    2  C10 UNL     1      -0.546  51.914 -23.489  1.00  0.00     0.133 C 
HETATM    3  O3  UNL     1       0.386  52.520 -24.005  1.00  0.00    -0.298 OA
HETATM    4  C11 UNL     1      -1.243  50.763 -24.199  1.00  0.00     0.089 C 
HETATM    5  C12 UNL     1      -2.417  50.473 -23.253  1.00  0.00    -0.022 C 
HETATM    6  C13 UNL     1      -3.573  51.439 -23.666  1.00  0.00     0.017 C 
HETATM    7  C14 UNL     1      -2.907  48.985 -23.259  1.00  0.00     0.024 C 
HETATM    8  C15 UNL     1      -3.606  48.508 -24.547  1.00  0.00     0.014 C 
HETATM    9  C16 UNL     1      -5.128  48.686 -24.661  1.00  0.00     0.036 C 
HETATM   10  C17 UNL     1      -6.091  47.854 -23.808  1.00  0.00    -0.064 C 
HETATM   11  C18 UNL     1      -5.761  47.284 -22.617  1.00  0.00    -0.044 C 
HETATM   12  C19 UNL     1      -4.379  47.321 -21.992  1.00  0.00     0.071 C 
HETATM   13  C20 UNL     1      -3.717  48.678 -22.012  1.00  0.00    -0.075 C 
HETATM   14  C21 UNL     1      -3.762  49.502 -20.943  1.00  0.00    -0.022 C 
HETATM   15  C22 UNL     1      -2.950  50.770 -20.806  1.00  0.00     0.038 C 
HETATM   16  C23 UNL     1      -1.795  50.811 -21.831  1.00  0.00    -0.022 C 
HETATM   17  C24 UNL     1      -0.702  49.777 -21.385  1.00  0.00     0.017 C 
HETATM   18  C25 UNL     1      -6.755  46.491 -21.779  1.00  0.00     0.150 C 
HETATM   19  C26 UNL     1      -8.211  46.615 -22.201  1.00  0.00     0.069 C 
HETATM   20  C27 UNL     1      -8.345  46.561 -23.712  1.00  0.00     0.139 C 
HETATM   21  C33 UNL     1      -7.539  47.728 -24.386  1.00  0.00     0.003 C 
HETATM   22  C34 UNL     1      -8.273  49.066 -24.138  1.00  0.00     0.022 C 
HETATM   23  C35 UNL     1      -7.560  47.462 -25.913  1.00  0.00     0.022 C 
ENDROOT
BRANCH  20  24
HETATM   24  O5  UNL     1      -7.879  45.308 -24.235  1.00  0.00    -0.352 OA
BRANCH  24  25
HETATM   25  C28 UNL     1      -8.856  44.266 -24.266  1.00  0.00     0.291 C 
HETATM   26  O6  UNL     1      -8.799  43.522 -23.050  1.00  0.00    -0.356 OA
HETATM   27  C29 UNL     1      -9.864  42.574 -22.951  1.00  0.00     0.205 C 
HETATM   28  C30 UNL     1     -10.145  41.823 -24.262  1.00  0.00     0.173 C 
HETATM   29  C31 UNL     1      -8.951  41.899 -25.228  1.00  0.00     0.182 C 
HETATM   30  C32 UNL     1      -8.510  43.352 -25.465  1.00  0.00     0.204 C 
BRANCH  28  31
HETATM   31  O7  UNL     1     -10.499  40.473 -23.956  1.00  0.00    -0.391 OA
HETATM   32  H44 UNL     1     -10.195  39.915 -24.701  1.00  0.00     0.210 HD
ENDBRANCH  28  31
BRANCH  29  33
HETATM   33  O8  UNL     1      -7.856  41.112 -24.732  1.00  0.00    -0.390 OA
HETATM   34  H46 UNL     1      -7.647  41.421 -23.827  1.00  0.00     0.210 HD
ENDBRANCH  29  33
BRANCH  30  35
HETATM   35  O9  UNL     1      -9.164  43.863 -26.643  1.00  0.00    -0.388 OA
HETATM   36  H48 UNL     1      -8.587  43.648 -27.395  1.00  0.00     0.210 HD
ENDBRANCH  30  35
ENDBRANCH  24  25
ENDBRANCH  20  24
BRANCH  18  37
HETATM   37  O4  UNL     1      -6.686  46.929 -20.418  1.00  0.00    -0.391 OA
HETATM   38  H36 UNL     1      -7.240  46.325 -19.899  1.00  0.00     0.210 HD
ENDBRANCH  18  37
BRANCH   1  39
HETATM   39  C2  UNL     1      -0.044  52.740 -21.095  1.00  0.00     0.000 C 
HETATM   40  C1  UNL     1       1.368  52.237 -21.427  1.00  0.00     0.011 C 
BRANCH  39  41
HETATM   41  C3  UNL     1      -0.370  52.309 -19.642  1.00  0.00     0.083 C 
BRANCH  41  42
HETATM   42  C4  UNL     1       0.737  52.563 -18.624  1.00  0.00     0.130 C 
HETATM   43  O1  UNL     1       1.476  53.542 -18.771  1.00  0.00    -0.298 OA
BRANCH  42  44
HETATM   44  C5  UNL     1       0.911  51.620 -17.441  1.00  0.00     0.115 C 
BRANCH  44  45
HETATM   45  C6  UNL     1       1.646  52.190 -16.217  1.00  0.00     0.057 C 
HETATM   46  C7  UNL     1       3.167  52.147 -16.336  1.00  0.00     0.045 C 
HETATM   47  C8  UNL     1       1.214  51.398 -14.974  1.00  0.00     0.045 C 
BRANCH  45  48
HETATM   48  O2  UNL     1       1.241  53.543 -16.013  1.00  0.00    -0.390 OA
HETATM   49  H15 UNL     1       1.754  53.913 -15.274  1.00  0.00     0.210 HD
ENDBRANCH  45  48
ENDBRANCH  44  45
ENDBRANCH  42  44
ENDBRANCH  41  42
ENDBRANCH  39  41
ENDBRANCH   1  39
TORSDOF 12
ENDMDL
MODEL 9
REMARK minimizedAffinity -9.5043335
REMARK CNNscore 0.404271424
REMARK CNNaffinity 7.0480876
REMARK  12 active torsions:
REMARK  status: ('A' for Active; 'I' for Inactive)
REMARK    1  A    between atoms: C2_2  and  C3_3 
REMARK    2  A    between atoms: C2_2  and  C9_11 
REMARK    3  A    between atoms: C3_3  and  C4_4 
REMARK    4  A    between atoms: C4_4  and  C5_6 
REMARK    5  A    between atoms: C5_6  and  C6_7 
REMARK    6  A    between atoms: C6_7  and  O2_10 
REMARK    7  A    between atoms: C25_28  and  O4_29 
REMARK    8  A    between atoms: C27_31  and  O5_32 
REMARK    9  A    between atoms: O5_32  and  C28_33 
REMARK   10  A    between atoms: C30_36  and  O7_37 
REMARK   11  A    between atoms: C31_38  and  O8_39 
REMARK   12  A    between atoms: C32_40  and  O9_41 
ROOT
HETATM    1  C9  UNL     1      -1.004  52.519 -25.464  1.00  0.00     0.068 C 
HETATM    2  C10 UNL     1       0.041  51.578 -26.100  1.00  0.00     0.133 C 
HETATM    3  O3  UNL     1       1.226  51.849 -26.256  1.00  0.00    -0.298 OA
HETATM    4  C11 UNL     1      -0.533  50.230 -26.508  1.00  0.00     0.089 C 
HETATM    5  C12 UNL     1      -2.037  50.447 -26.288  1.00  0.00    -0.022 C 
HETATM    6  C13 UNL     1      -2.592  51.091 -27.598  1.00  0.00     0.017 C 
HETATM    7  C14 UNL     1      -2.837  49.150 -25.923  1.00  0.00     0.024 C 
HETATM    8  C15 UNL     1      -2.980  48.105 -27.046  1.00  0.00     0.014 C 
HETATM    9  C16 UNL     1      -4.185  48.210 -27.993  1.00  0.00     0.036 C 
HETATM   10  C17 UNL     1      -5.606  47.909 -27.506  1.00  0.00    -0.064 C 
HETATM   11  C18 UNL     1      -6.004  47.995 -26.207  1.00  0.00    -0.044 C 
HETATM   12  C19 UNL     1      -5.093  48.329 -25.042  1.00  0.00     0.071 C 
HETATM   13  C20 UNL     1      -4.168  49.498 -25.282  1.00  0.00    -0.075 C 
HETATM   14  C21 UNL     1      -4.474  50.741 -24.852  1.00  0.00    -0.022 C 
HETATM   15  C22 UNL     1      -3.514  51.910 -24.860  1.00  0.00     0.038 C 
HETATM   16  C23 UNL     1      -2.055  51.437 -25.045  1.00  0.00    -0.022 C 
HETATM   17  C24 UNL     1      -1.586  50.751 -23.714  1.00  0.00     0.017 C 
HETATM   18  C25 UNL     1      -7.435  47.721 -25.764  1.00  0.00     0.150 C 
HETATM   19  C26 UNL     1      -8.460  47.628 -26.883  1.00  0.00     0.069 C 
HETATM   20  C27 UNL     1      -7.911  46.839 -28.059  1.00  0.00     0.139 C 
HETATM   21  C33 UNL     1      -6.619  47.521 -28.633  1.00  0.00     0.003 C 
HETATM   22  C34 UNL     1      -7.014  48.812 -29.388  1.00  0.00     0.022 C 
HETATM   23  C35 UNL     1      -6.020  46.539 -29.673  1.00  0.00     0.022 C 
ENDROOT
BRANCH  20  24
HETATM   24  O5  UNL     1      -7.599  45.489 -27.684  1.00  0.00    -0.352 OA
BRANCH  24  25
HETATM   25  C28 UNL     1      -8.498  44.500 -28.190  1.00  0.00     0.291 C 
HETATM   26  O6  UNL     1      -8.234  44.278 -29.574  1.00  0.00    -0.356 OA
HETATM   27  C29 UNL     1      -8.988  43.181 -30.095  1.00  0.00     0.205 C 
HETATM   28  C30 UNL     1     -10.445  43.148 -29.608  1.00  0.00     0.173 C 
HETATM   29  C31 UNL     1     -10.898  44.517 -29.074  1.00  0.00     0.182 C 
HETATM   30  C32 UNL     1      -9.932  45.052 -28.004  1.00  0.00     0.204 C 
BRANCH  28  31
HETATM   31  O7  UNL     1     -11.280  42.689 -30.673  1.00  0.00    -0.391 OA
HETATM   32  H44 UNL     1     -12.153  43.118 -30.567  1.00  0.00     0.210 HD
ENDBRANCH  28  31
BRANCH  29  33
HETATM   33  O8  UNL     1     -11.027  45.456 -30.153  1.00  0.00    -0.390 OA
HETATM   34  H46 UNL     1     -10.175  45.486 -30.633  1.00  0.00     0.210 HD
ENDBRANCH  29  33
BRANCH  30  35
HETATM   35  O9  UNL     1     -10.410  44.674 -26.699  1.00  0.00    -0.388 OA
HETATM   36  H48 UNL     1     -11.004  45.385 -26.405  1.00  0.00     0.210 HD
ENDBRANCH  30  35
ENDBRANCH  24  25
ENDBRANCH  20  24
BRANCH  18  37
HETATM   37  O4  UNL     1      -7.874  48.771 -24.895  1.00  0.00    -0.391 OA
HETATM   38  H36 UNL     1      -8.736  48.502 -24.541  1.00  0.00     0.210 HD
ENDBRANCH  18  37
BRANCH   1  39
HETATM   39  C2  UNL     1      -0.390  53.471 -24.398  1.00  0.00     0.000 C 
HETATM   40  C1  UNL     1       0.251  54.717 -25.023  1.00  0.00     0.011 C 
BRANCH  39  41
HETATM   41  C3  UNL     1       0.701  52.740 -23.574  1.00  0.00     0.083 C 
BRANCH  41  42
HETATM   42  C4  UNL     1       0.826  53.186 -22.121  1.00  0.00     0.130 C 
HETATM   43  O1  UNL     1       1.471  54.206 -21.858  1.00  0.00    -0.298 OA
BRANCH  42  44
HETATM   44  C5  UNL     1       0.151  52.380 -21.019  1.00  0.00     0.115 C 
BRANCH  44  45
HETATM   45  C6  UNL     1       0.234  52.962 -19.599  1.00  0.00     0.057 C 
HETATM   46  C7  UNL     1       1.571  52.713 -18.906  1.00  0.00     0.045 C 
HETATM   47  C8  UNL     1      -0.895  52.353 -18.754  1.00  0.00     0.045 C 
BRANCH  45  48
HETATM   48  O2  UNL     1       0.003  54.369 -19.654  1.00  0.00    -0.390 OA
HETATM   49  H15 UNL     1       0.114  54.739 -18.761  1.00  0.00     0.210 HD
ENDBRANCH  45  48
ENDBRANCH  44  45
ENDBRANCH  42  44
ENDBRANCH  41  42
ENDBRANCH  39  41
ENDBRANCH   1  39
TORSDOF 12
ENDMDL
