MODEL 1
REMARK minimizedAffinity -8.66154385
REMARK  13 active torsions:
REMARK  status: ('A' for Active; 'I' for Inactive)
REMARK    1  A    between atoms: C4_4  and  C5_5 
REMARK    2  A    between atoms: C5_5  and  C6_6 
REMARK    3  A    between atoms: C6_6  and  C7_7 
REMARK    4  A    between atoms: C9_9  and  C10_10 
REMARK    5  A    between atoms: C11_11  and  C12_12 
REMARK    6  A    between atoms: C14_14  and  C15_15 
REMARK    7  A    between atoms: C18_18  and  O1_19 
REMARK    8  A    between atoms: C19_21  and  C20_22 
REMARK    9  A    between atoms: C20_22  and  C21_23 
REMARK   10  A    between atoms: C21_23  and  C22_24 
REMARK   11  A    between atoms: C22_24  and  O3_25 
REMARK   12  A    between atoms: C24_27  and  C26_29 
REMARK   13  A    between atoms: C29_33  and  O5_35 
ROOT
HETATM    1  C15 UNL     1       0.446   5.571  11.483  1.00  0.00     0.149 C 
HETATM    2  C16 UNL     1       0.376   5.935   9.986  1.00  0.00     0.054 C 
HETATM    3  C17 UNL     1       1.347   7.136   9.868  1.00  0.00     0.050 C 
HETATM    4  C18 UNL     1       0.992   7.789  11.215  1.00  0.00     0.270 C 
HETATM    5  O2  UNL     1       0.961   6.732  12.164  1.00  0.00    -0.351 OA
HETATM    6  C19 UNL     1       2.831   6.547   9.799  1.00  0.00     0.032 C 
HETATM    7  C23 UNL     1       3.081   5.886   8.422  1.00  0.00    -0.066 C 
HETATM    8  C24 UNL     1       3.479   4.594   8.288  1.00  0.00    -0.021 C 
HETATM    9  C25 UNL     1       3.774   3.653   9.428  1.00  0.00     0.052 C 
HETATM   10  C27 UNL     1       2.806   6.846   7.279  1.00  0.00     0.038 C 
HETATM   11  C28 UNL     1       1.373   7.370   7.328  1.00  0.00     0.042 C 
HETATM   12  C29 UNL     1       1.055   8.081   8.654  1.00  0.00     0.067 C 
HETATM   13  C30 UNL     1      -0.380   8.631   8.569  1.00  0.00     0.047 C 
ENDROOT
BRANCH   4  14
HETATM   14  O1  UNL     1       1.878   8.805  11.604  1.00  0.00    -0.370 OA
HETATM   15  H26 UNL     1       1.609   9.024  12.515  1.00  0.00     0.212 HD
ENDBRANCH   4  14
BRANCH   6  16
HETATM   16  C20 UNL     1       4.018   7.493  10.124  1.00  0.00     0.012 C 
BRANCH  16  17
HETATM   17  C21 UNL     1       4.857   6.989  11.306  1.00  0.00     0.027 C 
BRANCH  17  18
HETATM   18  C22 UNL     1       6.307   6.758  10.904  1.00  0.00     0.164 C 
BRANCH  18  19
HETATM   19  O3  UNL     1       6.546   5.367  10.729  1.00  0.00    -0.401 OA
HETATM   20  H34 UNL     1       5.924   5.046  10.054  1.00  0.00     0.209 HD
ENDBRANCH  18  19
ENDBRANCH  17  18
ENDBRANCH  16  17
ENDBRANCH   6  16
BRANCH  12  21
HETATM   21  O5  UNL     1       1.892   9.245   8.710  1.00  0.00    -0.389 OA
HETATM   22  H46 UNL     1       1.910   9.569   9.631  1.00  0.00     0.210 HD
ENDBRANCH  12  21
BRANCH   1  23
HETATM   23  C14 UNL     1      -0.894   5.238  12.076  1.00  0.00     0.011 C 
HETATM   24  C12 UNL     1      -1.521   4.042  12.101  1.00  0.00    -0.063 C 
HETATM   25  C13 UNL     1      -0.930   2.769  11.551  1.00  0.00     0.048 C 
BRANCH  24  26
HETATM   26  C11 UNL     1      -2.849   3.965  12.720  1.00  0.00     0.006 C 
HETATM   27  C10 UNL     1      -3.817   4.896  12.652  1.00  0.00     0.001 C 
BRANCH  27  28
HETATM   28  C9  UNL     1      -5.103   4.728  13.300  1.00  0.00     0.002 C 
HETATM   29  C7  UNL     1      -6.098   3.896  12.931  1.00  0.00    -0.084 C 
HETATM   30  C8  UNL     1      -6.080   2.966  11.745  1.00  0.00     0.043 C 
BRANCH  29  31
HETATM   31  C6  UNL     1      -7.386   3.858  13.738  1.00  0.00     0.037 C 
BRANCH  31  32
HETATM   32  C5  UNL     1      -8.466   4.778  13.160  1.00  0.00     0.031 C 
BRANCH  32  33
HETATM   33  C4  UNL     1      -8.263   6.205  13.597  1.00  0.00    -0.024 C 
HETATM   34  C2  UNL     1      -7.952   6.657  14.827  1.00  0.00    -0.091 C 
HETATM   35  C1  UNL     1      -7.783   5.800  16.051  1.00  0.00     0.042 C 
HETATM   36  C3  UNL     1      -7.751   8.131  15.072  1.00  0.00     0.042 C 
ENDBRANCH  32  33
ENDBRANCH  31  32
ENDBRANCH  29  31
ENDBRANCH  27  28
ENDBRANCH  24  26
ENDBRANCH   1  23
BRANCH   8  37
HETATM   37  C26 UNL     1       3.685   3.952   6.948  1.00  0.00     0.265 C 
HETATM   38  O4  UNL     1       4.793   3.620   6.537  1.00  0.00    -0.302 OA
ENDBRANCH   8  37
TORSDOF 13
ENDMDL
MODEL 2
REMARK minimizedAffinity -8.29102516
REMARK  13 active torsions:
REMARK  status: ('A' for Active; 'I' for Inactive)
REMARK    1  A    between atoms: C4_4  and  C5_5 
REMARK    2  A    between atoms: C5_5  and  C6_6 
REMARK    3  A    between atoms: C6_6  and  C7_7 
REMARK    4  A    between atoms: C9_9  and  C10_10 
REMARK    5  A    between atoms: C11_11  and  C12_12 
REMARK    6  A    between atoms: C14_14  and  C15_15 
REMARK    7  A    between atoms: C18_18  and  O1_19 
REMARK    8  A    between atoms: C19_21  and  C20_22 
REMARK    9  A    between atoms: C20_22  and  C21_23 
REMARK   10  A    between atoms: C21_23  and  C22_24 
REMARK   11  A    between atoms: C22_24  and  O3_25 
REMARK   12  A    between atoms: C24_27  and  C26_29 
REMARK   13  A    between atoms: C29_33  and  O5_35 
ROOT
HETATM    1  C15 UNL     1      -4.355   6.208  13.631  1.00  0.00     0.149 C 
HETATM    2  C16 UNL     1      -3.751   7.567  13.224  1.00  0.00     0.054 C 
HETATM    3  C17 UNL     1      -2.663   7.807  14.301  1.00  0.00     0.050 C 
HETATM    4  C18 UNL     1      -3.449   7.221  15.486  1.00  0.00     0.270 C 
HETATM    5  O2  UNL     1      -4.014   6.005  15.016  1.00  0.00    -0.351 OA
HETATM    6  C19 UNL     1      -1.378   6.952  13.882  1.00  0.00     0.032 C 
HETATM    7  C23 UNL     1      -0.675   7.602  12.667  1.00  0.00    -0.066 C 
HETATM    8  C24 UNL     1      -0.439   6.932  11.509  1.00  0.00    -0.021 C 
HETATM    9  C25 UNL     1      -0.773   5.483  11.261  1.00  0.00     0.052 C 
HETATM   10  C27 UNL     1      -0.320   9.053  12.932  1.00  0.00     0.038 C 
HETATM   11  C28 UNL     1      -1.559   9.871  13.288  1.00  0.00     0.042 C 
HETATM   12  C29 UNL     1      -2.295   9.313  14.517  1.00  0.00     0.067 C 
HETATM   13  C30 UNL     1      -3.477  10.248  14.831  1.00  0.00     0.047 C 
ENDROOT
BRANCH   4  14
HETATM   14  O1  UNL     1      -2.672   7.018  16.637  1.00  0.00    -0.370 OA
HETATM   15  H26 UNL     1      -3.260   6.530  17.242  1.00  0.00     0.212 HD
ENDBRANCH   4  14
BRANCH   6  16
HETATM   16  C20 UNL     1      -0.314   6.638  14.968  1.00  0.00     0.012 C 
BRANCH  16  17
HETATM   17  C21 UNL     1       1.106   6.571  14.389  1.00  0.00     0.027 C 
BRANCH  17  18
HETATM   18  C22 UNL     1       2.088   7.382  15.222  1.00  0.00     0.164 C 
BRANCH  18  19
HETATM   19  O3  UNL     1       3.075   6.524  15.781  1.00  0.00    -0.401 OA
HETATM   20  H34 UNL     1       3.513   6.065  15.045  1.00  0.00     0.209 HD
ENDBRANCH  18  19
ENDBRANCH  17  18
ENDBRANCH  16  17
ENDBRANCH   6  16
BRANCH  12  21
HETATM   21  O5  UNL     1      -1.406   9.459  15.633  1.00  0.00    -0.389 OA
HETATM   22  H46 UNL     1      -1.724   8.889  16.360  1.00  0.00     0.210 HD
ENDBRANCH  12  21
BRANCH   1  23
HETATM   23  C14 UNL     1      -5.852   6.163  13.508  1.00  0.00     0.011 C 
HETATM   24  C12 UNL     1      -6.630   5.114  13.162  1.00  0.00    -0.063 C 
HETATM   25  C13 UNL     1      -6.100   3.733  12.870  1.00  0.00     0.048 C 
BRANCH  24  26
HETATM   26  C11 UNL     1      -8.080   5.319  13.083  1.00  0.00     0.006 C 
HETATM   27  C10 UNL     1      -8.780   6.311  13.663  1.00  0.00     0.001 C 
BRANCH  27  28
HETATM   28  C9  UNL     1     -10.218   6.430  13.526  1.00  0.00     0.002 C 
HETATM   29  C7  UNL     1     -11.026   7.307  14.154  1.00  0.00    -0.084 C 
HETATM   30  C8  UNL     1     -10.594   8.351  15.151  1.00  0.00     0.043 C 
BRANCH  29  31
HETATM   31  C6  UNL     1     -12.522   7.280  13.882  1.00  0.00     0.037 C 
BRANCH  31  32
HETATM   32  C5  UNL     1     -13.163   5.943  14.270  1.00  0.00     0.031 C 
BRANCH  32  33
HETATM   33  C4  UNL     1     -14.549   6.140  14.826  1.00  0.00    -0.024 C 
HETATM   34  C2  UNL     1     -15.489   5.204  15.054  1.00  0.00    -0.091 C 
HETATM   35  C1  UNL     1     -15.348   3.738  14.749  1.00  0.00     0.042 C 
HETATM   36  C3  UNL     1     -16.819   5.585  15.654  1.00  0.00     0.042 C 
ENDBRANCH  32  33
ENDBRANCH  31  32
ENDBRANCH  29  31
ENDBRANCH  27  28
ENDBRANCH  24  26
ENDBRANCH   1  23
BRANCH   8  37
HETATM   37  C26 UNL     1       0.212   7.580  10.323  1.00  0.00     0.265 C 
HETATM   38  O4  UNL     1       0.738   8.688  10.381  1.00  0.00    -0.302 OA
ENDBRANCH   8  37
TORSDOF 13
ENDMDL
MODEL 3
REMARK minimizedAffinity -8.07719231
REMARK  13 active torsions:
REMARK  status: ('A' for Active; 'I' for Inactive)
REMARK    1  A    between atoms: C4_4  and  C5_5 
REMARK    2  A    between atoms: C5_5  and  C6_6 
REMARK    3  A    between atoms: C6_6  and  C7_7 
REMARK    4  A    between atoms: C9_9  and  C10_10 
REMARK    5  A    between atoms: C11_11  and  C12_12 
REMARK    6  A    between atoms: C14_14  and  C15_15 
REMARK    7  A    between atoms: C18_18  and  O1_19 
REMARK    8  A    between atoms: C19_21  and  C20_22 
REMARK    9  A    between atoms: C20_22  and  C21_23 
REMARK   10  A    between atoms: C21_23  and  C22_24 
REMARK   11  A    between atoms: C22_24  and  O3_25 
REMARK   12  A    between atoms: C24_27  and  C26_29 
REMARK   13  A    between atoms: C29_33  and  O5_35 
ROOT
HETATM    1  C15 UNL     1     -11.032   7.035  13.717  1.00  0.00     0.149 C 
HETATM    2  C16 UNL     1     -11.230   8.159  14.753  1.00  0.00     0.054 C 
HETATM    3  C17 UNL     1     -12.042   9.222  13.972  1.00  0.00     0.050 C 
HETATM    4  C18 UNL     1     -11.332   9.035  12.620  1.00  0.00     0.270 C 
HETATM    5  O2  UNL     1     -11.238   7.631  12.420  1.00  0.00    -0.351 OA
HETATM    6  C19 UNL     1     -13.571   8.756  13.977  1.00  0.00     0.032 C 
HETATM    7  C23 UNL     1     -14.187   8.955  15.382  1.00  0.00    -0.066 C 
HETATM    8  C24 UNL     1     -14.767   7.944  16.080  1.00  0.00    -0.021 C 
HETATM    9  C25 UNL     1     -14.935   6.530  15.583  1.00  0.00     0.052 C 
HETATM   10  C27 UNL     1     -14.037  10.385  15.865  1.00  0.00     0.038 C 
HETATM   11  C28 UNL     1     -12.570  10.807  15.900  1.00  0.00     0.042 C 
HETATM   12  C29 UNL     1     -11.892  10.679  14.525  1.00  0.00     0.067 C 
HETATM   13  C30 UNL     1     -10.448  11.197  14.655  1.00  0.00     0.047 C 
ENDROOT
BRANCH   4  14
HETATM   14  O1  UNL     1     -11.979   9.667  11.547  1.00  0.00    -0.370 OA
HETATM   15  H26 UNL     1     -11.499   9.353  10.758  1.00  0.00     0.212 HD
ENDBRANCH   4  14
BRANCH   6  16
HETATM   16  C20 UNL     1     -14.532   9.363  12.918  1.00  0.00     0.012 C 
BRANCH  16  17
HETATM   17  C21 UNL     1     -15.962   8.824  13.054  1.00  0.00     0.027 C 
BRANCH  17  18
HETATM   18  C22 UNL     1     -16.552   8.456  11.700  1.00  0.00     0.164 C 
BRANCH  18  19
HETATM   19  O3  UNL     1     -15.756   7.455  11.079  1.00  0.00    -0.401 OA
HETATM   20  H34 UNL     1     -15.723   6.693  11.682  1.00  0.00     0.209 HD
ENDBRANCH  18  19
ENDBRANCH  17  18
ENDBRANCH  16  17
ENDBRANCH   6  16
BRANCH  12  21
HETATM   21  O5  UNL     1     -12.542  11.617  13.655  1.00  0.00    -0.389 OA
HETATM   22  H46 UNL     1     -12.325  11.385  12.732  1.00  0.00     0.210 HD
ENDBRANCH  12  21
BRANCH   1  23
HETATM   23  C14 UNL     1      -9.652   6.442  13.742  1.00  0.00     0.011 C 
HETATM   24  C12 UNL     1      -8.727   6.521  14.724  1.00  0.00    -0.063 C 
HETATM   25  C13 UNL     1      -8.958   7.213  16.044  1.00  0.00     0.048 C 
BRANCH  24  26
HETATM   26  C11 UNL     1      -7.427   5.877  14.510  1.00  0.00     0.006 C 
HETATM   27  C10 UNL     1      -6.815   5.686  13.327  1.00  0.00     0.001 C 
BRANCH  27  28
HETATM   28  C9  UNL     1      -5.524   5.037  13.217  1.00  0.00     0.002 C 
HETATM   29  C7  UNL     1      -4.315   5.632  13.158  1.00  0.00    -0.084 C 
HETATM   30  C8  UNL     1      -4.058   7.117  13.184  1.00  0.00     0.043 C 
BRANCH  29  31
HETATM   31  C6  UNL     1      -3.061   4.780  13.042  1.00  0.00     0.037 C 
BRANCH  31  32
HETATM   32  C5  UNL     1      -3.048   3.931  11.766  1.00  0.00     0.031 C 
BRANCH  32  33
HETATM   33  C4  UNL     1      -3.979   2.753  11.881  1.00  0.00    -0.024 C 
HETATM   34  C2  UNL     1      -5.011   2.433  11.077  1.00  0.00    -0.091 C 
HETATM   35  C1  UNL     1      -5.474   3.239   9.895  1.00  0.00     0.042 C 
HETATM   36  C3  UNL     1      -5.819   1.185  11.328  1.00  0.00     0.042 C 
ENDBRANCH  32  33
ENDBRANCH  31  32
ENDBRANCH  29  31
ENDBRANCH  27  28
ENDBRANCH  24  26
ENDBRANCH   1  23
BRANCH   8  37
HETATM   37  C26 UNL     1     -15.330   8.137  17.457  1.00  0.00     0.265 C 
HETATM   38  O4  UNL     1     -14.670   7.947  18.474  1.00  0.00    -0.302 OA
ENDBRANCH   8  37
TORSDOF 13
ENDMDL
MODEL 4
REMARK minimizedAffinity -8.04854107
REMARK  13 active torsions:
REMARK  status: ('A' for Active; 'I' for Inactive)
REMARK    1  A    between atoms: C4_4  and  C5_5 
REMARK    2  A    between atoms: C5_5  and  C6_6 
REMARK    3  A    between atoms: C6_6  and  C7_7 
REMARK    4  A    between atoms: C9_9  and  C10_10 
REMARK    5  A    between atoms: C11_11  and  C12_12 
REMARK    6  A    between atoms: C14_14  and  C15_15 
REMARK    7  A    between atoms: C18_18  and  O1_19 
REMARK    8  A    between atoms: C19_21  and  C20_22 
REMARK    9  A    between atoms: C20_22  and  C21_23 
REMARK   10  A    between atoms: C21_23  and  C22_24 
REMARK   11  A    between atoms: C22_24  and  O3_25 
REMARK   12  A    between atoms: C24_27  and  C26_29 
REMARK   13  A    between atoms: C29_33  and  O5_35 
ROOT
HETATM    1  C15 UNL     1     -11.088   6.943  13.546  1.00  0.00     0.149 C 
HETATM    2  C16 UNL     1     -11.283   8.022  14.630  1.00  0.00     0.054 C 
HETATM    3  C17 UNL     1     -12.137   9.095  13.911  1.00  0.00     0.050 C 
HETATM    4  C18 UNL     1     -11.460   8.975  12.535  1.00  0.00     0.270 C 
HETATM    5  O2  UNL     1     -11.342   7.582  12.280  1.00  0.00    -0.351 OA
HETATM    6  C19 UNL     1     -13.656   8.595  13.938  1.00  0.00     0.032 C 
HETATM    7  C23 UNL     1     -14.238   8.727  15.366  1.00  0.00    -0.066 C 
HETATM    8  C24 UNL     1     -14.777   7.678  16.039  1.00  0.00    -0.021 C 
HETATM    9  C25 UNL     1     -14.927   6.280  15.494  1.00  0.00     0.052 C 
HETATM   10  C27 UNL     1     -14.105  10.142  15.899  1.00  0.00     0.038 C 
HETATM   11  C28 UNL     1     -12.647  10.594  15.911  1.00  0.00     0.042 C 
HETATM   12  C29 UNL     1     -12.004  10.534  14.515  1.00  0.00     0.067 C 
HETATM   13  C30 UNL     1     -10.569  11.078  14.627  1.00  0.00     0.047 C 
ENDROOT
BRANCH   4  14
HETATM   14  O1  UNL     1     -12.149   9.632  11.504  1.00  0.00    -0.370 OA
HETATM   15  H26 UNL     1     -11.684   9.359  10.692  1.00  0.00     0.212 HD
ENDBRANCH   4  14
BRANCH   6  16
HETATM   16  C20 UNL     1     -14.657   9.219  12.929  1.00  0.00     0.012 C 
BRANCH  16  17
HETATM   17  C21 UNL     1     -15.612   8.174  12.335  1.00  0.00     0.027 C 
BRANCH  17  18
HETATM   18  C22 UNL     1     -16.815   8.830  11.672  1.00  0.00     0.164 C 
BRANCH  18  19
HETATM   19  O3  UNL     1     -16.484   9.226  10.347  1.00  0.00    -0.401 OA
HETATM   20  H34 UNL     1     -16.192   8.431   9.869  1.00  0.00     0.209 HD
ENDBRANCH  18  19
ENDBRANCH  17  18
ENDBRANCH  16  17
ENDBRANCH   6  16
BRANCH  12  21
HETATM   21  O5  UNL     1     -12.697  11.489  13.699  1.00  0.00    -0.389 OA
HETATM   22  H46 UNL     1     -12.500  11.296  12.762  1.00  0.00     0.210 HD
ENDBRANCH  12  21
BRANCH   1  23
HETATM   23  C14 UNL     1      -9.695   6.380  13.513  1.00  0.00     0.011 C 
HETATM   24  C12 UNL     1      -8.980   5.985  12.436  1.00  0.00    -0.063 C 
HETATM   25  C13 UNL     1      -9.470   6.094  11.014  1.00  0.00     0.048 C 
BRANCH  24  26
HETATM   26  C11 UNL     1      -7.638   5.438  12.655  1.00  0.00     0.006 C 
HETATM   27  C10 UNL     1      -7.305   4.136  12.717  1.00  0.00     0.001 C 
BRANCH  27  28
HETATM   28  C9  UNL     1      -5.943   3.692  12.937  1.00  0.00     0.002 C 
HETATM   29  C7  UNL     1      -5.059   3.282  12.005  1.00  0.00    -0.084 C 
HETATM   30  C8  UNL     1      -5.315   3.189  10.523  1.00  0.00     0.043 C 
BRANCH  29  31
HETATM   31  C6  UNL     1      -3.665   2.848  12.429  1.00  0.00     0.037 C 
BRANCH  31  32
HETATM   32  C5  UNL     1      -2.632   3.970  12.276  1.00  0.00     0.031 C 
BRANCH  32  33
HETATM   33  C4  UNL     1      -3.267   5.326  12.434  1.00  0.00    -0.024 C 
HETATM   34  C2  UNL     1      -3.381   6.061  13.557  1.00  0.00    -0.091 C 
HETATM   35  C1  UNL     1      -2.916   5.637  14.923  1.00  0.00     0.042 C 
HETATM   36  C3  UNL     1      -4.022   7.425  13.518  1.00  0.00     0.042 C 
ENDBRANCH  32  33
ENDBRANCH  31  32
ENDBRANCH  29  31
ENDBRANCH  27  28
ENDBRANCH  24  26
ENDBRANCH   1  23
BRANCH   8  37
HETATM   37  C26 UNL     1     -15.307   7.807  17.437  1.00  0.00     0.265 C 
HETATM   38  O4  UNL     1     -14.768   7.271  18.401  1.00  0.00    -0.302 OA
ENDBRANCH   8  37
TORSDOF 13
ENDMDL
MODEL 5
REMARK minimizedAffinity -8.03753281
REMARK  13 active torsions:
REMARK  status: ('A' for Active; 'I' for Inactive)
REMARK    1  A    between atoms: C4_4  and  C5_5 
REMARK    2  A    between atoms: C5_5  and  C6_6 
REMARK    3  A    between atoms: C6_6  and  C7_7 
REMARK    4  A    between atoms: C9_9  and  C10_10 
REMARK    5  A    between atoms: C11_11  and  C12_12 
REMARK    6  A    between atoms: C14_14  and  C15_15 
REMARK    7  A    between atoms: C18_18  and  O1_19 
REMARK    8  A    between atoms: C19_21  and  C20_22 
REMARK    9  A    between atoms: C20_22  and  C21_23 
REMARK   10  A    between atoms: C21_23  and  C22_24 
REMARK   11  A    between atoms: C22_24  and  O3_25 
REMARK   12  A    between atoms: C24_27  and  C26_29 
REMARK   13  A    between atoms: C29_33  and  O5_35 
ROOT
HETATM    1  C15 UNL     1       0.918   9.237  15.581  1.00  0.00     0.149 C 
HETATM    2  C16 UNL     1      -0.312   8.310  15.651  1.00  0.00     0.054 C 
HETATM    3  C17 UNL     1      -1.205   8.816  14.491  1.00  0.00     0.050 C 
HETATM    4  C18 UNL     1      -0.898  10.313  14.667  1.00  0.00     0.270 C 
HETATM    5  O2  UNL     1       0.509  10.405  14.841  1.00  0.00    -0.351 OA
HETATM    6  C19 UNL     1      -0.632   8.186  13.137  1.00  0.00     0.032 C 
HETATM    7  C23 UNL     1      -0.963   6.676  13.067  1.00  0.00    -0.066 C 
HETATM    8  C24 UNL     1      -0.010   5.722  12.908  1.00  0.00    -0.021 C 
HETATM    9  C25 UNL     1       1.464   5.986  12.733  1.00  0.00     0.052 C 
HETATM   10  C27 UNL     1      -2.451   6.419  13.219  1.00  0.00     0.038 C 
HETATM   11  C28 UNL     1      -2.980   6.985  14.535  1.00  0.00     0.042 C 
HETATM   12  C29 UNL     1      -2.727   8.496  14.665  1.00  0.00     0.067 C 
HETATM   13  C30 UNL     1      -3.361   8.974  15.984  1.00  0.00     0.047 C 
ENDROOT
BRANCH   4  14
HETATM   14  O1  UNL     1      -1.339  11.111  13.600  1.00  0.00    -0.370 OA
HETATM   15  H26 UNL     1      -0.963  11.991  13.786  1.00  0.00     0.212 HD
ENDBRANCH   4  14
BRANCH   6  16
HETATM   16  C20 UNL     1      -1.027   8.849  11.790  1.00  0.00     0.012 C 
BRANCH  16  17
HETATM   17  C21 UNL     1       0.027   8.620  10.698  1.00  0.00     0.027 C 
BRANCH  17  18
HETATM   18  C22 UNL     1      -0.603   8.580   9.312  1.00  0.00     0.164 C 
BRANCH  18  19
HETATM   19  O3  UNL     1       0.261   9.202   8.369  1.00  0.00    -0.401 OA
HETATM   20  H34 UNL     1       1.111   8.731   8.397  1.00  0.00     0.209 HD
ENDBRANCH  18  19
ENDBRANCH  17  18
ENDBRANCH  16  17
ENDBRANCH   6  16
BRANCH  12  21
HETATM   21  O5  UNL     1      -3.497   9.134  13.636  1.00  0.00    -0.389 OA
HETATM   22  H46 UNL     1      -3.164  10.045  13.520  1.00  0.00     0.210 HD
ENDBRANCH  12  21
BRANCH   1  23
HETATM   23  C14 UNL     1       1.400   9.686  16.931  1.00  0.00     0.011 C 
HETATM   24  C12 UNL     1       0.754  10.454  17.835  1.00  0.00    -0.063 C 
HETATM   25  C13 UNL     1      -0.648  10.976  17.648  1.00  0.00     0.048 C 
BRANCH  24  26
HETATM   26  C11 UNL     1       1.444  10.786  19.086  1.00  0.00     0.006 C 
HETATM   27  C10 UNL     1       2.252   9.976  19.793  1.00  0.00     0.001 C 
BRANCH  27  28
HETATM   28  C9  UNL     1       2.892  10.398  21.023  1.00  0.00     0.002 C 
HETATM   29  C7  UNL     1       2.886   9.753  22.207  1.00  0.00    -0.084 C 
HETATM   30  C8  UNL     1       2.193   8.447  22.500  1.00  0.00     0.043 C 
BRANCH  29  31
HETATM   31  C6  UNL     1       3.618  10.356  23.396  1.00  0.00     0.037 C 
BRANCH  31  32
HETATM   32  C5  UNL     1       4.331  11.665  23.042  1.00  0.00     0.031 C 
BRANCH  32  33
HETATM   33  C4  UNL     1       5.828  11.496  23.059  1.00  0.00    -0.024 C 
HETATM   34  C2  UNL     1       6.768  12.460  23.078  1.00  0.00    -0.091 C 
HETATM   35  C1  UNL     1       6.499  13.939  23.042  1.00  0.00     0.042 C 
HETATM   36  C3  UNL     1       8.232  12.100  23.131  1.00  0.00     0.042 C 
ENDBRANCH  32  33
ENDBRANCH  31  32
ENDBRANCH  29  31
ENDBRANCH  27  28
ENDBRANCH  24  26
ENDBRANCH   1  23
BRANCH   8  37
HETATM   37  C26 UNL     1      -0.336   4.258  12.876  1.00  0.00     0.265 C 
HETATM   38  O4  UNL     1      -0.531   3.646  11.830  1.00  0.00    -0.302 OA
ENDBRANCH   8  37
TORSDOF 13
ENDMDL
MODEL 6
REMARK minimizedAffinity -8.03329849
REMARK  13 active torsions:
REMARK  status: ('A' for Active; 'I' for Inactive)
REMARK    1  A    between atoms: C4_4  and  C5_5 
REMARK    2  A    between atoms: C5_5  and  C6_6 
REMARK    3  A    between atoms: C6_6  and  C7_7 
REMARK    4  A    between atoms: C9_9  and  C10_10 
REMARK    5  A    between atoms: C11_11  and  C12_12 
REMARK    6  A    between atoms: C14_14  and  C15_15 
REMARK    7  A    between atoms: C18_18  and  O1_19 
REMARK    8  A    between atoms: C19_21  and  C20_22 
REMARK    9  A    between atoms: C20_22  and  C21_23 
REMARK   10  A    between atoms: C21_23  and  C22_24 
REMARK   11  A    between atoms: C22_24  and  O3_25 
REMARK   12  A    between atoms: C24_27  and  C26_29 
REMARK   13  A    between atoms: C29_33  and  O5_35 
ROOT
HETATM    1  C15 UNL     1     -10.819   6.861  13.353  1.00  0.00     0.149 C 
HETATM    2  C16 UNL     1     -11.059   7.872  14.492  1.00  0.00     0.054 C 
HETATM    3  C17 UNL     1     -11.936   8.959  13.823  1.00  0.00     0.050 C 
HETATM    4  C18 UNL     1     -11.238   8.936  12.452  1.00  0.00     0.270 C 
HETATM    5  O2  UNL     1     -11.076   7.564  12.120  1.00  0.00    -0.351 OA
HETATM    6  C19 UNL     1     -13.439   8.414  13.801  1.00  0.00     0.032 C 
HETATM    7  C23 UNL     1     -14.042   8.448  15.225  1.00  0.00    -0.066 C 
HETATM    8  C24 UNL     1     -14.558   7.347  15.831  1.00  0.00    -0.021 C 
HETATM    9  C25 UNL     1     -14.661   5.979  15.206  1.00  0.00     0.052 C 
HETATM   10  C27 UNL     1     -13.958   9.833  15.839  1.00  0.00     0.038 C 
HETATM   11  C28 UNL     1     -12.514  10.326  15.897  1.00  0.00     0.042 C 
HETATM   12  C29 UNL     1     -11.852  10.363  14.509  1.00  0.00     0.067 C 
HETATM   13  C30 UNL     1     -10.435  10.942  14.672  1.00  0.00     0.047 C 
ENDROOT
BRANCH   4  14
HETATM   14  O1  UNL     1     -11.934   9.630  11.450  1.00  0.00    -0.370 OA
HETATM   15  H26 UNL     1     -11.451   9.417  10.631  1.00  0.00     0.212 HD
ENDBRANCH   4  14
BRANCH   6  16
HETATM   16  C20 UNL     1     -14.446   9.065  12.814  1.00  0.00     0.012 C 
BRANCH  16  17
HETATM   17  C21 UNL     1     -15.887   8.598  13.061  1.00  0.00     0.027 C 
BRANCH  17  18
HETATM   18  C22 UNL     1     -16.504   8.001  11.803  1.00  0.00     0.164 C 
BRANCH  18  19
HETATM   19  O3  UNL     1     -16.173   8.801  10.674  1.00  0.00    -0.401 OA
HETATM   20  H34 UNL     1     -15.203   8.843  10.621  1.00  0.00     0.209 HD
ENDBRANCH  18  19
ENDBRANCH  17  18
ENDBRANCH  16  17
ENDBRANCH   6  16
BRANCH  12  21
HETATM   21  O5  UNL     1     -12.563  11.343  13.739  1.00  0.00    -0.389 OA
HETATM   22  H46 UNL     1     -12.349  11.209  12.795  1.00  0.00     0.210 HD
ENDBRANCH  12  21
BRANCH   1  23
HETATM   23  C14 UNL     1      -9.410   6.342  13.307  1.00  0.00     0.011 C 
HETATM   24  C12 UNL     1      -8.527   6.233  14.324  1.00  0.00    -0.063 C 
HETATM   25  C13 UNL     1      -8.842   6.591  15.754  1.00  0.00     0.048 C 
BRANCH  24  26
HETATM   26  C11 UNL     1      -7.187   5.716  14.030  1.00  0.00     0.006 C 
HETATM   27  C10 UNL     1      -6.870   4.797  13.101  1.00  0.00     0.001 C 
BRANCH  27  28
HETATM   28  C9  UNL     1      -5.509   4.349  12.883  1.00  0.00     0.002 C 
HETATM   29  C7  UNL     1      -5.109   3.272  12.178  1.00  0.00    -0.084 C 
HETATM   30  C8  UNL     1      -6.010   2.293  11.470  1.00  0.00     0.043 C 
BRANCH  29  31
HETATM   31  C6  UNL     1      -3.626   2.957  12.060  1.00  0.00     0.037 C 
BRANCH  31  32
HETATM   32  C5  UNL     1      -2.979   3.632  10.846  1.00  0.00     0.031 C 
BRANCH  32  33
HETATM   33  C4  UNL     1      -1.552   4.019  11.129  1.00  0.00    -0.024 C 
HETATM   34  C2  UNL     1      -1.106   5.021  11.909  1.00  0.00    -0.091 C 
HETATM   35  C1  UNL     1      -1.975   6.007  12.640  1.00  0.00     0.042 C 
HETATM   36  C3  UNL     1       0.373   5.239  12.106  1.00  0.00     0.042 C 
ENDBRANCH  32  33
ENDBRANCH  31  32
ENDBRANCH  29  31
ENDBRANCH  27  28
ENDBRANCH  24  26
ENDBRANCH   1  23
BRANCH   8  37
HETATM   37  C26 UNL     1     -15.109   7.381  17.226  1.00  0.00     0.265 C 
HETATM   38  O4  UNL     1     -16.293   7.601  17.465  1.00  0.00    -0.302 OA
ENDBRANCH   8  37
TORSDOF 13
ENDMDL
MODEL 7
REMARK minimizedAffinity -7.86038589
REMARK  13 active torsions:
REMARK  status: ('A' for Active; 'I' for Inactive)
REMARK    1  A    between atoms: C4_4  and  C5_5 
REMARK    2  A    between atoms: C5_5  and  C6_6 
REMARK    3  A    between atoms: C6_6  and  C7_7 
REMARK    4  A    between atoms: C9_9  and  C10_10 
REMARK    5  A    between atoms: C11_11  and  C12_12 
REMARK    6  A    between atoms: C14_14  and  C15_15 
REMARK    7  A    between atoms: C18_18  and  O1_19 
REMARK    8  A    between atoms: C19_21  and  C20_22 
REMARK    9  A    between atoms: C20_22  and  C21_23 
REMARK   10  A    between atoms: C21_23  and  C22_24 
REMARK   11  A    between atoms: C22_24  and  O3_25 
REMARK   12  A    between atoms: C24_27  and  C26_29 
REMARK   13  A    between atoms: C29_33  and  O5_35 
ROOT
HETATM    1  C15 UNL     1     -11.120   6.971  13.498  1.00  0.00     0.149 C 
HETATM    2  C16 UNL     1     -11.541   7.915  14.642  1.00  0.00     0.054 C 
HETATM    3  C17 UNL     1     -12.427   8.965  13.927  1.00  0.00     0.050 C 
HETATM    4  C18 UNL     1     -11.602   9.047  12.631  1.00  0.00     0.270 C 
HETATM    5  O2  UNL     1     -11.309   7.704  12.271  1.00  0.00    -0.351 OA
HETATM    6  C19 UNL     1     -13.877   8.319  13.738  1.00  0.00     0.032 C 
HETATM    7  C23 UNL     1     -14.615   8.252  15.097  1.00  0.00    -0.066 C 
HETATM    8  C24 UNL     1     -15.104   7.094  15.611  1.00  0.00    -0.021 C 
HETATM    9  C25 UNL     1     -15.046   5.749  14.933  1.00  0.00     0.052 C 
HETATM   10  C27 UNL     1     -14.691   9.614  15.763  1.00  0.00     0.038 C 
HETATM   11  C28 UNL     1     -13.300  10.203  15.979  1.00  0.00     0.042 C 
HETATM   12  C29 UNL     1     -12.513  10.343  14.665  1.00  0.00     0.067 C 
HETATM   13  C30 UNL     1     -11.164  11.011  14.986  1.00  0.00     0.047 C 
ENDROOT
BRANCH   4  14
HETATM   14  O1  UNL     1     -12.247   9.731  11.589  1.00  0.00    -0.370 OA
HETATM   15  H26 UNL     1     -11.674   9.586  10.815  1.00  0.00     0.212 HD
ENDBRANCH   4  14
BRANCH   6  16
HETATM   16  C20 UNL     1     -14.830   8.938  12.680  1.00  0.00     0.012 C 
BRANCH  16  17
HETATM   17  C21 UNL     1     -15.778   7.896  12.071  1.00  0.00     0.027 C 
BRANCH  17  18
HETATM   18  C22 UNL     1     -17.044   8.543  11.525  1.00  0.00     0.164 C 
BRANCH  18  19
HETATM   19  O3  UNL     1     -16.706   9.525  10.553  1.00  0.00    -0.401 OA
HETATM   20  H34 UNL     1     -16.194   9.081   9.856  1.00  0.00     0.209 HD
ENDBRANCH  18  19
ENDBRANCH  17  18
ENDBRANCH  16  17
ENDBRANCH   6  16
BRANCH  12  21
HETATM   21  O5  UNL     1     -13.216  11.301  13.862  1.00  0.00    -0.389 OA
HETATM   22  H46 UNL     1     -12.904  11.221  12.940  1.00  0.00     0.210 HD
ENDBRANCH  12  21
BRANCH   1  23
HETATM   23  C14 UNL     1      -9.679   6.553  13.573  1.00  0.00     0.011 C 
HETATM   24  C12 UNL     1      -8.888   6.098  12.576  1.00  0.00    -0.063 C 
HETATM   25  C13 UNL     1      -9.332   5.972  11.141  1.00  0.00     0.048 C 
BRANCH  24  26
HETATM   26  C11 UNL     1      -7.508   5.723  12.898  1.00  0.00     0.006 C 
HETATM   27  C10 UNL     1      -6.912   4.550  12.618  1.00  0.00     0.001 C 
BRANCH  27  28
HETATM   28  C9  UNL     1      -5.535   4.273  12.979  1.00  0.00     0.002 C 
HETATM   29  C7  UNL     1      -4.589   3.705  12.204  1.00  0.00    -0.084 C 
HETATM   30  C8  UNL     1      -4.776   3.225  10.787  1.00  0.00     0.043 C 
BRANCH  29  31
HETATM   31  C6  UNL     1      -3.190   3.491  12.759  1.00  0.00     0.037 C 
BRANCH  31  32
HETATM   32  C5  UNL     1      -2.409   4.802  12.899  1.00  0.00     0.031 C 
BRANCH  32  33
HETATM   33  C4  UNL     1      -1.226   4.838  11.968  1.00  0.00    -0.024 C 
HETATM   34  C2  UNL     1       0.035   5.219  12.248  1.00  0.00    -0.091 C 
HETATM   35  C1  UNL     1       0.512   5.739  13.575  1.00  0.00     0.042 C 
HETATM   36  C3  UNL     1       1.107   5.153  11.189  1.00  0.00     0.042 C 
ENDBRANCH  32  33
ENDBRANCH  31  32
ENDBRANCH  29  31
ENDBRANCH  27  28
ENDBRANCH  24  26
ENDBRANCH   1  23
BRANCH   8  37
HETATM   37  C26 UNL     1     -15.787   7.033  16.946  1.00  0.00     0.265 C 
HETATM   38  O4  UNL     1     -15.168   7.010  18.005  1.00  0.00    -0.302 OA
ENDBRANCH   8  37
TORSDOF 13
ENDMDL
MODEL 8
REMARK minimizedAffinity -7.4998436
REMARK  13 active torsions:
REMARK  status: ('A' for Active; 'I' for Inactive)
REMARK    1  A    between atoms: C4_4  and  C5_5 
REMARK    2  A    between atoms: C5_5  and  C6_6 
REMARK    3  A    between atoms: C6_6  and  C7_7 
REMARK    4  A    between atoms: C9_9  and  C10_10 
REMARK    5  A    between atoms: C11_11  and  C12_12 
REMARK    6  A    between atoms: C14_14  and  C15_15 
REMARK    7  A    between atoms: C18_18  and  O1_19 
REMARK    8  A    between atoms: C19_21  and  C20_22 
REMARK    9  A    between atoms: C20_22  and  C21_23 
REMARK   10  A    between atoms: C21_23  and  C22_24 
REMARK   11  A    between atoms: C22_24  and  O3_25 
REMARK   12  A    between atoms: C24_27  and  C26_29 
REMARK   13  A    between atoms: C29_33  and  O5_35 
ROOT
HETATM    1  C15 UNL     1       1.154   7.003  13.454  1.00  0.00     0.149 C 
HETATM    2  C16 UNL     1       1.461   8.480  13.133  1.00  0.00     0.054 C 
HETATM    3  C17 UNL     1       2.424   8.897  14.272  1.00  0.00     0.050 C 
HETATM    4  C18 UNL     1       1.738   8.095  15.392  1.00  0.00     0.270 C 
HETATM    5  O2  UNL     1       1.475   6.810  14.846  1.00  0.00    -0.351 OA
HETATM    6  C19 UNL     1       3.881   8.365  13.886  1.00  0.00     0.032 C 
HETATM    7  C23 UNL     1       4.473   9.213  12.735  1.00  0.00    -0.066 C 
HETATM    8  C24 UNL     1       4.898   8.669  11.565  1.00  0.00    -0.021 C 
HETATM    9  C25 UNL     1       4.902   7.196  11.242  1.00  0.00     0.052 C 
HETATM   10  C27 UNL     1       4.489  10.691  13.076  1.00  0.00     0.038 C 
HETATM   11  C28 UNL     1       3.087  11.200  13.400  1.00  0.00     0.042 C 
HETATM   12  C29 UNL     1       2.442  10.434  14.567  1.00  0.00     0.067 C 
HETATM   13  C30 UNL     1       1.071  11.073  14.857  1.00  0.00     0.047 C 
ENDROOT
BRANCH   4  14
HETATM   14  O1  UNL     1       2.493   8.009  16.572  1.00  0.00    -0.370 OA
HETATM   15  H26 UNL     1       2.002   7.375  17.126  1.00  0.00     0.212 HD
ENDBRANCH   4  14
BRANCH   6  16
HETATM   16  C20 UNL     1       4.943   8.236  15.012  1.00  0.00     0.012 C 
BRANCH  16  17
HETATM   17  C21 UNL     1       6.338   8.680  14.549  1.00  0.00     0.027 C 
BRANCH  17  18
HETATM   18  C22 UNL     1       7.242   7.486  14.279  1.00  0.00     0.164 C 
BRANCH  18  19
HETATM   19  O3  UNL     1       6.482   6.284  14.304  1.00  0.00    -0.401 OA
HETATM   20  H34 UNL     1       5.780   6.370  13.636  1.00  0.00     0.209 HD
ENDBRANCH  18  19
ENDBRANCH  17  18
ENDBRANCH  16  17
ENDBRANCH   6  16
BRANCH  12  21
HETATM   21  O5  UNL     1       3.231  10.714  15.732  1.00  0.00    -0.389 OA
HETATM   22  H46 UNL     1       3.016  10.053  16.418  1.00  0.00     0.210 HD
ENDBRANCH  12  21
BRANCH   1  23
HETATM   23  C14 UNL     1      -0.290   6.640  13.254  1.00  0.00     0.011 C 
HETATM   24  C12 UNL     1      -0.800   5.602  12.554  1.00  0.00    -0.063 C 
HETATM   25  C13 UNL     1       0.040   4.559  11.862  1.00  0.00     0.048 C 
BRANCH  24  26
HETATM   26  C11 UNL     1      -2.258   5.465  12.477  1.00  0.00     0.006 C 
HETATM   27  C10 UNL     1      -3.026   4.656  13.230  1.00  0.00     0.001 C 
BRANCH  27  28
HETATM   28  C9  UNL     1      -4.466   4.591  13.079  1.00  0.00     0.002 C 
HETATM   29  C7  UNL     1      -5.168   3.716  12.331  1.00  0.00    -0.084 C 
HETATM   30  C8  UNL     1      -4.588   2.618  11.477  1.00  0.00     0.043 C 
BRANCH  29  31
HETATM   31  C6  UNL     1      -6.685   3.803  12.296  1.00  0.00     0.037 C 
BRANCH  31  32
HETATM   32  C5  UNL     1      -7.296   3.934  13.695  1.00  0.00     0.031 C 
BRANCH  32  33
HETATM   33  C4  UNL     1      -7.930   5.286  13.893  1.00  0.00    -0.024 C 
HETATM   34  C2  UNL     1      -7.792   6.118  14.942  1.00  0.00    -0.091 C 
HETATM   35  C1  UNL     1      -6.985   5.833  16.178  1.00  0.00     0.042 C 
HETATM   36  C3  UNL     1      -8.481   7.460  14.950  1.00  0.00     0.042 C 
ENDBRANCH  32  33
ENDBRANCH  31  32
ENDBRANCH  29  31
ENDBRANCH  27  28
ENDBRANCH  24  26
ENDBRANCH   1  23
BRANCH   8  37
HETATM   37  C26 UNL     1       5.439   9.502  10.441  1.00  0.00     0.265 C 
HETATM   38  O4  UNL     1       6.347  10.313  10.596  1.00  0.00    -0.302 OA
ENDBRANCH   8  37
TORSDOF 13
ENDMDL
MODEL 9
REMARK minimizedAffinity -7.17889118
REMARK  13 active torsions:
REMARK  status: ('A' for Active; 'I' for Inactive)
REMARK    1  A    between atoms: C4_4  and  C5_5 
REMARK    2  A    between atoms: C5_5  and  C6_6 
REMARK    3  A    between atoms: C6_6  and  C7_7 
REMARK    4  A    between atoms: C9_9  and  C10_10 
REMARK    5  A    between atoms: C11_11  and  C12_12 
REMARK    6  A    between atoms: C14_14  and  C15_15 
REMARK    7  A    between atoms: C18_18  and  O1_19 
REMARK    8  A    between atoms: C19_21  and  C20_22 
REMARK    9  A    between atoms: C20_22  and  C21_23 
REMARK   10  A    between atoms: C21_23  and  C22_24 
REMARK   11  A    between atoms: C22_24  and  O3_25 
REMARK   12  A    between atoms: C24_27  and  C26_29 
REMARK   13  A    between atoms: C29_33  and  O5_35 
ROOT
HETATM    1  C15 UNL     1       1.973   9.304  14.523  1.00  0.00     0.149 C 
HETATM    2  C16 UNL     1       1.767   7.793  14.289  1.00  0.00     0.054 C 
HETATM    3  C17 UNL     1       0.552   7.746  13.330  1.00  0.00     0.050 C 
HETATM    4  C18 UNL     1      -0.223   8.914  13.961  1.00  0.00     0.270 C 
HETATM    5  O2  UNL     1       0.731   9.946  14.173  1.00  0.00    -0.351 OA
HETATM    6  C19 UNL     1       1.095   8.042  11.855  1.00  0.00     0.032 C 
HETATM    7  C23 UNL     1       1.885   6.823  11.320  1.00  0.00    -0.066 C 
HETATM    8  C24 UNL     1       3.170   6.913  10.888  1.00  0.00    -0.021 C 
HETATM    9  C25 UNL     1       3.978   8.184  10.822  1.00  0.00     0.052 C 
HETATM   10  C27 UNL     1       1.058   5.552  11.367  1.00  0.00     0.038 C 
HETATM   11  C28 UNL     1       0.581   5.253  12.786  1.00  0.00     0.042 C 
HETATM   12  C29 UNL     1      -0.252   6.403  13.378  1.00  0.00     0.067 C 
HETATM   13  C30 UNL     1      -0.741   5.970  14.771  1.00  0.00     0.047 C 
ENDROOT
BRANCH   4  14
HETATM   14  O1  UNL     1      -1.304   9.363  13.185  1.00  0.00    -0.370 OA
HETATM   15  H26 UNL     1      -1.606  10.171  13.637  1.00  0.00     0.212 HD
ENDBRANCH   4  14
BRANCH   6  16
HETATM   16  C20 UNL     1       0.080   8.496  10.772  1.00  0.00     0.012 C 
BRANCH  16  17
HETATM   17  C21 UNL     1       0.151   7.628   9.508  1.00  0.00     0.027 C 
BRANCH  17  18
HETATM   18  C22 UNL     1       0.436   8.466   8.269  1.00  0.00     0.164 C 
BRANCH  18  19
HETATM   19  O3  UNL     1       1.838   8.527   8.037  1.00  0.00    -0.401 OA
HETATM   20  H34 UNL     1       2.158   7.614   7.942  1.00  0.00     0.209 HD
ENDBRANCH  18  19
ENDBRANCH  17  18
ENDBRANCH  16  17
ENDBRANCH   6  16
BRANCH  12  21
HETATM   21  O5  UNL     1      -1.443   6.501  12.584  1.00  0.00    -0.389 OA
HETATM   22  H46 UNL     1      -1.861   7.366  12.759  1.00  0.00     0.210 HD
ENDBRANCH  12  21
BRANCH   1  23
HETATM   23  C14 UNL     1       2.288   9.646  15.951  1.00  0.00     0.011 C 
HETATM   24  C12 UNL     1       2.654  10.842  16.462  1.00  0.00    -0.063 C 
HETATM   25  C13 UNL     1       2.767  12.106  15.647  1.00  0.00     0.048 C 
BRANCH  24  26
HETATM   26  C11 UNL     1       2.938  10.929  17.897  1.00  0.00     0.006 C 
HETATM   27  C10 UNL     1       2.107  10.590  18.899  1.00  0.00     0.001 C 
BRANCH  27  28
HETATM   28  C9  UNL     1       2.481  10.712  20.294  1.00  0.00     0.002 C 
HETATM   29  C7  UNL     1       2.291  11.777  21.098  1.00  0.00    -0.084 C 
HETATM   30  C8  UNL     1       1.653  13.083  20.701  1.00  0.00     0.043 C 
BRANCH  29  31
HETATM   31  C6  UNL     1       2.756  11.720  22.545  1.00  0.00     0.037 C 
BRANCH  31  32
HETATM   32  C5  UNL     1       3.604  10.478  22.839  1.00  0.00     0.031 C 
BRANCH  32  33
HETATM   33  C4  UNL     1       5.071  10.815  22.886  1.00  0.00    -0.024 C 
HETATM   34  C2  UNL     1       5.638  12.035  22.964  1.00  0.00    -0.091 C 
HETATM   35  C1  UNL     1       4.892  13.340  22.976  1.00  0.00     0.042 C 
HETATM   36  C3  UNL     1       7.137  12.179  23.039  1.00  0.00     0.042 C 
ENDBRANCH  32  33
ENDBRANCH  31  32
ENDBRANCH  29  31
ENDBRANCH  27  28
ENDBRANCH  24  26
ENDBRANCH   1  23
BRANCH   8  37
HETATM   37  C26 UNL     1       3.940   5.720  10.404  1.00  0.00     0.265 C 
HETATM   38  O4  UNL     1       3.894   5.331   9.240  1.00  0.00    -0.302 OA
ENDBRANCH   8  37
TORSDOF 13
ENDMDL
