MODEL 1
REMARK minimizedAffinity -6.57978535
REMARK CNNscore 0.705972075
REMARK CNNaffinity 6.15638113
REMARK  6 active torsions:
REMARK  status: ('A' for Active; 'I' for Inactive)
REMARK    1  A    between atoms: O1_2  and  C2_3 
REMARK    2  A    between atoms: C17_20  and  C18_21 
REMARK    3  A    between atoms: C22_27  and  O6_28 
REMARK    4  A    between atoms: O6_28  and  C23_29 
REMARK    5  A    between atoms: C26_33  and  O8_34 
REMARK    6  A    between atoms: C31_40  and  O10_41 
ROOT
HETATM    1  C2  UNL     1      -7.989  47.387 -26.346  1.00  0.00     0.190 C 
HETATM    2  C3  UNL     1      -6.628  47.721 -26.980  1.00  0.00     0.064 C 
HETATM    3  C4  UNL     1      -6.641  47.627 -28.504  1.00  0.00     0.174 C 
HETATM    4  O2  UNL     1      -7.520  46.609 -28.965  1.00  0.00    -0.356 OA
HETATM    5  C5  UNL     1      -8.895  46.869 -28.662  1.00  0.00     0.325 C 
HETATM    6  O3  UNL     1      -9.590  45.625 -28.589  1.00  0.00    -0.344 OA
HETATM    7  C6  UNL     1     -11.002  45.826 -28.531  1.00  0.00     0.177 C 
HETATM    8  C7  UNL     1     -11.632  44.517 -28.161  1.00  0.00     0.011 C 
HETATM    9  C8  UNL     1     -12.847  44.425 -27.589  1.00  0.00    -0.072 C 
HETATM   10  C9  UNL     1     -13.396  43.086 -27.174  1.00  0.00     0.035 C 
HETATM   11  C10 UNL     1     -14.922  42.964 -27.097  1.00  0.00     0.012 C 
HETATM   12  C11 UNL     1     -15.705  44.242 -26.713  1.00  0.00     0.026 C 
HETATM   13  C12 UNL     1     -14.763  45.367 -26.216  1.00  0.00     0.005 C 
HETATM   14  C13 UNL     1     -14.229  45.058 -24.795  1.00  0.00     0.007 C 
HETATM   15  C14 UNL     1     -15.081  44.064 -24.002  1.00  0.00     0.013 C 
HETATM   16  C15 UNL     1     -16.606  44.235 -24.226  1.00  0.00    -0.003 C 
HETATM   17  C16 UNL     1     -17.004  45.606 -23.627  1.00  0.00     0.019 C 
HETATM   18  C17 UNL     1     -17.356  43.043 -23.523  1.00  0.00     0.058 C 
HETATM   19  C22 UNL     1     -17.378  41.954 -24.620  1.00  0.00     0.143 C 
HETATM   20  C25 UNL     1     -17.679  42.724 -25.901  1.00  0.00     0.072 C 
HETATM   21  C26 UNL     1     -16.935  44.068 -25.757  1.00  0.00     0.072 C 
HETATM   22  C27 UNL     1     -13.643  45.681 -27.273  1.00  0.00    -0.014 C 
HETATM   23  C28 UNL     1     -14.303  46.212 -28.575  1.00  0.00     0.020 C 
HETATM   24  C29 UNL     1     -12.663  46.759 -26.744  1.00  0.00     0.049 C 
HETATM   25  C30 UNL     1     -11.428  47.029 -27.633  1.00  0.00     0.159 C 
HETATM   26  O9  UNL     1     -10.399  47.478 -26.738  1.00  0.00    -0.341 OA
HETATM   27  C31 UNL     1      -9.130  47.700 -27.354  1.00  0.00     0.240 C 
ENDROOT
BRANCH  18  28
HETATM   28  C18 UNL     1     -18.708  43.342 -22.910  1.00  0.00    -0.043 A 
HETATM   29  C19 UNL     1     -19.873  43.235 -23.552  1.00  0.00     0.087 A 
HETATM   30  C20 UNL     1     -20.924  43.618 -22.615  1.00  0.00     0.283 A 
HETATM   31  O4  UNL     1     -22.114  43.637 -22.872  1.00  0.00    -0.260 OA
HETATM   32  O5  UNL     1     -20.358  43.949 -21.425  1.00  0.00    -0.314 OA
HETATM   33  C21 UNL     1     -18.939  43.819 -21.526  1.00  0.00     0.214 A 
ENDBRANCH  18  28
BRANCH  19  34
HETATM   34  O6  UNL     1     -18.361  40.933 -24.416  1.00  0.00    -0.316 OA
BRANCH  34  35
HETATM   35  C23 UNL     1     -18.259  39.861 -25.252  1.00  0.00     0.255 C 
HETATM   36  C24 UNL     1     -16.930  39.192 -25.075  1.00  0.00     0.126 C 
HETATM   37  O7  UNL     1     -19.129  39.480 -26.023  1.00  0.00    -0.266 OA
ENDBRANCH  34  35
ENDBRANCH  19  34
BRANCH  21  38
HETATM   38  O8  UNL     1     -17.887  45.086 -26.121  1.00  0.00    -0.389 OA
HETATM   39  H35 UNL     1     -18.136  44.956 -27.054  1.00  0.00     0.210 HD
ENDBRANCH  21  38
BRANCH  27  40
HETATM   40  O10 UNL     1      -9.067  49.111 -27.630  1.00  0.00    -0.360 OA
HETATM   41  H42 UNL     1      -9.746  49.295 -28.296  1.00  0.00     0.213 HD
ENDBRANCH  27  40
BRANCH   1  42
HETATM   42  O1  UNL     1      -7.922  46.005 -25.945  1.00  0.00    -0.385 OA
HETATM   43  C1  UNL     1      -8.181  45.786 -24.565  1.00  0.00     0.202 C 
ENDBRANCH   1  42
TORSDOF 6
ENDMDL
MODEL 2
REMARK minimizedAffinity -6.99443722
REMARK CNNscore 0.691822171
REMARK CNNaffinity 6.42088652
REMARK  6 active torsions:
REMARK  status: ('A' for Active; 'I' for Inactive)
REMARK    1  A    between atoms: O1_2  and  C2_3 
REMARK    2  A    between atoms: C17_20  and  C18_21 
REMARK    3  A    between atoms: C22_27  and  O6_28 
REMARK    4  A    between atoms: O6_28  and  C23_29 
REMARK    5  A    between atoms: C26_33  and  O8_34 
REMARK    6  A    between atoms: C31_40  and  O10_41 
ROOT
HETATM    1  C2  UNL     1      10.247  59.769  -5.147  1.00  0.00     0.190 C 
HETATM    2  C3  UNL     1      10.918  60.832  -4.260  1.00  0.00     0.064 C 
HETATM    3  C4  UNL     1      10.175  61.068  -2.946  1.00  0.00     0.174 C 
HETATM    4  O2  UNL     1       8.771  60.909  -3.095  1.00  0.00    -0.356 OA
HETATM    5  C5  UNL     1       8.385  59.571  -3.429  1.00  0.00     0.325 C 
HETATM    6  O3  UNL     1       7.142  59.614  -4.128  1.00  0.00    -0.344 OA
HETATM    7  C6  UNL     1       6.587  58.307  -4.276  1.00  0.00     0.177 C 
HETATM    8  C7  UNL     1       5.460  58.400  -5.259  1.00  0.00     0.011 C 
HETATM    9  C8  UNL     1       5.015  57.345  -5.966  1.00  0.00    -0.072 C 
HETATM   10  C9  UNL     1       3.927  57.517  -6.992  1.00  0.00     0.035 C 
HETATM   11  C10 UNL     1       3.084  56.278  -7.312  1.00  0.00     0.012 C 
HETATM   12  C11 UNL     1       3.789  54.906  -7.196  1.00  0.00     0.026 C 
HETATM   13  C12 UNL     1       5.321  55.058  -7.024  1.00  0.00     0.005 C 
HETATM   14  C13 UNL     1       5.990  55.485  -8.355  1.00  0.00     0.007 C 
HETATM   15  C14 UNL     1       5.165  55.173  -9.605  1.00  0.00     0.013 C 
HETATM   16  C15 UNL     1       4.407  53.823  -9.530  1.00  0.00    -0.003 C 
HETATM   17  C16 UNL     1       5.473  52.700  -9.514  1.00  0.00     0.019 C 
HETATM   18  C17 UNL     1       3.449  53.710 -10.773  1.00  0.00     0.058 C 
HETATM   19  C22 UNL     1       2.155  54.396 -10.276  1.00  0.00     0.143 C 
HETATM   20  C25 UNL     1       2.008  53.911  -8.838  1.00  0.00     0.072 C 
HETATM   21  C26 UNL     1       3.444  53.829  -8.282  1.00  0.00     0.072 C 
HETATM   22  C27 UNL     1       5.668  55.981  -5.801  1.00  0.00    -0.014 C 
HETATM   23  C28 UNL     1       5.150  55.319  -4.496  1.00  0.00     0.020 C 
HETATM   24  C29 UNL     1       7.199  56.187  -5.673  1.00  0.00     0.049 C 
HETATM   25  C30 UNL     1       7.646  57.209  -4.604  1.00  0.00     0.159 C 
HETATM   26  O9  UNL     1       8.899  57.733  -5.070  1.00  0.00    -0.341 OA
HETATM   27  C31 UNL     1       9.448  58.773  -4.261  1.00  0.00     0.240 C 
ENDROOT
BRANCH  18  28
HETATM   28  C18 UNL     1       3.240  52.332 -11.363  1.00  0.00    -0.043 A 
HETATM   29  C19 UNL     1       3.258  51.196 -10.664  1.00  0.00     0.087 A 
HETATM   30  C20 UNL     1       3.023  50.103 -11.602  1.00  0.00     0.283 A 
HETATM   31  O4  UNL     1       2.977  48.924 -11.300  1.00  0.00    -0.260 OA
HETATM   32  O5  UNL     1       2.871  50.615 -12.851  1.00  0.00    -0.314 OA
HETATM   33  C21 UNL     1       3.012  52.036 -12.798  1.00  0.00     0.214 A 
ENDBRANCH  18  28
BRANCH  19  34
HETATM   34  O6  UNL     1       0.986  54.064 -11.032  1.00  0.00    -0.316 OA
BRANCH  34  35
HETATM   35  C23 UNL     1      -0.152  53.915 -10.296  1.00  0.00     0.255 C 
HETATM   36  C24 UNL     1      -0.850  55.232 -10.151  1.00  0.00     0.126 C 
HETATM   37  O7  UNL     1      -0.561  52.859  -9.833  1.00  0.00    -0.266 OA
ENDBRANCH  34  35
ENDBRANCH  19  34
BRANCH  21  38
HETATM   38  O8  UNL     1       3.544  52.545  -7.637  1.00  0.00    -0.389 OA
HETATM   39  H35 UNL     1       2.913  52.523  -6.896  1.00  0.00     0.210 HD
ENDBRANCH  21  38
BRANCH  27  40
HETATM   40  O10 UNL     1      10.400  58.134  -3.390  1.00  0.00    -0.360 OA
HETATM   41  H42 UNL     1       9.894  57.551  -2.805  1.00  0.00     0.213 HD
ENDBRANCH  27  40
BRANCH   1  42
HETATM   42  O1  UNL     1       9.438  60.487  -6.099  1.00  0.00    -0.385 OA
HETATM   43  C1  UNL     1       9.891  61.806  -6.370  1.00  0.00     0.202 C 
ENDBRANCH   1  42
TORSDOF 6
ENDMDL
MODEL 3
REMARK minimizedAffinity -7.61430693
REMARK CNNscore 0.644227684
REMARK CNNaffinity 6.03418112
REMARK  6 active torsions:
REMARK  status: ('A' for Active; 'I' for Inactive)
REMARK    1  A    between atoms: O1_2  and  C2_3 
REMARK    2  A    between atoms: C17_20  and  C18_21 
REMARK    3  A    between atoms: C22_27  and  O6_28 
REMARK    4  A    between atoms: O6_28  and  C23_29 
REMARK    5  A    between atoms: C26_33  and  O8_34 
REMARK    6  A    between atoms: C31_40  and  O10_41 
ROOT
HETATM    1  C2  UNL     1      -7.631  43.620 -30.004  1.00  0.00     0.190 C 
HETATM    2  C3  UNL     1      -6.651  43.558 -31.187  1.00  0.00     0.064 C 
HETATM    3  C4  UNL     1      -6.787  44.747 -32.137  1.00  0.00     0.174 C 
HETATM    4  O2  UNL     1      -8.129  45.207 -32.222  1.00  0.00    -0.356 OA
HETATM    5  C5  UNL     1      -8.623  45.742 -30.989  1.00  0.00     0.325 C 
HETATM    6  O3  UNL     1     -10.043  45.608 -30.969  1.00  0.00    -0.344 OA
HETATM    7  C6  UNL     1     -10.614  46.336 -29.882  1.00  0.00     0.177 C 
HETATM    8  C7  UNL     1     -12.046  45.912 -29.753  1.00  0.00     0.011 C 
HETATM    9  C8  UNL     1     -12.746  46.032 -28.610  1.00  0.00    -0.072 C 
HETATM   10  C9  UNL     1     -14.159  45.521 -28.521  1.00  0.00     0.035 C 
HETATM   11  C10 UNL     1     -15.064  46.181 -27.475  1.00  0.00     0.012 C 
HETATM   12  C11 UNL     1     -14.378  46.702 -26.190  1.00  0.00     0.026 C 
HETATM   13  C12 UNL     1     -12.910  46.217 -26.083  1.00  0.00     0.005 C 
HETATM   14  C13 UNL     1     -12.846  44.714 -25.716  1.00  0.00     0.007 C 
HETATM   15  C14 UNL     1     -14.113  44.170 -25.053  1.00  0.00     0.013 C 
HETATM   16  C15 UNL     1     -14.778  45.169 -24.071  1.00  0.00    -0.003 C 
HETATM   17  C16 UNL     1     -13.804  45.358 -22.883  1.00  0.00     0.019 C 
HETATM   18  C17 UNL     1     -16.163  44.579 -23.611  1.00  0.00     0.058 C 
HETATM   19  C22 UNL     1     -17.136  45.094 -24.698  1.00  0.00     0.143 C 
HETATM   20  C25 UNL     1     -16.680  46.526 -24.954  1.00  0.00     0.072 C 
HETATM   21  C26 UNL     1     -15.143  46.497 -24.837  1.00  0.00     0.072 C 
HETATM   22  C27 UNL     1     -12.088  46.606 -27.364  1.00  0.00    -0.014 C 
HETATM   23  C28 UNL     1     -12.025  48.153 -27.484  1.00  0.00     0.020 C 
HETATM   24  C29 UNL     1     -10.639  46.062 -27.285  1.00  0.00     0.049 C 
HETATM   25  C30 UNL     1      -9.788  46.243 -28.562  1.00  0.00     0.159 C 
HETATM   26  O9  UNL     1      -8.836  45.169 -28.548  1.00  0.00    -0.341 OA
HETATM   27  C31 UNL     1      -7.999  45.100 -29.702  1.00  0.00     0.240 C 
ENDROOT
BRANCH  18  28
HETATM   28  C18 UNL     1     -16.601  44.869 -22.191  1.00  0.00    -0.043 A 
HETATM   29  C19 UNL     1     -16.896  46.082 -21.720  1.00  0.00     0.087 A 
HETATM   30  C20 UNL     1     -17.263  45.927 -20.316  1.00  0.00     0.283 A 
HETATM   31  O4  UNL     1     -17.589  46.838 -19.577  1.00  0.00    -0.260 OA
HETATM   32  O5  UNL     1     -17.177  44.615 -19.977  1.00  0.00    -0.314 OA
HETATM   33  C21 UNL     1     -16.743  43.863 -21.112  1.00  0.00     0.214 A 
ENDBRANCH  18  28
BRANCH  19  34
HETATM   34  O6  UNL     1     -18.513  45.075 -24.311  1.00  0.00    -0.316 OA
BRANCH  34  35
HETATM   35  C23 UNL     1     -19.384  45.521 -25.260  1.00  0.00     0.255 C 
HETATM   36  C24 UNL     1     -19.416  44.570 -26.418  1.00  0.00     0.126 C 
HETATM   37  O7  UNL     1     -20.060  46.537 -25.179  1.00  0.00    -0.266 OA
ENDBRANCH  34  35
ENDBRANCH  19  34
BRANCH  21  38
HETATM   38  O8  UNL     1     -14.791  47.608 -23.992  1.00  0.00    -0.389 OA
HETATM   39  H35 UNL     1     -15.062  48.432 -24.436  1.00  0.00     0.210 HD
ENDBRANCH  21  38
BRANCH  27  40
HETATM   40  O10 UNL     1      -6.775  45.768 -29.343  1.00  0.00    -0.360 OA
HETATM   41  H42 UNL     1      -6.998  46.701 -29.204  1.00  0.00     0.213 HD
ENDBRANCH  27  40
BRANCH   1  42
HETATM   42  O1  UNL     1      -8.757  42.797 -30.365  1.00  0.00    -0.385 OA
HETATM   43  C1  UNL     1      -8.471  41.824 -31.359  1.00  0.00     0.202 C 
ENDBRANCH   1  42
TORSDOF 6
ENDMDL
MODEL 4
REMARK minimizedAffinity -8.48825836
REMARK CNNscore 0.612177491
REMARK CNNaffinity 5.97282219
REMARK  6 active torsions:
REMARK  status: ('A' for Active; 'I' for Inactive)
REMARK    1  A    between atoms: O1_2  and  C2_3 
REMARK    2  A    between atoms: C17_20  and  C18_21 
REMARK    3  A    between atoms: C22_27  and  O6_28 
REMARK    4  A    between atoms: O6_28  and  C23_29 
REMARK    5  A    between atoms: C26_33  and  O8_34 
REMARK    6  A    between atoms: C31_40  and  O10_41 
ROOT
HETATM    1  C2  UNL     1      -7.815  46.538 -30.610  1.00  0.00     0.190 C 
HETATM    2  C3  UNL     1      -6.421  47.157 -30.811  1.00  0.00     0.064 C 
HETATM    3  C4  UNL     1      -5.760  47.577 -29.500  1.00  0.00     0.174 C 
HETATM    4  O2  UNL     1      -6.714  48.025 -28.545  1.00  0.00    -0.356 OA
HETATM    5  C5  UNL     1      -7.614  46.996 -28.119  1.00  0.00     0.325 C 
HETATM    6  O3  UNL     1      -8.831  47.602 -27.688  1.00  0.00    -0.344 OA
HETATM    7  C6  UNL     1      -9.673  46.656 -27.029  1.00  0.00     0.177 C 
HETATM    8  C7  UNL     1     -11.027  47.282 -26.877  1.00  0.00     0.011 C 
HETATM    9  C8  UNL     1     -12.154  46.562 -26.725  1.00  0.00    -0.072 C 
HETATM   10  C9  UNL     1     -13.493  47.246 -26.650  1.00  0.00     0.035 C 
HETATM   11  C10 UNL     1     -14.607  46.495 -25.914  1.00  0.00     0.012 C 
HETATM   12  C11 UNL     1     -14.562  44.949 -25.972  1.00  0.00     0.026 C 
HETATM   13  C12 UNL     1     -13.522  44.442 -27.002  1.00  0.00     0.005 C 
HETATM   14  C13 UNL     1     -14.024  44.654 -28.451  1.00  0.00     0.007 C 
HETATM   15  C14 UNL     1     -15.542  44.808 -28.577  1.00  0.00     0.013 C 
HETATM   16  C15 UNL     1     -16.342  43.890 -27.618  1.00  0.00    -0.003 C 
HETATM   17  C16 UNL     1     -16.091  42.430 -28.067  1.00  0.00     0.019 C 
HETATM   18  C17 UNL     1     -17.865  44.279 -27.699  1.00  0.00     0.058 C 
HETATM   19  C22 UNL     1     -17.993  45.398 -26.639  1.00  0.00     0.143 C 
HETATM   20  C25 UNL     1     -17.133  44.908 -25.478  1.00  0.00     0.072 C 
HETATM   21  C26 UNL     1     -15.929  44.198 -26.128  1.00  0.00     0.072 C 
HETATM   22  C27 UNL     1     -12.098  45.042 -26.717  1.00  0.00    -0.014 C 
HETATM   23  C28 UNL     1     -11.605  44.555 -25.327  1.00  0.00     0.020 C 
HETATM   24  C29 UNL     1     -11.075  44.587 -27.788  1.00  0.00     0.049 C 
HETATM   25  C30 UNL     1      -9.681  45.248 -27.700  1.00  0.00     0.159 C 
HETATM   26  O9  UNL     1      -9.165  45.241 -29.041  1.00  0.00    -0.341 OA
HETATM   27  C31 UNL     1      -7.906  45.896 -29.198  1.00  0.00     0.240 C 
ENDROOT
BRANCH  18  28
HETATM   28  C18 UNL     1     -18.873  43.160 -27.552  1.00  0.00    -0.043 A 
HETATM   29  C19 UNL     1     -19.743  42.793 -28.496  1.00  0.00     0.087 A 
HETATM   30  C20 UNL     1     -20.532  41.691 -27.956  1.00  0.00     0.283 A 
HETATM   31  O4  UNL     1     -21.423  41.114 -28.553  1.00  0.00    -0.260 OA
HETATM   32  O5  UNL     1     -20.115  41.423 -26.691  1.00  0.00    -0.314 OA
HETATM   33  C21 UNL     1     -19.066  42.328 -26.341  1.00  0.00     0.214 A 
ENDBRANCH  18  28
BRANCH  19  34
HETATM   34  O6  UNL     1     -19.332  45.637 -26.195  1.00  0.00    -0.316 OA
BRANCH  34  35
HETATM   35  C23 UNL     1     -19.435  46.284 -24.999  1.00  0.00     0.255 C 
HETATM   36  C24 UNL     1     -19.980  45.358 -23.956  1.00  0.00     0.126 C 
HETATM   37  O7  UNL     1     -19.113  47.446 -24.793  1.00  0.00    -0.266 OA
ENDBRANCH  34  35
ENDBRANCH  19  34
BRANCH  21  38
HETATM   38  O8  UNL     1     -15.791  42.942 -25.437  1.00  0.00    -0.389 OA
HETATM   39  H35 UNL     1     -15.587  43.126 -24.502  1.00  0.00     0.210 HD
ENDBRANCH  21  38
BRANCH  27  40
HETATM   40  O10 UNL     1      -6.912  44.857 -29.147  1.00  0.00    -0.360 OA
HETATM   41  H42 UNL     1      -6.936  44.491 -28.250  1.00  0.00     0.213 HD
ENDBRANCH  27  40
BRANCH   1  42
HETATM   42  O1  UNL     1      -8.766  47.596 -30.837  1.00  0.00    -0.385 OA
HETATM   43  C1  UNL     1      -8.407  48.487 -31.884  1.00  0.00     0.202 C 
ENDBRANCH   1  42
TORSDOF 6
ENDMDL
MODEL 5
REMARK minimizedAffinity -7.71453476
REMARK CNNscore 0.577242732
REMARK CNNaffinity 6.23010063
REMARK  6 active torsions:
REMARK  status: ('A' for Active; 'I' for Inactive)
REMARK    1  A    between atoms: O1_2  and  C2_3 
REMARK    2  A    between atoms: C17_20  and  C18_21 
REMARK    3  A    between atoms: C22_27  and  O6_28 
REMARK    4  A    between atoms: O6_28  and  C23_29 
REMARK    5  A    between atoms: C26_33  and  O8_34 
REMARK    6  A    between atoms: C31_40  and  O10_41 
ROOT
HETATM    1  C2  UNL     1      -2.211  51.380  -9.695  1.00  0.00     0.190 C 
HETATM    2  C3  UNL     1      -3.588  51.128 -10.333  1.00  0.00     0.064 C 
HETATM    3  C4  UNL     1      -4.002  52.226 -11.311  1.00  0.00     0.174 C 
HETATM    4  O2  UNL     1      -3.516  53.501 -10.914  1.00  0.00    -0.356 OA
HETATM    5  C5  UNL     1      -2.087  53.594 -10.936  1.00  0.00     0.325 C 
HETATM    6  O3  UNL     1      -1.679  54.593 -10.002  1.00  0.00    -0.344 OA
HETATM    7  C6  UNL     1      -0.293  54.902 -10.151  1.00  0.00     0.177 C 
HETATM    8  C7  UNL     1       0.120  55.720  -8.965  1.00  0.00     0.011 C 
HETATM    9  C8  UNL     1       1.394  55.806  -8.541  1.00  0.00    -0.072 C 
HETATM   10  C9  UNL     1       1.736  56.585  -7.300  1.00  0.00     0.035 C 
HETATM   11  C10 UNL     1       3.165  57.131  -7.204  1.00  0.00     0.012 C 
HETATM   12  C11 UNL     1       4.275  56.303  -7.893  1.00  0.00     0.026 C 
HETATM   13  C12 UNL     1       3.762  54.912  -8.341  1.00  0.00     0.005 C 
HETATM   14  C13 UNL     1       3.573  53.970  -7.126  1.00  0.00     0.007 C 
HETATM   15  C14 UNL     1       4.373  54.372  -5.885  1.00  0.00     0.013 C 
HETATM   16  C15 UNL     1       5.783  54.930  -6.208  1.00  0.00    -0.003 C 
HETATM   17  C16 UNL     1       6.609  53.765  -6.805  1.00  0.00     0.019 C 
HETATM   18  C17 UNL     1       6.423  55.487  -4.882  1.00  0.00     0.058 C 
HETATM   19  C22 UNL     1       5.919  56.949  -4.844  1.00  0.00     0.143 C 
HETATM   20  C25 UNL     1       6.024  57.415  -6.292  1.00  0.00     0.072 C 
HETATM   21  C26 UNL     1       5.650  56.188  -7.147  1.00  0.00     0.072 C 
HETATM   22  C27 UNL     1       2.495  55.042  -9.261  1.00  0.00    -0.014 C 
HETATM   23  C28 UNL     1       2.881  55.800 -10.560  1.00  0.00     0.020 C 
HETATM   24  C29 UNL     1       1.943  53.647  -9.653  1.00  0.00     0.049 C 
HETATM   25  C30 UNL     1       0.603  53.653 -10.421  1.00  0.00     0.159 C 
HETATM   26  O9  UNL     1      -0.031  52.405 -10.103  1.00  0.00    -0.341 OA
HETATM   27  C31 UNL     1      -1.340  52.245 -10.649  1.00  0.00     0.240 C 
ENDROOT
BRANCH  18  28
HETATM   28  C18 UNL     1       7.920  55.336  -4.719  1.00  0.00    -0.043 A 
HETATM   29  C19 UNL     1       8.832  56.048  -5.385  1.00  0.00     0.087 A 
HETATM   30  C20 UNL     1      10.146  55.594  -4.944  1.00  0.00     0.283 A 
HETATM   31  O4  UNL     1      11.207  56.030  -5.352  1.00  0.00    -0.260 OA
HETATM   32  O5  UNL     1       9.989  54.611  -4.019  1.00  0.00    -0.314 OA
HETATM   33  C21 UNL     1       8.595  54.367  -3.824  1.00  0.00     0.214 A 
ENDBRANCH  18  28
BRANCH  19  34
HETATM   34  O6  UNL     1       6.680  57.811  -3.991  1.00  0.00    -0.316 OA
BRANCH  34  35
HETATM   35  C23 UNL     1       6.252  59.105  -3.950  1.00  0.00     0.255 C 
HETATM   36  C24 UNL     1       7.374  60.032  -4.301  1.00  0.00     0.126 C 
HETATM   37  O7  UNL     1       5.113  59.464  -3.687  1.00  0.00    -0.266 OA
ENDBRANCH  34  35
ENDBRANCH  19  34
BRANCH  21  38
HETATM   38  O8  UNL     1       6.664  56.092  -8.165  1.00  0.00    -0.389 OA
HETATM   39  H35 UNL     1       6.622  56.892  -8.719  1.00  0.00     0.210 HD
ENDBRANCH  21  38
BRANCH  27  40
HETATM   40  O10 UNL     1      -1.173  51.489 -11.862  1.00  0.00    -0.360 OA
HETATM   41  H42 UNL     1      -0.672  52.050 -12.473  1.00  0.00     0.213 HD
ENDBRANCH  27  40
BRANCH   1  42
HETATM   42  O1  UNL     1      -2.461  51.988  -8.414  1.00  0.00    -0.385 OA
HETATM   43  C1  UNL     1      -1.513  51.647  -7.412  1.00  0.00     0.202 C 
ENDBRANCH   1  42
TORSDOF 6
ENDMDL
MODEL 6
REMARK minimizedAffinity -9.12353802
REMARK CNNscore 0.522046566
REMARK CNNaffinity 6.42300367
REMARK  6 active torsions:
REMARK  status: ('A' for Active; 'I' for Inactive)
REMARK    1  A    between atoms: O1_2  and  C2_3 
REMARK    2  A    between atoms: C17_20  and  C18_21 
REMARK    3  A    between atoms: C22_27  and  O6_28 
REMARK    4  A    between atoms: O6_28  and  C23_29 
REMARK    5  A    between atoms: C26_33  and  O8_34 
REMARK    6  A    between atoms: C31_40  and  O10_41 
ROOT
HETATM    1  C2  UNL     1      -8.643  46.709 -27.795  1.00  0.00     0.190 C 
HETATM    2  C3  UNL     1      -9.748  45.867 -28.455  1.00  0.00     0.064 C 
HETATM    3  C4  UNL     1     -10.827  45.419 -27.470  1.00  0.00     0.174 C 
HETATM    4  O2  UNL     1     -10.295  45.181 -26.174  1.00  0.00    -0.356 OA
HETATM    5  C5  UNL     1      -9.779  46.362 -25.548  1.00  0.00     0.325 C 
HETATM    6  O3  UNL     1      -8.776  45.980 -24.608  1.00  0.00    -0.344 OA
HETATM    7  C6  UNL     1      -8.397  47.081 -23.783  1.00  0.00     0.177 C 
HETATM    8  C7  UNL     1      -7.156  46.687 -23.042  1.00  0.00     0.011 C 
HETATM    9  C8  UNL     1      -6.285  47.584 -22.541  1.00  0.00    -0.072 C 
HETATM   10  C9  UNL     1      -5.018  47.126 -21.870  1.00  0.00     0.035 C 
HETATM   11  C10 UNL     1      -4.400  48.083 -20.845  1.00  0.00     0.012 C 
HETATM   12  C11 UNL     1      -4.608  49.596 -21.091  1.00  0.00     0.026 C 
HETATM   13  C12 UNL     1      -5.195  49.876 -22.497  1.00  0.00     0.005 C 
HETATM   14  C13 UNL     1      -4.126  49.667 -23.598  1.00  0.00     0.007 C 
HETATM   15  C14 UNL     1      -2.681  49.749 -23.100  1.00  0.00     0.013 C 
HETATM   16  C15 UNL     1      -2.458  50.832 -22.014  1.00  0.00    -0.003 C 
HETATM   17  C16 UNL     1      -2.683  52.208 -22.688  1.00  0.00     0.019 C 
HETATM   18  C17 UNL     1      -0.998  50.686 -21.445  1.00  0.00     0.058 C 
HETATM   19  C22 UNL     1      -1.174  49.661 -20.301  1.00  0.00     0.143 C 
HETATM   20  C25 UNL     1      -2.483  50.071 -19.635  1.00  0.00     0.072 C 
HETATM   21  C26 UNL     1      -3.398  50.545 -20.782  1.00  0.00     0.072 C 
HETATM   22  C27 UNL     1      -6.526  49.074 -22.728  1.00  0.00    -0.014 C 
HETATM   23  C28 UNL     1      -7.596  49.552 -21.710  1.00  0.00     0.020 C 
HETATM   24  C29 UNL     1      -7.075  49.302 -24.160  1.00  0.00     0.049 C 
HETATM   25  C30 UNL     1      -8.292  48.435 -24.552  1.00  0.00     0.159 C 
HETATM   26  O9  UNL     1      -8.216  48.286 -25.979  1.00  0.00    -0.341 OA
HETATM   27  C31 UNL     1      -9.212  47.433 -26.542  1.00  0.00     0.240 C 
ENDROOT
BRANCH  18  28
HETATM   28  C18 UNL     1      -0.281  51.956 -21.042  1.00  0.00    -0.043 A 
HETATM   29  C19 UNL     1       0.714  52.519 -21.732  1.00  0.00     0.087 A 
HETATM   30  C20 UNL     1       1.126  53.715 -21.005  1.00  0.00     0.283 A 
HETATM   31  O4  UNL     1       2.016  54.469 -21.353  1.00  0.00    -0.260 OA
HETATM   32  O5  UNL     1       0.365  53.840 -19.886  1.00  0.00    -0.314 OA
HETATM   33  C21 UNL     1      -0.554  52.747 -19.819  1.00  0.00     0.214 A 
ENDBRANCH  18  28
BRANCH  19  34
HETATM   34  O6  UNL     1      -0.112  49.661 -19.342  1.00  0.00    -0.316 OA
BRANCH  34  35
HETATM   35  C23 UNL     1      -0.494  49.406 -18.059  1.00  0.00     0.255 C 
HETATM   36  C24 UNL     1       0.130  50.398 -17.127  1.00  0.00     0.126 C 
HETATM   37  O7  UNL     1      -1.253  48.512 -17.711  1.00  0.00    -0.266 OA
ENDBRANCH  34  35
ENDBRANCH  19  34
BRANCH  21  38
HETATM   38  O8  UNL     1      -3.958  51.799 -20.348  1.00  0.00    -0.389 OA
HETATM   39  H35 UNL     1      -4.499  51.636 -19.554  1.00  0.00     0.210 HD
ENDBRANCH  21  38
BRANCH  27  40
HETATM   40  O10 UNL     1     -10.261  48.303 -27.005  1.00  0.00    -0.360 OA
HETATM   41  H42 UNL     1     -10.648  48.716 -26.218  1.00  0.00     0.213 HD
ENDBRANCH  27  40
BRANCH   1  42
HETATM   42  O1  UNL     1      -7.559  45.804 -27.508  1.00  0.00    -0.385 OA
HETATM   43  C1  UNL     1      -7.568  44.619 -28.291  1.00  0.00     0.202 C 
ENDBRANCH   1  42
TORSDOF 6
ENDMDL
MODEL 7
REMARK minimizedAffinity -7.49577618
REMARK CNNscore 0.499102175
REMARK CNNaffinity 6.57193565
REMARK  6 active torsions:
REMARK  status: ('A' for Active; 'I' for Inactive)
REMARK    1  A    between atoms: O1_2  and  C2_3 
REMARK    2  A    between atoms: C17_20  and  C18_21 
REMARK    3  A    between atoms: C22_27  and  O6_28 
REMARK    4  A    between atoms: O6_28  and  C23_29 
REMARK    5  A    between atoms: C26_33  and  O8_34 
REMARK    6  A    between atoms: C31_40  and  O10_41 
ROOT
HETATM    1  C2  UNL     1       8.037  54.145  -3.926  1.00  0.00     0.190 C 
HETATM    2  C3  UNL     1       9.414  54.494  -3.335  1.00  0.00     0.064 C 
HETATM    3  C4  UNL     1       9.967  55.820  -3.853  1.00  0.00     0.174 C 
HETATM    4  O2  UNL     1       9.577  56.068  -5.197  1.00  0.00    -0.356 OA
HETATM    5  C5  UNL     1       8.165  56.242  -5.355  1.00  0.00     0.325 C 
HETATM    6  O3  UNL     1       7.805  55.883  -6.688  1.00  0.00    -0.344 OA
HETATM    7  C6  UNL     1       6.460  56.262  -6.979  1.00  0.00     0.177 C 
HETATM    8  C7  UNL     1       6.069  55.597  -8.264  1.00  0.00     0.011 C 
HETATM    9  C8  UNL     1       4.790  55.358  -8.606  1.00  0.00    -0.072 C 
HETATM   10  C9  UNL     1       4.463  54.621  -9.877  1.00  0.00     0.035 C 
HETATM   11  C10 UNL     1       3.085  54.890 -10.492  1.00  0.00     0.012 C 
HETATM   12  C11 UNL     1       1.938  55.228  -9.510  1.00  0.00     0.026 C 
HETATM   13  C12 UNL     1       2.345  54.972  -8.038  1.00  0.00     0.005 C 
HETATM   14  C13 UNL     1       2.396  53.455  -7.729  1.00  0.00     0.007 C 
HETATM   15  C14 UNL     1       1.579  52.588  -8.690  1.00  0.00     0.013 C 
HETATM   16  C15 UNL     1       0.240  53.235  -9.127  1.00  0.00    -0.003 C 
HETATM   17  C16 UNL     1      -0.658  53.319  -7.869  1.00  0.00     0.019 C 
HETATM   18  C17 UNL     1      -0.406  52.348 -10.255  1.00  0.00     0.058 C 
HETATM   19  C22 UNL     1       0.222  52.921 -11.547  1.00  0.00     0.143 C 
HETATM   20  C25 UNL     1       0.224  54.429 -11.322  1.00  0.00     0.072 C 
HETATM   21  C26 UNL     1       0.526  54.620  -9.822  1.00  0.00     0.072 C 
HETATM   22  C27 UNL     1       3.659  55.751  -7.667  1.00  0.00    -0.014 C 
HETATM   23  C28 UNL     1       3.400  57.278  -7.785  1.00  0.00     0.020 C 
HETATM   24  C29 UNL     1       4.102  55.440  -6.215  1.00  0.00     0.049 C 
HETATM   25  C30 UNL     1       5.471  56.023  -5.797  1.00  0.00     0.159 C 
HETATM   26  O9  UNL     1       5.977  55.136  -4.787  1.00  0.00    -0.341 OA
HETATM   27  C31 UNL     1       7.290  55.449  -4.324  1.00  0.00     0.240 C 
ENDROOT
BRANCH  18  28
HETATM   28  C18 UNL     1      -1.917  52.255 -10.282  1.00  0.00    -0.043 A 
HETATM   29  C19 UNL     1      -2.611  51.128 -10.114  1.00  0.00     0.087 A 
HETATM   30  C20 UNL     1      -4.027  51.468 -10.218  1.00  0.00     0.283 A 
HETATM   31  O4  UNL     1      -4.943  50.674 -10.115  1.00  0.00    -0.260 OA
HETATM   32  O5  UNL     1      -4.147  52.802 -10.450  1.00  0.00    -0.314 OA
HETATM   33  C21 UNL     1      -2.845  53.386 -10.524  1.00  0.00     0.214 A 
ENDBRANCH  18  28
BRANCH  19  34
HETATM   34  O6  UNL     1      -0.497  52.601 -12.743  1.00  0.00    -0.316 OA
BRANCH  34  35
HETATM   35  C23 UNL     1       0.252  52.031 -13.730  1.00  0.00     0.255 C 
HETATM   36  C24 UNL     1       0.496  50.586 -13.424  1.00  0.00     0.126 C 
HETATM   37  O7  UNL     1       0.653  52.604 -14.733  1.00  0.00    -0.266 OA
ENDBRANCH  34  35
ENDBRANCH  19  34
BRANCH  21  38
HETATM   38  O8  UNL     1      -0.446  55.567  -9.341  1.00  0.00    -0.389 OA
HETATM   39  H35 UNL     1      -0.308  56.413  -9.806  1.00  0.00     0.210 HD
ENDBRANCH  21  38
BRANCH  27  40
HETATM   40  O10 UNL     1       7.111  56.211  -3.116  1.00  0.00    -0.360 OA
HETATM   41  H42 UNL     1       6.690  57.045  -3.373  1.00  0.00     0.213 HD
ENDBRANCH  27  40
BRANCH   1  42
HETATM   42  O1  UNL     1       8.282  53.249  -5.027  1.00  0.00    -0.385 OA
HETATM   43  C1  UNL     1       8.717  51.954  -4.638  1.00  0.00     0.202 C 
ENDBRANCH   1  42
TORSDOF 6
ENDMDL
MODEL 8
REMARK minimizedAffinity -6.65637541
REMARK CNNscore 0.494588166
REMARK CNNaffinity 5.90725088
REMARK  6 active torsions:
REMARK  status: ('A' for Active; 'I' for Inactive)
REMARK    1  A    between atoms: O1_2  and  C2_3 
REMARK    2  A    between atoms: C17_20  and  C18_21 
REMARK    3  A    between atoms: C22_27  and  O6_28 
REMARK    4  A    between atoms: O6_28  and  C23_29 
REMARK    5  A    between atoms: C26_33  and  O8_34 
REMARK    6  A    between atoms: C31_40  and  O10_41 
ROOT
HETATM    1  C2  UNL     1      -6.630  46.433 -29.329  1.00  0.00     0.190 C 
HETATM    2  C3  UNL     1      -5.522  46.937 -30.269  1.00  0.00     0.064 C 
HETATM    3  C4  UNL     1      -5.960  48.124 -31.126  1.00  0.00     0.174 C 
HETATM    4  O2  UNL     1      -7.338  48.052 -31.465  1.00  0.00    -0.356 OA
HETATM    5  C5  UNL     1      -8.207  48.155 -30.331  1.00  0.00     0.325 C 
HETATM    6  O3  UNL     1      -9.435  47.495 -30.635  1.00  0.00    -0.344 OA
HETATM    7  C6  UNL     1     -10.425  47.769 -29.644  1.00  0.00     0.177 C 
HETATM    8  C7  UNL     1     -11.565  46.822 -29.868  1.00  0.00     0.011 C 
HETATM    9  C8  UNL     1     -12.438  46.484 -28.900  1.00  0.00    -0.072 C 
HETATM   10  C9  UNL     1     -13.519  45.471 -29.167  1.00  0.00     0.035 C 
HETATM   11  C10 UNL     1     -14.776  45.563 -28.295  1.00  0.00     0.012 C 
HETATM   12  C11 UNL     1     -14.586  46.089 -26.852  1.00  0.00     0.026 C 
HETATM   13  C12 UNL     1     -13.089  46.182 -26.465  1.00  0.00     0.005 C 
HETATM   14  C13 UNL     1     -12.489  44.775 -26.217  1.00  0.00     0.007 C 
HETATM   15  C14 UNL     1     -13.525  43.695 -25.895  1.00  0.00     0.013 C 
HETATM   16  C15 UNL     1     -14.691  44.197 -25.005  1.00  0.00    -0.003 C 
HETATM   17  C16 UNL     1     -14.092  44.544 -23.620  1.00  0.00     0.019 C 
HETATM   18  C17 UNL     1     -15.779  43.064 -24.910  1.00  0.00     0.058 C 
HETATM   19  C22 UNL     1     -16.676  43.343 -26.139  1.00  0.00     0.143 C 
HETATM   20  C25 UNL     1     -16.798  44.862 -26.171  1.00  0.00     0.072 C 
HETATM   21  C26 UNL     1     -15.422  45.395 -25.721  1.00  0.00     0.072 C 
HETATM   22  C27 UNL     1     -12.287  47.053 -27.498  1.00  0.00    -0.014 C 
HETATM   23  C28 UNL     1     -12.832  48.507 -27.474  1.00  0.00     0.020 C 
HETATM   24  C29 UNL     1     -10.778  47.089 -27.147  1.00  0.00     0.049 C 
HETATM   25  C30 UNL     1      -9.869  47.781 -28.186  1.00  0.00     0.159 C 
HETATM   26  O9  UNL     1      -8.582  47.157 -28.052  1.00  0.00    -0.341 OA
HETATM   27  C31 UNL     1      -7.606  47.596 -28.996  1.00  0.00     0.240 C 
ENDROOT
BRANCH  18  28
HETATM   28  C18 UNL     1     -16.530  42.933 -23.603  1.00  0.00    -0.043 A 
HETATM   29  C19 UNL     1     -17.408  43.825 -23.139  1.00  0.00     0.087 A 
HETATM   30  C20 UNL     1     -17.897  43.330 -21.857  1.00  0.00     0.283 A 
HETATM   31  O4  UNL     1     -18.712  43.900 -21.155  1.00  0.00    -0.260 OA
HETATM   32  O5  UNL     1     -17.294  42.145 -21.579  1.00  0.00    -0.314 OA
HETATM   33  C21 UNL     1     -16.388  41.819 -22.635  1.00  0.00     0.214 A 
ENDBRANCH  18  28
BRANCH  19  34
HETATM   34  O6  UNL     1     -17.974  42.745 -26.066  1.00  0.00    -0.316 OA
BRANCH  34  35
HETATM   35  C23 UNL     1     -18.455  42.268 -27.250  1.00  0.00     0.255 C 
HETATM   36  C24 UNL     1     -17.327  41.787 -28.109  1.00  0.00     0.126 C 
HETATM   37  O7  UNL     1     -19.636  42.217 -27.564  1.00  0.00    -0.266 OA
ENDBRANCH  34  35
ENDBRANCH  19  34
BRANCH  21  38
HETATM   38  O8  UNL     1     -15.695  46.405 -24.731  1.00  0.00    -0.389 OA
HETATM   39  H35 UNL     1     -16.194  47.126 -25.156  1.00  0.00     0.210 HD
ENDBRANCH  21  38
BRANCH  27  40
HETATM   40  O10 UNL     1      -6.834  48.608 -28.323  1.00  0.00    -0.360 OA
HETATM   41  H42 UNL     1      -7.432  49.352 -28.161  1.00  0.00     0.213 HD
ENDBRANCH  27  40
BRANCH   1  42
HETATM   42  O1  UNL     1      -7.252  45.317 -29.995  1.00  0.00    -0.385 OA
HETATM   43  C1  UNL     1      -7.596  44.242 -29.132  1.00  0.00     0.202 C 
ENDBRANCH   1  42
TORSDOF 6
ENDMDL
MODEL 9
REMARK minimizedAffinity -6.33011389
REMARK CNNscore 0.491782725
REMARK CNNaffinity 6.12054586
REMARK  6 active torsions:
REMARK  status: ('A' for Active; 'I' for Inactive)
REMARK    1  A    between atoms: O1_2  and  C2_3 
REMARK    2  A    between atoms: C17_20  and  C18_21 
REMARK    3  A    between atoms: C22_27  and  O6_28 
REMARK    4  A    between atoms: O6_28  and  C23_29 
REMARK    5  A    between atoms: C26_33  and  O8_34 
REMARK    6  A    between atoms: C31_40  and  O10_41 
ROOT
HETATM    1  C2  UNL     1      -2.195  49.587  -9.923  1.00  0.00     0.190 C 
HETATM    2  C3  UNL     1      -3.371  48.911 -10.648  1.00  0.00     0.064 C 
HETATM    3  C4  UNL     1      -3.961  49.774 -11.762  1.00  0.00     0.174 C 
HETATM    4  O2  UNL     1      -3.891  51.159 -11.452  1.00  0.00    -0.356 OA
HETATM    5  C5  UNL     1      -2.549  51.652 -11.361  1.00  0.00     0.325 C 
HETATM    6  O3  UNL     1      -2.537  52.789 -10.500  1.00  0.00    -0.344 OA
HETATM    7  C6  UNL     1      -1.282  53.467 -10.559  1.00  0.00     0.177 C 
HETATM    8  C7  UNL     1      -1.244  54.451  -9.429  1.00  0.00     0.011 C 
HETATM    9  C8  UNL     1      -0.097  54.925  -8.909  1.00  0.00    -0.072 C 
HETATM   10  C9  UNL     1      -0.122  55.856  -7.726  1.00  0.00     0.035 C 
HETATM   11  C10 UNL     1       1.082  56.790  -7.562  1.00  0.00     0.012 C 
HETATM   12  C11 UNL     1       2.446  56.264  -8.069  1.00  0.00     0.026 C 
HETATM   13  C12 UNL     1       2.388  54.756  -8.419  1.00  0.00     0.005 C 
HETATM   14  C13 UNL     1       2.333  53.889  -7.137  1.00  0.00     0.007 C 
HETATM   15  C14 UNL     1       2.851  54.588  -5.878  1.00  0.00     0.013 C 
HETATM   16  C15 UNL     1       4.079  55.499  -6.133  1.00  0.00    -0.003 C 
HETATM   17  C16 UNL     1       5.255  54.577  -6.539  1.00  0.00     0.019 C 
HETATM   18  C17 UNL     1       4.391  56.307  -4.819  1.00  0.00     0.058 C 
HETATM   19  C22 UNL     1       3.503  57.565  -4.969  1.00  0.00     0.143 C 
HETATM   20  C25 UNL     1       3.635  57.937  -6.442  1.00  0.00     0.072 C 
HETATM   21  C26 UNL     1       3.709  56.597  -7.200  1.00  0.00     0.072 C 
HETATM   22  C27 UNL     1       1.244  54.455  -9.452  1.00  0.00    -0.014 C 
HETATM   23  C28 UNL     1       1.546  55.197 -10.783  1.00  0.00     0.020 C 
HETATM   24  C29 UNL     1       1.144  52.937  -9.749  1.00  0.00     0.049 C 
HETATM   25  C30 UNL     1      -0.053  52.508 -10.627  1.00  0.00     0.159 C 
HETATM   26  O9  UNL     1      -0.350  51.157 -10.242  1.00  0.00    -0.341 OA
HETATM   27  C31 UNL     1      -1.497  50.594 -10.879  1.00  0.00     0.240 C 
ENDROOT
BRANCH  18  28
HETATM   28  C18 UNL     1       5.844  56.600  -4.514  1.00  0.00    -0.043 A 
HETATM   29  C19 UNL     1       6.649  57.334  -5.285  1.00  0.00     0.087 A 
HETATM   30  C20 UNL     1       7.959  57.366  -4.643  1.00  0.00     0.283 A 
HETATM   31  O4  UNL     1       8.935  57.948  -5.079  1.00  0.00    -0.260 OA
HETATM   32  O5  UNL     1       7.908  56.641  -3.495  1.00  0.00    -0.314 OA
HETATM   33  C21 UNL     1       6.595  56.098  -3.339  1.00  0.00     0.214 A 
ENDBRANCH  18  28
BRANCH  19  34
HETATM   34  O6  UNL     1       3.899  58.666  -4.144  1.00  0.00    -0.316 OA
BRANCH  34  35
HETATM   35  C23 UNL     1       2.905  59.197  -3.378  1.00  0.00     0.255 C 
HETATM   36  C24 UNL     1       1.664  58.367  -3.493  1.00  0.00     0.126 C 
HETATM   37  O7  UNL     1       3.008  60.196  -2.679  1.00  0.00    -0.266 OA
ENDBRANCH  34  35
ENDBRANCH  19  34
BRANCH  21  38
HETATM   38  O8  UNL     1       4.816  56.721  -8.113  1.00  0.00    -0.389 OA
HETATM   39  H35 UNL     1       4.616  57.435  -8.745  1.00  0.00     0.210 HD
ENDBRANCH  21  38
BRANCH  27  40
HETATM   40  O10 UNL     1      -0.995  49.832 -11.993  1.00  0.00    -0.360 OA
HETATM   41  H42 UNL     1      -0.605  50.467 -12.611  1.00  0.00     0.213 HD
ENDBRANCH  27  40
BRANCH   1  42
HETATM   42  O1  UNL     1      -2.742  50.189  -8.734  1.00  0.00    -0.385 OA
HETATM   43  C1  UNL     1      -2.295  49.597  -7.523  1.00  0.00     0.202 C 
ENDBRANCH   1  42
TORSDOF 6
ENDMDL
