MODEL 1
REMARK minimizedAffinity -7.14795351
REMARK CNNscore 0.552906871
REMARK CNNaffinity 6.26572371
REMARK  5 active torsions:
REMARK  status: ('A' for Active; 'I' for Inactive)
REMARK    1  A    between atoms: C2_2  and  C4_4 
REMARK    2  A    between atoms: C7_7  and  C8_8 
REMARK    3  A    between atoms: C8_8  and  O2_10 
REMARK    4  A    between atoms: C11_13  and  C12_14 
REMARK    5  A    between atoms: C12_14  and  O4_16 
ROOT
HETATM    1  C4  UNL     1      -1.811  52.537 -12.218  1.00  0.00     0.019 C 
HETATM    2  C5  UNL     1      -2.232  51.231 -12.945  1.00  0.00     0.011 C 
HETATM    3  C6  UNL     1      -1.099  50.215 -12.719  1.00  0.00     0.021 C 
HETATM    4  C7  UNL     1       0.126  51.088 -12.426  1.00  0.00     0.050 C 
HETATM    5  C9  UNL     1       1.271  50.390 -11.684  1.00  0.00     0.022 C 
HETATM    6  C10 UNL     1       2.314  51.417 -11.185  1.00  0.00     0.023 C 
HETATM    7  C11 UNL     1       1.717  52.549 -10.265  1.00  0.00     0.057 C 
HETATM    8  C13 UNL     1       0.520  53.215 -11.053  1.00  0.00     0.011 C 
HETATM    9  C14 UNL     1      -0.090  54.433 -10.352  1.00  0.00     0.007 C 
HETATM   10  C15 UNL     1       0.956  55.453  -9.900  1.00  0.00     0.006 C 
HETATM   11  C16 UNL     1       2.094  54.828  -9.064  1.00  0.00     0.003 C 
HETATM   12  C17 UNL     1       3.038  55.891  -8.333  1.00  0.00    -0.035 C 
HETATM   13  C18 UNL     1       3.689  56.875  -9.332  1.00  0.00     0.016 C 
HETATM   14  C19 UNL     1       2.172  56.726  -7.338  1.00  0.00     0.017 C 
HETATM   15  C20 UNL     1       2.970  57.607  -6.386  1.00  0.00     0.080 C 
HETATM   16  C21 UNL     1       4.027  56.826  -5.646  1.00  0.00     0.135 C 
HETATM   17  O5  UNL     1       4.176  56.999  -4.434  1.00  0.00    -0.297 OA
HETATM   18  C22 UNL     1       4.954  55.917  -6.469  1.00  0.00     0.017 C 
HETATM   19  C23 UNL     1       6.038  56.786  -7.122  1.00  0.00     0.023 C 
HETATM   20  C24 UNL     1       5.672  54.962  -5.481  1.00  0.00     0.023 C 
HETATM   21  C25 UNL     1       4.076  55.084  -7.467  1.00  0.00     0.009 C 
HETATM   22  C26 UNL     1       4.874  54.095  -8.340  1.00  0.00     0.007 C 
HETATM   23  C27 UNL     1       3.944  53.065  -8.986  1.00  0.00     0.011 C 
HETATM   24  C28 UNL     1       2.815  53.671  -9.867  1.00  0.00    -0.022 C 
HETATM   25  C29 UNL     1       3.502  54.206 -11.157  1.00  0.00     0.017 C 
HETATM   26  C30 UNL     1      -0.508  52.143 -11.485  1.00  0.00     0.018 C 
ENDROOT
BRANCH   4  27
HETATM   27  C8  UNL     1       0.645  51.622 -13.771  1.00  0.00     0.149 C 
HETATM   28  O1  UNL     1       1.009  50.977 -14.738  1.00  0.00    -0.649 OA
BRANCH  27  29
HETATM   29  O2  UNL     1       0.693  52.969 -13.818  1.00  0.00    -0.776 OA
HETATM   30  H11 UNL     1       1.049  53.164 -14.710  1.00  0.00     0.167 HD
ENDBRANCH  27  29
ENDBRANCH   4  27
BRANCH   1  31
HETATM   31  C2  UNL     1      -2.937  53.096 -11.364  1.00  0.00    -0.088 C 
HETATM   32  C1  UNL     1      -4.223  52.845 -11.670  1.00  0.00     0.014 C 
HETATM   33  C3  UNL     1      -2.591  53.919 -10.152  1.00  0.00     0.043 C 
ENDBRANCH   1  31
BRANCH   7  34
HETATM   34  C12 UNL     1       1.256  51.797  -8.986  1.00  0.00     0.149 C 
HETATM   35  O3  UNL     1       1.749  50.772  -8.537  1.00  0.00    -0.649 OA
BRANCH  34  36
HETATM   36  O4  UNL     1       0.238  52.354  -8.316  1.00  0.00    -0.776 OA
HETATM   37  H16 UNL     1       0.107  51.759  -7.547  1.00  0.00     0.167 HD
ENDBRANCH  34  36
ENDBRANCH   7  34
TORSDOF 5
ENDMDL
MODEL 2
REMARK minimizedAffinity -7.00085068
REMARK CNNscore 0.460201323
REMARK CNNaffinity 5.89944649
REMARK  5 active torsions:
REMARK  status: ('A' for Active; 'I' for Inactive)
REMARK    1  A    between atoms: C2_2  and  C4_4 
REMARK    2  A    between atoms: C7_7  and  C8_8 
REMARK    3  A    between atoms: C8_8  and  O2_10 
REMARK    4  A    between atoms: C11_13  and  C12_14 
REMARK    5  A    between atoms: C12_14  and  O4_16 
ROOT
HETATM    1  C4  UNL     1     -17.048  43.255 -27.435  1.00  0.00     0.019 C 
HETATM    2  C5  UNL     1     -18.187  43.197 -28.489  1.00  0.00     0.011 C 
HETATM    3  C6  UNL     1     -19.381  43.961 -27.891  1.00  0.00     0.021 C 
HETATM    4  C7  UNL     1     -19.136  43.904 -26.379  1.00  0.00     0.050 C 
HETATM    5  C9  UNL     1     -19.858  44.974 -25.553  1.00  0.00     0.022 C 
HETATM    6  C10 UNL     1     -19.320  45.010 -24.105  1.00  0.00     0.023 C 
HETATM    7  C11 UNL     1     -17.765  45.242 -23.999  1.00  0.00     0.057 C 
HETATM    8  C13 UNL     1     -17.063  44.142 -24.892  1.00  0.00     0.011 C 
HETATM    9  C14 UNL     1     -15.534  44.139 -24.796  1.00  0.00     0.007 C 
HETATM   10  C15 UNL     1     -15.023  44.139 -23.355  1.00  0.00     0.006 C 
HETATM   11  C16 UNL     1     -15.645  45.256 -22.488  1.00  0.00     0.003 C 
HETATM   12  C17 UNL     1     -14.928  45.473 -21.076  1.00  0.00    -0.035 C 
HETATM   13  C18 UNL     1     -14.920  44.183 -20.224  1.00  0.00     0.016 C 
HETATM   14  C19 UNL     1     -13.444  45.888 -21.327  1.00  0.00     0.017 C 
HETATM   15  C20 UNL     1     -12.702  46.373 -20.089  1.00  0.00     0.080 C 
HETATM   16  C21 UNL     1     -13.449  47.474 -19.378  1.00  0.00     0.135 C 
HETATM   17  O5  UNL     1     -12.838  48.470 -18.983  1.00  0.00    -0.297 OA
HETATM   18  C22 UNL     1     -14.941  47.249 -19.078  1.00  0.00     0.017 C 
HETATM   19  C23 UNL     1     -15.061  46.351 -17.838  1.00  0.00     0.023 C 
HETATM   20  C24 UNL     1     -15.555  48.622 -18.704  1.00  0.00     0.023 C 
HETATM   21  C25 UNL     1     -15.630  46.694 -20.372  1.00  0.00     0.009 C 
HETATM   22  C26 UNL     1     -17.146  46.454 -20.229  1.00  0.00     0.007 C 
HETATM   23  C27 UNL     1     -17.806  46.297 -21.602  1.00  0.00     0.011 C 
HETATM   24  C28 UNL     1     -17.223  45.151 -22.476  1.00  0.00    -0.022 C 
HETATM   25  C29 UNL     1     -17.706  43.818 -21.832  1.00  0.00     0.017 C 
HETATM   26  C30 UNL     1     -17.614  44.186 -26.338  1.00  0.00     0.018 C 
ENDROOT
BRANCH   4  27
HETATM   27  C8  UNL     1     -19.568  42.511 -25.894  1.00  0.00     0.149 C 
HETATM   28  O1  UNL     1     -19.332  41.434 -26.414  1.00  0.00    -0.649 OA
BRANCH  27  29
HETATM   29  O2  UNL     1     -20.304  42.552 -24.765  1.00  0.00    -0.776 OA
HETATM   30  H11 UNL     1     -20.517  41.614 -24.584  1.00  0.00     0.167 HD
ENDBRANCH  27  29
ENDBRANCH   4  27
BRANCH   1  31
HETATM   31  C2  UNL     1     -15.721  43.656 -28.059  1.00  0.00    -0.088 C 
HETATM   32  C1  UNL     1     -15.523  44.908 -28.509  1.00  0.00     0.014 C 
HETATM   33  C3  UNL     1     -14.619  42.633 -28.146  1.00  0.00     0.043 C 
ENDBRANCH   1  31
BRANCH   7  34
HETATM   34  C12 UNL     1     -17.556  46.684 -24.539  1.00  0.00     0.149 C 
HETATM   35  O3  UNL     1     -16.480  47.212 -24.783  1.00  0.00    -0.649 OA
BRANCH  34  36
HETATM   36  O4  UNL     1     -18.672  47.387 -24.774  1.00  0.00    -0.776 OA
HETATM   37  H16 UNL     1     -18.343  48.244 -25.121  1.00  0.00     0.167 HD
ENDBRANCH  34  36
ENDBRANCH   7  34
TORSDOF 5
ENDMDL
MODEL 3
REMARK minimizedAffinity -6.77621269
REMARK CNNscore 0.378711522
REMARK CNNaffinity 6.03234816
REMARK  5 active torsions:
REMARK  status: ('A' for Active; 'I' for Inactive)
REMARK    1  A    between atoms: C2_2  and  C4_4 
REMARK    2  A    between atoms: C7_7  and  C8_8 
REMARK    3  A    between atoms: C8_8  and  O2_10 
REMARK    4  A    between atoms: C11_13  and  C12_14 
REMARK    5  A    between atoms: C12_14  and  O4_16 
ROOT
HETATM    1  C4  UNL     1     -10.488  44.609 -28.123  1.00  0.00     0.019 C 
HETATM    2  C5  UNL     1      -9.832  44.885 -26.742  1.00  0.00     0.011 C 
HETATM    3  C6  UNL     1      -8.652  45.839 -26.998  1.00  0.00     0.021 C 
HETATM    4  C7  UNL     1      -8.302  45.608 -28.472  1.00  0.00     0.050 C 
HETATM    5  C9  UNL     1      -7.520  46.739 -29.149  1.00  0.00     0.022 C 
HETATM    6  C10 UNL     1      -7.478  46.539 -30.682  1.00  0.00     0.023 C 
HETATM    7  C11 UNL     1      -8.896  46.418 -31.357  1.00  0.00     0.057 C 
HETATM    8  C13 UNL     1      -9.678  45.268 -30.606  1.00  0.00     0.011 C 
HETATM    9  C14 UNL     1     -11.036  44.925 -31.228  1.00  0.00     0.007 C 
HETATM   10  C15 UNL     1     -10.964  44.697 -32.738  1.00  0.00     0.006 C 
HETATM   11  C16 UNL     1     -10.268  45.848 -33.496  1.00  0.00     0.003 C 
HETATM   12  C17 UNL     1     -10.432  45.788 -35.084  1.00  0.00    -0.035 C 
HETATM   13  C18 UNL     1      -9.899  44.462 -35.675  1.00  0.00     0.016 C 
HETATM   14  C19 UNL     1     -11.950  45.890 -35.434  1.00  0.00     0.017 C 
HETATM   15  C20 UNL     1     -12.249  46.100 -36.912  1.00  0.00     0.080 C 
HETATM   16  C21 UNL     1     -11.492  47.275 -37.480  1.00  0.00     0.135 C 
HETATM   17  O5  UNL     1     -12.074  48.079 -38.212  1.00  0.00    -0.297 OA
HETATM   18  C22 UNL     1      -9.982  47.356 -37.202  1.00  0.00     0.017 C 
HETATM   19  C23 UNL     1      -9.255  46.408 -38.167  1.00  0.00     0.023 C 
HETATM   20  C24 UNL     1      -9.520  48.795 -37.546  1.00  0.00     0.023 C 
HETATM   21  C25 UNL     1      -9.740  47.072 -35.679  1.00  0.00     0.009 C 
HETATM   22  C26 UNL     1      -8.264  47.156 -35.246  1.00  0.00     0.007 C 
HETATM   23  C27 UNL     1      -8.147  47.259 -33.722  1.00  0.00     0.011 C 
HETATM   24  C28 UNL     1      -8.806  46.088 -32.940  1.00  0.00    -0.022 C 
HETATM   25  C29 UNL     1      -7.896  44.844 -33.160  1.00  0.00     0.017 C 
HETATM   26  C30 UNL     1      -9.724  45.548 -29.084  1.00  0.00     0.018 C 
ENDROOT
BRANCH   4  27
HETATM   27  C8  UNL     1      -7.487  44.307 -28.554  1.00  0.00     0.149 C 
HETATM   28  O1  UNL     1      -7.121  43.598 -27.633  1.00  0.00    -0.649 OA
BRANCH  27  29
HETATM   29  O2  UNL     1      -7.155  43.974 -29.817  1.00  0.00    -0.776 OA
HETATM   30  H11 UNL     1      -6.636  43.149 -29.718  1.00  0.00     0.167 HD
ENDBRANCH  27  29
ENDBRANCH   4  27
BRANCH   1  31
HETATM   31  C2  UNL     1     -11.999  44.761 -28.071  1.00  0.00    -0.088 C 
HETATM   32  C1  UNL     1     -12.564  45.975 -27.950  1.00  0.00     0.014 C 
HETATM   33  C3  UNL     1     -12.858  43.529 -28.181  1.00  0.00     0.043 C 
ENDBRANCH   1  31
BRANCH   7  34
HETATM   34  C12 UNL     1      -9.537  47.819 -31.155  1.00  0.00     0.149 C 
HETATM   35  O3  UNL     1     -10.687  48.040 -30.803  1.00  0.00    -0.649 OA
BRANCH  34  36
HETATM   36  O4  UNL     1      -8.729  48.867 -31.368  1.00  0.00    -0.776 OA
HETATM   37  H16 UNL     1      -9.295  49.644 -31.175  1.00  0.00     0.167 HD
ENDBRANCH  34  36
ENDBRANCH   7  34
TORSDOF 5
ENDMDL
MODEL 4
REMARK minimizedAffinity -7.04107428
REMARK CNNscore 0.340454549
REMARK CNNaffinity 5.57219124
REMARK  5 active torsions:
REMARK  status: ('A' for Active; 'I' for Inactive)
REMARK    1  A    between atoms: C2_2  and  C4_4 
REMARK    2  A    between atoms: C7_7  and  C8_8 
REMARK    3  A    between atoms: C8_8  and  O2_10 
REMARK    4  A    between atoms: C11_13  and  C12_14 
REMARK    5  A    between atoms: C12_14  and  O4_16 
ROOT
HETATM    1  C4  UNL     1      -8.742  47.255 -26.227  1.00  0.00     0.019 C 
HETATM    2  C5  UNL     1      -7.534  47.251 -27.202  1.00  0.00     0.011 C 
HETATM    3  C6  UNL     1      -8.006  46.548 -28.487  1.00  0.00     0.021 C 
HETATM    4  C7  UNL     1      -9.181  45.680 -28.022  1.00  0.00     0.050 C 
HETATM    5  C9  UNL     1     -10.160  45.252 -29.121  1.00  0.00     0.022 C 
HETATM    6  C10 UNL     1     -11.442  44.641 -28.510  1.00  0.00     0.023 C 
HETATM    7  C11 UNL     1     -12.188  45.587 -27.495  1.00  0.00     0.057 C 
HETATM    8  C13 UNL     1     -11.135  46.032 -26.403  1.00  0.00     0.011 C 
HETATM    9  C14 UNL     1     -11.732  46.853 -25.256  1.00  0.00     0.007 C 
HETATM   10  C15 UNL     1     -12.978  46.213 -24.643  1.00  0.00     0.006 C 
HETATM   11  C16 UNL     1     -14.049  45.840 -25.691  1.00  0.00     0.003 C 
HETATM   12  C17 UNL     1     -15.469  45.444 -25.073  1.00  0.00    -0.035 C 
HETATM   13  C18 UNL     1     -15.363  44.260 -24.085  1.00  0.00     0.016 C 
HETATM   14  C19 UNL     1     -16.032  46.672 -24.288  1.00  0.00     0.017 C 
HETATM   15  C20 UNL     1     -17.485  46.536 -23.855  1.00  0.00     0.080 C 
HETATM   16  C21 UNL     1     -18.388  46.184 -25.011  1.00  0.00     0.135 C 
HETATM   17  O5  UNL     1     -19.464  46.772 -25.146  1.00  0.00    -0.297 OA
HETATM   18  C22 UNL     1     -17.969  45.015 -25.917  1.00  0.00     0.017 C 
HETATM   19  C23 UNL     1     -18.332  43.698 -25.217  1.00  0.00     0.023 C 
HETATM   20  C24 UNL     1     -18.824  45.093 -27.208  1.00  0.00     0.023 C 
HETATM   21  C25 UNL     1     -16.451  45.183 -26.275  1.00  0.00     0.009 C 
HETATM   22  C26 UNL     1     -15.898  44.094 -27.215  1.00  0.00     0.007 C 
HETATM   23  C27 UNL     1     -14.561  44.527 -27.824  1.00  0.00     0.011 C 
HETATM   24  C28 UNL     1     -13.454  44.866 -26.787  1.00  0.00    -0.022 C 
HETATM   25  C29 UNL     1     -13.000  43.512 -26.167  1.00  0.00     0.017 C 
HETATM   26  C30 UNL     1      -9.897  46.674 -27.075  1.00  0.00     0.018 C 
ENDROOT
BRANCH   4  27
HETATM   27  C8  UNL     1      -8.592  44.428 -27.352  1.00  0.00     0.149 C 
HETATM   28  O1  UNL     1      -8.947  43.904 -26.310  1.00  0.00    -0.649 OA
BRANCH  27  29
HETATM   29  O2  UNL     1      -7.555  43.904 -28.036  1.00  0.00    -0.776 OA
HETATM   30  H11 UNL     1      -7.276  43.136 -27.496  1.00  0.00     0.167 HD
ENDBRANCH  27  29
ENDBRANCH   4  27
BRANCH   1  31
HETATM   31  C2  UNL     1      -8.966  48.626 -25.610  1.00  0.00    -0.088 C 
HETATM   32  C1  UNL     1      -9.727  49.544 -26.232  1.00  0.00     0.014 C 
HETATM   33  C3  UNL     1      -8.339  48.935 -24.276  1.00  0.00     0.043 C 
ENDBRANCH   1  31
BRANCH   7  34
HETATM   34  C12 UNL     1     -12.688  46.769 -28.371  1.00  0.00     0.149 C 
HETATM   35  O3  UNL     1     -12.795  47.934 -28.014  1.00  0.00    -0.649 OA
BRANCH  34  36
HETATM   36  O4  UNL     1     -13.002  46.466 -29.638  1.00  0.00    -0.776 OA
HETATM   37  H16 UNL     1     -13.271  47.325 -30.027  1.00  0.00     0.167 HD
ENDBRANCH  34  36
ENDBRANCH   7  34
TORSDOF 5
ENDMDL
MODEL 5
REMARK minimizedAffinity -5.93500471
REMARK CNNscore 0.332784623
REMARK CNNaffinity 5.70121956
REMARK  5 active torsions:
REMARK  status: ('A' for Active; 'I' for Inactive)
REMARK    1  A    between atoms: C2_2  and  C4_4 
REMARK    2  A    between atoms: C7_7  and  C8_8 
REMARK    3  A    between atoms: C8_8  and  O2_10 
REMARK    4  A    between atoms: C11_13  and  C12_14 
REMARK    5  A    between atoms: C12_14  and  O4_16 
ROOT
HETATM    1  C4  UNL     1     -13.080  45.780 -24.841  1.00  0.00     0.019 C 
HETATM    2  C5  UNL     1     -14.282  44.886 -24.433  1.00  0.00     0.011 C 
HETATM    3  C6  UNL     1     -14.533  43.922 -25.606  1.00  0.00     0.021 C 
HETATM    4  C7  UNL     1     -13.924  44.643 -26.814  1.00  0.00     0.050 C 
HETATM    5  C9  UNL     1     -13.573  43.749 -28.008  1.00  0.00     0.022 C 
HETATM    6  C10 UNL     1     -12.709  44.515 -29.036  1.00  0.00     0.023 C 
HETATM    7  C11 UNL     1     -11.384  45.124 -28.441  1.00  0.00     0.057 C 
HETATM    8  C13 UNL     1     -11.789  46.007 -27.194  1.00  0.00     0.011 C 
HETATM    9  C14 UNL     1     -10.624  46.786 -26.574  1.00  0.00     0.007 C 
HETATM   10  C15 UNL     1      -9.806  47.565 -27.604  1.00  0.00     0.006 C 
HETATM   11  C16 UNL     1      -9.339  46.697 -28.793  1.00  0.00     0.003 C 
HETATM   12  C17 UNL     1      -8.248  47.393 -29.731  1.00  0.00    -0.035 C 
HETATM   13  C18 UNL     1      -8.750  48.734 -30.312  1.00  0.00     0.016 C 
HETATM   14  C19 UNL     1      -6.973  47.690 -28.878  1.00  0.00     0.017 C 
HETATM   15  C20 UNL     1      -5.756  48.121 -29.685  1.00  0.00     0.080 C 
HETATM   16  C21 UNL     1      -5.440  47.148 -30.794  1.00  0.00     0.135 C 
HETATM   17  O5  UNL     1      -4.272  46.800 -30.985  1.00  0.00    -0.297 OA
HETATM   18  C22 UNL     1      -6.591  46.714 -31.716  1.00  0.00     0.017 C 
HETATM   19  C23 UNL     1      -6.838  47.826 -32.746  1.00  0.00     0.023 C 
HETATM   20  C24 UNL     1      -6.116  45.465 -32.501  1.00  0.00     0.023 C 
HETATM   21  C25 UNL     1      -7.828  46.343 -30.826  1.00  0.00     0.009 C 
HETATM   22  C26 UNL     1      -9.054  45.852 -31.621  1.00  0.00     0.007 C 
HETATM   23  C27 UNL     1     -10.056  45.150 -30.699  1.00  0.00     0.011 C 
HETATM   24  C28 UNL     1     -10.572  46.020 -29.518  1.00  0.00    -0.022 C 
HETATM   25  C29 UNL     1     -11.528  47.081 -30.137  1.00  0.00     0.017 C 
HETATM   26  C30 UNL     1     -12.612  45.172 -26.184  1.00  0.00     0.018 C 
ENDROOT
BRANCH   4  27
HETATM   27  C8  UNL     1     -14.927  45.718 -27.263  1.00  0.00     0.149 C 
HETATM   28  O1  UNL     1     -14.686  46.849 -27.648  1.00  0.00    -0.649 OA
BRANCH  27  29
HETATM   29  O2  UNL     1     -16.209  45.306 -27.183  1.00  0.00    -0.776 OA
HETATM   30  H11 UNL     1     -16.728  46.081 -27.481  1.00  0.00     0.167 HD
ENDBRANCH  27  29
ENDBRANCH   4  27
BRANCH   1  31
HETATM   31  C2  UNL     1     -12.044  45.875 -23.732  1.00  0.00    -0.088 C 
HETATM   32  C1  UNL     1     -12.087  46.878 -22.836  1.00  0.00     0.014 C 
HETATM   33  C3  UNL     1     -10.980  44.814 -23.638  1.00  0.00     0.043 C 
ENDBRANCH   1  31
BRANCH   7  34
HETATM   34  C12 UNL     1     -10.534  43.882 -28.053  1.00  0.00     0.149 C 
HETATM   35  O3  UNL     1      -9.720  43.824 -27.142  1.00  0.00    -0.649 OA
BRANCH  34  36
HETATM   36  O4  UNL     1     -10.746  42.778 -28.783  1.00  0.00    -0.776 OA
HETATM   37  H16 UNL     1     -10.146  42.112 -28.384  1.00  0.00     0.167 HD
ENDBRANCH  34  36
ENDBRANCH   7  34
TORSDOF 5
ENDMDL
MODEL 6
REMARK minimizedAffinity -6.58931065
REMARK CNNscore 0.321015567
REMARK CNNaffinity 5.2557025
REMARK  5 active torsions:
REMARK  status: ('A' for Active; 'I' for Inactive)
REMARK    1  A    between atoms: C2_2  and  C4_4 
REMARK    2  A    between atoms: C7_7  and  C8_8 
REMARK    3  A    between atoms: C8_8  and  O2_10 
REMARK    4  A    between atoms: C11_13  and  C12_14 
REMARK    5  A    between atoms: C12_14  and  O4_16 
ROOT
HETATM    1  C4  UNL     1      -9.980  47.473 -28.979  1.00  0.00     0.019 C 
HETATM    2  C5  UNL     1      -8.602  48.029 -28.526  1.00  0.00     0.011 C 
HETATM    3  C6  UNL     1      -8.452  47.673 -27.037  1.00  0.00     0.021 C 
HETATM    4  C7  UNL     1      -9.894  47.491 -26.552  1.00  0.00     0.050 C 
HETATM    5  C9  UNL     1     -10.062  46.663 -25.273  1.00  0.00     0.022 C 
HETATM    6  C10 UNL     1     -11.546  46.298 -25.041  1.00  0.00     0.023 C 
HETATM    7  C11 UNL     1     -12.218  45.531 -26.242  1.00  0.00     0.057 C 
HETATM    8  C13 UNL     1     -11.991  46.401 -27.543  1.00  0.00     0.011 C 
HETATM    9  C14 UNL     1     -12.702  45.861 -28.788  1.00  0.00     0.007 C 
HETATM   10  C15 UNL     1     -14.177  45.541 -28.546  1.00  0.00     0.006 C 
HETATM   11  C16 UNL     1     -14.410  44.631 -27.321  1.00  0.00     0.003 C 
HETATM   12  C17 UNL     1     -15.891  44.040 -27.208  1.00  0.00    -0.035 C 
HETATM   13  C18 UNL     1     -16.960  45.155 -27.159  1.00  0.00     0.016 C 
HETATM   14  C19 UNL     1     -16.175  43.161 -28.467  1.00  0.00     0.017 C 
HETATM   15  C20 UNL     1     -17.447  42.328 -28.386  1.00  0.00     0.080 C 
HETATM   16  C21 UNL     1     -17.495  41.492 -27.131  1.00  0.00     0.135 C 
HETATM   17  O5  UNL     1     -17.847  40.312 -27.198  1.00  0.00    -0.297 OA
HETATM   18  C22 UNL     1     -17.204  42.191 -25.793  1.00  0.00     0.017 C 
HETATM   19  C23 UNL     1     -18.465  42.947 -25.351  1.00  0.00     0.023 C 
HETATM   20  C24 UNL     1     -16.943  41.087 -24.736  1.00  0.00     0.023 C 
HETATM   21  C25 UNL     1     -15.921  43.076 -25.963  1.00  0.00     0.009 C 
HETATM   22  C26 UNL     1     -15.485  43.813 -24.682  1.00  0.00     0.007 C 
HETATM   23  C27 UNL     1     -14.048  44.325 -24.808  1.00  0.00     0.011 C 
HETATM   24  C28 UNL     1     -13.800  45.277 -26.012  1.00  0.00    -0.022 C 
HETATM   25  C29 UNL     1     -14.496  46.624 -25.658  1.00  0.00     0.017 C 
HETATM   26  C30 UNL     1     -10.484  46.694 -27.742  1.00  0.00     0.018 C 
ENDROOT
BRANCH   4  27
HETATM   27  C8  UNL     1     -10.487  48.892 -26.331  1.00  0.00     0.149 C 
HETATM   28  O1  UNL     1      -9.956  49.849 -25.795  1.00  0.00    -0.649 OA
BRANCH  27  29
HETATM   29  O2  UNL     1     -11.748  49.008 -26.792  1.00  0.00    -0.776 OA
HETATM   30  H11 UNL     1     -11.998  49.930 -26.575  1.00  0.00     0.167 HD
ENDBRANCH  27  29
ENDBRANCH   4  27
BRANCH   1  31
HETATM   31  C2  UNL     1      -9.877  46.700 -30.283  1.00  0.00    -0.088 C 
HETATM   32  C1  UNL     1      -9.163  45.562 -30.353  1.00  0.00     0.014 C 
HETATM   33  C3  UNL     1     -10.606  47.216 -31.495  1.00  0.00     0.043 C 
ENDBRANCH   1  31
BRANCH   7  34
HETATM   34  C12 UNL     1     -11.474  44.168 -26.288  1.00  0.00     0.149 C 
HETATM   35  O3  UNL     1     -10.978  43.587 -25.333  1.00  0.00    -0.649 OA
BRANCH  34  36
HETATM   36  O4  UNL     1     -11.403  43.581 -27.491  1.00  0.00    -0.776 OA
HETATM   37  H16 UNL     1     -10.926  42.742 -27.317  1.00  0.00     0.167 HD
ENDBRANCH  34  36
ENDBRANCH   7  34
TORSDOF 5
ENDMDL
MODEL 7
REMARK minimizedAffinity -6.40172482
REMARK CNNscore 0.31476596
REMARK CNNaffinity 5.98669004
REMARK  5 active torsions:
REMARK  status: ('A' for Active; 'I' for Inactive)
REMARK    1  A    between atoms: C2_2  and  C4_4 
REMARK    2  A    between atoms: C7_7  and  C8_8 
REMARK    3  A    between atoms: C8_8  and  O2_10 
REMARK    4  A    between atoms: C11_13  and  C12_14 
REMARK    5  A    between atoms: C12_14  and  O4_16 
ROOT
HETATM    1  C4  UNL     1     -11.393  45.113 -38.586  1.00  0.00     0.019 C 
HETATM    2  C5  UNL     1     -12.249  44.097 -39.391  1.00  0.00     0.011 C 
HETATM    3  C6  UNL     1     -12.509  42.902 -38.457  1.00  0.00     0.021 C 
HETATM    4  C7  UNL     1     -11.365  42.973 -37.439  1.00  0.00     0.050 C 
HETATM    5  C9  UNL     1     -11.614  42.242 -36.115  1.00  0.00     0.022 C 
HETATM    6  C10 UNL     1     -10.542  42.618 -35.067  1.00  0.00     0.023 C 
HETATM    7  C11 UNL     1     -10.424  44.164 -34.788  1.00  0.00     0.057 C 
HETATM    8  C13 UNL     1     -10.205  44.879 -36.181  1.00  0.00     0.011 C 
HETATM    9  C14 UNL     1      -9.934  46.383 -36.076  1.00  0.00     0.007 C 
HETATM   10  C15 UNL     1      -8.845  46.729 -35.060  1.00  0.00     0.006 C 
HETATM   11  C16 UNL     1      -9.085  46.098 -33.672  1.00  0.00     0.003 C 
HETATM   12  C17 UNL     1      -8.140  46.666 -32.515  1.00  0.00    -0.035 C 
HETATM   13  C18 UNL     1      -6.641  46.486 -32.848  1.00  0.00     0.016 C 
HETATM   14  C19 UNL     1      -8.412  48.195 -32.354  1.00  0.00     0.017 C 
HETATM   15  C20 UNL     1      -7.773  48.828 -31.125  1.00  0.00     0.080 C 
HETATM   16  C21 UNL     1      -8.128  48.088 -29.859  1.00  0.00     0.135 C 
HETATM   17  O5  UNL     1      -8.458  48.722 -28.854  1.00  0.00    -0.297 OA
HETATM   18  C22 UNL     1      -7.954  46.560 -29.850  1.00  0.00     0.017 C 
HETATM   19  C23 UNL     1      -6.468  46.238 -29.636  1.00  0.00     0.023 C 
HETATM   20  C24 UNL     1      -8.720  46.010 -28.620  1.00  0.00     0.023 C 
HETATM   21  C25 UNL     1      -8.578  45.981 -31.167  1.00  0.00     0.009 C 
HETATM   22  C26 UNL     1      -8.508  44.445 -31.279  1.00  0.00     0.007 C 
HETATM   23  C27 UNL     1      -9.460  43.933 -32.363  1.00  0.00     0.011 C 
HETATM   24  C28 UNL     1      -9.210  44.524 -33.779  1.00  0.00    -0.022 C 
HETATM   25  C29 UNL     1      -7.893  43.877 -34.300  1.00  0.00     0.017 C 
HETATM   26  C30 UNL     1     -11.333  44.498 -37.169  1.00  0.00     0.018 C 
ENDROOT
BRANCH   4  27
HETATM   27  C8  UNL     1     -10.112  42.389 -38.113  1.00  0.00     0.149 C 
HETATM   28  O1  UNL     1      -9.859  41.217 -38.327  1.00  0.00    -0.649 OA
BRANCH  27  29
HETATM   29  O2  UNL     1      -9.221  43.335 -38.472  1.00  0.00    -0.776 OA
HETATM   30  H11 UNL     1      -8.482  42.828 -38.868  1.00  0.00     0.167 HD
ENDBRANCH  27  29
ENDBRANCH   4  27
BRANCH   1  31
HETATM   31  C2  UNL     1     -11.940  46.526 -38.699  1.00  0.00    -0.088 C 
HETATM   32  C1  UNL     1     -11.397  47.407 -39.558  1.00  0.00     0.014 C 
HETATM   33  C3  UNL     1     -13.117  46.921 -37.847  1.00  0.00     0.043 C 
ENDBRANCH   1  31
BRANCH   7  34
HETATM   34  C12 UNL     1     -11.778  44.536 -34.123  1.00  0.00     0.149 C 
HETATM   35  O3  UNL     1     -12.280  43.984 -33.155  1.00  0.00    -0.649 OA
BRANCH  34  36
HETATM   36  O4  UNL     1     -12.428  45.576 -34.663  1.00  0.00    -0.776 OA
HETATM   37  H16 UNL     1     -13.232  45.667 -34.108  1.00  0.00     0.167 HD
ENDBRANCH  34  36
ENDBRANCH   7  34
TORSDOF 5
ENDMDL
MODEL 8
REMARK minimizedAffinity -6.74187994
REMARK CNNscore 0.295799017
REMARK CNNaffinity 5.82997131
REMARK  5 active torsions:
REMARK  status: ('A' for Active; 'I' for Inactive)
REMARK    1  A    between atoms: C2_2  and  C4_4 
REMARK    2  A    between atoms: C7_7  and  C8_8 
REMARK    3  A    between atoms: C8_8  and  O2_10 
REMARK    4  A    between atoms: C11_13  and  C12_14 
REMARK    5  A    between atoms: C12_14  and  O4_16 
ROOT
HETATM    1  C4  UNL     1      -7.281  45.484 -31.791  1.00  0.00     0.019 C 
HETATM    2  C5  UNL     1      -5.848  46.069 -31.924  1.00  0.00     0.011 C 
HETATM    3  C6  UNL     1      -5.603  46.924 -30.668  1.00  0.00     0.021 C 
HETATM    4  C7  UNL     1      -7.012  47.287 -30.188  1.00  0.00     0.050 C 
HETATM    5  C9  UNL     1      -7.122  47.701 -28.716  1.00  0.00     0.022 C 
HETATM    6  C10 UNL     1      -8.600  47.759 -28.267  1.00  0.00     0.023 C 
HETATM    7  C11 UNL     1      -9.395  46.417 -28.486  1.00  0.00     0.057 C 
HETATM    8  C13 UNL     1      -9.226  46.010 -30.004  1.00  0.00     0.011 C 
HETATM    9  C14 UNL     1     -10.053  44.790 -30.421  1.00  0.00     0.007 C 
HETATM   10  C15 UNL     1     -11.519  44.885 -29.999  1.00  0.00     0.006 C 
HETATM   11  C16 UNL     1     -11.701  45.208 -28.500  1.00  0.00     0.003 C 
HETATM   12  C17 UNL     1     -13.196  45.028 -27.962  1.00  0.00    -0.035 C 
HETATM   13  C18 UNL     1     -14.205  45.899 -28.744  1.00  0.00     0.016 C 
HETATM   14  C19 UNL     1     -13.614  43.535 -28.141  1.00  0.00     0.017 C 
HETATM   15  C20 UNL     1     -14.914  43.152 -27.447  1.00  0.00     0.080 C 
HETATM   16  C21 UNL     1     -14.907  43.530 -25.987  1.00  0.00     0.135 C 
HETATM   17  O5  UNL     1     -15.318  42.726 -25.146  1.00  0.00    -0.297 OA
HETATM   18  C22 UNL     1     -14.484  44.962 -25.620  1.00  0.00     0.017 C 
HETATM   19  C23 UNL     1     -15.671  45.903 -25.870  1.00  0.00     0.023 C 
HETATM   20  C24 UNL     1     -14.197  44.989 -24.097  1.00  0.00     0.023 C 
HETATM   21  C25 UNL     1     -13.177  45.313 -26.413  1.00  0.00     0.009 C 
HETATM   22  C26 UNL     1     -12.613  46.716 -26.115  1.00  0.00     0.007 C 
HETATM   23  C27 UNL     1     -11.166  46.837 -26.602  1.00  0.00     0.011 C 
HETATM   24  C28 UNL     1     -10.966  46.556 -28.118  1.00  0.00    -0.022 C 
HETATM   25  C29 UNL     1     -11.569  47.775 -28.875  1.00  0.00     0.017 C 
HETATM   26  C30 UNL     1      -7.726  45.926 -30.378  1.00  0.00     0.018 C 
ENDROOT
BRANCH   4  27
HETATM   27  C8  UNL     1      -7.520  48.435 -31.076  1.00  0.00     0.149 C 
HETATM   28  O1  UNL     1      -8.457  48.416 -31.856  1.00  0.00    -0.649 OA
BRANCH  27  29
HETATM   29  O2  UNL     1      -6.794  49.563 -30.942  1.00  0.00    -0.776 OA
HETATM   30  H11 UNL     1      -7.214  50.193 -31.565  1.00  0.00     0.167 HD
ENDBRANCH  27  29
ENDBRANCH   4  27
BRANCH   1  31
HETATM   31  C2  UNL     1      -7.311  43.993 -32.085  1.00  0.00    -0.088 C 
HETATM   32  C1  UNL     1      -6.813  43.108 -31.204  1.00  0.00     0.014 C 
HETATM   33  C3  UNL     1      -7.931  43.518 -33.373  1.00  0.00     0.043 C 
ENDBRANCH   1  31
BRANCH   7  34
HETATM   34  C12 UNL     1      -8.722  45.411 -27.511  1.00  0.00     0.149 C 
HETATM   35  O3  UNL     1      -8.649  44.200 -27.664  1.00  0.00    -0.649 OA
BRANCH  34  36
HETATM   36  O4  UNL     1      -8.154  45.945 -26.421  1.00  0.00    -0.776 OA
HETATM   37  H16 UNL     1      -7.774  45.173 -25.950  1.00  0.00     0.167 HD
ENDBRANCH  34  36
ENDBRANCH   7  34
TORSDOF 5
ENDMDL
MODEL 9
REMARK minimizedAffinity -7.38866043
REMARK CNNscore 0.25884369
REMARK CNNaffinity 6.13777399
REMARK  5 active torsions:
REMARK  status: ('A' for Active; 'I' for Inactive)
REMARK    1  A    between atoms: C2_2  and  C4_4 
REMARK    2  A    between atoms: C7_7  and  C8_8 
REMARK    3  A    between atoms: C8_8  and  O2_10 
REMARK    4  A    between atoms: C11_13  and  C12_14 
REMARK    5  A    between atoms: C12_14  and  O4_16 
ROOT
HETATM    1  C4  UNL     1      -1.022  50.803 -26.086  1.00  0.00     0.019 C 
HETATM    2  C5  UNL     1      -1.754  51.180 -27.403  1.00  0.00     0.011 C 
HETATM    3  C6  UNL     1      -3.235  51.386 -27.041  1.00  0.00     0.021 C 
HETATM    4  C7  UNL     1      -3.417  50.576 -25.753  1.00  0.00     0.050 C 
HETATM    5  C9  UNL     1      -4.618  50.972 -24.888  1.00  0.00     0.022 C 
HETATM    6  C10 UNL     1      -4.540  50.305 -23.496  1.00  0.00     0.023 C 
HETATM    7  C11 UNL     1      -3.213  50.614 -22.705  1.00  0.00     0.057 C 
HETATM    8  C13 UNL     1      -2.003  50.225 -23.645  1.00  0.00     0.011 C 
HETATM    9  C14 UNL     1      -0.629  50.337 -22.976  1.00  0.00     0.007 C 
HETATM   10  C15 UNL     1      -0.564  49.640 -21.617  1.00  0.00     0.006 C 
HETATM   11  C16 UNL     1      -1.698  50.066 -20.659  1.00  0.00     0.003 C 
HETATM   12  C17 UNL     1      -1.500  49.590 -19.147  1.00  0.00    -0.035 C 
HETATM   13  C18 UNL     1      -1.357  48.054 -19.034  1.00  0.00     0.016 C 
HETATM   14  C19 UNL     1      -0.191  50.233 -18.588  1.00  0.00     0.017 C 
HETATM   15  C20 UNL     1       0.002  50.077 -17.086  1.00  0.00     0.080 C 
HETATM   16  C21 UNL     1      -1.199  50.557 -16.310  1.00  0.00     0.135 C 
HETATM   17  O5  UNL     1      -1.038  51.259 -15.309  1.00  0.00    -0.297 OA
HETATM   18  C22 UNL     1      -2.583  50.049 -16.746  1.00  0.00     0.017 C 
HETATM   19  C23 UNL     1      -2.780  48.629 -16.196  1.00  0.00     0.023 C 
HETATM   20  C24 UNL     1      -3.647  50.950 -16.068  1.00  0.00     0.023 C 
HETATM   21  C25 UNL     1      -2.692  50.181 -18.305  1.00  0.00     0.009 C 
HETATM   22  C26 UNL     1      -4.050  49.739 -18.884  1.00  0.00     0.007 C 
HETATM   23  C27 UNL     1      -4.226  50.252 -20.317  1.00  0.00     0.011 C 
HETATM   24  C28 UNL     1      -3.117  49.800 -21.308  1.00  0.00    -0.022 C 
HETATM   25  C29 UNL     1      -3.353  48.285 -21.573  1.00  0.00     0.017 C 
HETATM   26  C30 UNL     1      -2.116  50.957 -25.004  1.00  0.00     0.018 C 
ENDROOT
BRANCH   4  27
HETATM   27  C8  UNL     1      -3.545  49.097 -26.153  1.00  0.00     0.149 C 
HETATM   28  O1  UNL     1      -2.804  48.176 -25.853  1.00  0.00    -0.649 OA
BRANCH  27  29
HETATM   29  O2  UNL     1      -4.613  48.856 -26.940  1.00  0.00    -0.776 OA
HETATM   30  H11 UNL     1      -4.562  47.896 -27.125  1.00  0.00     0.167 HD
ENDBRANCH  27  29
ENDBRANCH   4  27
BRANCH   1  31
HETATM   31  C2  UNL     1       0.251  51.611 -25.896  1.00  0.00    -0.088 C 
HETATM   32  C1  UNL     1       1.448  51.097 -26.229  1.00  0.00     0.014 C 
HETATM   33  C3  UNL     1       0.150  53.010 -25.348  1.00  0.00     0.043 C 
ENDBRANCH   1  31
BRANCH   7  34
HETATM   34  C12 UNL     1      -3.288  52.138 -22.414  1.00  0.00     0.149 C 
HETATM   35  O3  UNL     1      -4.308  52.785 -22.225  1.00  0.00    -0.649 OA
BRANCH  34  36
HETATM   36  O4  UNL     1      -2.112  52.778 -22.344  1.00  0.00    -0.776 OA
HETATM   37  H16 UNL     1      -2.360  53.705 -22.138  1.00  0.00     0.167 HD
ENDBRANCH  34  36
ENDBRANCH   7  34
TORSDOF 5
ENDMDL
