MODEL 1
REMARK minimizedAffinity -8.34986877
REMARK CNNscore 0.382744193
REMARK CNNaffinity 6.76946592
REMARK  8 active torsions:
REMARK  status: ('A' for Active; 'I' for Inactive)
REMARK    1  A    between atoms: C2_2  and  C3_3 
REMARK    2  A    between atoms: C2_2  and  C9_12 
REMARK    3  A    between atoms: C3_3  and  C4_4 
REMARK    4  A    between atoms: C4_4  and  C5_5 
REMARK    5  A    between atoms: C6_6  and  C7_7 
REMARK    6  A    between atoms: C6_6  and  C8_9 
REMARK    7  A    between atoms: C7_7  and  O1_8 
REMARK    8  A    between atoms: C8_9  and  O3_11 
ROOT
HETATM    1  C9  UNL     1      -9.500   8.480  14.342  1.00  0.00    -0.002 C 
HETATM    2  C10 UNL     1      -8.624   9.130  15.415  1.00  0.00     0.006 C 
HETATM    3  C11 UNL     1      -7.236   8.626  15.039  1.00  0.00     0.006 C 
HETATM    4  C12 UNL     1      -7.447   7.148  14.682  1.00  0.00    -0.001 C 
HETATM    5  C13 UNL     1      -6.506   6.629  13.576  1.00  0.00    -0.000 C 
HETATM    6  C14 UNL     1      -5.029   6.754  13.939  1.00  0.00     0.006 C 
HETATM    7  C15 UNL     1      -4.167   6.080  12.874  1.00  0.00     0.007 C 
HETATM    8  C16 UNL     1      -4.336   4.547  12.906  1.00  0.00     0.010 C 
HETATM    9  C17 UNL     1      -3.414   3.797  11.878  1.00  0.00     0.018 C 
HETATM   10  C18 UNL     1      -3.058   2.386  12.398  1.00  0.00     0.023 C 
HETATM   11  C19 UNL     1      -2.063   4.521  11.663  1.00  0.00     0.023 C 
HETATM   12  C20 UNL     1      -4.087   3.649  10.504  1.00  0.00     0.135 C 
HETATM   13  O4  UNL     1      -3.428   3.603   9.463  1.00  0.00    -0.297 OA
HETATM   14  C21 UNL     1      -5.590   3.553  10.428  1.00  0.00     0.080 C 
HETATM   15  C22 UNL     1      -6.186   3.146  11.756  1.00  0.00     0.018 C 
HETATM   16  C23 UNL     1      -5.839   4.171  12.813  1.00  0.00    -0.026 A 
HETATM   17  C24 UNL     1      -6.562   4.062  14.139  1.00  0.00     0.021 A 
HETATM   18  C25 UNL     1      -6.923   5.207  13.215  1.00  0.00    -0.028 A 
HETATM   19  C26 UNL     1      -8.328   5.153  12.616  1.00  0.00     0.011 C 
HETATM   20  C27 UNL     1      -9.147   6.422  12.878  1.00  0.00     0.011 C 
HETATM   21  C28 UNL     1      -8.964   7.007  14.298  1.00  0.00    -0.036 C 
HETATM   22  C29 UNL     1      -9.644   6.078  15.325  1.00  0.00     0.016 C 
ENDROOT
BRANCH   1  23
HETATM   23  C2  UNL     1     -11.039   8.660  14.467  1.00  0.00    -0.014 C 
HETATM   24  C1  UNL     1     -11.629   9.788  13.618  1.00  0.00     0.010 C 
BRANCH  23  25
HETATM   25  C3  UNL     1     -11.797   7.320  14.260  1.00  0.00     0.008 C 
BRANCH  25  26
HETATM   26  C4  UNL     1     -12.781   7.229  13.085  1.00  0.00     0.028 C 
BRANCH  26  27
HETATM   27  C5  UNL     1     -14.130   6.691  13.481  1.00  0.00    -0.011 C 
HETATM   28  C6  UNL     1     -15.353   7.136  13.126  1.00  0.00     0.035 C 
BRANCH  28  29
HETATM   29  C7  UNL     1     -16.614   6.481  13.615  1.00  0.00     0.209 C 
BRANCH  29  30
HETATM   30  O1  UNL     1     -17.059   5.504  12.680  1.00  0.00    -0.396 OA
HETATM   31  H12 UNL     1     -16.297   4.910  12.532  1.00  0.00     0.209 HD
ENDBRANCH  29  30
ENDBRANCH  28  29
BRANCH  28  32
HETATM   32  C8  UNL     1     -15.534   8.261  12.185  1.00  0.00     0.173 C 
HETATM   33  O2  UNL     1     -15.770   8.201  10.994  1.00  0.00    -0.646 OA
BRANCH  32  34
HETATM   34  O3  UNL     1     -15.406   9.446  12.815  1.00  0.00    -0.773 OA
HETATM   35  H13 UNL     1     -15.525  10.098  12.089  1.00  0.00     0.167 HD
ENDBRANCH  32  34
ENDBRANCH  28  32
ENDBRANCH  26  27
ENDBRANCH  25  26
ENDBRANCH  23  25
ENDBRANCH   1  23
TORSDOF 8
ENDMDL
MODEL 2
REMARK minimizedAffinity -8.24024296
REMARK CNNscore 0.341178894
REMARK CNNaffinity 6.67713976
REMARK  8 active torsions:
REMARK  status: ('A' for Active; 'I' for Inactive)
REMARK    1  A    between atoms: C2_2  and  C3_3 
REMARK    2  A    between atoms: C2_2  and  C9_12 
REMARK    3  A    between atoms: C3_3  and  C4_4 
REMARK    4  A    between atoms: C4_4  and  C5_5 
REMARK    5  A    between atoms: C6_6  and  C7_7 
REMARK    6  A    between atoms: C6_6  and  C8_9 
REMARK    7  A    between atoms: C7_7  and  O1_8 
REMARK    8  A    between atoms: C8_9  and  O3_11 
ROOT
HETATM    1  C9  UNL     1      -5.700   7.160  14.285  1.00  0.00    -0.002 C 
HETATM    2  C10 UNL     1      -5.629   8.582  14.847  1.00  0.00     0.006 C 
HETATM    3  C11 UNL     1      -4.305   9.080  14.283  1.00  0.00     0.006 C 
HETATM    4  C12 UNL     1      -3.346   7.892  14.446  1.00  0.00    -0.001 C 
HETATM    5  C13 UNL     1      -2.283   7.786  13.333  1.00  0.00    -0.000 C 
HETATM    6  C14 UNL     1      -1.390   9.020  13.240  1.00  0.00     0.006 C 
HETATM    7  C15 UNL     1      -0.268   8.781  12.232  1.00  0.00     0.007 C 
HETATM    8  C16 UNL     1       0.744   7.741  12.758  1.00  0.00     0.010 C 
HETATM    9  C17 UNL     1       1.961   7.512  11.790  1.00  0.00     0.018 C 
HETATM   10  C18 UNL     1       3.218   7.100  12.589  1.00  0.00     0.023 C 
HETATM   11  C19 UNL     1       2.351   8.799  11.023  1.00  0.00     0.023 C 
HETATM   12  C20 UNL     1       1.670   6.419  10.750  1.00  0.00     0.135 C 
HETATM   13  O4  UNL     1       2.192   6.434   9.633  1.00  0.00    -0.297 OA
HETATM   14  C21 UNL     1       0.727   5.298  11.105  1.00  0.00     0.080 C 
HETATM   15  C22 UNL     1       0.569   5.162  12.603  1.00  0.00     0.018 C 
HETATM   16  C23 UNL     1       0.007   6.442  13.180  1.00  0.00    -0.026 A 
HETATM   17  C24 UNL     1      -0.457   6.401  14.621  1.00  0.00     0.021 A 
HETATM   18  C25 UNL     1      -1.505   6.489  13.531  1.00  0.00    -0.028 A 
HETATM   19  C26 UNL     1      -2.391   5.254  13.368  1.00  0.00     0.011 C 
HETATM   20  C27 UNL     1      -3.889   5.570  13.452  1.00  0.00     0.011 C 
HETATM   21  C28 UNL     1      -4.253   6.612  14.535  1.00  0.00    -0.036 C 
HETATM   22  C29 UNL     1      -4.072   5.981  15.932  1.00  0.00     0.016 C 
ENDROOT
BRANCH   1  23
HETATM   23  C2  UNL     1      -6.880   6.262  14.753  1.00  0.00    -0.014 C 
HETATM   24  C1  UNL     1      -7.869   6.938  15.705  1.00  0.00     0.010 C 
BRANCH  23  25
HETATM   25  C3  UNL     1      -7.598   5.581  13.556  1.00  0.00     0.008 C 
BRANCH  25  26
HETATM   26  C4  UNL     1      -6.725   5.019  12.423  1.00  0.00     0.028 C 
BRANCH  26  27
HETATM   27  C5  UNL     1      -6.771   3.518  12.327  1.00  0.00    -0.011 C 
HETATM   28  C6  UNL     1      -6.106   2.707  11.480  1.00  0.00     0.035 C 
BRANCH  28  29
HETATM   29  C7  UNL     1      -6.265   1.212  11.514  1.00  0.00     0.209 C 
BRANCH  29  30
HETATM   30  O1  UNL     1      -7.156   0.833  12.557  1.00  0.00    -0.396 OA
HETATM   31  H12 UNL     1      -7.973   1.349  12.409  1.00  0.00     0.209 HD
ENDBRANCH  29  30
ENDBRANCH  28  29
BRANCH  28  32
HETATM   32  C8  UNL     1      -5.130   3.228  10.499  1.00  0.00     0.173 C 
HETATM   33  O2  UNL     1      -4.001   3.622  10.715  1.00  0.00    -0.646 OA
BRANCH  32  34
HETATM   34  O3  UNL     1      -5.645   3.225   9.253  1.00  0.00    -0.773 OA
HETATM   35  H13 UNL     1      -4.920   3.607   8.712  1.00  0.00     0.167 HD
ENDBRANCH  32  34
ENDBRANCH  28  32
ENDBRANCH  26  27
ENDBRANCH  25  26
ENDBRANCH  23  25
ENDBRANCH   1  23
TORSDOF 8
ENDMDL
MODEL 3
REMARK minimizedAffinity -9.617239
REMARK CNNscore 0.333956063
REMARK CNNaffinity 7.03244162
REMARK  8 active torsions:
REMARK  status: ('A' for Active; 'I' for Inactive)
REMARK    1  A    between atoms: C2_2  and  C3_3 
REMARK    2  A    between atoms: C2_2  and  C9_12 
REMARK    3  A    between atoms: C3_3  and  C4_4 
REMARK    4  A    between atoms: C4_4  and  C5_5 
REMARK    5  A    between atoms: C6_6  and  C7_7 
REMARK    6  A    between atoms: C6_6  and  C8_9 
REMARK    7  A    between atoms: C7_7  and  O1_8 
REMARK    8  A    between atoms: C8_9  and  O3_11 
ROOT
HETATM    1  C9  UNL     1      -4.441   6.076  13.340  1.00  0.00    -0.002 C 
HETATM    2  C10 UNL     1      -4.867   4.638  13.034  1.00  0.00     0.006 C 
HETATM    3  C11 UNL     1      -6.376   4.782  12.875  1.00  0.00     0.006 C 
HETATM    4  C12 UNL     1      -6.793   5.727  14.010  1.00  0.00    -0.001 C 
HETATM    5  C13 UNL     1      -7.985   6.642  13.659  1.00  0.00    -0.000 C 
HETATM    6  C14 UNL     1      -9.246   5.868  13.288  1.00  0.00     0.006 C 
HETATM    7  C15 UNL     1     -10.419   6.829  13.109  1.00  0.00     0.007 C 
HETATM    8  C16 UNL     1     -10.851   7.441  14.458  1.00  0.00     0.010 C 
HETATM    9  C17 UNL     1     -12.104   8.383  14.342  1.00  0.00     0.018 C 
HETATM   10  C18 UNL     1     -12.912   8.374  15.659  1.00  0.00     0.023 C 
HETATM   11  C19 UNL     1     -13.087   7.918  13.240  1.00  0.00     0.023 C 
HETATM   12  C20 UNL     1     -11.706   9.834  14.029  1.00  0.00     0.135 C 
HETATM   13  O4  UNL     1     -12.449  10.586  13.395  1.00  0.00    -0.297 OA
HETATM   14  C21 UNL     1     -10.376  10.352  14.514  1.00  0.00     0.080 C 
HETATM   15  C22 UNL     1      -9.832   9.506  15.644  1.00  0.00     0.018 C 
HETATM   16  C23 UNL     1      -9.630   8.083  15.170  1.00  0.00    -0.026 A 
HETATM   17  C24 UNL     1      -8.855   7.159  16.085  1.00  0.00     0.021 A 
HETATM   18  C25 UNL     1      -8.192   7.626  14.805  1.00  0.00    -0.028 A 
HETATM   19  C26 UNL     1      -6.997   8.562  14.987  1.00  0.00     0.011 C 
HETATM   20  C27 UNL     1      -5.728   8.064  14.285  1.00  0.00     0.011 C 
HETATM   21  C28 UNL     1      -5.504   6.538  14.396  1.00  0.00    -0.036 C 
HETATM   22  C29 UNL     1      -5.119   6.183  15.848  1.00  0.00     0.016 C 
ENDROOT
BRANCH   1  23
HETATM   23  C2  UNL     1      -2.948   6.320  13.698  1.00  0.00    -0.014 C 
HETATM   24  C1  UNL     1      -2.703   6.894  15.095  1.00  0.00     0.010 C 
BRANCH  23  25
HETATM   25  C3  UNL     1      -2.076   5.065  13.424  1.00  0.00     0.008 C 
BRANCH  25  26
HETATM   26  C4  UNL     1      -1.304   5.006  12.097  1.00  0.00     0.028 C 
BRANCH  26  27
HETATM   27  C5  UNL     1      -0.834   3.620  11.745  1.00  0.00    -0.011 C 
HETATM   28  C6  UNL     1      -1.516   2.625  11.142  1.00  0.00     0.035 C 
BRANCH  28  29
HETATM   29  C7  UNL     1      -0.894   1.286  10.860  1.00  0.00     0.209 C 
BRANCH  29  30
HETATM   30  O1  UNL     1      -0.936   1.005   9.466  1.00  0.00    -0.396 OA
HETATM   31  H12 UNL     1      -0.519   1.772   9.026  1.00  0.00     0.209 HD
ENDBRANCH  29  30
ENDBRANCH  28  29
BRANCH  28  32
HETATM   32  C8  UNL     1      -2.903   2.805  10.664  1.00  0.00     0.173 C 
HETATM   33  O2  UNL     1      -3.315   3.633   9.875  1.00  0.00    -0.646 OA
BRANCH  32  34
HETATM   34  O3  UNL     1      -3.731   1.899  11.224  1.00  0.00    -0.773 OA
HETATM   35  H13 UNL     1      -4.607   2.136  10.848  1.00  0.00     0.167 HD
ENDBRANCH  32  34
ENDBRANCH  28  32
ENDBRANCH  26  27
ENDBRANCH  25  26
ENDBRANCH  23  25
ENDBRANCH   1  23
TORSDOF 8
ENDMDL
MODEL 4
REMARK minimizedAffinity -7.15943623
REMARK CNNscore 0.329863966
REMARK CNNaffinity 6.26897287
REMARK  8 active torsions:
REMARK  status: ('A' for Active; 'I' for Inactive)
REMARK    1  A    between atoms: C2_2  and  C3_3 
REMARK    2  A    between atoms: C2_2  and  C9_12 
REMARK    3  A    between atoms: C3_3  and  C4_4 
REMARK    4  A    between atoms: C4_4  and  C5_5 
REMARK    5  A    between atoms: C6_6  and  C7_7 
REMARK    6  A    between atoms: C6_6  and  C8_9 
REMARK    7  A    between atoms: C7_7  and  O1_8 
REMARK    8  A    between atoms: C8_9  and  O3_11 
ROOT
HETATM    1  C9  UNL     1      -1.444   7.633  13.832  1.00  0.00    -0.002 C 
HETATM    2  C10 UNL     1      -1.248   6.657  14.994  1.00  0.00     0.006 C 
HETATM    3  C11 UNL     1      -1.859   7.425  16.160  1.00  0.00     0.006 C 
HETATM    4  C12 UNL     1      -1.365   8.867  15.971  1.00  0.00    -0.001 C 
HETATM    5  C13 UNL     1      -2.369   9.940  16.440  1.00  0.00    -0.000 C 
HETATM    6  C14 UNL     1      -2.725   9.822  17.919  1.00  0.00     0.006 C 
HETATM    7  C15 UNL     1      -3.593  11.004  18.346  1.00  0.00     0.007 C 
HETATM    8  C16 UNL     1      -2.782  12.317  18.357  1.00  0.00     0.010 C 
HETATM    9  C17 UNL     1      -3.608  13.555  18.861  1.00  0.00     0.018 C 
HETATM   10  C18 UNL     1      -2.677  14.590  19.533  1.00  0.00     0.023 C 
HETATM   11  C19 UNL     1      -4.652  13.165  19.936  1.00  0.00     0.023 C 
HETATM   12  C20 UNL     1      -4.357  14.252  17.715  1.00  0.00     0.135 C 
HETATM   13  O4  UNL     1      -5.419  14.849  17.905  1.00  0.00    -0.297 OA
HETATM   14  C21 UNL     1      -3.778  14.208  16.324  1.00  0.00     0.080 C 
HETATM   15  C22 UNL     1      -2.301  13.882  16.350  1.00  0.00     0.018 C 
HETATM   16  C23 UNL     1      -2.084  12.527  16.986  1.00  0.00    -0.026 A 
HETATM   17  C24 UNL     1      -0.700  11.926  16.866  1.00  0.00     0.021 A 
HETATM   18  C25 UNL     1      -1.823  11.312  16.056  1.00  0.00    -0.028 A 
HETATM   19  C26 UNL     1      -1.714  11.487  14.541  1.00  0.00     0.011 C 
HETATM   20  C27 UNL     1      -1.777  10.161  13.774  1.00  0.00     0.011 C 
HETATM   21  C28 UNL     1      -1.002   9.005  14.449  1.00  0.00    -0.036 C 
HETATM   22  C29 UNL     1       0.514   9.269  14.330  1.00  0.00     0.016 C 
ENDROOT
BRANCH   1  23
HETATM   23  C2  UNL     1      -0.821   7.249  12.461  1.00  0.00    -0.014 C 
HETATM   24  C1  UNL     1      -0.560   8.425  11.517  1.00  0.00     0.010 C 
BRANCH  23  25
HETATM   25  C3  UNL     1       0.433   6.349  12.628  1.00  0.00     0.008 C 
BRANCH  25  26
HETATM   26  C4  UNL     1       1.193   5.937  11.358  1.00  0.00     0.028 C 
BRANCH  26  27
HETATM   27  C5  UNL     1       2.659   6.272  11.408  1.00  0.00    -0.011 C 
HETATM   28  C6  UNL     1       3.532   6.395  10.387  1.00  0.00     0.035 C 
BRANCH  28  29
HETATM   29  C7  UNL     1       4.979   6.737  10.609  1.00  0.00     0.209 C 
BRANCH  29  30
HETATM   30  O1  UNL     1       5.512   5.964  11.678  1.00  0.00    -0.396 OA
HETATM   31  H12 UNL     1       5.322   5.032  11.452  1.00  0.00     0.209 HD
ENDBRANCH  29  30
ENDBRANCH  28  29
BRANCH  28  32
HETATM   32  C8  UNL     1       3.112   6.257   8.977  1.00  0.00     0.173 C 
HETATM   33  O2  UNL     1       2.609   7.107   8.267  1.00  0.00    -0.646 OA
BRANCH  32  34
HETATM   34  O3  UNL     1       3.355   5.014   8.516  1.00  0.00    -0.773 OA
HETATM   35  H13 UNL     1       3.017   5.048   7.594  1.00  0.00     0.167 HD
ENDBRANCH  32  34
ENDBRANCH  28  32
ENDBRANCH  26  27
ENDBRANCH  25  26
ENDBRANCH  23  25
ENDBRANCH   1  23
TORSDOF 8
ENDMDL
MODEL 5
REMARK minimizedAffinity -6.66134501
REMARK CNNscore 0.322702408
REMARK CNNaffinity 5.64734602
REMARK  8 active torsions:
REMARK  status: ('A' for Active; 'I' for Inactive)
REMARK    1  A    between atoms: C2_2  and  C3_3 
REMARK    2  A    between atoms: C2_2  and  C9_12 
REMARK    3  A    between atoms: C3_3  and  C4_4 
REMARK    4  A    between atoms: C4_4  and  C5_5 
REMARK    5  A    between atoms: C6_6  and  C7_7 
REMARK    6  A    between atoms: C6_6  and  C8_9 
REMARK    7  A    between atoms: C7_7  and  O1_8 
REMARK    8  A    between atoms: C8_9  and  O3_11 
ROOT
HETATM    1  C9  UNL     1      -4.453  -9.980   5.968  1.00  0.00    -0.002 C 
HETATM    2  C10 UNL     1      -3.132 -10.688   5.662  1.00  0.00     0.006 C 
HETATM    3  C11 UNL     1      -3.131 -10.711   4.138  1.00  0.00     0.006 C 
HETATM    4  C12 UNL     1      -4.572 -11.077   3.758  1.00  0.00    -0.001 C 
HETATM    5  C13 UNL     1      -5.059 -10.429   2.446  1.00  0.00    -0.000 C 
HETATM    6  C14 UNL     1      -4.209 -10.811   1.237  1.00  0.00     0.006 C 
HETATM    7  C15 UNL     1      -4.839 -10.266  -0.042  1.00  0.00     0.007 C 
HETATM    8  C16 UNL     1      -6.152 -11.004  -0.377  1.00  0.00     0.010 C 
HETATM    9  C17 UNL     1      -6.805 -10.531  -1.726  1.00  0.00     0.018 C 
HETATM   10  C18 UNL     1      -7.608 -11.683  -2.372  1.00  0.00     0.023 C 
HETATM   11  C19 UNL     1      -5.747 -10.114  -2.776  1.00  0.00     0.023 C 
HETATM   12  C20 UNL     1      -7.753  -9.339  -1.520  1.00  0.00     0.135 C 
HETATM   13  O4  UNL     1      -7.941  -8.501  -2.405  1.00  0.00    -0.297 OA
HETATM   14  C21 UNL     1      -8.474  -9.192  -0.204  1.00  0.00     0.080 C 
HETATM   15  C22 UNL     1      -8.517 -10.501   0.552  1.00  0.00     0.018 C 
HETATM   16  C23 UNL     1      -7.110 -10.974   0.844  1.00  0.00    -0.026 A 
HETATM   17  C24 UNL     1      -6.961 -12.128   1.812  1.00  0.00     0.021 A 
HETATM   18  C25 UNL     1      -6.540 -10.748   2.270  1.00  0.00    -0.028 A 
HETATM   19  C26 UNL     1      -7.398 -10.130   3.374  1.00  0.00     0.011 C 
HETATM   20  C27 UNL     1      -6.585  -9.694   4.599  1.00  0.00     0.011 C 
HETATM   21  C28 UNL     1      -5.460 -10.680   4.992  1.00  0.00    -0.036 C 
HETATM   22  C29 UNL     1      -6.087 -11.963   5.577  1.00  0.00     0.016 C 
ENDROOT
BRANCH   1  23
HETATM   23  C2  UNL     1      -4.882  -9.876   7.459  1.00  0.00    -0.014 C 
HETATM   24  C1  UNL     1      -3.728  -9.822   8.462  1.00  0.00     0.010 C 
BRANCH  23  25
HETATM   25  C3  UNL     1      -5.904  -8.729   7.687  1.00  0.00     0.008 C 
BRANCH  25  26
HETATM   26  C4  UNL     1      -7.245  -9.087   8.347  1.00  0.00     0.028 C 
BRANCH  26  27
HETATM   27  C5  UNL     1      -7.389  -8.532   9.738  1.00  0.00    -0.011 C 
HETATM   28  C6  UNL     1      -6.999  -9.077  10.909  1.00  0.00     0.035 C 
BRANCH  28  29
HETATM   29  C7  UNL     1      -7.221  -8.387  12.225  1.00  0.00     0.209 C 
BRANCH  29  30
HETATM   30  O1  UNL     1      -6.250  -7.364  12.417  1.00  0.00    -0.396 OA
HETATM   31  H12 UNL     1      -6.299  -6.797  11.622  1.00  0.00     0.209 HD
ENDBRANCH  29  30
ENDBRANCH  28  29
BRANCH  28  32
HETATM   32  C8  UNL     1      -6.275 -10.364  10.970  1.00  0.00     0.173 C 
HETATM   33  O2  UNL     1      -6.595 -11.420  10.460  1.00  0.00    -0.646 OA
BRANCH  32  34
HETATM   34  O3  UNL     1      -5.144 -10.251  11.695  1.00  0.00    -0.773 OA
HETATM   35  H13 UNL     1      -4.775 -11.161  11.676  1.00  0.00     0.167 HD
ENDBRANCH  32  34
ENDBRANCH  28  32
ENDBRANCH  26  27
ENDBRANCH  25  26
ENDBRANCH  23  25
ENDBRANCH   1  23
TORSDOF 8
ENDMDL
MODEL 6
REMARK minimizedAffinity -9.36653805
REMARK CNNscore 0.28753981
REMARK CNNaffinity 6.91591978
REMARK  8 active torsions:
REMARK  status: ('A' for Active; 'I' for Inactive)
REMARK    1  A    between atoms: C2_2  and  C3_3 
REMARK    2  A    between atoms: C2_2  and  C9_12 
REMARK    3  A    between atoms: C3_3  and  C4_4 
REMARK    4  A    between atoms: C4_4  and  C5_5 
REMARK    5  A    between atoms: C6_6  and  C7_7 
REMARK    6  A    between atoms: C6_6  and  C8_9 
REMARK    7  A    between atoms: C7_7  and  O1_8 
REMARK    8  A    between atoms: C8_9  and  O3_11 
ROOT
HETATM    1  C9  UNL     1      -4.168   6.063  13.183  1.00  0.00    -0.002 C 
HETATM    2  C10 UNL     1      -4.564   4.613  12.893  1.00  0.00     0.006 C 
HETATM    3  C11 UNL     1      -6.080   4.715  12.780  1.00  0.00     0.006 C 
HETATM    4  C12 UNL     1      -6.489   5.653  13.924  1.00  0.00    -0.001 C 
HETATM    5  C13 UNL     1      -7.714   6.534  13.607  1.00  0.00    -0.000 C 
HETATM    6  C14 UNL     1      -8.965   5.724  13.276  1.00  0.00     0.006 C 
HETATM    7  C15 UNL     1     -10.169   6.653  13.130  1.00  0.00     0.007 C 
HETATM    8  C16 UNL     1     -10.576   7.258  14.490  1.00  0.00     0.010 C 
HETATM    9  C17 UNL     1     -11.857   8.164  14.410  1.00  0.00     0.018 C 
HETATM   10  C18 UNL     1     -12.625   8.138  15.750  1.00  0.00     0.023 C 
HETATM   11  C19 UNL     1     -12.860   7.670  13.339  1.00  0.00     0.023 C 
HETATM   12  C20 UNL     1     -11.508   9.625  14.082  1.00  0.00     0.135 C 
HETATM   13  O4  UNL     1     -12.290  10.355  13.468  1.00  0.00    -0.297 OA
HETATM   14  C21 UNL     1     -10.179  10.180  14.525  1.00  0.00     0.080 C 
HETATM   15  C22 UNL     1      -9.578   9.353  15.640  1.00  0.00     0.018 C 
HETATM   16  C23 UNL     1      -9.353   7.934  15.164  1.00  0.00    -0.026 A 
HETATM   17  C24 UNL     1      -8.525   7.034  16.057  1.00  0.00     0.021 A 
HETATM   18  C25 UNL     1      -7.914   7.516  14.757  1.00  0.00    -0.028 A 
HETATM   19  C26 UNL     1      -6.740   8.484  14.900  1.00  0.00     0.011 C 
HETATM   20  C27 UNL     1      -5.480   8.018  14.162  1.00  0.00     0.011 C 
HETATM   21  C28 UNL     1      -5.211   6.499  14.269  1.00  0.00    -0.036 C 
HETATM   22  C29 UNL     1      -4.773   6.159  15.710  1.00  0.00     0.016 C 
ENDROOT
BRANCH   1  23
HETATM   23  C2  UNL     1      -2.672   6.349  13.495  1.00  0.00    -0.014 C 
HETATM   24  C1  UNL     1      -1.703   5.235  13.091  1.00  0.00     0.010 C 
BRANCH  23  25
HETATM   25  C3  UNL     1      -2.224   7.734  12.955  1.00  0.00     0.008 C 
BRANCH  25  26
HETATM   26  C4  UNL     1      -0.733   7.932  12.643  1.00  0.00     0.028 C 
BRANCH  26  27
HETATM   27  C5  UNL     1      -0.467   8.266  11.200  1.00  0.00    -0.011 C 
HETATM   28  C6  UNL     1       0.347   7.640  10.325  1.00  0.00     0.035 C 
BRANCH  28  29
HETATM   29  C7  UNL     1       0.502   8.105   8.904  1.00  0.00     0.209 C 
BRANCH  29  30
HETATM   30  O1  UNL     1      -0.358   9.210   8.648  1.00  0.00    -0.396 OA
HETATM   31  H12 UNL     1      -0.156   9.870   9.340  1.00  0.00     0.209 HD
ENDBRANCH  29  30
ENDBRANCH  28  29
BRANCH  28  32
HETATM   32  C8  UNL     1       1.098   6.421  10.690  1.00  0.00     0.173 C 
HETATM   33  O2  UNL     1       0.772   5.265  10.499  1.00  0.00    -0.646 OA
BRANCH  32  34
HETATM   34  O3  UNL     1       2.261   6.729  11.296  1.00  0.00    -0.773 OA
HETATM   35  H13 UNL     1       2.646   5.849  11.502  1.00  0.00     0.167 HD
ENDBRANCH  32  34
ENDBRANCH  28  32
ENDBRANCH  26  27
ENDBRANCH  25  26
ENDBRANCH  23  25
ENDBRANCH   1  23
TORSDOF 8
ENDMDL
MODEL 7
REMARK minimizedAffinity -6.94102287
REMARK CNNscore 0.286274672
REMARK CNNaffinity 5.51691675
REMARK  8 active torsions:
REMARK  status: ('A' for Active; 'I' for Inactive)
REMARK    1  A    between atoms: C2_2  and  C3_3 
REMARK    2  A    between atoms: C2_2  and  C9_12 
REMARK    3  A    between atoms: C3_3  and  C4_4 
REMARK    4  A    between atoms: C4_4  and  C5_5 
REMARK    5  A    between atoms: C6_6  and  C7_7 
REMARK    6  A    between atoms: C6_6  and  C8_9 
REMARK    7  A    between atoms: C7_7  and  O1_8 
REMARK    8  A    between atoms: C8_9  and  O3_11 
ROOT
HETATM    1  C9  UNL     1       5.758  11.917  21.727  1.00  0.00    -0.002 C 
HETATM    2  C10 UNL     1       5.203  11.057  22.864  1.00  0.00     0.006 C 
HETATM    3  C11 UNL     1       3.824  10.684  22.335  1.00  0.00     0.006 C 
HETATM    4  C12 UNL     1       3.288  11.979  21.708  1.00  0.00    -0.001 C 
HETATM    5  C13 UNL     1       2.382  11.754  20.480  1.00  0.00    -0.000 C 
HETATM    6  C14 UNL     1       1.148  10.912  20.793  1.00  0.00     0.006 C 
HETATM    7  C15 UNL     1       0.223  10.865  19.579  1.00  0.00     0.007 C 
HETATM    8  C16 UNL     1      -0.432  12.239  19.321  1.00  0.00     0.010 C 
HETATM    9  C17 UNL     1      -1.452  12.228  18.126  1.00  0.00     0.018 C 
HETATM   10  C18 UNL     1      -2.555  13.287  18.346  1.00  0.00     0.023 C 
HETATM   11  C19 UNL     1      -2.188  10.872  17.995  1.00  0.00     0.023 C 
HETATM   12  C20 UNL     1      -0.766  12.518  16.782  1.00  0.00     0.135 C 
HETATM   13  O4  UNL     1      -1.198  12.060  15.722  1.00  0.00    -0.297 OA
HETATM   14  C21 UNL     1       0.464  13.390  16.757  1.00  0.00     0.080 C 
HETATM   15  C22 UNL     1       0.569  14.234  18.008  1.00  0.00     0.018 C 
HETATM   16  C23 UNL     1       0.657  13.342  19.226  1.00  0.00    -0.026 A 
HETATM   17  C24 UNL     1       1.023  14.004  20.537  1.00  0.00     0.021 A 
HETATM   18  C25 UNL     1       2.050  13.112  19.870  1.00  0.00    -0.028 A 
HETATM   19  C26 UNL     1       3.293  13.824  19.336  1.00  0.00     0.011 C 
HETATM   20  C27 UNL     1       4.603  13.240  19.877  1.00  0.00     0.011 C 
HETATM   21  C28 UNL     1       4.550  12.852  21.374  1.00  0.00    -0.036 C 
HETATM   22  C29 UNL     1       4.499  14.135  22.231  1.00  0.00     0.016 C 
ENDROOT
BRANCH   1  23
HETATM   23  C2  UNL     1       7.133  12.606  21.954  1.00  0.00    -0.014 C 
HETATM   24  C1  UNL     1       7.765  12.351  23.324  1.00  0.00     0.010 C 
BRANCH  23  25
HETATM   25  C3  UNL     1       8.123  12.316  20.794  1.00  0.00     0.008 C 
BRANCH  25  26
HETATM   26  C4  UNL     1       9.557  12.853  20.924  1.00  0.00     0.028 C 
BRANCH  26  27
HETATM   27  C5  UNL     1      10.224  13.093  19.597  1.00  0.00    -0.011 C 
HETATM   28  C6  UNL     1      11.423  12.652  19.163  1.00  0.00     0.035 C 
BRANCH  28  29
HETATM   29  C7  UNL     1      11.950  12.986  17.796  1.00  0.00     0.209 C 
BRANCH  29  30
HETATM   30  O1  UNL     1      13.213  12.365  17.587  1.00  0.00    -0.396 OA
HETATM   31  H12 UNL     1      13.076  11.415  17.774  1.00  0.00     0.209 HD
ENDBRANCH  29  30
ENDBRANCH  28  29
BRANCH  28  32
HETATM   32  C8  UNL     1      12.272  11.762  19.981  1.00  0.00     0.173 C 
HETATM   33  O2  UNL     1      13.144  12.083  20.765  1.00  0.00    -0.646 OA
BRANCH  32  34
HETATM   34  O3  UNL     1      11.969  10.466  19.764  1.00  0.00    -0.773 OA
HETATM   35  H13 UNL     1      12.605   9.989  20.340  1.00  0.00     0.167 HD
ENDBRANCH  32  34
ENDBRANCH  28  32
ENDBRANCH  26  27
ENDBRANCH  25  26
ENDBRANCH  23  25
ENDBRANCH   1  23
TORSDOF 8
ENDMDL
MODEL 8
REMARK minimizedAffinity -9.59274673
REMARK CNNscore 0.276130497
REMARK CNNaffinity 6.7373085
REMARK  8 active torsions:
REMARK  status: ('A' for Active; 'I' for Inactive)
REMARK    1  A    between atoms: C2_2  and  C3_3 
REMARK    2  A    between atoms: C2_2  and  C9_12 
REMARK    3  A    between atoms: C3_3  and  C4_4 
REMARK    4  A    between atoms: C4_4  and  C5_5 
REMARK    5  A    between atoms: C6_6  and  C7_7 
REMARK    6  A    between atoms: C6_6  and  C8_9 
REMARK    7  A    between atoms: C7_7  and  O1_8 
REMARK    8  A    between atoms: C8_9  and  O3_11 
ROOT
HETATM    1  C9  UNL     1       0.321   6.353  11.443  1.00  0.00    -0.002 C 
HETATM    2  C10 UNL     1       0.738   4.881  11.413  1.00  0.00     0.006 C 
HETATM    3  C11 UNL     1      -0.602   4.169  11.551  1.00  0.00     0.006 C 
HETATM    4  C12 UNL     1      -1.357   4.972  12.619  1.00  0.00    -0.001 C 
HETATM    5  C13 UNL     1      -2.884   5.019  12.407  1.00  0.00    -0.000 C 
HETATM    6  C14 UNL     1      -3.531   3.637  12.404  1.00  0.00     0.006 C 
HETATM    7  C15 UNL     1      -5.051   3.769  12.350  1.00  0.00     0.007 C 
HETATM    8  C16 UNL     1      -5.610   4.338  13.671  1.00  0.00     0.010 C 
HETATM    9  C17 UNL     1      -7.179   4.426  13.697  1.00  0.00     0.018 C 
HETATM   10  C18 UNL     1      -7.706   4.280  15.142  1.00  0.00     0.023 C 
HETATM   11  C19 UNL     1      -7.844   3.286  12.887  1.00  0.00     0.023 C 
HETATM   12  C20 UNL     1      -7.690   5.759  13.129  1.00  0.00     0.135 C 
HETATM   13  O4  UNL     1      -8.786   5.847  12.571  1.00  0.00    -0.297 OA
HETATM   14  C21 UNL     1      -6.832   6.992  13.262  1.00  0.00     0.080 C 
HETATM   15  C22 UNL     1      -5.797   6.830  14.353  1.00  0.00     0.018 C 
HETATM   16  C23 UNL     1      -4.888   5.664  14.031  1.00  0.00    -0.026 A 
HETATM   17  C24 UNL     1      -3.641   5.513  14.876  1.00  0.00     0.021 A 
HETATM   18  C25 UNL     1      -3.485   5.968  13.439  1.00  0.00    -0.028 A 
HETATM   19  C26 UNL     1      -3.002   7.406  13.253  1.00  0.00     0.011 C 
HETATM   20  C27 UNL     1      -1.750   7.513  12.374  1.00  0.00     0.011 C 
HETATM   21  C28 UNL     1      -0.705   6.402  12.627  1.00  0.00    -0.036 C 
HETATM   22  C29 UNL     1      -0.041   6.629  14.002  1.00  0.00     0.016 C 
ENDROOT
BRANCH   1  23
HETATM   23  C2  UNL     1       1.452   7.419  11.453  1.00  0.00    -0.014 C 
HETATM   24  C1  UNL     1       2.562   7.174  12.477  1.00  0.00     0.010 C 
BRANCH  23  25
HETATM   25  C3  UNL     1       2.020   7.671  10.030  1.00  0.00     0.008 C 
BRANCH  25  26
HETATM   26  C4  UNL     1       3.430   7.148   9.718  1.00  0.00     0.028 C 
BRANCH  26  27
HETATM   27  C5  UNL     1       4.514   8.152  10.004  1.00  0.00    -0.011 C 
HETATM   28  C6  UNL     1       5.676   7.976  10.665  1.00  0.00     0.035 C 
BRANCH  28  29
HETATM   29  C7  UNL     1       6.659   9.095  10.867  1.00  0.00     0.209 C 
BRANCH  29  30
HETATM   30  O1  UNL     1       6.076  10.339  10.494  1.00  0.00    -0.396 OA
HETATM   31  H12 UNL     1       5.242  10.404  11.001  1.00  0.00     0.209 HD
ENDBRANCH  29  30
ENDBRANCH  28  29
BRANCH  28  32
HETATM   32  C8  UNL     1       6.087   6.655  11.186  1.00  0.00     0.173 C 
HETATM   33  O2  UNL     1       6.575   5.732  10.564  1.00  0.00    -0.646 OA
BRANCH  32  34
HETATM   34  O3  UNL     1       5.855   6.562  12.511  1.00  0.00    -0.773 OA
HETATM   35  H13 UNL     1       6.146   5.649  12.724  1.00  0.00     0.167 HD
ENDBRANCH  32  34
ENDBRANCH  28  32
ENDBRANCH  26  27
ENDBRANCH  25  26
ENDBRANCH  23  25
ENDBRANCH   1  23
TORSDOF 8
ENDMDL
MODEL 9
REMARK minimizedAffinity -7.19266748
REMARK CNNscore 0.273457021
REMARK CNNaffinity 5.64101076
REMARK  8 active torsions:
REMARK  status: ('A' for Active; 'I' for Inactive)
REMARK    1  A    between atoms: C2_2  and  C3_3 
REMARK    2  A    between atoms: C2_2  and  C9_12 
REMARK    3  A    between atoms: C3_3  and  C4_4 
REMARK    4  A    between atoms: C4_4  and  C5_5 
REMARK    5  A    between atoms: C6_6  and  C7_7 
REMARK    6  A    between atoms: C6_6  and  C8_9 
REMARK    7  A    between atoms: C7_7  and  O1_8 
REMARK    8  A    between atoms: C8_9  and  O3_11 
ROOT
HETATM    1  C9  UNL     1      -4.599 -10.074   4.719  1.00  0.00    -0.002 C 
HETATM    2  C10 UNL     1      -3.821 -10.710   3.565  1.00  0.00     0.006 C 
HETATM    3  C11 UNL     1      -4.669 -10.324   2.360  1.00  0.00     0.006 C 
HETATM    4  C12 UNL     1      -6.117 -10.535   2.824  1.00  0.00    -0.001 C 
HETATM    5  C13 UNL     1      -7.125  -9.546   2.205  1.00  0.00    -0.000 C 
HETATM    6  C14 UNL     1      -7.172  -9.613   0.681  1.00  0.00     0.006 C 
HETATM    7  C15 UNL     1      -8.298  -8.727   0.151  1.00  0.00     0.007 C 
HETATM    8  C16 UNL     1      -9.682  -9.312   0.501  1.00  0.00     0.010 C 
HETATM    9  C17 UNL     1     -10.877  -8.478  -0.086  1.00  0.00     0.018 C 
HETATM   10  C18 UNL     1     -12.092  -9.392  -0.361  1.00  0.00     0.023 C 
HETATM   11  C19 UNL     1     -10.525  -7.823  -1.444  1.00  0.00     0.023 C 
HETATM   12  C20 UNL     1     -11.321  -7.359   0.870  1.00  0.00     0.135 C 
HETATM   13  O4  UNL     1     -11.817  -6.310   0.452  1.00  0.00    -0.297 OA
HETATM   14  C21 UNL     1     -11.152  -7.551   2.356  1.00  0.00     0.080 C 
HETATM   15  C22 UNL     1     -11.000  -9.013   2.710  1.00  0.00     0.018 C 
HETATM   16  C23 UNL     1      -9.778  -9.585   2.026  1.00  0.00    -0.026 A 
HETATM   17  C24 UNL     1      -9.325 -10.961   2.467  1.00  0.00     0.021 A 
HETATM   18  C25 UNL     1      -8.483  -9.765   2.864  1.00  0.00    -0.028 A 
HETATM   19  C26 UNL     1      -8.459  -9.444   4.358  1.00  0.00     0.011 C 
HETATM   20  C27 UNL     1      -7.041  -9.374   4.938  1.00  0.00     0.011 C 
HETATM   21  C28 UNL     1      -6.084 -10.459   4.393  1.00  0.00    -0.036 C 
HETATM   22  C29 UNL     1      -6.496 -11.835   4.958  1.00  0.00     0.016 C 
ENDROOT
BRANCH   1  23
HETATM   23  C2  UNL     1      -4.103 -10.363   6.163  1.00  0.00    -0.014 C 
HETATM   24  C1  UNL     1      -2.589 -10.259   6.359  1.00  0.00     0.010 C 
BRANCH  23  25
HETATM   25  C3  UNL     1      -4.884  -9.534   7.219  1.00  0.00     0.008 C 
BRANCH  25  26
HETATM   26  C4  UNL     1      -5.595 -10.297   8.346  1.00  0.00     0.028 C 
BRANCH  26  27
HETATM   27  C5  UNL     1      -6.416  -9.408   9.240  1.00  0.00    -0.011 C 
HETATM   28  C6  UNL     1      -6.389  -9.306  10.584  1.00  0.00     0.035 C 
BRANCH  28  29
HETATM   29  C7  UNL     1      -7.284  -8.359  11.333  1.00  0.00     0.209 C 
BRANCH  29  30
HETATM   30  O1  UNL     1      -6.824  -7.020  11.184  1.00  0.00    -0.396 OA
HETATM   31  H12 UNL     1      -6.750  -6.870  10.220  1.00  0.00     0.209 HD
ENDBRANCH  29  30
ENDBRANCH  28  29
BRANCH  28  32
HETATM   32  C8  UNL     1      -5.434 -10.076  11.408  1.00  0.00     0.173 C 
HETATM   33  O2  UNL     1      -5.534 -11.231  11.775  1.00  0.00    -0.646 OA
BRANCH  32  34
HETATM   34  O3  UNL     1      -4.362  -9.327  11.738  1.00  0.00    -0.773 OA
HETATM   35  H13 UNL     1      -3.826  -9.937  12.291  1.00  0.00     0.167 HD
ENDBRANCH  32  34
ENDBRANCH  28  32
ENDBRANCH  26  27
ENDBRANCH  25  26
ENDBRANCH  23  25
ENDBRANCH   1  23
TORSDOF 8
ENDMDL
