MODEL 1
REMARK minimizedAffinity -9.65665245
REMARK CNNscore 0.426262677
REMARK CNNaffinity 7.1289115
REMARK  13 active torsions:
REMARK  status: ('A' for Active; 'I' for Inactive)
REMARK    1  A    between atoms: O1_2  and  C2_3 
REMARK    2  A    between atoms: C2_3  and  C3_5 
REMARK    3  A    between atoms: C3_5  and  C4_6 
REMARK    4  A    between atoms: C3_5  and  N2_16 
REMARK    5  A    between atoms: C4_6  and  C5_7 
REMARK       I    between atoms: N2_16  and  C13_17 
REMARK    6  A    between atoms: C13_17  and  C14_19 
REMARK    7  A    between atoms: C14_19  and  C15_20 
REMARK    8  A    between atoms: C15_20  and  C16_21 
REMARK    9  A    between atoms: C16_21  and  O5_23 
REMARK   10  A    between atoms: O5_23  and  C17_24 
REMARK   11  A    between atoms: C17_24  and  C18_25 
REMARK   12  A    between atoms: C18_25  and  C19_27 
REMARK   13  A    between atoms: C19_27  and  O7_28 
ROOT
HETATM    1  C17 UNL     1      -5.312  48.110 -28.474  1.00  0.00     0.260 C 
ENDROOT
BRANCH   1   2
HETATM    2  O5  UNL     1      -3.914  48.393 -28.537  1.00  0.00    -0.314 OA
BRANCH   2   3
HETATM    3  C16 UNL     1      -3.526  49.473 -27.799  1.00  0.00     0.259 C 
HETATM    4  O4  UNL     1      -2.995  50.478 -28.256  1.00  0.00    -0.265 OA
BRANCH   3   5
HETATM    5  C15 UNL     1      -3.887  49.268 -26.348  1.00  0.00     0.120 C 
BRANCH   5   6
HETATM    6  C14 UNL     1      -2.634  48.940 -25.545  1.00  0.00     0.112 C 
BRANCH   6   7
HETATM    7  C13 UNL     1      -1.910  50.187 -25.083  1.00  0.00     0.218 C 
HETATM    8  N2  UNL     1      -0.829  50.515 -25.861  1.00  0.00    -0.347 N 
HETATM    9  H13 UNL     1      -0.534  49.908 -26.621  1.00  0.00     0.163 HD
HETATM   10  O3  UNL     1      -2.296  50.883 -24.152  1.00  0.00    -0.274 OA
BRANCH   8  11
HETATM   11  C3  UNL     1       0.007  51.690 -25.582  1.00  0.00     0.188 C 
BRANCH  11  12
HETATM   12  C2  UNL     1       0.344  52.324 -26.930  1.00  0.00     0.281 C 
HETATM   13  O2  UNL     1      -0.503  52.734 -27.720  1.00  0.00    -0.263 OA
BRANCH  12  14
HETATM   14  O1  UNL     1       1.688  52.355 -27.139  1.00  0.00    -0.325 OA
HETATM   15  C1  UNL     1       2.425  51.422 -26.349  1.00  0.00     0.213 C 
ENDBRANCH  12  14
ENDBRANCH  11  12
BRANCH  11  16
HETATM   16  C4  UNL     1      -0.732  52.699 -24.694  1.00  0.00     0.076 C 
BRANCH  16  17
HETATM   17  C5  UNL     1       0.148  53.345 -23.670  1.00  0.00    -0.028 A 
HETATM   18  C6  UNL     1       1.043  54.376 -23.880  1.00  0.00     0.096 A 
HETATM   19  N1  UNL     1       1.658  54.657 -22.691  1.00  0.00    -0.365 N 
HETATM   20  C7  UNL     1       1.186  53.831 -21.700  1.00  0.00     0.042 A 
HETATM   21  H8  UNL     1       2.363  55.368 -22.554  1.00  0.00     0.165 HD
HETATM   22  C8  UNL     1       1.532  53.757 -20.345  1.00  0.00     0.030 A 
HETATM   23  C12 UNL     1       0.228  53.002 -22.281  1.00  0.00    -0.002 A 
HETATM   24  C9  UNL     1       0.871  52.808 -19.561  1.00  0.00     0.002 A 
HETATM   25  C10 UNL     1      -0.096  51.971 -20.111  1.00  0.00     0.001 A 
HETATM   26  C11 UNL     1      -0.428  52.056 -21.468  1.00  0.00     0.014 A 
ENDBRANCH  16  17
ENDBRANCH  11  16
ENDBRANCH   8  11
ENDBRANCH   6   7
ENDBRANCH   5   6
ENDBRANCH   3   5
ENDBRANCH   2   3
ENDBRANCH   1   2
BRANCH   1  27
HETATM   27  C18 UNL     1      -5.875  47.593 -29.798  1.00  0.00     0.185 C 
HETATM   28  O6  UNL     1      -5.135  47.109 -30.658  1.00  0.00    -0.292 OA
BRANCH  27  29
HETATM   29  C19 UNL     1      -7.408  47.678 -29.987  1.00  0.00     0.128 C 
HETATM   30  C20 UNL     1      -7.879  47.070 -31.341  1.00  0.00     0.047 C 
HETATM   31  C21 UNL     1      -9.243  46.400 -31.085  1.00  0.00     0.009 C 
HETATM   32  C22 UNL     1      -9.621  46.834 -29.674  1.00  0.00     0.002 C 
HETATM   33  C23 UNL     1     -10.673  46.020 -28.897  1.00  0.00     0.003 C 
HETATM   34  C36 UNL     1      -8.246  46.891 -28.936  1.00  0.00     0.005 C 
HETATM   35  C24 UNL     1     -11.978  45.748 -29.669  1.00  0.00     0.010 C 
HETATM   36  C33 UNL     1     -10.920  46.744 -27.537  1.00  0.00     0.072 C 
HETATM   37  C25 UNL     1     -13.196  46.464 -29.097  1.00  0.00     0.035 C 
HETATM   38  C26 UNL     1     -13.370  46.294 -27.604  1.00  0.00    -0.067 C 
HETATM   39  C27 UNL     1     -14.602  46.390 -27.072  1.00  0.00     0.053 C 
HETATM   40  C31 UNL     1     -12.109  46.130 -26.741  1.00  0.00    -0.009 C 
HETATM   41  C28 UNL     1     -14.824  46.389 -25.607  1.00  0.00     0.149 C 
HETATM   42  O8  UNL     1     -15.975  46.326 -25.179  1.00  0.00    -0.293 OA
HETATM   43  C29 UNL     1     -13.628  46.450 -24.688  1.00  0.00     0.084 C 
HETATM   44  C30 UNL     1     -12.358  46.898 -25.413  1.00  0.00     0.022 C 
HETATM   45  C32 UNL     1     -11.888  44.628 -26.447  1.00  0.00     0.021 C 
HETATM   46  C34 UNL     1      -9.572  46.858 -26.811  1.00  0.00     0.133 C 
HETATM   47  O9  UNL     1      -9.365  46.435 -25.678  1.00  0.00    -0.297 OA
HETATM   48  C35 UNL     1      -8.471  47.582 -27.581  1.00  0.00     0.091 C 
HETATM   49  C37 UNL     1      -7.620  45.490 -28.690  1.00  0.00     0.019 C 
BRANCH  29  50
HETATM   50  O7  UNL     1      -7.797  49.056 -29.971  1.00  0.00    -0.381 OA
HETATM   51  H20 UNL     1      -7.333  49.504 -30.706  1.00  0.00     0.211 HD
ENDBRANCH  29  50
ENDBRANCH  27  29
ENDBRANCH   1  27
TORSDOF 13
ENDMDL
MODEL 2
REMARK minimizedAffinity -8.51718426
REMARK CNNscore 0.41801399
REMARK CNNaffinity 6.74352455
REMARK  13 active torsions:
REMARK  status: ('A' for Active; 'I' for Inactive)
REMARK    1  A    between atoms: O1_2  and  C2_3 
REMARK    2  A    between atoms: C2_3  and  C3_5 
REMARK    3  A    between atoms: C3_5  and  C4_6 
REMARK    4  A    between atoms: C3_5  and  N2_16 
REMARK    5  A    between atoms: C4_6  and  C5_7 
REMARK       I    between atoms: N2_16  and  C13_17 
REMARK    6  A    between atoms: C13_17  and  C14_19 
REMARK    7  A    between atoms: C14_19  and  C15_20 
REMARK    8  A    between atoms: C15_20  and  C16_21 
REMARK    9  A    between atoms: C16_21  and  O5_23 
REMARK   10  A    between atoms: O5_23  and  C17_24 
REMARK   11  A    between atoms: C17_24  and  C18_25 
REMARK   12  A    between atoms: C18_25  and  C19_27 
REMARK   13  A    between atoms: C19_27  and  O7_28 
ROOT
HETATM    1  C17 UNL     1      -2.751  49.918 -15.841  1.00  0.00     0.260 C 
ENDROOT
BRANCH   1   2
HETATM    2  O5  UNL     1      -2.862  51.104 -15.053  1.00  0.00    -0.314 OA
BRANCH   2   3
HETATM    3  C16 UNL     1      -2.582  50.927 -13.729  1.00  0.00     0.259 C 
HETATM    4  O4  UNL     1      -2.003  49.953 -13.262  1.00  0.00    -0.265 OA
BRANCH   3   5
HETATM    5  C15 UNL     1      -3.047  52.121 -12.934  1.00  0.00     0.120 C 
BRANCH   5   6
HETATM    6  C14 UNL     1      -3.429  51.688 -11.524  1.00  0.00     0.112 C 
BRANCH   6   7
HETATM    7  C13 UNL     1      -3.210  52.792 -10.510  1.00  0.00     0.218 C 
HETATM    8  N2  UNL     1      -2.080  52.627  -9.752  1.00  0.00    -0.347 N 
HETATM    9  H13 UNL     1      -1.511  51.790  -9.846  1.00  0.00     0.163 HD
HETATM   10  O3  UNL     1      -3.930  53.780 -10.426  1.00  0.00    -0.274 OA
BRANCH   8  11
HETATM   11  C3  UNL     1      -1.688  53.588  -8.713  1.00  0.00     0.188 C 
BRANCH  11  12
HETATM   12  C2  UNL     1      -0.748  52.852  -7.760  1.00  0.00     0.281 C 
HETATM   13  O2  UNL     1       0.464  53.047  -7.715  1.00  0.00    -0.263 OA
BRANCH  12  14
HETATM   14  O1  UNL     1      -1.425  51.956  -6.993  1.00  0.00    -0.325 OA
HETATM   15  C1  UNL     1      -1.854  50.790  -7.696  1.00  0.00     0.213 C 
ENDBRANCH  12  14
ENDBRANCH  11  12
BRANCH  11  16
HETATM   16  C4  UNL     1      -0.978  54.805  -9.320  1.00  0.00     0.076 C 
BRANCH  16  17
HETATM   17  C5  UNL     1       0.193  54.441 -10.178  1.00  0.00    -0.028 A 
HETATM   18  C6  UNL     1       0.208  53.527 -11.214  1.00  0.00     0.096 A 
HETATM   19  N1  UNL     1       1.477  53.479 -11.723  1.00  0.00    -0.365 N 
HETATM   20  C7  UNL     1       2.300  54.344 -11.043  1.00  0.00     0.042 A 
HETATM   21  H8  UNL     1       1.774  52.890 -12.488  1.00  0.00     0.165 HD
HETATM   22  C8  UNL     1       3.662  54.616 -11.214  1.00  0.00     0.030 A 
HETATM   23  C12 UNL     1       1.520  54.972 -10.073  1.00  0.00    -0.002 A 
HETATM   24  C9  UNL     1       4.243  55.564 -10.367  1.00  0.00     0.002 A 
HETATM   25  C10 UNL     1       3.488  56.213  -9.394  1.00  0.00     0.001 A 
HETATM   26  C11 UNL     1       2.128  55.928  -9.234  1.00  0.00     0.014 A 
ENDBRANCH  16  17
ENDBRANCH  11  16
ENDBRANCH   8  11
ENDBRANCH   6   7
ENDBRANCH   5   6
ENDBRANCH   3   5
ENDBRANCH   2   3
ENDBRANCH   1   2
BRANCH   1  27
HETATM   27  C18 UNL     1      -1.640  50.001 -16.887  1.00  0.00     0.185 C 
HETATM   28  O6  UNL     1      -0.553  50.519 -16.621  1.00  0.00    -0.292 OA
BRANCH  27  29
HETATM   29  C19 UNL     1      -1.935  49.377 -18.272  1.00  0.00     0.128 C 
HETATM   30  C20 UNL     1      -3.350  48.733 -18.349  1.00  0.00     0.047 C 
HETATM   31  C21 UNL     1      -3.878  48.970 -19.778  1.00  0.00     0.009 C 
HETATM   32  C22 UNL     1      -2.681  49.530 -20.537  1.00  0.00     0.002 C 
HETATM   33  C23 UNL     1      -2.922  50.309 -21.844  1.00  0.00     0.003 C 
HETATM   34  C36 UNL     1      -1.942  50.386 -19.460  1.00  0.00     0.005 C 
HETATM   35  C24 UNL     1      -3.830  49.595 -22.862  1.00  0.00     0.010 C 
HETATM   36  C33 UNL     1      -1.526  50.675 -22.439  1.00  0.00     0.072 C 
HETATM   37  C25 UNL     1      -3.110  49.153 -24.132  1.00  0.00     0.035 C 
HETATM   38  C26 UNL     1      -2.271  50.235 -24.775  1.00  0.00    -0.067 C 
HETATM   39  C27 UNL     1      -2.033  50.181 -26.098  1.00  0.00     0.053 C 
HETATM   40  C31 UNL     1      -1.628  51.293 -23.864  1.00  0.00    -0.009 C 
HETATM   41  C28 UNL     1      -1.096  51.116 -26.765  1.00  0.00     0.149 C 
HETATM   42  O8  UNL     1      -1.033  51.122 -27.993  1.00  0.00    -0.293 OA
HETATM   43  C29 UNL     1      -0.261  52.041 -25.913  1.00  0.00     0.084 C 
HETATM   44  C30 UNL     1      -0.222  51.607 -24.447  1.00  0.00     0.022 C 
HETATM   45  C32 UNL     1      -2.500  52.569 -23.876  1.00  0.00     0.021 C 
HETATM   46  C34 UNL     1      -0.757  51.477 -21.378  1.00  0.00     0.133 C 
HETATM   47  O9  UNL     1      -0.284  52.592 -21.571  1.00  0.00    -0.297 OA
HETATM   48  C35 UNL     1      -0.570  50.778 -20.035  1.00  0.00     0.091 C 
HETATM   49  C37 UNL     1      -2.711  51.677 -19.064  1.00  0.00     0.019 C 
BRANCH  29  50
HETATM   50  O7  UNL     1      -0.973  48.348 -18.527  1.00  0.00    -0.381 OA
HETATM   51  H20 UNL     1      -1.062  47.678 -17.820  1.00  0.00     0.211 HD
ENDBRANCH  29  50
ENDBRANCH  27  29
ENDBRANCH   1  27
TORSDOF 13
ENDMDL
MODEL 3
REMARK minimizedAffinity -8.73418713
REMARK CNNscore 0.410383344
REMARK CNNaffinity 6.41567373
REMARK  13 active torsions:
REMARK  status: ('A' for Active; 'I' for Inactive)
REMARK    1  A    between atoms: O1_2  and  C2_3 
REMARK    2  A    between atoms: C2_3  and  C3_5 
REMARK    3  A    between atoms: C3_5  and  C4_6 
REMARK    4  A    between atoms: C3_5  and  N2_16 
REMARK    5  A    between atoms: C4_6  and  C5_7 
REMARK       I    between atoms: N2_16  and  C13_17 
REMARK    6  A    between atoms: C13_17  and  C14_19 
REMARK    7  A    between atoms: C14_19  and  C15_20 
REMARK    8  A    between atoms: C15_20  and  C16_21 
REMARK    9  A    between atoms: C16_21  and  O5_23 
REMARK   10  A    between atoms: O5_23  and  C17_24 
REMARK   11  A    between atoms: C17_24  and  C18_25 
REMARK   12  A    between atoms: C18_25  and  C19_27 
REMARK   13  A    between atoms: C19_27  and  O7_28 
ROOT
HETATM    1  C17 UNL     1      -7.579  47.025 -23.018  1.00  0.00     0.260 C 
ENDROOT
BRANCH   1   2
HETATM    2  O5  UNL     1      -8.894  46.627 -23.410  1.00  0.00    -0.314 OA
BRANCH   2   3
HETATM    3  C16 UNL     1      -8.924  45.685 -24.397  1.00  0.00     0.259 C 
HETATM    4  O4  UNL     1      -7.933  45.193 -24.923  1.00  0.00    -0.265 OA
BRANCH   3   5
HETATM    5  C15 UNL     1     -10.350  45.308 -24.713  1.00  0.00     0.120 C 
BRANCH   5   6
HETATM    6  C14 UNL     1     -11.307  46.226 -23.962  1.00  0.00     0.112 C 
BRANCH   6   7
HETATM    7  C13 UNL     1     -12.378  46.796 -24.868  1.00  0.00     0.218 C 
HETATM    8  N2  UNL     1     -13.612  46.225 -24.689  1.00  0.00    -0.347 N 
HETATM    9  H13 UNL     1     -13.734  45.445 -24.049  1.00  0.00     0.163 HD
HETATM   10  O3  UNL     1     -12.183  47.733 -25.633  1.00  0.00    -0.274 OA
BRANCH   8  11
HETATM   11  C3  UNL     1     -14.786  46.639 -25.469  1.00  0.00     0.188 C 
BRANCH  11  12
HETATM   12  C2  UNL     1     -15.448  45.362 -25.983  1.00  0.00     0.281 C 
HETATM   13  O2  UNL     1     -15.323  44.266 -25.442  1.00  0.00    -0.263 OA
BRANCH  12  14
HETATM   14  O1  UNL     1     -16.169  45.599 -27.111  1.00  0.00    -0.325 OA
HETATM   15  C1  UNL     1     -17.141  44.595 -27.406  1.00  0.00     0.213 C 
ENDBRANCH  12  14
ENDBRANCH  11  12
BRANCH  11  16
HETATM   16  C4  UNL     1     -15.773  47.436 -24.608  1.00  0.00     0.076 C 
BRANCH  16  17
HETATM   17  C5  UNL     1     -16.574  46.580 -23.677  1.00  0.00    -0.028 A 
HETATM   18  C6  UNL     1     -16.151  46.045 -22.476  1.00  0.00     0.096 A 
HETATM   19  N1  UNL     1     -17.180  45.313 -21.949  1.00  0.00    -0.365 N 
HETATM   20  C7  UNL     1     -18.274  45.355 -22.780  1.00  0.00     0.042 A 
HETATM   21  H8  UNL     1     -17.147  44.807 -21.075  1.00  0.00     0.165 HD
HETATM   22  C8  UNL     1     -19.531  44.754 -22.649  1.00  0.00     0.030 A 
HETATM   23  C12 UNL     1     -17.928  46.153 -23.870  1.00  0.00    -0.002 A 
HETATM   24  C9  UNL     1     -20.464  44.981 -23.664  1.00  0.00     0.002 A 
HETATM   25  C10 UNL     1     -20.151  45.779 -24.761  1.00  0.00     0.001 A 
HETATM   26  C11 UNL     1     -18.888  46.371 -24.878  1.00  0.00     0.014 A 
ENDBRANCH  16  17
ENDBRANCH  11  16
ENDBRANCH   8  11
ENDBRANCH   6   7
ENDBRANCH   5   6
ENDBRANCH   3   5
ENDBRANCH   2   3
ENDBRANCH   1   2
BRANCH   1  27
HETATM   27  C18 UNL     1      -7.234  48.449 -23.454  1.00  0.00     0.185 C 
HETATM   28  O6  UNL     1      -7.472  48.838 -24.600  1.00  0.00    -0.292 OA
BRANCH  27  29
HETATM   29  C19 UNL     1      -6.608  49.376 -22.385  1.00  0.00     0.128 C 
HETATM   30  C20 UNL     1      -6.992  48.962 -20.935  1.00  0.00     0.047 C 
HETATM   31  C21 UNL     1      -5.768  49.251 -20.043  1.00  0.00     0.009 C 
HETATM   32  C22 UNL     1      -4.815  50.024 -20.946  1.00  0.00     0.002 C 
HETATM   33  C23 UNL     1      -3.322  50.093 -20.574  1.00  0.00     0.003 C 
HETATM   34  C36 UNL     1      -5.050  49.383 -22.350  1.00  0.00     0.005 C 
HETATM   35  C24 UNL     1      -3.038  50.516 -19.120  1.00  0.00     0.010 C 
HETATM   36  C33 UNL     1      -2.617  51.017 -21.616  1.00  0.00     0.072 C 
HETATM   37  C25 UNL     1      -2.368  51.880 -18.992  1.00  0.00     0.035 C 
HETATM   38  C26 UNL     1      -1.161  52.062 -19.885  1.00  0.00    -0.067 C 
HETATM   39  C27 UNL     1      -0.200  52.930 -19.521  1.00  0.00     0.053 C 
HETATM   40  C31 UNL     1      -1.140  51.328 -21.235  1.00  0.00    -0.009 C 
HETATM   41  C28 UNL     1       0.928  53.272 -20.419  1.00  0.00     0.149 C 
HETATM   42  O8  UNL     1       1.856  53.950 -19.979  1.00  0.00    -0.293 OA
HETATM   43  C29 UNL     1       0.908  52.765 -21.841  1.00  0.00     0.084 C 
HETATM   44  C30 UNL     1      -0.479  52.283 -22.268  1.00  0.00     0.022 C 
HETATM   45  C32 UNL     1      -0.299  50.038 -21.097  1.00  0.00     0.021 C 
HETATM   46  C34 UNL     1      -2.876  50.434 -23.014  1.00  0.00     0.133 C 
HETATM   47  O9  UNL     1      -1.990  50.141 -23.809  1.00  0.00    -0.297 OA
HETATM   48  C35 UNL     1      -4.345  50.266 -23.393  1.00  0.00     0.091 C 
HETATM   49  C37 UNL     1      -4.504  47.932 -22.465  1.00  0.00     0.019 C 
BRANCH  29  50
HETATM   50  O7  UNL     1      -7.086  50.709 -22.598  1.00  0.00    -0.381 OA
HETATM   51  H20 UNL     1      -8.059  50.693 -22.513  1.00  0.00     0.211 HD
ENDBRANCH  29  50
ENDBRANCH  27  29
ENDBRANCH   1  27
TORSDOF 13
ENDMDL
MODEL 4
REMARK minimizedAffinity -8.66681862
REMARK CNNscore 0.383811176
REMARK CNNaffinity 7.46146202
REMARK  13 active torsions:
REMARK  status: ('A' for Active; 'I' for Inactive)
REMARK    1  A    between atoms: O1_2  and  C2_3 
REMARK    2  A    between atoms: C2_3  and  C3_5 
REMARK    3  A    between atoms: C3_5  and  C4_6 
REMARK    4  A    between atoms: C3_5  and  N2_16 
REMARK    5  A    between atoms: C4_6  and  C5_7 
REMARK       I    between atoms: N2_16  and  C13_17 
REMARK    6  A    between atoms: C13_17  and  C14_19 
REMARK    7  A    between atoms: C14_19  and  C15_20 
REMARK    8  A    between atoms: C15_20  and  C16_21 
REMARK    9  A    between atoms: C16_21  and  O5_23 
REMARK   10  A    between atoms: O5_23  and  C17_24 
REMARK   11  A    between atoms: C17_24  and  C18_25 
REMARK   12  A    between atoms: C18_25  and  C19_27 
REMARK   13  A    between atoms: C19_27  and  O7_28 
ROOT
HETATM    1  C17 UNL     1      -3.814  50.245 -28.312  1.00  0.00     0.260 C 
ENDROOT
BRANCH   1   2
HETATM    2  O5  UNL     1      -3.645  48.844 -28.089  1.00  0.00    -0.314 OA
BRANCH   2   3
HETATM    3  C16 UNL     1      -4.543  48.059 -28.753  1.00  0.00     0.259 C 
HETATM    4  O4  UNL     1      -4.284  47.387 -29.744  1.00  0.00    -0.265 OA
BRANCH   3   5
HETATM    5  C15 UNL     1      -5.883  48.105 -28.063  1.00  0.00     0.120 C 
BRANCH   5   6
HETATM    6  C14 UNL     1      -6.780  46.995 -28.598  1.00  0.00     0.112 C 
BRANCH   6   7
HETATM    7  C13 UNL     1      -6.979  47.094 -30.096  1.00  0.00     0.218 C 
HETATM    8  N2  UNL     1      -6.769  45.912 -30.759  1.00  0.00    -0.347 N 
HETATM    9  H13 UNL     1      -6.440  45.090 -30.260  1.00  0.00     0.163 HD
HETATM   10  O3  UNL     1      -7.367  48.112 -30.657  1.00  0.00    -0.274 OA
BRANCH   8  11
HETATM   11  C3  UNL     1      -6.912  45.797 -32.217  1.00  0.00     0.188 C 
BRANCH  11  12
HETATM   12  C2  UNL     1      -6.287  44.463 -32.619  1.00  0.00     0.281 C 
HETATM   13  O2  UNL     1      -6.942  43.477 -32.949  1.00  0.00    -0.263 OA
BRANCH  12  14
HETATM   14  O1  UNL     1      -4.930  44.511 -32.547  1.00  0.00    -0.325 OA
HETATM   15  C1  UNL     1      -4.296  43.233 -32.601  1.00  0.00     0.213 C 
ENDBRANCH  12  14
ENDBRANCH  11  12
BRANCH  11  16
HETATM   16  C4  UNL     1      -8.387  45.838 -32.635  1.00  0.00     0.076 C 
BRANCH  16  17
HETATM   17  C5  UNL     1      -8.604  46.439 -33.988  1.00  0.00    -0.028 A 
HETATM   18  C6  UNL     1      -7.768  47.322 -34.644  1.00  0.00     0.096 A 
HETATM   19  N1  UNL     1      -8.341  47.640 -35.845  1.00  0.00    -0.365 N 
HETATM   20  C7  UNL     1      -9.539  46.983 -35.994  1.00  0.00     0.042 A 
HETATM   21  H8  UNL     1      -7.947  48.270 -36.529  1.00  0.00     0.165 HD
HETATM   22  C8  UNL     1     -10.460  47.013 -37.048  1.00  0.00     0.030 A 
HETATM   23  C12 UNL     1      -9.727  46.211 -34.848  1.00  0.00    -0.002 A 
HETATM   24  C9  UNL     1     -11.607  46.224 -36.925  1.00  0.00     0.002 A 
HETATM   25  C10 UNL     1     -11.819  45.437 -35.797  1.00  0.00     0.001 A 
HETATM   26  C11 UNL     1     -10.889  45.421 -34.751  1.00  0.00     0.014 A 
ENDBRANCH  16  17
ENDBRANCH  11  16
ENDBRANCH   8  11
ENDBRANCH   6   7
ENDBRANCH   5   6
ENDBRANCH   3   5
ENDBRANCH   2   3
ENDBRANCH   1   2
BRANCH   1  27
HETATM   27  C18 UNL     1      -2.985  51.103 -27.356  1.00  0.00     0.185 C 
HETATM   28  O6  UNL     1      -2.261  52.008 -27.780  1.00  0.00    -0.292 OA
BRANCH  27  29
HETATM   29  C19 UNL     1      -3.124  50.803 -25.845  1.00  0.00     0.128 C 
HETATM   30  C20 UNL     1      -3.426  49.303 -25.559  1.00  0.00     0.047 C 
HETATM   31  C21 UNL     1      -2.699  48.937 -24.249  1.00  0.00     0.009 C 
HETATM   32  C22 UNL     1      -2.200  50.271 -23.707  1.00  0.00     0.002 C 
HETATM   33  C23 UNL     1      -1.056  50.279 -22.676  1.00  0.00     0.003 C 
HETATM   34  C36 UNL     1      -1.844  51.073 -24.999  1.00  0.00     0.005 C 
HETATM   35  C24 UNL     1      -1.261  49.333 -21.478  1.00  0.00     0.010 C 
HETATM   36  C33 UNL     1      -0.824  51.760 -22.239  1.00  0.00     0.072 C 
HETATM   37  C25 UNL     1      -1.465  50.052 -20.149  1.00  0.00     0.035 C 
HETATM   38  C26 UNL     1      -0.437  51.124 -19.861  1.00  0.00    -0.067 C 
HETATM   39  C27 UNL     1      -0.166  51.446 -18.583  1.00  0.00     0.053 C 
HETATM   40  C31 UNL     1       0.174  51.881 -21.050  1.00  0.00    -0.009 C 
HETATM   41  C28 UNL     1       0.711  52.588 -18.233  1.00  0.00     0.149 C 
HETATM   42  O8  UNL     1       1.047  52.744 -17.060  1.00  0.00    -0.293 OA
HETATM   43  C29 UNL     1       1.175  53.515 -19.331  1.00  0.00     0.084 C 
HETATM   44  C30 UNL     1       0.351  53.361 -20.610  1.00  0.00     0.022 C 
HETATM   45  C32 UNL     1       1.550  51.265 -21.391  1.00  0.00     0.021 C 
HETATM   46  C34 UNL     1      -0.521  52.582 -23.500  1.00  0.00     0.133 C 
HETATM   47  O9  UNL     1       0.486  53.267 -23.646  1.00  0.00    -0.297 OA
HETATM   48  C35 UNL     1      -1.590  52.534 -24.588  1.00  0.00     0.091 C 
HETATM   49  C37 UNL     1      -0.588  50.530 -25.736  1.00  0.00     0.019 C 
BRANCH  29  50
HETATM   50  O7  UNL     1      -4.213  51.573 -25.323  1.00  0.00    -0.381 OA
HETATM   51  H20 UNL     1      -5.021  51.308 -25.804  1.00  0.00     0.211 HD
ENDBRANCH  29  50
ENDBRANCH  27  29
ENDBRANCH   1  27
TORSDOF 13
ENDMDL
MODEL 5
REMARK minimizedAffinity -9.04926395
REMARK CNNscore 0.355255991
REMARK CNNaffinity 6.69777822
REMARK  13 active torsions:
REMARK  status: ('A' for Active; 'I' for Inactive)
REMARK    1  A    between atoms: O1_2  and  C2_3 
REMARK    2  A    between atoms: C2_3  and  C3_5 
REMARK    3  A    between atoms: C3_5  and  C4_6 
REMARK    4  A    between atoms: C3_5  and  N2_16 
REMARK    5  A    between atoms: C4_6  and  C5_7 
REMARK       I    between atoms: N2_16  and  C13_17 
REMARK    6  A    between atoms: C13_17  and  C14_19 
REMARK    7  A    between atoms: C14_19  and  C15_20 
REMARK    8  A    between atoms: C15_20  and  C16_21 
REMARK    9  A    between atoms: C16_21  and  O5_23 
REMARK   10  A    between atoms: O5_23  and  C17_24 
REMARK   11  A    between atoms: C17_24  and  C18_25 
REMARK   12  A    between atoms: C18_25  and  C19_27 
REMARK   13  A    between atoms: C19_27  and  O7_28 
ROOT
HETATM    1  C17 UNL     1      -3.021  48.222 -17.734  1.00  0.00     0.260 C 
ENDROOT
BRANCH   1   2
HETATM    2  O5  UNL     1      -2.046  49.266 -17.729  1.00  0.00    -0.314 OA
BRANCH   2   3
HETATM    3  C16 UNL     1      -2.421  50.381 -17.037  1.00  0.00     0.259 C 
HETATM    4  O4  UNL     1      -2.698  51.459 -17.548  1.00  0.00    -0.265 OA
BRANCH   3   5
HETATM    5  C15 UNL     1      -2.486  50.079 -15.560  1.00  0.00     0.120 C 
BRANCH   5   6
HETATM    6  C14 UNL     1      -1.936  51.257 -14.766  1.00  0.00     0.112 C 
BRANCH   6   7
HETATM    7  C13 UNL     1      -2.996  51.905 -13.900  1.00  0.00     0.218 C 
HETATM    8  N2  UNL     1      -2.649  51.988 -12.575  1.00  0.00    -0.347 N 
HETATM    9  H13 UNL     1      -1.784  51.573 -12.239  1.00  0.00     0.163 HD
HETATM   10  O3  UNL     1      -4.031  52.383 -14.348  1.00  0.00    -0.274 OA
BRANCH   8  11
HETATM   11  C3  UNL     1      -3.540  52.585 -11.570  1.00  0.00     0.188 C 
BRANCH  11  12
HETATM   12  C2  UNL     1      -3.805  51.509 -10.519  1.00  0.00     0.281 C 
HETATM   13  O2  UNL     1      -3.352  51.547  -9.378  1.00  0.00    -0.263 OA
BRANCH  12  14
HETATM   14  O1  UNL     1      -4.585  50.512 -11.018  1.00  0.00    -0.325 OA
HETATM   15  C1  UNL     1      -5.633  50.097 -10.142  1.00  0.00     0.213 C 
ENDBRANCH  12  14
ENDBRANCH  11  12
BRANCH  11  16
HETATM   16  C4  UNL     1      -2.895  53.814 -10.918  1.00  0.00     0.076 C 
BRANCH  16  17
HETATM   17  C5  UNL     1      -1.399  53.770 -10.918  1.00  0.00    -0.028 A 
HETATM   18  C6  UNL     1      -0.595  52.997 -11.732  1.00  0.00     0.096 A 
HETATM   19  N1  UNL     1       0.710  53.240 -11.399  1.00  0.00    -0.365 N 
HETATM   20  C7  UNL     1       0.781  54.158 -10.379  1.00  0.00     0.042 A 
HETATM   21  H8  UNL     1       1.512  52.806 -11.834  1.00  0.00     0.165 HD
HETATM   22  C8  UNL     1       1.896  54.693  -9.722  1.00  0.00     0.030 A 
HETATM   23  C12 UNL     1      -0.527  54.520 -10.062  1.00  0.00    -0.002 A 
HETATM   24  C9  UNL     1       1.662  55.629  -8.712  1.00  0.00     0.002 A 
HETATM   25  C10 UNL     1       0.367  56.015  -8.377  1.00  0.00     0.001 A 
HETATM   26  C11 UNL     1      -0.737  55.469  -9.043  1.00  0.00     0.014 A 
ENDBRANCH  16  17
ENDBRANCH  11  16
ENDBRANCH   8  11
ENDBRANCH   6   7
ENDBRANCH   5   6
ENDBRANCH   3   5
ENDBRANCH   2   3
ENDBRANCH   1   2
BRANCH   1  27
HETATM   27  C18 UNL     1      -4.082  48.406 -18.819  1.00  0.00     0.185 C 
HETATM   28  O6  UNL     1      -5.222  48.782 -18.536  1.00  0.00    -0.292 OA
BRANCH  27  29
HETATM   29  C19 UNL     1      -3.647  48.130 -20.278  1.00  0.00     0.128 C 
HETATM   30  C20 UNL     1      -4.763  47.439 -21.115  1.00  0.00     0.047 C 
HETATM   31  C21 UNL     1      -4.659  47.991 -22.550  1.00  0.00     0.009 C 
HETATM   32  C22 UNL     1      -3.364  48.795 -22.555  1.00  0.00     0.002 C 
HETATM   33  C23 UNL     1      -3.147  49.858 -23.648  1.00  0.00     0.003 C 
HETATM   34  C36 UNL     1      -3.311  49.399 -21.116  1.00  0.00     0.005 C 
HETATM   35  C24 UNL     1      -3.399  49.365 -25.086  1.00  0.00     0.010 C 
HETATM   36  C33 UNL     1      -1.713  50.445 -23.457  1.00  0.00     0.072 C 
HETATM   37  C25 UNL     1      -2.141  49.298 -25.946  1.00  0.00     0.035 C 
HETATM   38  C26 UNL     1      -1.300  50.555 -25.912  1.00  0.00    -0.067 C 
HETATM   39  C27 UNL     1      -0.513  50.846 -26.964  1.00  0.00     0.053 C 
HETATM   40  C31 UNL     1      -1.296  51.390 -24.622  1.00  0.00    -0.009 C 
HETATM   41  C28 UNL     1       0.449  51.972 -26.933  1.00  0.00     0.149 C 
HETATM   42  O8  UNL     1       1.031  52.288 -27.970  1.00  0.00    -0.293 OA
HETATM   43  C29 UNL     1       0.672  52.706 -25.633  1.00  0.00     0.084 C 
HETATM   44  C30 UNL     1       0.150  51.925 -24.426  1.00  0.00     0.022 C 
HETATM   45  C32 UNL     1      -2.278  52.574 -24.781  1.00  0.00     0.021 C 
HETATM   46  C34 UNL     1      -1.618  51.003 -22.030  1.00  0.00     0.133 C 
HETATM   47  O9  UNL     1      -1.302  52.158 -21.765  1.00  0.00    -0.297 OA
HETATM   48  C35 UNL     1      -1.912  50.005 -20.914  1.00  0.00     0.091 C 
HETATM   49  C37 UNL     1      -4.378  50.502 -20.871  1.00  0.00     0.019 C 
BRANCH  29  50
HETATM   50  O7  UNL     1      -2.513  47.256 -20.261  1.00  0.00    -0.381 OA
HETATM   51  H20 UNL     1      -2.783  46.428 -19.818  1.00  0.00     0.211 HD
ENDBRANCH  29  50
ENDBRANCH  27  29
ENDBRANCH   1  27
TORSDOF 13
ENDMDL
MODEL 6
REMARK minimizedAffinity -8.73283005
REMARK CNNscore 0.348451287
REMARK CNNaffinity 6.91448832
REMARK  13 active torsions:
REMARK  status: ('A' for Active; 'I' for Inactive)
REMARK    1  A    between atoms: O1_2  and  C2_3 
REMARK    2  A    between atoms: C2_3  and  C3_5 
REMARK    3  A    between atoms: C3_5  and  C4_6 
REMARK    4  A    between atoms: C3_5  and  N2_16 
REMARK    5  A    between atoms: C4_6  and  C5_7 
REMARK       I    between atoms: N2_16  and  C13_17 
REMARK    6  A    between atoms: C13_17  and  C14_19 
REMARK    7  A    between atoms: C14_19  and  C15_20 
REMARK    8  A    between atoms: C15_20  and  C16_21 
REMARK    9  A    between atoms: C16_21  and  O5_23 
REMARK   10  A    between atoms: O5_23  and  C17_24 
REMARK   11  A    between atoms: C17_24  and  C18_25 
REMARK   12  A    between atoms: C18_25  and  C19_27 
REMARK   13  A    between atoms: C19_27  and  O7_28 
ROOT
HETATM    1  C17 UNL     1      -0.065  49.990 -17.391  1.00  0.00     0.260 C 
ENDROOT
BRANCH   1   2
HETATM    2  O5  UNL     1       0.356  50.874 -16.350  1.00  0.00    -0.314 OA
BRANCH   2   3
HETATM    3  C16 UNL     1       0.910  50.247 -15.272  1.00  0.00     0.259 C 
HETATM    4  O4  UNL     1       1.111  49.041 -15.192  1.00  0.00    -0.265 OA
BRANCH   3   5
HETATM    5  C15 UNL     1       1.278  51.258 -14.215  1.00  0.00     0.120 C 
BRANCH   5   6
HETATM    6  C14 UNL     1       0.020  51.757 -13.515  1.00  0.00     0.112 C 
BRANCH   6   7
HETATM    7  C13 UNL     1       0.323  52.359 -12.158  1.00  0.00     0.218 C 
HETATM    8  N2  UNL     1       0.076  53.706 -12.086  1.00  0.00    -0.347 N 
HETATM    9  H13 UNL     1      -0.213  54.224 -12.912  1.00  0.00     0.163 HD
HETATM   10  O3  UNL     1       0.680  51.695 -11.193  1.00  0.00    -0.274 OA
BRANCH   8  11
HETATM   11  C3  UNL     1       0.304  54.478 -10.858  1.00  0.00     0.188 C 
BRANCH  11  12
HETATM   12  C2  UNL     1      -0.993  54.424 -10.054  1.00  0.00     0.281 C 
HETATM   13  O2  UNL     1      -1.991  55.088 -10.326  1.00  0.00    -0.263 OA
BRANCH  12  14
HETATM   14  O1  UNL     1      -0.889  53.565  -9.005  1.00  0.00    -0.325 OA
HETATM   15  C1  UNL     1      -1.942  52.604  -8.929  1.00  0.00     0.213 C 
ENDBRANCH  12  14
ENDBRANCH  11  12
BRANCH  11  16
HETATM   16  C4  UNL     1       1.459  53.889 -10.038  1.00  0.00     0.076 C 
BRANCH  16  17
HETATM   17  C5  UNL     1       2.510  54.895  -9.686  1.00  0.00    -0.028 A 
HETATM   18  C6  UNL     1       3.765  55.011 -10.250  1.00  0.00     0.096 A 
HETATM   19  N1  UNL     1       4.417  56.045  -9.633  1.00  0.00    -0.365 N 
HETATM   20  C7  UNL     1       3.614  56.612  -8.673  1.00  0.00     0.042 A 
HETATM   21  H8  UNL     1       5.356  56.350  -9.847  1.00  0.00     0.165 HD
HETATM   22  C8  UNL     1       3.866  57.679  -7.802  1.00  0.00     0.030 A 
HETATM   23  C12 UNL     1       2.405  55.920  -8.689  1.00  0.00    -0.002 A 
HETATM   24  C9  UNL     1       2.845  58.049  -6.922  1.00  0.00     0.002 A 
HETATM   25  C10 UNL     1       1.623  57.380  -6.920  1.00  0.00     0.001 A 
HETATM   26  C11 UNL     1       1.389  56.315  -7.796  1.00  0.00     0.014 A 
ENDBRANCH  16  17
ENDBRANCH  11  16
ENDBRANCH   8  11
ENDBRANCH   6   7
ENDBRANCH   5   6
ENDBRANCH   3   5
ENDBRANCH   2   3
ENDBRANCH   1   2
BRANCH   1  27
HETATM   27  C18 UNL     1      -1.584  49.842 -17.468  1.00  0.00     0.185 C 
HETATM   28  O6  UNL     1      -2.314  50.318 -16.595  1.00  0.00    -0.292 OA
BRANCH  27  29
HETATM   29  C19 UNL     1      -2.154  49.101 -18.701  1.00  0.00     0.128 C 
HETATM   30  C20 UNL     1      -3.548  48.467 -18.426  1.00  0.00     0.047 C 
HETATM   31  C21 UNL     1      -4.362  48.581 -19.730  1.00  0.00     0.009 C 
HETATM   32  C22 UNL     1      -3.352  49.060 -20.766  1.00  0.00     0.002 C 
HETATM   33  C23 UNL     1      -3.865  49.722 -22.060  1.00  0.00     0.003 C 
HETATM   34  C36 UNL     1      -2.414  50.000 -19.946  1.00  0.00     0.005 C 
HETATM   35  C24 UNL     1      -4.958  48.929 -22.801  1.00  0.00     0.010 C 
HETATM   36  C33 UNL     1      -2.625  50.020 -22.960  1.00  0.00     0.072 C 
HETATM   37  C25 UNL     1      -4.512  48.369 -24.147  1.00  0.00     0.035 C 
HETATM   38  C26 UNL     1      -3.834  49.381 -25.044  1.00  0.00    -0.067 C 
HETATM   39  C27 UNL     1      -3.874  49.207 -26.377  1.00  0.00     0.053 C 
HETATM   40  C31 UNL     1      -3.025  50.509 -24.383  1.00  0.00    -0.009 C 
HETATM   41  C28 UNL     1      -3.103  50.069 -27.303  1.00  0.00     0.149 C 
HETATM   42  O8  UNL     1      -3.295  49.966 -28.514  1.00  0.00    -0.293 OA
HETATM   43  C29 UNL     1      -2.117  51.058 -26.728  1.00  0.00     0.084 C 
HETATM   44  C30 UNL     1      -1.773  50.756 -25.269  1.00  0.00     0.022 C 
HETATM   45  C32 UNL     1      -3.892  51.788 -24.328  1.00  0.00     0.021 C 
HETATM   46  C34 UNL     1      -1.660  50.904 -22.157  1.00  0.00     0.133 C 
HETATM   47  O9  UNL     1      -1.247  51.993 -22.542  1.00  0.00    -0.297 OA
HETATM   48  C35 UNL     1      -1.194  50.326 -20.824  1.00  0.00     0.091 C 
HETATM   49  C37 UNL     1      -3.095  51.330 -19.517  1.00  0.00     0.019 C 
BRANCH  29  50
HETATM   50  O7  UNL     1      -1.257  48.043 -19.055  1.00  0.00    -0.381 OA
HETATM   51  H20 UNL     1      -1.192  47.440 -18.289  1.00  0.00     0.211 HD
ENDBRANCH  29  50
ENDBRANCH  27  29
ENDBRANCH   1  27
TORSDOF 13
ENDMDL
MODEL 7
REMARK minimizedAffinity -9.22395039
REMARK CNNscore 0.338368982
REMARK CNNaffinity 6.98090696
REMARK  13 active torsions:
REMARK  status: ('A' for Active; 'I' for Inactive)
REMARK    1  A    between atoms: O1_2  and  C2_3 
REMARK    2  A    between atoms: C2_3  and  C3_5 
REMARK    3  A    between atoms: C3_5  and  C4_6 
REMARK    4  A    between atoms: C3_5  and  N2_16 
REMARK    5  A    between atoms: C4_6  and  C5_7 
REMARK       I    between atoms: N2_16  and  C13_17 
REMARK    6  A    between atoms: C13_17  and  C14_19 
REMARK    7  A    between atoms: C14_19  and  C15_20 
REMARK    8  A    between atoms: C15_20  and  C16_21 
REMARK    9  A    between atoms: C16_21  and  O5_23 
REMARK   10  A    between atoms: O5_23  and  C17_24 
REMARK   11  A    between atoms: C17_24  and  C18_25 
REMARK   12  A    between atoms: C18_25  and  C19_27 
REMARK   13  A    between atoms: C19_27  and  O7_28 
ROOT
HETATM    1  C17 UNL     1      -2.192  50.571 -17.668  1.00  0.00     0.260 C 
ENDROOT
BRANCH   1   2
HETATM    2  O5  UNL     1      -1.431  50.906 -16.506  1.00  0.00    -0.314 OA
BRANCH   2   3
HETATM    3  C16 UNL     1      -0.117  51.177 -16.756  1.00  0.00     0.259 C 
HETATM    4  O4  UNL     1       0.295  51.798 -17.728  1.00  0.00    -0.265 OA
BRANCH   3   5
HETATM    5  C15 UNL     1       0.745  50.641 -15.641  1.00  0.00     0.120 C 
BRANCH   5   6
HETATM    6  C14 UNL     1       1.563  51.771 -15.028  1.00  0.00     0.112 C 
BRANCH   6   7
HETATM    7  C13 UNL     1       1.410  51.835 -13.523  1.00  0.00     0.218 C 
HETATM    8  N2  UNL     1       0.685  52.916 -13.089  1.00  0.00    -0.347 N 
HETATM    9  H13 UNL     1       0.363  53.621 -13.746  1.00  0.00     0.163 HD
HETATM   10  O3  UNL     1       1.825  50.965 -12.767  1.00  0.00    -0.274 OA
BRANCH   8  11
HETATM   11  C3  UNL     1       0.422  53.159 -11.664  1.00  0.00     0.188 C 
BRANCH  11  12
HETATM   12  C2  UNL     1      -0.810  52.336 -11.295  1.00  0.00     0.281 C 
HETATM   13  O2  UNL     1      -0.756  51.236 -10.750  1.00  0.00    -0.263 OA
BRANCH  12  14
HETATM   14  O1  UNL     1      -1.956  52.971 -11.661  1.00  0.00    -0.325 OA
HETATM   15  C1  UNL     1      -2.858  52.163 -12.417  1.00  0.00     0.213 C 
ENDBRANCH  12  14
ENDBRANCH  11  12
BRANCH  11  16
HETATM   16  C4  UNL     1       1.617  52.739 -10.799  1.00  0.00     0.076 C 
BRANCH  16  17
HETATM   17  C5  UNL     1       2.591  53.849 -10.554  1.00  0.00    -0.028 A 
HETATM   18  C6  UNL     1       2.361  55.202 -10.716  1.00  0.00     0.096 A 
HETATM   19  N1  UNL     1       3.513  55.871 -10.404  1.00  0.00    -0.365 N 
HETATM   20  C7  UNL     1       4.498  54.985 -10.039  1.00  0.00     0.042 A 
HETATM   21  H8  UNL     1       3.631  56.874 -10.439  1.00  0.00     0.165 HD
HETATM   22  C8  UNL     1       5.823  55.219  -9.651  1.00  0.00     0.030 A 
HETATM   23  C12 UNL     1       3.946  53.707 -10.112  1.00  0.00    -0.002 A 
HETATM   24  C9  UNL     1       6.605  54.108  -9.324  1.00  0.00     0.002 A 
HETATM   25  C10 UNL     1       6.080  52.819  -9.380  1.00  0.00     0.001 A 
HETATM   26  C11 UNL     1       4.754  52.604  -9.772  1.00  0.00     0.014 A 
ENDBRANCH  16  17
ENDBRANCH  11  16
ENDBRANCH   8  11
ENDBRANCH   6   7
ENDBRANCH   5   6
ENDBRANCH   3   5
ENDBRANCH   2   3
ENDBRANCH   1   2
BRANCH   1  27
HETATM   27  C18 UNL     1      -2.126  49.084 -18.014  1.00  0.00     0.185 C 
HETATM   28  O6  UNL     1      -2.056  48.227 -17.130  1.00  0.00    -0.292 OA
BRANCH  27  29
HETATM   29  C19 UNL     1      -2.184  48.712 -19.515  1.00  0.00     0.128 C 
HETATM   30  C20 UNL     1      -3.562  48.121 -19.932  1.00  0.00     0.047 C 
HETATM   31  C21 UNL     1      -3.847  48.609 -21.366  1.00  0.00     0.009 C 
HETATM   32  C22 UNL     1      -2.545  49.263 -21.811  1.00  0.00     0.002 C 
HETATM   33  C23 UNL     1      -2.570  50.257 -22.988  1.00  0.00     0.003 C 
HETATM   34  C36 UNL     1      -1.999  49.907 -20.497  1.00  0.00     0.005 C 
HETATM   35  C24 UNL     1      -3.293  49.747 -24.248  1.00  0.00     0.010 C 
HETATM   36  C33 UNL     1      -1.097  50.688 -23.273  1.00  0.00     0.072 C 
HETATM   37  C25 UNL     1      -2.370  49.511 -25.439  1.00  0.00     0.035 C 
HETATM   38  C26 UNL     1      -1.443  50.667 -25.741  1.00  0.00    -0.067 C 
HETATM   39  C27 UNL     1      -0.989  50.833 -26.996  1.00  0.00     0.053 C 
HETATM   40  C31 UNL     1      -0.966  51.540 -24.569  1.00  0.00    -0.009 C 
HETATM   41  C28 UNL     1       0.040  51.846 -27.330  1.00  0.00     0.149 C 
HETATM   42  O8  UNL     1       0.306  52.060 -28.512  1.00  0.00    -0.293 OA
HETATM   43  C29 UNL     1       0.718  52.594 -26.207  1.00  0.00     0.084 C 
HETATM   44  C30 UNL     1       0.516  51.917 -24.851  1.00  0.00     0.022 C 
HETATM   45  C32 UNL     1      -1.832  52.820 -24.506  1.00  0.00     0.021 C 
HETATM   46  C34 UNL     1      -0.519  51.280 -21.980  1.00  0.00     0.133 C 
HETATM   47  O9  UNL     1      -0.028  52.401 -21.898  1.00  0.00    -0.297 OA
HETATM   48  C35 UNL     1      -0.553  50.359 -20.763  1.00  0.00     0.091 C 
HETATM   49  C37 UNL     1      -2.831  51.129 -20.018  1.00  0.00     0.019 C 
BRANCH  29  50
HETATM   50  O7  UNL     1      -1.187  47.718 -19.780  1.00  0.00    -0.381 OA
HETATM   51  H20 UNL     1      -1.387  46.941 -19.223  1.00  0.00     0.211 HD
ENDBRANCH  29  50
ENDBRANCH  27  29
ENDBRANCH   1  27
TORSDOF 13
ENDMDL
MODEL 8
REMARK minimizedAffinity -8.88218021
REMARK CNNscore 0.336644024
REMARK CNNaffinity 6.72505188
REMARK  13 active torsions:
REMARK  status: ('A' for Active; 'I' for Inactive)
REMARK    1  A    between atoms: O1_2  and  C2_3 
REMARK    2  A    between atoms: C2_3  and  C3_5 
REMARK    3  A    between atoms: C3_5  and  C4_6 
REMARK    4  A    between atoms: C3_5  and  N2_16 
REMARK    5  A    between atoms: C4_6  and  C5_7 
REMARK       I    between atoms: N2_16  and  C13_17 
REMARK    6  A    between atoms: C13_17  and  C14_19 
REMARK    7  A    between atoms: C14_19  and  C15_20 
REMARK    8  A    between atoms: C15_20  and  C16_21 
REMARK    9  A    between atoms: C16_21  and  O5_23 
REMARK   10  A    between atoms: O5_23  and  C17_24 
REMARK   11  A    between atoms: C17_24  and  C18_25 
REMARK   12  A    between atoms: C18_25  and  C19_27 
REMARK   13  A    between atoms: C19_27  and  O7_28 
ROOT
HETATM    1  C17 UNL     1      -0.669  49.942 -17.095  1.00  0.00     0.260 C 
ENDROOT
BRANCH   1   2
HETATM    2  O5  UNL     1      -0.757  50.643 -15.854  1.00  0.00    -0.314 OA
BRANCH   2   3
HETATM    3  C16 UNL     1       0.370  50.568 -15.087  1.00  0.00     0.259 C 
HETATM    4  O4  UNL     1       1.118  49.600 -15.038  1.00  0.00    -0.265 OA
BRANCH   3   5
HETATM    5  C15 UNL     1       0.581  51.865 -14.345  1.00  0.00     0.120 C 
BRANCH   5   6
HETATM    6  C14 UNL     1      -0.679  52.228 -13.568  1.00  0.00     0.112 C 
BRANCH   6   7
HETATM    7  C13 UNL     1      -0.368  52.676 -12.155  1.00  0.00     0.218 C 
HETATM    8  N2  UNL     1       0.880  53.226 -12.014  1.00  0.00    -0.347 N 
HETATM    9  H13 UNL     1       1.530  53.244 -12.796  1.00  0.00     0.163 HD
HETATM   10  O3  UNL     1      -1.181  52.627 -11.240  1.00  0.00    -0.274 OA
BRANCH   8  11
HETATM   11  C3  UNL     1       1.374  53.724 -10.723  1.00  0.00     0.188 C 
BRANCH  11  12
HETATM   12  C2  UNL     1       2.059  52.550 -10.029  1.00  0.00     0.281 C 
HETATM   13  O2  UNL     1       1.598  51.980  -9.042  1.00  0.00    -0.263 OA
BRANCH  12  14
HETATM   14  O1  UNL     1       3.237  52.237 -10.632  1.00  0.00    -0.325 OA
HETATM   15  C1  UNL     1       3.204  51.025 -11.386  1.00  0.00     0.213 C 
ENDBRANCH  12  14
ENDBRANCH  11  12
BRANCH  11  16
HETATM   16  C4  UNL     1       2.367  54.877 -10.916  1.00  0.00     0.076 C 
BRANCH  16  17
HETATM   17  C5  UNL     1       2.925  55.401  -9.629  1.00  0.00    -0.028 A 
HETATM   18  C6  UNL     1       2.221  56.012  -8.611  1.00  0.00     0.096 A 
HETATM   19  N1  UNL     1       3.106  56.355  -7.625  1.00  0.00    -0.365 N 
HETATM   20  C7  UNL     1       4.381  55.981  -7.975  1.00  0.00     0.042 A 
HETATM   21  H8  UNL     1       2.864  56.821  -6.762  1.00  0.00     0.165 HD
HETATM   22  C8  UNL     1       5.589  56.136  -7.284  1.00  0.00     0.030 A 
HETATM   23  C12 UNL     1       4.299  55.368  -9.225  1.00  0.00    -0.002 A 
HETATM   24  C9  UNL     1       6.748  55.644  -7.891  1.00  0.00     0.002 A 
HETATM   25  C10 UNL     1       6.697  55.021  -9.135  1.00  0.00     0.001 A 
HETATM   26  C11 UNL     1       5.481  54.876  -9.813  1.00  0.00     0.014 A 
ENDBRANCH  16  17
ENDBRANCH  11  16
ENDBRANCH   8  11
ENDBRANCH   6   7
ENDBRANCH   5   6
ENDBRANCH   3   5
ENDBRANCH   2   3
ENDBRANCH   1   2
BRANCH   1  27
HETATM   27  C18 UNL     1      -1.705  50.411 -18.117  1.00  0.00     0.185 C 
HETATM   28  O6  UNL     1      -2.829  49.905 -18.161  1.00  0.00    -0.292 OA
BRANCH  27  29
HETATM   29  C19 UNL     1      -1.286  51.563 -19.061  1.00  0.00     0.128 C 
HETATM   30  C20 UNL     1       0.066  52.214 -18.647  1.00  0.00     0.047 C 
HETATM   31  C21 UNL     1       0.795  52.608 -19.947  1.00  0.00     0.009 C 
HETATM   32  C22 UNL     1      -0.240  52.388 -21.044  1.00  0.00     0.002 C 
HETATM   33  C23 UNL     1       0.235  52.234 -22.501  1.00  0.00     0.003 C 
HETATM   34  C36 UNL     1      -1.038  51.144 -20.541  1.00  0.00     0.005 C 
HETATM   35  C24 UNL     1       1.204  53.329 -22.983  1.00  0.00     0.010 C 
HETATM   36  C33 UNL     1      -1.035  52.117 -23.402  1.00  0.00     0.072 C 
HETATM   37  C25 UNL     1       0.621  54.244 -24.055  1.00  0.00     0.035 C 
HETATM   38  C26 UNL     1      -0.031  53.512 -25.206  1.00  0.00    -0.067 C 
HETATM   39  C27 UNL     1      -0.097  54.108 -26.410  1.00  0.00     0.053 C 
HETATM   40  C31 UNL     1      -0.694  52.155 -24.920  1.00  0.00    -0.009 C 
HETATM   41  C28 UNL     1      -0.856  53.516 -27.537  1.00  0.00     0.149 C 
HETATM   42  O8  UNL     1      -0.757  54.022 -28.654  1.00  0.00    -0.293 OA
HETATM   43  C29 UNL     1      -1.713  52.300 -27.280  1.00  0.00     0.084 C 
HETATM   44  C30 UNL     1      -1.980  52.080 -25.790  1.00  0.00     0.022 C 
HETATM   45  C32 UNL     1       0.278  51.021 -25.320  1.00  0.00     0.021 C 
HETATM   46  C34 UNL     1      -1.864  50.928 -22.896  1.00  0.00     0.133 C 
HETATM   47  O9  UNL     1      -2.210  49.984 -23.599  1.00  0.00    -0.297 OA
HETATM   48  C35 UNL     1      -2.284  50.996 -21.430  1.00  0.00     0.091 C 
HETATM   49  C37 UNL     1      -0.220  49.824 -20.596  1.00  0.00     0.019 C 
BRANCH  29  50
HETATM   50  O7  UNL     1      -2.291  52.582 -19.016  1.00  0.00    -0.381 OA
HETATM   51  H20 UNL     1      -2.353  52.896 -18.093  1.00  0.00     0.211 HD
ENDBRANCH  29  50
ENDBRANCH  27  29
ENDBRANCH   1  27
TORSDOF 13
ENDMDL
MODEL 9
REMARK minimizedAffinity -9.1478014
REMARK CNNscore 0.317986935
REMARK CNNaffinity 6.59184265
REMARK  13 active torsions:
REMARK  status: ('A' for Active; 'I' for Inactive)
REMARK    1  A    between atoms: O1_2  and  C2_3 
REMARK    2  A    between atoms: C2_3  and  C3_5 
REMARK    3  A    between atoms: C3_5  and  C4_6 
REMARK    4  A    between atoms: C3_5  and  N2_16 
REMARK    5  A    between atoms: C4_6  and  C5_7 
REMARK       I    between atoms: N2_16  and  C13_17 
REMARK    6  A    between atoms: C13_17  and  C14_19 
REMARK    7  A    between atoms: C14_19  and  C15_20 
REMARK    8  A    between atoms: C15_20  and  C16_21 
REMARK    9  A    between atoms: C16_21  and  O5_23 
REMARK   10  A    between atoms: O5_23  and  C17_24 
REMARK   11  A    between atoms: C17_24  and  C18_25 
REMARK   12  A    between atoms: C18_25  and  C19_27 
REMARK   13  A    between atoms: C19_27  and  O7_28 
ROOT
HETATM    1  C17 UNL     1      -0.986  48.989 -17.744  1.00  0.00     0.260 C 
ENDROOT
BRANCH   1   2
HETATM    2  O5  UNL     1      -1.306  49.624 -16.506  1.00  0.00    -0.314 OA
BRANCH   2   3
HETATM    3  C16 UNL     1      -0.426  50.599 -16.132  1.00  0.00     0.259 C 
HETATM    4  O4  UNL     1       0.029  51.453 -16.882  1.00  0.00    -0.265 OA
BRANCH   3   5
HETATM    5  C15 UNL     1      -0.133  50.496 -14.656  1.00  0.00     0.120 C 
BRANCH   5   6
HETATM    6  C14 UNL     1      -0.001  51.890 -14.055  1.00  0.00     0.112 C 
BRANCH   6   7
HETATM    7  C13 UNL     1      -1.115  52.198 -13.077  1.00  0.00     0.218 C 
HETATM    8  N2  UNL     1      -0.713  52.950 -12.003  1.00  0.00    -0.347 N 
HETATM    9  H13 UNL     1       0.267  53.193 -11.879  1.00  0.00     0.163 HD
HETATM   10  O3  UNL     1      -2.282  51.874 -13.263  1.00  0.00    -0.274 OA
BRANCH   8  11
HETATM   11  C3  UNL     1      -1.642  53.356 -10.941  1.00  0.00     0.188 C 
BRANCH  11  12
HETATM   12  C2  UNL     1      -1.412  52.410  -9.765  1.00  0.00     0.281 C 
HETATM   13  O2  UNL     1      -0.752  51.376  -9.842  1.00  0.00    -0.263 OA
BRANCH  12  14
HETATM   14  O1  UNL     1      -2.039  52.854  -8.643  1.00  0.00    -0.325 OA
HETATM   15  C1  UNL     1      -1.432  52.426  -7.424  1.00  0.00     0.213 C 
ENDBRANCH  12  14
ENDBRANCH  11  12
BRANCH  11  16
HETATM   16  C4  UNL     1      -1.393  54.807 -10.509  1.00  0.00     0.076 C 
BRANCH  16  17
HETATM   17  C5  UNL     1       0.028  55.074 -10.122  1.00  0.00    -0.028 A 
HETATM   18  C6  UNL     1       1.156  54.776 -10.860  1.00  0.00     0.096 A 
HETATM   19  N1  UNL     1       2.253  55.167 -10.141  1.00  0.00    -0.365 N 
HETATM   20  C7  UNL     1       1.869  55.718  -8.943  1.00  0.00     0.042 A 
HETATM   21  H8  UNL     1       3.212  55.065 -10.442  1.00  0.00     0.165 HD
HETATM   22  C8  UNL     1       2.643  56.240  -7.900  1.00  0.00     0.030 A 
HETATM   23  C12 UNL     1       0.476  55.685  -8.905  1.00  0.00    -0.002 A 
HETATM   24  C9  UNL     1       1.969  56.747  -6.786  1.00  0.00     0.002 A 
HETATM   25  C10 UNL     1       0.578  56.734  -6.722  1.00  0.00     0.001 A 
HETATM   26  C11 UNL     1      -0.181  56.206  -7.773  1.00  0.00     0.014 A 
ENDBRANCH  16  17
ENDBRANCH  11  16
ENDBRANCH   8  11
ENDBRANCH   6   7
ENDBRANCH   5   6
ENDBRANCH   3   5
ENDBRANCH   2   3
ENDBRANCH   1   2
BRANCH   1  27
HETATM   27  C18 UNL     1      -2.223  48.505 -18.501  1.00  0.00     0.185 C 
HETATM   28  O6  UNL     1      -3.304  48.358 -17.925  1.00  0.00    -0.292 OA
BRANCH  27  29
HETATM   29  C19 UNL     1      -2.059  48.242 -20.017  1.00  0.00     0.128 C 
HETATM   30  C20 UNL     1      -3.198  47.356 -20.598  1.00  0.00     0.047 C 
HETATM   31  C21 UNL     1      -3.480  47.861 -22.026  1.00  0.00     0.009 C 
HETATM   32  C22 UNL     1      -2.358  48.854 -22.306  1.00  0.00     0.002 C 
HETATM   33  C23 UNL     1      -2.542  49.894 -23.427  1.00  0.00     0.003 C 
HETATM   34  C36 UNL     1      -2.108  49.515 -20.914  1.00  0.00     0.005 C 
HETATM   35  C24 UNL     1      -3.002  49.313 -24.778  1.00  0.00     0.010 C 
HETATM   36  C33 UNL     1      -1.211  50.703 -23.544  1.00  0.00     0.072 C 
HETATM   37  C25 UNL     1      -1.954  49.407 -25.881  1.00  0.00     0.035 C 
HETATM   38  C26 UNL     1      -1.334  50.779 -26.031  1.00  0.00    -0.067 C 
HETATM   39  C27 UNL     1      -0.836  51.147 -27.226  1.00  0.00     0.053 C 
HETATM   40  C31 UNL     1      -1.198  51.654 -24.775  1.00  0.00    -0.009 C 
HETATM   41  C28 UNL     1      -0.080  52.408 -27.404  1.00  0.00     0.149 C 
HETATM   42  O8  UNL     1       0.219  52.769 -28.541  1.00  0.00    -0.293 OA
HETATM   43  C29 UNL     1       0.286  53.218 -26.183  1.00  0.00     0.084 C 
HETATM   44  C30 UNL     1       0.154  52.413 -24.889  1.00  0.00     0.022 C 
HETATM   45  C32 UNL     1      -2.367  52.665 -24.733  1.00  0.00     0.021 C 
HETATM   46  C34 UNL     1      -0.915  51.324 -22.171  1.00  0.00     0.133 C 
HETATM   47  O9  UNL     1      -0.739  52.523 -21.985  1.00  0.00    -0.297 OA
HETATM   48  C35 UNL     1      -0.811  50.336 -21.012  1.00  0.00     0.091 C 
HETATM   49  C37 UNL     1      -3.264  50.449 -20.458  1.00  0.00     0.019 C 
BRANCH  29  50
HETATM   50  O7  UNL     1      -0.821  47.555 -20.232  1.00  0.00    -0.381 OA
HETATM   51  H20 UNL     1      -0.859  46.713 -19.737  1.00  0.00     0.211 HD
ENDBRANCH  29  50
ENDBRANCH  27  29
ENDBRANCH   1  27
TORSDOF 13
ENDMDL
