MODEL 1
REMARK minimizedAffinity -9.52853012
REMARK  7 active torsions:
REMARK  status: ('A' for Active; 'I' for Inactive)
REMARK    1  A    between atoms: C2_2  and  C30_32 
REMARK    2  A    between atoms: C3_3  and  C4_4 
REMARK    3  A    between atoms: C4_4  and  C5_5 
REMARK    4  A    between atoms: C5_5  and  C6_6 
REMARK    5  A    between atoms: C6_6  and  C8_8 
REMARK    6  A    between atoms: C29_30  and  O2_31 
REMARK    7  A    between atoms: C30_32  and  O3_33 
ROOT
HETATM    1  C8  UNL     1      -0.644  50.115 -21.017  1.00  0.00    -0.002 C 
HETATM    2  C9  UNL     1      -0.967  49.486 -19.631  1.00  0.00     0.007 C 
HETATM    3  C10 UNL     1      -2.270  48.679 -19.776  1.00  0.00     0.015 C 
HETATM    4  C11 UNL     1      -2.481  48.535 -21.291  1.00  0.00    -0.010 C 
HETATM    5  C12 UNL     1      -1.585  47.349 -21.773  1.00  0.00     0.021 C 
HETATM    6  C13 UNL     1      -3.888  48.245 -21.822  1.00  0.00    -0.039 C 
HETATM    7  C14 UNL     1      -4.235  48.666 -23.069  1.00  0.00    -0.066 C 
HETATM    8  C15 UNL     1      -3.265  49.476 -23.937  1.00  0.00     0.036 C 
HETATM    9  C16 UNL     1      -1.921  49.904 -23.312  1.00  0.00     0.015 C 
HETATM   10  C17 UNL     1      -1.999  49.959 -21.781  1.00  0.00    -0.029 C 
HETATM   11  C18 UNL     1      -2.961  51.116 -21.367  1.00  0.00     0.016 C 
HETATM   12  C19 UNL     1      -5.657  48.424 -23.651  1.00  0.00    -0.015 C 
HETATM   13  C20 UNL     1      -6.432  49.740 -23.409  1.00  0.00     0.020 C 
HETATM   14  C21 UNL     1      -5.614  48.122 -25.169  1.00  0.00     0.021 C 
HETATM   15  C22 UNL     1      -6.983  47.806 -25.754  1.00  0.00     0.080 C 
HETATM   16  C23 UNL     1      -7.632  46.638 -25.056  1.00  0.00     0.135 C 
HETATM   17  O1  UNL     1      -8.231  45.791 -25.724  1.00  0.00    -0.297 OA
HETATM   18  C24 UNL     1      -7.648  46.626 -23.519  1.00  0.00     0.018 C 
HETATM   19  C25 UNL     1      -7.822  45.146 -23.077  1.00  0.00     0.023 C 
HETATM   20  C26 UNL     1      -8.897  47.384 -23.047  1.00  0.00     0.023 C 
HETATM   21  C27 UNL     1      -6.287  47.162 -22.956  1.00  0.00     0.016 C 
HETATM   22  C28 UNL     1      -6.271  47.357 -21.428  1.00  0.00     0.043 C 
HETATM   23  C29 UNL     1      -4.834  47.484 -20.912  1.00  0.00     0.148 C 
ENDROOT
BRANCH   1  24
HETATM   24  C6  UNL     1       0.020  51.516 -20.890  1.00  0.00    -0.014 C 
HETATM   25  C7  UNL     1      -0.347  52.236 -19.588  1.00  0.00     0.010 C 
BRANCH  24  26
HETATM   26  C5  UNL     1      -0.238  52.451 -22.108  1.00  0.00     0.008 C 
BRANCH  26  27
HETATM   27  C4  UNL     1       0.725  52.380 -23.303  1.00  0.00     0.028 C 
BRANCH  27  28
HETATM   28  C3  UNL     1       0.291  53.144 -24.520  1.00  0.00    -0.022 C 
HETATM   29  C2  UNL     1       0.535  52.836 -25.810  1.00  0.00    -0.064 C 
HETATM   30  C1  UNL     1       1.318  51.634 -26.265  1.00  0.00     0.045 C 
BRANCH  29  31
HETATM   31  C30 UNL     1       0.012  53.706 -26.921  1.00  0.00     0.197 C 
BRANCH  31  32
HETATM   32  O3  UNL     1       0.154  55.066 -26.539  1.00  0.00    -0.397 OA
HETATM   33  H48 UNL     1      -0.152  55.601 -27.289  1.00  0.00     0.209 HD
ENDBRANCH  31  32
ENDBRANCH  29  31
ENDBRANCH  27  28
ENDBRANCH  26  27
ENDBRANCH  24  26
ENDBRANCH   1  24
BRANCH  23  34
HETATM   34  O2  UNL     1      -4.333  46.161 -20.727  1.00  0.00    -0.391 OA
HETATM   35  H45 UNL     1      -3.955  45.878 -21.575  1.00  0.00     0.210 HD
ENDBRANCH  23  34
TORSDOF 7
ENDMDL
MODEL 2
REMARK minimizedAffinity -9.17358208
REMARK  7 active torsions:
REMARK  status: ('A' for Active; 'I' for Inactive)
REMARK    1  A    between atoms: C2_2  and  C30_32 
REMARK    2  A    between atoms: C3_3  and  C4_4 
REMARK    3  A    between atoms: C4_4  and  C5_5 
REMARK    4  A    between atoms: C5_5  and  C6_6 
REMARK    5  A    between atoms: C6_6  and  C8_8 
REMARK    6  A    between atoms: C29_30  and  O2_31 
REMARK    7  A    between atoms: C30_32  and  O3_33 
ROOT
HETATM    1  C8  UNL     1      -0.287  51.784 -17.051  1.00  0.00    -0.002 C 
HETATM    2  C9  UNL     1       1.216  52.123 -17.273  1.00  0.00     0.007 C 
HETATM    3  C10 UNL     1       1.429  52.332 -18.784  1.00  0.00     0.015 C 
HETATM    4  C11 UNL     1       0.016  52.485 -19.367  1.00  0.00    -0.010 C 
HETATM    5  C12 UNL     1      -0.425  53.966 -19.131  1.00  0.00     0.021 C 
HETATM    6  C13 UNL     1      -0.209  52.209 -20.856  1.00  0.00    -0.039 C 
HETATM    7  C14 UNL     1      -1.425  51.774 -21.283  1.00  0.00    -0.066 C 
HETATM    8  C15 UNL     1      -2.566  51.498 -20.296  1.00  0.00     0.036 C 
HETATM    9  C16 UNL     1      -2.261  51.616 -18.788  1.00  0.00     0.015 C 
HETATM   10  C17 UNL     1      -0.767  51.424 -18.494  1.00  0.00    -0.029 C 
HETATM   11  C18 UNL     1      -0.378  49.948 -18.815  1.00  0.00     0.016 C 
HETATM   12  C19 UNL     1      -1.704  51.452 -22.779  1.00  0.00    -0.015 C 
HETATM   13  C20 UNL     1      -1.538  49.919 -22.909  1.00  0.00     0.020 C 
HETATM   14  C21 UNL     1      -3.140  51.853 -23.196  1.00  0.00     0.021 C 
HETATM   15  C22 UNL     1      -3.419  51.620 -24.674  1.00  0.00     0.080 C 
HETATM   16  C23 UNL     1      -2.445  52.364 -25.550  1.00  0.00     0.135 C 
HETATM   17  O1  UNL     1      -2.856  52.936 -26.563  1.00  0.00    -0.297 OA
HETATM   18  C24 UNL     1      -0.946  52.259 -25.226  1.00  0.00     0.018 C 
HETATM   19  C25 UNL     1      -0.255  53.500 -25.854  1.00  0.00     0.023 C 
HETATM   20  C26 UNL     1      -0.386  51.022 -25.945  1.00  0.00     0.023 C 
HETATM   21  C27 UNL     1      -0.721  52.290 -23.675  1.00  0.00     0.016 C 
HETATM   22  C28 UNL     1       0.731  52.009 -23.244  1.00  0.00     0.043 C 
HETATM   23  C29 UNL     1       0.961  52.447 -21.793  1.00  0.00     0.148 C 
ENDROOT
BRANCH   1  24
HETATM   24  C6  UNL     1      -0.498  50.774 -15.886  1.00  0.00    -0.014 C 
HETATM   25  C7  UNL     1       0.644  49.761 -15.758  1.00  0.00     0.010 C 
BRANCH  24  26
HETATM   26  C5  UNL     1      -1.867  50.033 -15.933  1.00  0.00     0.008 C 
BRANCH  26  27
HETATM   27  C4  UNL     1      -2.708  49.963 -14.650  1.00  0.00     0.028 C 
BRANCH  27  28
HETATM   28  C3  UNL     1      -2.786  51.240 -13.866  1.00  0.00    -0.022 C 
HETATM   29  C2  UNL     1      -3.242  51.401 -12.607  1.00  0.00    -0.064 C 
HETATM   30  C1  UNL     1      -3.775  50.287 -11.745  1.00  0.00     0.045 C 
BRANCH  29  31
HETATM   31  C30 UNL     1      -3.238  52.757 -11.954  1.00  0.00     0.197 C 
BRANCH  31  32
HETATM   32  O3  UNL     1      -4.162  53.591 -12.636  1.00  0.00    -0.397 OA
HETATM   33  H48 UNL     1      -4.169  54.443 -12.169  1.00  0.00     0.209 HD
ENDBRANCH  31  32
ENDBRANCH  29  31
ENDBRANCH  27  28
ENDBRANCH  26  27
ENDBRANCH  24  26
ENDBRANCH   1  24
BRANCH  23  34
HETATM   34  O2  UNL     1       1.260  53.841 -21.816  1.00  0.00    -0.391 OA
HETATM   35  H45 UNL     1       0.414  54.315 -21.776  1.00  0.00     0.210 HD
ENDBRANCH  23  34
TORSDOF 7
ENDMDL
MODEL 3
REMARK minimizedAffinity -9.13788891
REMARK  7 active torsions:
REMARK  status: ('A' for Active; 'I' for Inactive)
REMARK    1  A    between atoms: C2_2  and  C30_32 
REMARK    2  A    between atoms: C3_3  and  C4_4 
REMARK    3  A    between atoms: C4_4  and  C5_5 
REMARK    4  A    between atoms: C5_5  and  C6_6 
REMARK    5  A    between atoms: C6_6  and  C8_8 
REMARK    6  A    between atoms: C29_30  and  O2_31 
REMARK    7  A    between atoms: C30_32  and  O3_33 
ROOT
HETATM    1  C8  UNL     1      -0.714  50.590 -22.155  1.00  0.00    -0.002 C 
HETATM    2  C9  UNL     1      -0.772  50.311 -20.625  1.00  0.00     0.007 C 
HETATM    3  C10 UNL     1      -2.032  49.469 -20.351  1.00  0.00     0.015 C 
HETATM    4  C11 UNL     1      -2.477  48.959 -21.731  1.00  0.00    -0.010 C 
HETATM    5  C12 UNL     1      -1.603  47.707 -22.065  1.00  0.00     0.021 C 
HETATM    6  C13 UNL     1      -3.931  48.525 -21.930  1.00  0.00    -0.039 C 
HETATM    7  C14 UNL     1      -4.500  48.625 -23.162  1.00  0.00    -0.066 C 
HETATM    8  C15 UNL     1      -3.731  49.217 -24.350  1.00  0.00     0.036 C 
HETATM    9  C16 UNL     1      -2.331  49.807 -24.082  1.00  0.00     0.015 C 
HETATM   10  C17 UNL     1      -2.163  50.231 -22.618  1.00  0.00    -0.029 C 
HETATM   11  C18 UNL     1      -3.111  51.436 -22.331  1.00  0.00     0.016 C 
HETATM   12  C19 UNL     1      -5.980  48.224 -23.420  1.00  0.00    -0.015 C 
HETATM   13  C20 UNL     1      -6.781  49.547 -23.366  1.00  0.00     0.020 C 
HETATM   14  C21 UNL     1      -6.166  47.564 -24.808  1.00  0.00     0.021 C 
HETATM   15  C22 UNL     1      -7.590  47.093 -25.059  1.00  0.00     0.080 C 
HETATM   16  C23 UNL     1      -8.049  46.118 -24.005  1.00  0.00     0.135 C 
HETATM   17  O1  UNL     1      -8.699  45.124 -24.342  1.00  0.00    -0.297 OA
HETATM   18  C24 UNL     1      -7.816  46.477 -22.529  1.00  0.00     0.018 C 
HETATM   19  C25 UNL     1      -7.830  45.147 -21.727  1.00  0.00     0.023 C 
HETATM   20  C26 UNL     1      -9.015  47.306 -22.043  1.00  0.00     0.023 C 
HETATM   21  C27 UNL     1      -6.415  47.158 -22.349  1.00  0.00     0.016 C 
HETATM   22  C28 UNL     1      -6.164  47.718 -20.936  1.00  0.00     0.043 C 
HETATM   23  C29 UNL     1      -4.672  47.991 -20.718  1.00  0.00     0.148 C 
ENDROOT
BRANCH   1  24
HETATM   24  C6  UNL     1      -0.121  51.992 -22.477  1.00  0.00    -0.014 C 
HETATM   25  C7  UNL     1       0.184  52.815 -21.222  1.00  0.00     0.010 C 
BRANCH  24  26
HETATM   26  C5  UNL     1      -0.980  52.829 -23.470  1.00  0.00     0.008 C 
BRANCH  26  27
HETATM   27  C4  UNL     1      -0.327  53.321 -24.770  1.00  0.00     0.028 C 
BRANCH  27  28
HETATM   28  C3  UNL     1       0.971  52.657 -25.127  1.00  0.00    -0.022 C 
HETATM   29  C2  UNL     1       1.170  51.692 -26.047  1.00  0.00    -0.064 C 
HETATM   30  C1  UNL     1       0.084  51.090 -26.899  1.00  0.00     0.045 C 
BRANCH  29  31
HETATM   31  C30 UNL     1       2.547  51.139 -26.296  1.00  0.00     0.197 C 
BRANCH  31  32
HETATM   32  O3  UNL     1       3.207  51.971 -27.238  1.00  0.00    -0.397 OA
HETATM   33  H48 UNL     1       4.103  51.615 -27.347  1.00  0.00     0.209 HD
ENDBRANCH  31  32
ENDBRANCH  29  31
ENDBRANCH  27  28
ENDBRANCH  26  27
ENDBRANCH  24  26
ENDBRANCH   1  24
BRANCH  23  34
HETATM   34  O2  UNL     1      -4.073  46.761 -20.314  1.00  0.00    -0.391 OA
HETATM   35  H45 UNL     1      -3.821  46.287 -21.123  1.00  0.00     0.210 HD
ENDBRANCH  23  34
TORSDOF 7
ENDMDL
MODEL 4
REMARK minimizedAffinity -9.08937073
REMARK  7 active torsions:
REMARK  status: ('A' for Active; 'I' for Inactive)
REMARK    1  A    between atoms: C2_2  and  C30_32 
REMARK    2  A    between atoms: C3_3  and  C4_4 
REMARK    3  A    between atoms: C4_4  and  C5_5 
REMARK    4  A    between atoms: C5_5  and  C6_6 
REMARK    5  A    between atoms: C6_6  and  C8_8 
REMARK    6  A    between atoms: C29_30  and  O2_31 
REMARK    7  A    between atoms: C30_32  and  O3_33 
ROOT
HETATM    1  C8  UNL     1      -1.659  51.543 -23.078  1.00  0.00    -0.002 C 
HETATM    2  C9  UNL     1      -1.590  50.731 -24.404  1.00  0.00     0.007 C 
HETATM    3  C10 UNL     1      -2.812  49.794 -24.442  1.00  0.00     0.015 C 
HETATM    4  C11 UNL     1      -3.755  50.328 -23.353  1.00  0.00    -0.010 C 
HETATM    5  C12 UNL     1      -4.542  51.529 -23.970  1.00  0.00     0.021 C 
HETATM    6  C13 UNL     1      -4.811  49.391 -22.759  1.00  0.00    -0.039 C 
HETATM    7  C14 UNL     1      -5.243  49.588 -21.484  1.00  0.00    -0.066 C 
HETATM    8  C15 UNL     1      -4.654  50.697 -20.604  1.00  0.00     0.036 C 
HETATM    9  C16 UNL     1      -3.471  51.514 -21.166  1.00  0.00     0.015 C 
HETATM   10  C17 UNL     1      -2.705  50.736 -22.243  1.00  0.00    -0.029 C 
HETATM   11  C18 UNL     1      -2.002  49.513 -21.576  1.00  0.00     0.016 C 
HETATM   12  C19 UNL     1      -6.293  48.654 -20.818  1.00  0.00    -0.015 C 
HETATM   13  C20 UNL     1      -5.475  47.646 -19.977  1.00  0.00     0.020 C 
HETATM   14  C21 UNL     1      -7.256  49.436 -19.893  1.00  0.00     0.021 C 
HETATM   15  C22 UNL     1      -8.343  48.561 -19.285  1.00  0.00     0.080 C 
HETATM   16  C23 UNL     1      -9.161  47.870 -20.346  1.00  0.00     0.135 C 
HETATM   17  O1  UNL     1     -10.385  47.794 -20.212  1.00  0.00    -0.297 OA
HETATM   18  C24 UNL     1      -8.419  47.155 -21.486  1.00  0.00     0.018 C 
HETATM   19  C25 UNL     1      -9.410  47.047 -22.678  1.00  0.00     0.023 C 
HETATM   20  C26 UNL     1      -8.109  45.721 -21.030  1.00  0.00     0.023 C 
HETATM   21  C27 UNL     1      -7.177  47.996 -21.940  1.00  0.00     0.016 C 
HETATM   22  C28 UNL     1      -6.266  47.277 -22.954  1.00  0.00     0.043 C 
HETATM   23  C29 UNL     1      -5.331  48.275 -23.646  1.00  0.00     0.148 C 
ENDROOT
BRANCH   1  24
HETATM   24  C6  UNL     1      -0.248  51.831 -22.488  1.00  0.00    -0.014 C 
HETATM   25  C7  UNL     1      -0.295  52.327 -21.040  1.00  0.00     0.010 C 
BRANCH  24  26
HETATM   26  C5  UNL     1       0.615  52.793 -23.355  1.00  0.00     0.008 C 
BRANCH  26  27
HETATM   27  C4  UNL     1       0.219  53.013 -24.823  1.00  0.00     0.028 C 
BRANCH  27  28
HETATM   28  C3  UNL     1       1.222  52.540 -25.834  1.00  0.00    -0.022 C 
HETATM   29  C2  UNL     1       0.976  52.076 -27.076  1.00  0.00    -0.064 C 
HETATM   30  C1  UNL     1      -0.398  51.944 -27.679  1.00  0.00     0.045 C 
BRANCH  29  31
HETATM   31  C30 UNL     1       2.104  51.653 -27.977  1.00  0.00     0.197 C 
BRANCH  31  32
HETATM   32  O3  UNL     1       3.259  51.427 -27.183  1.00  0.00    -0.397 OA
HETATM   33  H48 UNL     1       3.956  51.116 -27.784  1.00  0.00     0.209 HD
ENDBRANCH  31  32
ENDBRANCH  29  31
ENDBRANCH  27  28
ENDBRANCH  26  27
ENDBRANCH  24  26
ENDBRANCH   1  24
BRANCH  23  34
HETATM   34  O2  UNL     1      -6.055  48.848 -24.734  1.00  0.00    -0.391 OA
HETATM   35  H45 UNL     1      -6.538  49.613 -24.383  1.00  0.00     0.210 HD
ENDBRANCH  23  34
TORSDOF 7
ENDMDL
MODEL 5
REMARK minimizedAffinity -9.00554943
REMARK  7 active torsions:
REMARK  status: ('A' for Active; 'I' for Inactive)
REMARK    1  A    between atoms: C2_2  and  C30_32 
REMARK    2  A    between atoms: C3_3  and  C4_4 
REMARK    3  A    between atoms: C4_4  and  C5_5 
REMARK    4  A    between atoms: C5_5  and  C6_6 
REMARK    5  A    between atoms: C6_6  and  C8_8 
REMARK    6  A    between atoms: C29_30  and  O2_31 
REMARK    7  A    between atoms: C30_32  and  O3_33 
ROOT
HETATM    1  C8  UNL     1      -4.167  50.180 -24.567  1.00  0.00    -0.002 C 
HETATM    2  C9  UNL     1      -5.453  49.422 -24.125  1.00  0.00     0.007 C 
HETATM    3  C10 UNL     1      -5.370  49.209 -22.603  1.00  0.00     0.015 C 
HETATM    4  C11 UNL     1      -4.253  50.152 -22.130  1.00  0.00    -0.010 C 
HETATM    5  C12 UNL     1      -4.879  51.577 -21.988  1.00  0.00     0.021 C 
HETATM    6  C13 UNL     1      -3.550  49.865 -20.800  1.00  0.00    -0.039 C 
HETATM    7  C14 UNL     1      -2.263  50.266 -20.620  1.00  0.00    -0.066 C 
HETATM    8  C15 UNL     1      -1.476  50.952 -21.744  1.00  0.00     0.036 C 
HETATM    9  C16 UNL     1      -2.149  51.072 -23.128  1.00  0.00     0.015 C 
HETATM   10  C17 UNL     1      -3.231  50.004 -23.327  1.00  0.00    -0.029 C 
HETATM   11  C18 UNL     1      -2.549  48.602 -23.390  1.00  0.00     0.016 C 
HETATM   12  C19 UNL     1      -1.489  49.979 -19.302  1.00  0.00    -0.015 C 
HETATM   13  C20 UNL     1      -0.650  48.710 -19.583  1.00  0.00     0.020 C 
HETATM   14  C21 UNL     1      -0.546  51.147 -18.921  1.00  0.00     0.021 C 
HETATM   15  C22 UNL     1       0.169  50.929 -17.596  1.00  0.00     0.080 C 
HETATM   16  C23 UNL     1      -0.805  50.717 -16.465  1.00  0.00     0.135 C 
HETATM   17  O1  UNL     1      -0.593  51.256 -15.375  1.00  0.00    -0.297 OA
HETATM   18  C24 UNL     1      -1.951  49.714 -16.670  1.00  0.00     0.018 C 
HETATM   19  C25 UNL     1      -3.074  50.094 -15.664  1.00  0.00     0.023 C 
HETATM   20  C26 UNL     1      -1.444  48.320 -16.270  1.00  0.00     0.023 C 
HETATM   21  C27 UNL     1      -2.521  49.828 -18.125  1.00  0.00     0.016 C 
HETATM   22  C28 UNL     1      -3.551  48.741 -18.485  1.00  0.00     0.043 C 
HETATM   23  C29 UNL     1      -4.347  49.139 -19.732  1.00  0.00     0.148 C 
ENDROOT
BRANCH   1  24
HETATM   24  C6  UNL     1      -3.679  49.742 -25.978  1.00  0.00    -0.014 C 
HETATM   25  C7  UNL     1      -4.252  48.392 -26.417  1.00  0.00     0.010 C 
BRANCH  24  26
HETATM   26  C5  UNL     1      -2.130  49.743 -26.139  1.00  0.00     0.008 C 
BRANCH  26  27
HETATM   27  C4  UNL     1      -1.423  51.075 -26.432  1.00  0.00     0.028 C 
BRANCH  27  28
HETATM   28  C3  UNL     1       0.036  51.116 -26.083  1.00  0.00    -0.022 C 
HETATM   29  C2  UNL     1       1.065  51.406 -26.903  1.00  0.00    -0.064 C 
HETATM   30  C1  UNL     1       0.923  51.744 -28.363  1.00  0.00     0.045 C 
BRANCH  29  31
HETATM   31  C30 UNL     1       2.479  51.420 -26.387  1.00  0.00     0.197 C 
BRANCH  31  32
HETATM   32  O3  UNL     1       3.364  51.514 -27.493  1.00  0.00    -0.397 OA
HETATM   33  H48 UNL     1       4.263  51.563 -27.130  1.00  0.00     0.209 HD
ENDBRANCH  31  32
ENDBRANCH  29  31
ENDBRANCH  27  28
ENDBRANCH  26  27
ENDBRANCH  24  26
ENDBRANCH   1  24
BRANCH  23  34
HETATM   34  O2  UNL     1      -5.416  49.980 -19.301  1.00  0.00    -0.391 OA
HETATM   35  H45 UNL     1      -5.075  50.888 -19.284  1.00  0.00     0.210 HD
ENDBRANCH  23  34
TORSDOF 7
ENDMDL
MODEL 6
REMARK minimizedAffinity -8.98674107
REMARK  7 active torsions:
REMARK  status: ('A' for Active; 'I' for Inactive)
REMARK    1  A    between atoms: C2_2  and  C30_32 
REMARK    2  A    between atoms: C3_3  and  C4_4 
REMARK    3  A    between atoms: C4_4  and  C5_5 
REMARK    4  A    between atoms: C5_5  and  C6_6 
REMARK    5  A    between atoms: C6_6  and  C8_8 
REMARK    6  A    between atoms: C29_30  and  O2_31 
REMARK    7  A    between atoms: C30_32  and  O3_33 
ROOT
HETATM    1  C8  UNL     1      -2.584  50.411 -22.154  1.00  0.00    -0.002 C 
HETATM    2  C9  UNL     1      -2.115  51.858 -22.485  1.00  0.00     0.007 C 
HETATM    3  C10 UNL     1      -1.204  52.328 -21.335  1.00  0.00     0.015 C 
HETATM    4  C11 UNL     1      -0.854  51.050 -20.558  1.00  0.00    -0.010 C 
HETATM    5  C12 UNL     1       0.317  50.350 -21.321  1.00  0.00     0.021 C 
HETATM    6  C13 UNL     1      -0.399  51.167 -19.100  1.00  0.00    -0.039 C 
HETATM    7  C14 UNL     1      -0.632  50.140 -18.239  1.00  0.00    -0.066 C 
HETATM    8  C15 UNL     1      -1.392  48.884 -18.682  1.00  0.00     0.036 C 
HETATM    9  C16 UNL     1      -1.992  48.866 -20.104  1.00  0.00     0.015 C 
HETATM   10  C17 UNL     1      -2.235  50.284 -20.636  1.00  0.00    -0.029 C 
HETATM   11  C18 UNL     1      -3.363  50.951 -19.789  1.00  0.00     0.016 C 
HETATM   12  C19 UNL     1      -0.217  50.212 -16.742  1.00  0.00    -0.015 C 
HETATM   13  C20 UNL     1      -1.494  50.634 -15.979  1.00  0.00     0.020 C 
HETATM   14  C21 UNL     1       0.272  48.841 -16.213  1.00  0.00     0.021 C 
HETATM   15  C22 UNL     1       0.756  48.896 -14.772  1.00  0.00     0.080 C 
HETATM   16  C23 UNL     1       1.870  49.897 -14.595  1.00  0.00     0.135 C 
HETATM   17  O1  UNL     1       2.835  49.609 -13.883  1.00  0.00    -0.297 OA
HETATM   18  C24 UNL     1       1.688  51.301 -15.193  1.00  0.00     0.018 C 
HETATM   19  C25 UNL     1       3.107  51.903 -15.384  1.00  0.00     0.023 C 
HETATM   20  C26 UNL     1       0.967  52.174 -14.155  1.00  0.00     0.023 C 
HETATM   21  C27 UNL     1       0.989  51.211 -16.593  1.00  0.00     0.016 C 
HETATM   22  C28 UNL     1       0.600  52.576 -17.192  1.00  0.00     0.043 C 
HETATM   23  C29 UNL     1       0.306  52.447 -18.690  1.00  0.00     0.148 C 
ENDROOT
BRANCH   1  24
HETATM   24  C6  UNL     1      -4.034  50.134 -22.645  1.00  0.00    -0.014 C 
HETATM   25  C7  UNL     1      -5.061  50.141 -21.510  1.00  0.00     0.010 C 
BRANCH  24  26
HETATM   26  C5  UNL     1      -4.177  48.833 -23.488  1.00  0.00     0.008 C 
BRANCH  26  27
HETATM   27  C4  UNL     1      -3.118  48.532 -24.559  1.00  0.00     0.028 C 
BRANCH  27  28
HETATM   28  C3  UNL     1      -2.936  49.601 -25.597  1.00  0.00    -0.022 C 
HETATM   29  C2  UNL     1      -3.260  49.536 -26.904  1.00  0.00    -0.064 C 
HETATM   30  C1  UNL     1      -3.878  48.335 -27.570  1.00  0.00     0.045 C 
BRANCH  29  31
HETATM   31  C30 UNL     1      -3.025  50.711 -27.815  1.00  0.00     0.197 C 
BRANCH  31  32
HETATM   32  O3  UNL     1      -3.604  50.427 -29.079  1.00  0.00    -0.397 OA
HETATM   33  H48 UNL     1      -3.474  51.216 -29.631  1.00  0.00     0.209 HD
ENDBRANCH  31  32
ENDBRANCH  29  31
ENDBRANCH  27  28
ENDBRANCH  26  27
ENDBRANCH  24  26
ENDBRANCH   1  24
BRANCH  23  34
HETATM   34  O2  UNL     1       1.555  52.527 -19.374  1.00  0.00    -0.391 OA
HETATM   35  H45 UNL     1       1.916  51.626 -19.414  1.00  0.00     0.210 HD
ENDBRANCH  23  34
TORSDOF 7
ENDMDL
MODEL 7
REMARK minimizedAffinity -8.9354372
REMARK  7 active torsions:
REMARK  status: ('A' for Active; 'I' for Inactive)
REMARK    1  A    between atoms: C2_2  and  C30_32 
REMARK    2  A    between atoms: C3_3  and  C4_4 
REMARK    3  A    between atoms: C4_4  and  C5_5 
REMARK    4  A    between atoms: C5_5  and  C6_6 
REMARK    5  A    between atoms: C6_6  and  C8_8 
REMARK    6  A    between atoms: C29_30  and  O2_31 
REMARK    7  A    between atoms: C30_32  and  O3_33 
ROOT
HETATM    1  C8  UNL     1      -1.270  52.109 -22.725  1.00  0.00    -0.002 C 
HETATM    2  C9  UNL     1      -0.543  51.597 -24.003  1.00  0.00     0.007 C 
HETATM    3  C10 UNL     1      -1.535  50.717 -24.785  1.00  0.00     0.015 C 
HETATM    4  C11 UNL     1      -2.909  51.025 -24.170  1.00  0.00    -0.010 C 
HETATM    5  C12 UNL     1      -3.424  52.347 -24.825  1.00  0.00     0.021 C 
HETATM    6  C13 UNL     1      -4.041  50.006 -24.328  1.00  0.00    -0.039 C 
HETATM    7  C14 UNL     1      -5.018  49.935 -23.384  1.00  0.00    -0.066 C 
HETATM    8  C15 UNL     1      -4.982  50.818 -22.130  1.00  0.00     0.036 C 
HETATM    9  C16 UNL     1      -3.743  51.710 -21.910  1.00  0.00     0.015 C 
HETATM   10  C17 UNL     1      -2.512  51.164 -22.645  1.00  0.00    -0.029 C 
HETATM   11  C18 UNL     1      -2.092  49.813 -21.988  1.00  0.00     0.016 C 
HETATM   12  C19 UNL     1      -6.177  48.902 -23.476  1.00  0.00    -0.015 C 
HETATM   13  C20 UNL     1      -5.751  47.721 -22.573  1.00  0.00     0.020 C 
HETATM   14  C21 UNL     1      -7.514  49.489 -22.963  1.00  0.00     0.021 C 
HETATM   15  C22 UNL     1      -8.684  48.528 -23.111  1.00  0.00     0.080 C 
HETATM   16  C23 UNL     1      -8.874  48.097 -24.543  1.00  0.00     0.135 C 
HETATM   17  O1  UNL     1     -10.016  48.020 -25.005  1.00  0.00    -0.297 OA
HETATM   18  C24 UNL     1      -7.642  47.626 -25.331  1.00  0.00     0.018 C 
HETATM   19  C25 UNL     1      -7.973  47.797 -26.839  1.00  0.00     0.023 C 
HETATM   20  C26 UNL     1      -7.459  46.121 -25.080  1.00  0.00     0.023 C 
HETATM   21  C27 UNL     1      -6.401  48.518 -24.985  1.00  0.00     0.016 C 
HETATM   22  C28 UNL     1      -5.076  48.014 -25.587  1.00  0.00     0.043 C 
HETATM   23  C29 UNL     1      -4.012  49.116 -25.557  1.00  0.00     0.148 C 
ENDROOT
BRANCH   1  24
HETATM   24  C6  UNL     1      -0.308  52.233 -21.509  1.00  0.00    -0.014 C 
HETATM   25  C7  UNL     1       1.169  52.258 -21.914  1.00  0.00     0.010 C 
BRANCH  24  26
HETATM   26  C5  UNL     1      -0.542  51.160 -20.406  1.00  0.00     0.008 C 
BRANCH  26  27
HETATM   27  C4  UNL     1      -1.031  51.621 -19.025  1.00  0.00     0.028 C 
BRANCH  27  28
HETATM   28  C3  UNL     1       0.049  52.050 -18.074  1.00  0.00    -0.022 C 
HETATM   29  C2  UNL     1       0.626  51.312 -17.106  1.00  0.00    -0.064 C 
HETATM   30  C1  UNL     1       0.270  49.882 -16.797  1.00  0.00     0.045 C 
BRANCH  29  31
HETATM   31  C30 UNL     1       1.715  51.892 -16.242  1.00  0.00     0.197 C 
BRANCH  31  32
HETATM   32  O3  UNL     1       1.530  53.297 -16.162  1.00  0.00    -0.397 OA
HETATM   33  H48 UNL     1       2.219  53.636 -15.567  1.00  0.00     0.209 HD
ENDBRANCH  31  32
ENDBRANCH  29  31
ENDBRANCH  27  28
ENDBRANCH  26  27
ENDBRANCH  24  26
ENDBRANCH   1  24
BRANCH  23  34
HETATM   34  O2  UNL     1      -4.207  49.924 -26.717  1.00  0.00    -0.391 OA
HETATM   35  H45 UNL     1      -4.856  50.607 -26.483  1.00  0.00     0.210 HD
ENDBRANCH  23  34
TORSDOF 7
ENDMDL
MODEL 8
REMARK minimizedAffinity -8.90198612
REMARK  7 active torsions:
REMARK  status: ('A' for Active; 'I' for Inactive)
REMARK    1  A    between atoms: C2_2  and  C30_32 
REMARK    2  A    between atoms: C3_3  and  C4_4 
REMARK    3  A    between atoms: C4_4  and  C5_5 
REMARK    4  A    between atoms: C5_5  and  C6_6 
REMARK    5  A    between atoms: C6_6  and  C8_8 
REMARK    6  A    between atoms: C29_30  and  O2_31 
REMARK    7  A    between atoms: C30_32  and  O3_33 
ROOT
HETATM    1  C8  UNL     1      -0.815  51.451 -17.165  1.00  0.00    -0.002 C 
HETATM    2  C9  UNL     1       0.720  51.687 -17.261  1.00  0.00     0.007 C 
HETATM    3  C10 UNL     1       1.064  51.932 -18.742  1.00  0.00     0.015 C 
HETATM    4  C11 UNL     1      -0.286  52.207 -19.422  1.00  0.00    -0.010 C 
HETATM    5  C12 UNL     1      -0.639  53.707 -19.162  1.00  0.00     0.021 C 
HETATM    6  C13 UNL     1      -0.413  51.999 -20.934  1.00  0.00    -0.039 C 
HETATM    7  C14 UNL     1      -1.620  51.668 -21.468  1.00  0.00    -0.066 C 
HETATM    8  C15 UNL     1      -2.850  51.442 -20.580  1.00  0.00     0.036 C 
HETATM    9  C16 UNL     1      -2.655  51.486 -19.050  1.00  0.00     0.015 C 
HETATM   10  C17 UNL     1      -1.206  51.176 -18.653  1.00  0.00    -0.029 C 
HETATM   11  C18 UNL     1      -0.897  49.688 -19.002  1.00  0.00     0.016 C 
HETATM   12  C19 UNL     1      -1.804  51.418 -22.991  1.00  0.00    -0.015 C 
HETATM   13  C20 UNL     1      -1.736  49.883 -23.170  1.00  0.00     0.020 C 
HETATM   14  C21 UNL     1      -3.172  51.936 -23.499  1.00  0.00     0.021 C 
HETATM   15  C22 UNL     1      -3.351  51.774 -25.001  1.00  0.00     0.080 C 
HETATM   16  C23 UNL     1      -2.263  52.476 -25.772  1.00  0.00     0.135 C 
HETATM   17  O1  UNL     1      -2.554  53.110 -26.790  1.00  0.00    -0.297 OA
HETATM   18  C24 UNL     1      -0.805  52.251 -25.341  1.00  0.00     0.018 C 
HETATM   19  C25 UNL     1       0.018  53.459 -25.867  1.00  0.00     0.023 C 
HETATM   20  C26 UNL     1      -0.279  51.002 -26.065  1.00  0.00     0.023 C 
HETATM   21  C27 UNL     1      -0.698  52.213 -23.778  1.00  0.00     0.016 C 
HETATM   22  C28 UNL     1       0.692  51.812 -23.251  1.00  0.00     0.043 C 
HETATM   23  C29 UNL     1       0.839  52.183 -21.771  1.00  0.00     0.148 C 
ENDROOT
BRANCH   1  24
HETATM   24  C6  UNL     1      -1.186  50.419 -16.061  1.00  0.00    -0.014 C 
HETATM   25  C7  UNL     1      -2.584  50.643 -15.478  1.00  0.00     0.010 C 
BRANCH  24  26
HETATM   26  C5  UNL     1      -0.138  50.319 -14.913  1.00  0.00     0.008 C 
BRANCH  26  27
HETATM   27  C4  UNL     1       0.980  49.272 -15.030  1.00  0.00     0.028 C 
BRANCH  27  28
HETATM   28  C3  UNL     1       2.061  49.372 -13.993  1.00  0.00    -0.022 C 
HETATM   29  C2  UNL     1       2.977  50.352 -13.859  1.00  0.00    -0.064 C 
HETATM   30  C1  UNL     1       3.080  51.552 -14.762  1.00  0.00     0.045 C 
BRANCH  29  31
HETATM   31  C30 UNL     1       3.990  50.310 -12.746  1.00  0.00     0.197 C 
BRANCH  31  32
HETATM   32  O3  UNL     1       5.089  49.514 -13.163  1.00  0.00    -0.397 OA
HETATM   33  H48 UNL     1       5.742  49.539 -12.445  1.00  0.00     0.209 HD
ENDBRANCH  31  32
ENDBRANCH  29  31
ENDBRANCH  27  28
ENDBRANCH  26  27
ENDBRANCH  24  26
ENDBRANCH   1  24
BRANCH  23  34
HETATM   34  O2  UNL     1       1.236  53.552 -21.716  1.00  0.00    -0.391 OA
HETATM   35  H45 UNL     1       0.424  54.084 -21.721  1.00  0.00     0.210 HD
ENDBRANCH  23  34
TORSDOF 7
ENDMDL
MODEL 9
REMARK minimizedAffinity -8.80488205
REMARK  7 active torsions:
REMARK  status: ('A' for Active; 'I' for Inactive)
REMARK    1  A    between atoms: C2_2  and  C30_32 
REMARK    2  A    between atoms: C3_3  and  C4_4 
REMARK    3  A    between atoms: C4_4  and  C5_5 
REMARK    4  A    between atoms: C5_5  and  C6_6 
REMARK    5  A    between atoms: C6_6  and  C8_8 
REMARK    6  A    between atoms: C29_30  and  O2_31 
REMARK    7  A    between atoms: C30_32  and  O3_33 
ROOT
HETATM    1  C8  UNL     1      -0.807  49.542 -18.198  1.00  0.00    -0.002 C 
HETATM    2  C9  UNL     1      -2.098  48.675 -18.258  1.00  0.00     0.007 C 
HETATM    3  C10 UNL     1      -2.613  48.703 -19.709  1.00  0.00     0.015 C 
HETATM    4  C11 UNL     1      -1.442  49.256 -20.535  1.00  0.00    -0.010 C 
HETATM    5  C12 UNL     1      -0.465  48.067 -20.809  1.00  0.00     0.021 C 
HETATM    6  C13 UNL     1      -1.728  49.891 -21.899  1.00  0.00    -0.039 C 
HETATM    7  C14 UNL     1      -0.898  50.858 -22.377  1.00  0.00    -0.066 C 
HETATM    8  C15 UNL     1       0.290  51.369 -21.554  1.00  0.00     0.036 C 
HETATM    9  C16 UNL     1       0.453  50.839 -20.114  1.00  0.00     0.015 C 
HETATM   10  C17 UNL     1      -0.880  50.346 -19.536  1.00  0.00    -0.029 C 
HETATM   11  C18 UNL     1      -1.832  51.569 -19.353  1.00  0.00     0.016 C 
HETATM   12  C19 UNL     1      -1.153  51.558 -23.743  1.00  0.00    -0.015 C 
HETATM   13  C20 UNL     1      -1.873  52.883 -23.401  1.00  0.00     0.020 C 
HETATM   14  C21 UNL     1       0.169  51.865 -24.488  1.00  0.00     0.021 C 
HETATM   15  C22 UNL     1      -0.049  52.482 -25.862  1.00  0.00     0.080 C 
HETATM   16  C23 UNL     1      -0.895  51.597 -26.742  1.00  0.00     0.135 C 
HETATM   17  O1  UNL     1      -0.590  51.457 -27.930  1.00  0.00    -0.297 OA
HETATM   18  C24 UNL     1      -2.194  51.019 -26.160  1.00  0.00     0.018 C 
HETATM   19  C25 UNL     1      -2.546  49.757 -26.995  1.00  0.00     0.023 C 
HETATM   20  C26 UNL     1      -3.319  52.039 -26.393  1.00  0.00     0.023 C 
HETATM   21  C27 UNL     1      -1.979  50.590 -24.667  1.00  0.00     0.016 C 
HETATM   22  C28 UNL     1      -3.269  50.166 -23.942  1.00  0.00     0.043 C 
HETATM   23  C29 UNL     1      -2.942  49.392 -22.660  1.00  0.00     0.148 C 
ENDROOT
BRANCH   1  24
HETATM   24  C6  UNL     1      -0.665  50.296 -16.845  1.00  0.00    -0.014 C 
HETATM   25  C7  UNL     1      -1.968  50.963 -16.392  1.00  0.00     0.010 C 
BRANCH  24  26
HETATM   26  C5  UNL     1       0.501  51.326 -16.815  1.00  0.00     0.008 C 
BRANCH  26  27
HETATM   27  C4  UNL     1       0.839  52.015 -15.484  1.00  0.00     0.028 C 
BRANCH  27  28
HETATM   28  C3  UNL     1       1.647  51.190 -14.524  1.00  0.00    -0.022 C 
HETATM   29  C2  UNL     1       2.990  51.093 -14.458  1.00  0.00    -0.064 C 
HETATM   30  C1  UNL     1       3.942  51.816 -15.374  1.00  0.00     0.045 C 
BRANCH  29  31
HETATM   31  C30 UNL     1       3.649  50.228 -13.418  1.00  0.00     0.197 C 
BRANCH  31  32
HETATM   32  O3  UNL     1       4.868  49.730 -13.948  1.00  0.00    -0.397 OA
HETATM   33  H48 UNL     1       5.289  49.212 -13.243  1.00  0.00     0.209 HD
ENDBRANCH  31  32
ENDBRANCH  29  31
ENDBRANCH  27  28
ENDBRANCH  26  27
ENDBRANCH  24  26
ENDBRANCH   1  24
BRANCH  23  34
HETATM   34  O2  UNL     1      -2.729  48.031 -23.031  1.00  0.00    -0.391 OA
HETATM   35  H45 UNL     1      -1.792  47.944 -23.268  1.00  0.00     0.210 HD
ENDBRANCH  23  34
TORSDOF 7
ENDMDL
