MODEL 1
REMARK minimizedAffinity -8.46756363
REMARK  9 active torsions:
REMARK  status: ('A' for Active; 'I' for Inactive)
REMARK    1  A    between atoms: C2_2  and  O2_4 
REMARK    2  A    between atoms: O2_4  and  C3_5 
REMARK    3  A    between atoms: C3_5  and  C4_6 
REMARK    4  A    between atoms: C4_6  and  C5_7 
REMARK    5  A    between atoms: C5_7  and  C6_8 
REMARK    6  A    between atoms: C20_22  and  C21_23 
REMARK    7  A    between atoms: C21_23  and  C23_25 
REMARK    8  A    between atoms: C23_25  and  C24_26 
REMARK    9  A    between atoms: C24_26  and  C25_27 
ROOT
HETATM    1  C6  UNL     1      -0.825   6.746  12.017  1.00  0.00     0.023 C 
HETATM    2  C7  UNL     1       0.078   7.965  12.346  1.00  0.00    -0.073 C 
HETATM    3  C8  UNL     1       1.429   8.021  12.498  1.00  0.00    -0.085 C 
HETATM    4  C9  UNL     1       2.183   9.323  12.666  1.00  0.00     0.043 C 
HETATM    5  C10 UNL     1       2.363   6.839  12.573  1.00  0.00     0.043 C 
HETATM    6  C11 UNL     1      -0.793   9.197  12.582  1.00  0.00     0.035 C 
HETATM    7  C12 UNL     1      -1.742   8.962  13.766  1.00  0.00     0.010 C 
HETATM    8  C13 UNL     1      -2.601   7.701  13.551  1.00  0.00     0.003 C 
HETATM    9  C14 UNL     1      -1.726   6.406  13.283  1.00  0.00    -0.032 C 
HETATM   10  C15 UNL     1      -0.793   6.006  14.453  1.00  0.00     0.016 C 
HETATM   11  C16 UNL     1      -2.673   5.194  13.018  1.00  0.00     0.011 C 
HETATM   12  C17 UNL     1      -3.886   5.049  13.972  1.00  0.00     0.011 C 
HETATM   13  C18 UNL     1      -4.716   6.346  14.075  1.00  0.00    -0.032 C 
HETATM   14  C19 UNL     1      -5.353   6.592  12.667  1.00  0.00     0.016 C 
HETATM   15  C20 UNL     1      -5.865   6.459  15.139  1.00  0.00    -0.002 C 
HETATM   16  C29 UNL     1      -6.014   8.015  15.274  1.00  0.00     0.006 C 
HETATM   17  C30 UNL     1      -4.735   8.665  14.710  1.00  0.00     0.011 C 
HETATM   18  C31 UNL     1      -3.746   7.495  14.582  1.00  0.00    -0.032 C 
HETATM   19  C32 UNL     1      -3.184   7.273  16.024  1.00  0.00     0.016 C 
ENDROOT
BRANCH  15  20
HETATM   20  C21 UNL     1      -7.255   5.776  14.903  1.00  0.00    -0.014 C 
HETATM   21  C22 UNL     1      -8.263   6.262  15.963  1.00  0.00     0.010 C 
BRANCH  20  22
HETATM   22  C23 UNL     1      -7.168   4.231  14.934  1.00  0.00     0.008 C 
BRANCH  22  23
HETATM   23  C24 UNL     1      -7.604   3.514  13.643  1.00  0.00     0.028 C 
BRANCH  23  24
HETATM   24  C25 UNL     1      -6.689   3.719  12.468  1.00  0.00    -0.025 C 
HETATM   25  C26 UNL     1      -6.125   2.782  11.680  1.00  0.00    -0.091 C 
HETATM   26  C27 UNL     1      -5.234   3.185  10.532  1.00  0.00     0.042 C 
HETATM   27  C28 UNL     1      -6.287   1.295  11.836  1.00  0.00     0.042 C 
ENDBRANCH  23  24
ENDBRANCH  22  23
ENDBRANCH  20  22
ENDBRANCH  15  20
BRANCH   1  28
HETATM   28  C5  UNL     1      -0.204   5.523  11.295  1.00  0.00     0.012 C 
BRANCH  28  29
HETATM   29  C4  UNL     1      -1.189   4.356  11.143  1.00  0.00     0.028 C 
BRANCH  29  30
HETATM   30  C3  UNL     1      -0.714   3.120  11.902  1.00  0.00     0.178 C 
BRANCH  30  31
HETATM   31  O2  UNL     1      -0.095   2.199  10.991  1.00  0.00    -0.322 OA
BRANCH  31  32
HETATM   32  C2  UNL     1      -0.907   1.227  10.491  1.00  0.00     0.254 C 
HETATM   33  C1  UNL     1      -2.137   1.105  11.340  1.00  0.00     0.126 C 
HETATM   34  O1  UNL     1      -0.682   0.546   9.502  1.00  0.00    -0.266 OA
ENDBRANCH  31  32
ENDBRANCH  30  31
ENDBRANCH  29  30
ENDBRANCH  28  29
ENDBRANCH   1  28
TORSDOF 9
ENDMDL
MODEL 2
REMARK minimizedAffinity -8.4630537
REMARK  9 active torsions:
REMARK  status: ('A' for Active; 'I' for Inactive)
REMARK    1  A    between atoms: C2_2  and  O2_4 
REMARK    2  A    between atoms: O2_4  and  C3_5 
REMARK    3  A    between atoms: C3_5  and  C4_6 
REMARK    4  A    between atoms: C4_6  and  C5_7 
REMARK    5  A    between atoms: C5_7  and  C6_8 
REMARK    6  A    between atoms: C20_22  and  C21_23 
REMARK    7  A    between atoms: C21_23  and  C23_25 
REMARK    8  A    between atoms: C23_25  and  C24_26 
REMARK    9  A    between atoms: C24_26  and  C25_27 
ROOT
HETATM    1  C6  UNL     1      -4.776   6.932  13.305  1.00  0.00     0.023 C 
HETATM    2  C7  UNL     1      -5.535   5.578  13.342  1.00  0.00    -0.073 C 
HETATM    3  C8  UNL     1      -6.575   5.194  14.130  1.00  0.00    -0.085 C 
HETATM    4  C9  UNL     1      -7.311   3.884  13.938  1.00  0.00     0.043 C 
HETATM    5  C10 UNL     1      -7.118   5.952  15.316  1.00  0.00     0.043 C 
HETATM    6  C11 UNL     1      -4.883   4.600  12.366  1.00  0.00     0.035 C 
HETATM    7  C12 UNL     1      -3.420   4.349  12.759  1.00  0.00     0.010 C 
HETATM    8  C13 UNL     1      -2.630   5.669  12.843  1.00  0.00     0.003 C 
HETATM    9  C14 UNL     1      -3.292   6.714  13.834  1.00  0.00    -0.032 C 
HETATM   10  C15 UNL     1      -3.363   6.247  15.309  1.00  0.00     0.016 C 
HETATM   11  C16 UNL     1      -2.465   8.037  13.811  1.00  0.00     0.011 C 
HETATM   12  C17 UNL     1      -0.923   7.884  13.866  1.00  0.00     0.011 C 
HETATM   13  C18 UNL     1      -0.387   6.914  12.789  1.00  0.00    -0.032 C 
HETATM   14  C19 UNL     1      -0.665   7.578  11.400  1.00  0.00     0.016 C 
HETATM   15  C20 UNL     1       1.121   6.477  12.810  1.00  0.00    -0.002 C 
HETATM   16  C29 UNL     1       1.071   5.148  11.977  1.00  0.00     0.006 C 
HETATM   17  C30 UNL     1      -0.392   4.666  11.941  1.00  0.00     0.011 C 
HETATM   18  C31 UNL     1      -1.092   5.511  13.016  1.00  0.00    -0.032 C 
HETATM   19  C32 UNL     1      -0.738   4.825  14.375  1.00  0.00     0.016 C 
ENDROOT
BRANCH  15  20
HETATM   20  C21 UNL     1       2.246   7.432  12.285  1.00  0.00    -0.014 C 
HETATM   21  C22 UNL     1       1.653   8.823  11.984  1.00  0.00     0.010 C 
BRANCH  20  22
HETATM   22  C23 UNL     1       2.950   6.879  11.023  1.00  0.00     0.008 C 
BRANCH  22  23
HETATM   23  C24 UNL     1       3.308   7.923   9.949  1.00  0.00     0.028 C 
BRANCH  23  24
HETATM   24  C25 UNL     1       3.032   7.494   8.535  1.00  0.00    -0.025 C 
HETATM   25  C26 UNL     1       1.896   7.651   7.825  1.00  0.00    -0.091 C 
HETATM   26  C27 UNL     1       1.810   7.157   6.404  1.00  0.00     0.042 C 
HETATM   27  C28 UNL     1       0.632   8.290   8.328  1.00  0.00     0.042 C 
ENDBRANCH  23  24
ENDBRANCH  22  23
ENDBRANCH  20  22
ENDBRANCH  15  20
BRANCH   1  28
HETATM   28  C5  UNL     1      -5.488   8.206  13.826  1.00  0.00     0.012 C 
BRANCH  28  29
HETATM   29  C4  UNL     1      -5.293   8.426  15.333  1.00  0.00     0.028 C 
BRANCH  29  30
HETATM   30  C3  UNL     1      -4.731   9.813  15.628  1.00  0.00     0.178 C 
BRANCH  30  31
HETATM   31  O2  UNL     1      -3.747   9.727  16.670  1.00  0.00    -0.322 OA
BRANCH  31  32
HETATM   32  C2  UNL     1      -3.574  10.855  17.413  1.00  0.00     0.254 C 
HETATM   33  C1  UNL     1      -2.764  10.541  18.635  1.00  0.00     0.126 C 
HETATM   34  O1  UNL     1      -4.008  11.965  17.140  1.00  0.00    -0.266 OA
ENDBRANCH  31  32
ENDBRANCH  30  31
ENDBRANCH  29  30
ENDBRANCH  28  29
ENDBRANCH   1  28
TORSDOF 9
ENDMDL
MODEL 3
REMARK minimizedAffinity -8.43229771
REMARK  9 active torsions:
REMARK  status: ('A' for Active; 'I' for Inactive)
REMARK    1  A    between atoms: C2_2  and  O2_4 
REMARK    2  A    between atoms: O2_4  and  C3_5 
REMARK    3  A    between atoms: C3_5  and  C4_6 
REMARK    4  A    between atoms: C4_6  and  C5_7 
REMARK    5  A    between atoms: C5_7  and  C6_8 
REMARK    6  A    between atoms: C20_22  and  C21_23 
REMARK    7  A    between atoms: C21_23  and  C23_25 
REMARK    8  A    between atoms: C23_25  and  C24_26 
REMARK    9  A    between atoms: C24_26  and  C25_27 
ROOT
HETATM    1  C6  UNL     1      -0.596   8.067  12.843  1.00  0.00     0.023 C 
HETATM    2  C7  UNL     1       0.209   8.889  13.885  1.00  0.00    -0.073 C 
HETATM    3  C8  UNL     1       1.532   8.825  14.196  1.00  0.00    -0.085 C 
HETATM    4  C9  UNL     1       2.202   9.808  15.134  1.00  0.00     0.043 C 
HETATM    5  C10 UNL     1       2.507   7.777  13.721  1.00  0.00     0.043 C 
HETATM    6  C11 UNL     1      -0.738   9.807  14.654  1.00  0.00     0.035 C 
HETATM    7  C12 UNL     1      -1.797   8.981  15.399  1.00  0.00     0.010 C 
HETATM    8  C13 UNL     1      -2.568   8.060  14.433  1.00  0.00     0.003 C 
HETATM    9  C14 UNL     1      -1.611   7.107  13.604  1.00  0.00    -0.032 C 
HETATM   10  C15 UNL     1      -0.790   6.113  14.464  1.00  0.00     0.016 C 
HETATM   11  C16 UNL     1      -2.466   6.258  12.614  1.00  0.00     0.011 C 
HETATM   12  C17 UNL     1      -3.766   5.637  13.187  1.00  0.00     0.011 C 
HETATM   13  C18 UNL     1      -4.662   6.682  13.886  1.00  0.00    -0.032 C 
HETATM   14  C19 UNL     1      -5.155   7.672  12.779  1.00  0.00     0.016 C 
HETATM   15  C20 UNL     1      -5.922   6.216  14.698  1.00  0.00    -0.002 C 
HETATM   16  C29 UNL     1      -6.156   7.447  15.642  1.00  0.00     0.006 C 
HETATM   17  C30 UNL     1      -4.856   8.274  15.676  1.00  0.00     0.011 C 
HETATM   18  C31 UNL     1      -3.806   7.346  15.045  1.00  0.00    -0.032 C 
HETATM   19  C32 UNL     1      -3.391   6.360  16.185  1.00  0.00     0.016 C 
ENDROOT
BRANCH  15  20
HETATM   20  C21 UNL     1      -7.245   5.802  13.970  1.00  0.00    -0.014 C 
HETATM   21  C22 UNL     1      -8.405   6.699  14.443  1.00  0.00     0.010 C 
BRANCH  20  22
HETATM   22  C23 UNL     1      -7.606   4.315  14.200  1.00  0.00     0.008 C 
BRANCH  22  23
HETATM   23  C24 UNL     1      -7.556   3.416  12.950  1.00  0.00     0.028 C 
BRANCH  23  24
HETATM   24  C25 UNL     1      -6.398   3.682  12.029  1.00  0.00    -0.025 C 
HETATM   25  C26 UNL     1      -5.680   2.790  11.317  1.00  0.00    -0.091 C 
HETATM   26  C27 UNL     1      -4.550   3.251  10.433  1.00  0.00     0.042 C 
HETATM   27  C28 UNL     1      -5.889   1.301  11.317  1.00  0.00     0.042 C 
ENDBRANCH  23  24
ENDBRANCH  22  23
ENDBRANCH  20  22
ENDBRANCH  15  20
BRANCH   1  28
HETATM   28  C5  UNL     1       0.155   7.427  11.647  1.00  0.00     0.012 C 
BRANCH  28  29
HETATM   29  C4  UNL     1       0.706   8.468  10.662  1.00  0.00     0.028 C 
BRANCH  29  30
HETATM   30  C3  UNL     1       0.429   8.070   9.215  1.00  0.00     0.178 C 
BRANCH  30  31
HETATM   31  O2  UNL     1       1.533   7.310   8.700  1.00  0.00    -0.322 OA
BRANCH  31  32
HETATM   32  C2  UNL     1       2.170   7.850   7.626  1.00  0.00     0.254 C 
HETATM   33  C1  UNL     1       1.831   7.074   6.388  1.00  0.00     0.126 C 
HETATM   34  O1  UNL     1       2.912   8.821   7.647  1.00  0.00    -0.266 OA
ENDBRANCH  31  32
ENDBRANCH  30  31
ENDBRANCH  29  30
ENDBRANCH  28  29
ENDBRANCH   1  28
TORSDOF 9
ENDMDL
MODEL 4
REMARK minimizedAffinity -8.35951805
REMARK  9 active torsions:
REMARK  status: ('A' for Active; 'I' for Inactive)
REMARK    1  A    between atoms: C2_2  and  O2_4 
REMARK    2  A    between atoms: O2_4  and  C3_5 
REMARK    3  A    between atoms: C3_5  and  C4_6 
REMARK    4  A    between atoms: C4_6  and  C5_7 
REMARK    5  A    between atoms: C5_7  and  C6_8 
REMARK    6  A    between atoms: C20_22  and  C21_23 
REMARK    7  A    between atoms: C21_23  and  C23_25 
REMARK    8  A    between atoms: C23_25  and  C24_26 
REMARK    9  A    between atoms: C24_26  and  C25_27 
ROOT
HETATM    1  C6  UNL     1      -3.658   5.921  13.648  1.00  0.00     0.023 C 
HETATM    2  C7  UNL     1      -4.464   6.556  14.813  1.00  0.00    -0.073 C 
HETATM    3  C8  UNL     1      -5.760   6.968  14.841  1.00  0.00    -0.085 C 
HETATM    4  C9  UNL     1      -6.449   7.426  16.109  1.00  0.00     0.043 C 
HETATM    5  C10 UNL     1      -6.680   7.082  13.651  1.00  0.00     0.043 C 
HETATM    6  C11 UNL     1      -3.546   6.763  16.016  1.00  0.00     0.035 C 
HETATM    7  C12 UNL     1      -2.392   7.709  15.651  1.00  0.00     0.010 C 
HETATM    8  C13 UNL     1      -1.609   7.189  14.430  1.00  0.00     0.003 C 
HETATM    9  C14 UNL     1      -2.538   6.944  13.169  1.00  0.00    -0.032 C 
HETATM   10  C15 UNL     1      -3.238   8.216  12.628  1.00  0.00     0.016 C 
HETATM   11  C16 UNL     1      -1.677   6.364  12.004  1.00  0.00     0.011 C 
HETATM   12  C17 UNL     1      -0.307   7.046  11.756  1.00  0.00     0.011 C 
HETATM   13  C18 UNL     1       0.547   7.140  13.039  1.00  0.00    -0.032 C 
HETATM   14  C19 UNL     1       0.908   5.674  13.453  1.00  0.00     0.016 C 
HETATM   15  C20 UNL     1       1.879   7.971  13.035  1.00  0.00    -0.002 C 
HETATM   16  C29 UNL     1       2.074   8.254  14.566  1.00  0.00     0.006 C 
HETATM   17  C30 UNL     1       0.721   8.024  15.267  1.00  0.00     0.011 C 
HETATM   18  C31 UNL     1      -0.292   7.952  14.114  1.00  0.00    -0.032 C 
HETATM   19  C32 UNL     1      -0.573   9.439  13.720  1.00  0.00     0.016 C 
ENDROOT
BRANCH  15  20
HETATM   20  C21 UNL     1       3.188   7.396  12.395  1.00  0.00    -0.014 C 
HETATM   21  C22 UNL     1       4.031   8.546  11.809  1.00  0.00     0.010 C 
BRANCH  20  22
HETATM   22  C23 UNL     1       2.897   6.347  11.294  1.00  0.00     0.008 C 
BRANCH  22  23
HETATM   23  C24 UNL     1       3.702   6.509   9.992  1.00  0.00     0.028 C 
BRANCH  23  24
HETATM   24  C25 UNL     1       2.891   6.394   8.731  1.00  0.00    -0.025 C 
HETATM   25  C26 UNL     1       2.610   7.358   7.832  1.00  0.00    -0.091 C 
HETATM   26  C27 UNL     1       1.780   7.048   6.613  1.00  0.00     0.042 C 
HETATM   27  C28 UNL     1       3.049   8.794   7.923  1.00  0.00     0.042 C 
ENDBRANCH  23  24
ENDBRANCH  22  23
ENDBRANCH  20  22
ENDBRANCH  15  20
BRANCH   1  28
HETATM   28  C5  UNL     1      -4.423   5.194  12.513  1.00  0.00     0.012 C 
BRANCH  28  29
HETATM   29  C4  UNL     1      -4.262   3.668  12.567  1.00  0.00     0.028 C 
BRANCH  29  30
HETATM   30  C3  UNL     1      -5.448   2.957  11.922  1.00  0.00     0.178 C 
BRANCH  30  31
HETATM   31  O2  UNL     1      -6.648   3.713  12.145  1.00  0.00    -0.322 OA
BRANCH  31  32
HETATM   32  C2  UNL     1      -7.553   3.148  12.990  1.00  0.00     0.254 C 
HETATM   33  C1  UNL     1      -7.449   3.779  14.346  1.00  0.00     0.126 C 
HETATM   34  O1  UNL     1      -8.340   2.257  12.703  1.00  0.00    -0.266 OA
ENDBRANCH  31  32
ENDBRANCH  30  31
ENDBRANCH  29  30
ENDBRANCH  28  29
ENDBRANCH   1  28
TORSDOF 9
ENDMDL
MODEL 5
REMARK minimizedAffinity -8.29055691
REMARK  9 active torsions:
REMARK  status: ('A' for Active; 'I' for Inactive)
REMARK    1  A    between atoms: C2_2  and  O2_4 
REMARK    2  A    between atoms: O2_4  and  C3_5 
REMARK    3  A    between atoms: C3_5  and  C4_6 
REMARK    4  A    between atoms: C4_6  and  C5_7 
REMARK    5  A    between atoms: C5_7  and  C6_8 
REMARK    6  A    between atoms: C20_22  and  C21_23 
REMARK    7  A    between atoms: C21_23  and  C23_25 
REMARK    8  A    between atoms: C23_25  and  C24_26 
REMARK    9  A    between atoms: C24_26  and  C25_27 
ROOT
HETATM    1  C6  UNL     1      -3.777   5.517  13.641  1.00  0.00     0.023 C 
HETATM    2  C7  UNL     1      -4.638   6.015  14.834  1.00  0.00    -0.073 C 
HETATM    3  C8  UNL     1      -5.965   6.310  14.875  1.00  0.00    -0.085 C 
HETATM    4  C9  UNL     1      -6.694   6.638  16.161  1.00  0.00     0.043 C 
HETATM    5  C10 UNL     1      -6.890   6.408  13.687  1.00  0.00     0.043 C 
HETATM    6  C11 UNL     1      -3.743   6.235  16.052  1.00  0.00     0.035 C 
HETATM    7  C12 UNL     1      -2.676   7.296  15.747  1.00  0.00     0.010 C 
HETATM    8  C13 UNL     1      -1.849   6.914  14.504  1.00  0.00     0.003 C 
HETATM    9  C14 UNL     1      -2.750   6.658  13.225  1.00  0.00    -0.032 C 
HETATM   10  C15 UNL     1      -3.557   7.891  12.749  1.00  0.00     0.016 C 
HETATM   11  C16 UNL     1      -1.840   6.219  12.037  1.00  0.00     0.011 C 
HETATM   12  C17 UNL     1      -0.534   7.030  11.835  1.00  0.00     0.011 C 
HETATM   13  C18 UNL     1       0.306   7.128  13.127  1.00  0.00    -0.032 C 
HETATM   14  C19 UNL     1       0.793   5.679  13.463  1.00  0.00     0.016 C 
HETATM   15  C20 UNL     1       1.560   8.071  13.177  1.00  0.00    -0.002 C 
HETATM   16  C29 UNL     1       1.727   8.287  14.722  1.00  0.00     0.006 C 
HETATM   17  C30 UNL     1       0.398   7.902  15.401  1.00  0.00     0.011 C 
HETATM   18  C31 UNL     1      -0.602   7.805  14.238  1.00  0.00    -0.032 C 
HETATM   19  C32 UNL     1      -1.011   9.281  13.923  1.00  0.00     0.016 C 
ENDROOT
BRANCH  15  20
HETATM   20  C21 UNL     1       2.916   7.648  12.515  1.00  0.00    -0.014 C 
HETATM   21  C22 UNL     1       4.057   8.535  13.049  1.00  0.00     0.010 C 
BRANCH  20  22
HETATM   22  C23 UNL     1       2.871   7.728  10.970  1.00  0.00     0.008 C 
BRANCH  22  23
HETATM   23  C24 UNL     1       2.699   6.385  10.238  1.00  0.00     0.028 C 
BRANCH  23  24
HETATM   24  C25 UNL     1       2.632   6.486   8.741  1.00  0.00    -0.025 C 
HETATM   25  C26 UNL     1       1.807   7.249   7.995  1.00  0.00    -0.091 C 
HETATM   26  C27 UNL     1       1.894   7.224   6.491  1.00  0.00     0.042 C 
HETATM   27  C28 UNL     1       0.742   8.166   8.530  1.00  0.00     0.042 C 
ENDBRANCH  23  24
ENDBRANCH  22  23
ENDBRANCH  20  22
ENDBRANCH  15  20
BRANCH   1  28
HETATM   28  C5  UNL     1      -4.474   4.788  12.464  1.00  0.00     0.012 C 
BRANCH  28  29
HETATM   29  C4  UNL     1      -4.148   3.289  12.413  1.00  0.00     0.028 C 
BRANCH  29  30
HETATM   30  C3  UNL     1      -3.281   2.946  11.205  1.00  0.00     0.178 C 
BRANCH  30  31
HETATM   31  O2  UNL     1      -2.675   1.658  11.391  1.00  0.00    -0.322 OA
BRANCH  31  32
HETATM   32  C2  UNL     1      -1.384   1.547  10.974  1.00  0.00     0.254 C 
HETATM   33  C1  UNL     1      -0.578   2.697  11.500  1.00  0.00     0.126 C 
HETATM   34  O1  UNL     1      -0.932   0.652  10.275  1.00  0.00    -0.266 OA
ENDBRANCH  31  32
ENDBRANCH  30  31
ENDBRANCH  29  30
ENDBRANCH  28  29
ENDBRANCH   1  28
TORSDOF 9
ENDMDL
MODEL 6
REMARK minimizedAffinity -8.09004021
REMARK  9 active torsions:
REMARK  status: ('A' for Active; 'I' for Inactive)
REMARK    1  A    between atoms: C2_2  and  O2_4 
REMARK    2  A    between atoms: O2_4  and  C3_5 
REMARK    3  A    between atoms: C3_5  and  C4_6 
REMARK    4  A    between atoms: C4_6  and  C5_7 
REMARK    5  A    between atoms: C5_7  and  C6_8 
REMARK    6  A    between atoms: C20_22  and  C21_23 
REMARK    7  A    between atoms: C21_23  and  C23_25 
REMARK    8  A    between atoms: C23_25  and  C24_26 
REMARK    9  A    between atoms: C24_26  and  C25_27 
ROOT
HETATM    1  C6  UNL     1       3.528   8.189  12.675  1.00  0.00     0.023 C 
HETATM    2  C7  UNL     1       4.262   9.359  13.384  1.00  0.00    -0.073 C 
HETATM    3  C8  UNL     1       5.475   9.368  13.999  1.00  0.00    -0.085 C 
HETATM    4  C9  UNL     1       6.125  10.636  14.511  1.00  0.00     0.043 C 
HETATM    5  C10 UNL     1       6.323   8.160  14.309  1.00  0.00     0.043 C 
HETATM    6  C11 UNL     1       3.365  10.595  13.390  1.00  0.00     0.035 C 
HETATM    7  C12 UNL     1       2.062  10.307  14.151  1.00  0.00     0.010 C 
HETATM    8  C13 UNL     1       1.331   9.086  13.561  1.00  0.00     0.003 C 
HETATM    9  C14 UNL     1       2.241   7.789  13.521  1.00  0.00    -0.032 C 
HETATM   10  C15 UNL     1       2.709   7.287  14.910  1.00  0.00     0.016 C 
HETATM   11  C16 UNL     1       1.445   6.624  12.857  1.00  0.00     0.011 C 
HETATM   12  C17 UNL     1      -0.025   6.446  13.317  1.00  0.00     0.011 C 
HETATM   13  C18 UNL     1      -0.837   7.756  13.219  1.00  0.00    -0.032 C 
HETATM   14  C19 UNL     1      -0.943   8.112  11.699  1.00  0.00     0.016 C 
HETATM   15  C20 UNL     1      -2.284   7.827  13.823  1.00  0.00    -0.002 C 
HETATM   16  C29 UNL     1      -2.469   9.374  14.008  1.00  0.00     0.006 C 
HETATM   17  C30 UNL     1      -1.072  10.026  13.972  1.00  0.00     0.011 C 
HETATM   18  C31 UNL     1      -0.103   8.842  14.113  1.00  0.00    -0.032 C 
HETATM   19  C32 UNL     1      -0.078   8.509  15.640  1.00  0.00     0.016 C 
ENDROOT
BRANCH  15  20
HETATM   20  C21 UNL     1      -3.506   7.198  13.070  1.00  0.00    -0.014 C 
HETATM   21  C22 UNL     1      -4.732   8.124  13.199  1.00  0.00     0.010 C 
BRANCH  20  22
HETATM   22  C23 UNL     1      -3.860   5.785  13.592  1.00  0.00     0.008 C 
BRANCH  22  23
HETATM   23  C24 UNL     1      -5.246   5.254  13.187  1.00  0.00     0.028 C 
BRANCH  23  24
HETATM   24  C25 UNL     1      -5.224   3.995  12.365  1.00  0.00    -0.025 C 
HETATM   25  C26 UNL     1      -6.168   3.036  12.287  1.00  0.00    -0.091 C 
HETATM   26  C27 UNL     1      -5.970   1.839  11.393  1.00  0.00     0.042 C 
HETATM   27  C28 UNL     1      -7.467   3.024  13.046  1.00  0.00     0.042 C 
ENDBRANCH  23  24
ENDBRANCH  22  23
ENDBRANCH  20  22
ENDBRANCH  15  20
BRANCH   1  28
HETATM   28  C5  UNL     1       4.359   7.001  12.127  1.00  0.00     0.012 C 
BRANCH  28  29
HETATM   29  C4  UNL     1       4.837   7.221  10.685  1.00  0.00     0.028 C 
BRANCH  29  30
HETATM   30  C3  UNL     1       3.939   8.207   9.942  1.00  0.00     0.178 C 
BRANCH  30  31
HETATM   31  O2  UNL     1       3.091   7.497   9.027  1.00  0.00    -0.322 OA
BRANCH  31  32
HETATM   32  C2  UNL     1       2.809   8.143   7.862  1.00  0.00     0.254 C 
HETATM   33  C1  UNL     1       1.879   7.311   7.030  1.00  0.00     0.126 C 
HETATM   34  O1  UNL     1       3.241   9.236   7.528  1.00  0.00    -0.266 OA
ENDBRANCH  31  32
ENDBRANCH  30  31
ENDBRANCH  29  30
ENDBRANCH  28  29
ENDBRANCH   1  28
TORSDOF 9
ENDMDL
MODEL 7
REMARK minimizedAffinity -8.08548069
REMARK  9 active torsions:
REMARK  status: ('A' for Active; 'I' for Inactive)
REMARK    1  A    between atoms: C2_2  and  O2_4 
REMARK    2  A    between atoms: O2_4  and  C3_5 
REMARK    3  A    between atoms: C3_5  and  C4_6 
REMARK    4  A    between atoms: C4_6  and  C5_7 
REMARK    5  A    between atoms: C5_7  and  C6_8 
REMARK    6  A    between atoms: C20_22  and  C21_23 
REMARK    7  A    between atoms: C21_23  and  C23_25 
REMARK    8  A    between atoms: C23_25  and  C24_26 
REMARK    9  A    between atoms: C24_26  and  C25_27 
ROOT
HETATM    1  C6  UNL     1      -6.637   5.796  15.116  1.00  0.00     0.023 C 
HETATM    2  C7  UNL     1      -7.423   7.034  15.626  1.00  0.00    -0.073 C 
HETATM    3  C8  UNL     1      -8.735   7.352  15.456  1.00  0.00    -0.085 C 
HETATM    4  C9  UNL     1      -9.392   8.526  16.152  1.00  0.00     0.043 C 
HETATM    5  C10 UNL     1      -9.708   6.648  14.543  1.00  0.00     0.043 C 
HETATM    6  C11 UNL     1      -6.467   7.988  16.338  1.00  0.00     0.035 C 
HETATM    7  C12 UNL     1      -5.375   8.471  15.373  1.00  0.00     0.010 C 
HETATM    8  C13 UNL     1      -4.620   7.282  14.746  1.00  0.00     0.003 C 
HETATM    9  C14 UNL     1      -5.587   6.261  14.015  1.00  0.00    -0.032 C 
HETATM   10  C15 UNL     1      -6.367   6.857  12.818  1.00  0.00     0.016 C 
HETATM   11  C16 UNL     1      -4.749   5.065  13.467  1.00  0.00     0.011 C 
HETATM   12  C17 UNL     1      -3.423   5.427  12.749  1.00  0.00     0.011 C 
HETATM   13  C18 UNL     1      -2.522   6.348  13.600  1.00  0.00    -0.032 C 
HETATM   14  C19 UNL     1      -2.077   5.519  14.850  1.00  0.00     0.016 C 
HETATM   15  C20 UNL     1      -1.232   6.982  12.969  1.00  0.00    -0.002 C 
HETATM   16  C29 UNL     1      -0.988   8.204  13.923  1.00  0.00     0.006 C 
HETATM   17  C30 UNL     1      -2.299   8.481  14.685  1.00  0.00     0.011 C 
HETATM   18  C31 UNL     1      -3.353   7.660  13.927  1.00  0.00    -0.032 C 
HETATM   19  C32 UNL     1      -3.719   8.518  12.673  1.00  0.00     0.016 C 
ENDROOT
BRANCH  15  20
HETATM   20  C21 UNL     1       0.075   6.139  12.784  1.00  0.00    -0.014 C 
HETATM   21  C22 UNL     1       1.293   6.951  13.267  1.00  0.00     0.010 C 
BRANCH  20  22
HETATM   22  C23 UNL     1       0.290   5.696  11.317  1.00  0.00     0.008 C 
BRANCH  22  23
HETATM   23  C24 UNL     1       1.713   5.896  10.763  1.00  0.00     0.028 C 
BRANCH  23  24
HETATM   24  C25 UNL     1       1.795   6.756   9.534  1.00  0.00    -0.025 C 
HETATM   25  C26 UNL     1       2.809   7.555   9.144  1.00  0.00    -0.091 C 
HETATM   26  C27 UNL     1       2.713   8.343   7.863  1.00  0.00     0.042 C 
HETATM   27  C28 UNL     1       4.094   7.766   9.897  1.00  0.00     0.042 C 
ENDBRANCH  23  24
ENDBRANCH  22  23
ENDBRANCH  20  22
ENDBRANCH  15  20
BRANCH   1  28
HETATM   28  C5  UNL     1      -7.414   4.496  14.787  1.00  0.00     0.012 C 
BRANCH  28  29
HETATM   29  C4  UNL     1      -7.875   4.429  13.325  1.00  0.00     0.028 C 
BRANCH  29  30
HETATM   30  C3  UNL     1      -7.730   3.020  12.757  1.00  0.00     0.178 C 
BRANCH  30  31
HETATM   31  O2  UNL     1      -6.342   2.722  12.542  1.00  0.00    -0.322 OA
BRANCH  31  32
HETATM   32  C2  UNL     1      -6.049   2.076  11.381  1.00  0.00     0.254 C 
HETATM   33  C1  UNL     1      -5.319   3.001  10.453  1.00  0.00     0.126 C 
HETATM   34  O1  UNL     1      -6.333   0.917  11.116  1.00  0.00    -0.266 OA
ENDBRANCH  31  32
ENDBRANCH  30  31
ENDBRANCH  29  30
ENDBRANCH  28  29
ENDBRANCH   1  28
TORSDOF 9
ENDMDL
MODEL 8
REMARK minimizedAffinity -8.04884338
REMARK  9 active torsions:
REMARK  status: ('A' for Active; 'I' for Inactive)
REMARK    1  A    between atoms: C2_2  and  O2_4 
REMARK    2  A    between atoms: O2_4  and  C3_5 
REMARK    3  A    between atoms: C3_5  and  C4_6 
REMARK    4  A    between atoms: C4_6  and  C5_7 
REMARK    5  A    between atoms: C5_7  and  C6_8 
REMARK    6  A    between atoms: C20_22  and  C21_23 
REMARK    7  A    between atoms: C21_23  and  C23_25 
REMARK    8  A    between atoms: C23_25  and  C24_26 
REMARK    9  A    between atoms: C24_26  and  C25_27 
ROOT
HETATM    1  C6  UNL     1       0.120   7.110  13.174  1.00  0.00     0.023 C 
HETATM    2  C7  UNL     1       0.875   8.447  13.402  1.00  0.00    -0.073 C 
HETATM    3  C8  UNL     1       2.159   8.654  13.800  1.00  0.00    -0.085 C 
HETATM    4  C9  UNL     1       2.799  10.027  13.827  1.00  0.00     0.043 C 
HETATM    5  C10 UNL     1       3.111   7.602  14.312  1.00  0.00     0.043 C 
HETATM    6  C11 UNL     1      -0.083   9.618  13.190  1.00  0.00     0.035 C 
HETATM    7  C12 UNL     1      -1.248   9.542  14.187  1.00  0.00     0.010 C 
HETATM    8  C13 UNL     1      -1.982   8.191  14.086  1.00  0.00     0.003 C 
HETATM    9  C14 UNL     1      -1.012   6.953  14.282  1.00  0.00    -0.032 C 
HETATM   10  C15 UNL     1      -0.328   6.884  15.670  1.00  0.00     0.016 C 
HETATM   11  C16 UNL     1      -1.823   5.632  14.105  1.00  0.00     0.011 C 
HETATM   12  C17 UNL     1      -3.202   5.573  14.811  1.00  0.00     0.011 C 
HETATM   13  C18 UNL     1      -4.095   6.785  14.466  1.00  0.00    -0.032 C 
HETATM   14  C19 UNL     1      -4.431   6.682  12.941  1.00  0.00     0.016 C 
HETATM   15  C20 UNL     1      -5.446   7.005  15.233  1.00  0.00    -0.002 C 
HETATM   16  C29 UNL     1      -5.693   8.537  14.996  1.00  0.00     0.006 C 
HETATM   17  C30 UNL     1      -4.355   9.172  14.567  1.00  0.00     0.011 C 
HETATM   18  C31 UNL     1      -3.308   8.095  14.892  1.00  0.00    -0.032 C 
HETATM   19  C32 UNL     1      -3.053   8.221  16.429  1.00  0.00     0.016 C 
ENDROOT
BRANCH  15  20
HETATM   20  C21 UNL     1      -6.721   6.166  14.882  1.00  0.00    -0.014 C 
HETATM   21  C22 UNL     1      -7.531   5.884  16.164  1.00  0.00     0.010 C 
BRANCH  20  22
HETATM   22  C23 UNL     1      -6.376   4.832  14.178  1.00  0.00     0.008 C 
BRANCH  22  23
HETATM   23  C24 UNL     1      -7.552   4.123  13.482  1.00  0.00     0.028 C 
BRANCH  23  24
HETATM   24  C25 UNL     1      -7.194   2.838  12.790  1.00  0.00    -0.025 C 
HETATM   25  C26 UNL     1      -6.153   2.599  11.966  1.00  0.00    -0.091 C 
HETATM   26  C27 UNL     1      -5.950   1.230  11.369  1.00  0.00     0.042 C 
HETATM   27  C28 UNL     1      -5.121   3.609  11.546  1.00  0.00     0.042 C 
ENDBRANCH  23  24
ENDBRANCH  22  23
ENDBRANCH  20  22
ENDBRANCH  15  20
BRANCH   1  28
HETATM   28  C5  UNL     1       0.935   5.828  12.870  1.00  0.00     0.012 C 
BRANCH  28  29
HETATM   29  C4  UNL     1       0.782   5.352  11.419  1.00  0.00     0.028 C 
BRANCH  29  30
HETATM   30  C3  UNL     1       2.044   5.622  10.605  1.00  0.00     0.178 C 
BRANCH  30  31
HETATM   31  O2  UNL     1       1.731   6.471   9.491  1.00  0.00    -0.322 OA
BRANCH  31  32
HETATM   32  C2  UNL     1       2.425   6.223   8.346  1.00  0.00     0.254 C 
HETATM   33  C1  UNL     1       2.007   7.188   7.277  1.00  0.00     0.126 C 
HETATM   34  O1  UNL     1       3.265   5.347   8.194  1.00  0.00    -0.266 OA
ENDBRANCH  31  32
ENDBRANCH  30  31
ENDBRANCH  29  30
ENDBRANCH  28  29
ENDBRANCH   1  28
TORSDOF 9
ENDMDL
MODEL 9
REMARK minimizedAffinity -7.77750444
REMARK  9 active torsions:
REMARK  status: ('A' for Active; 'I' for Inactive)
REMARK    1  A    between atoms: C2_2  and  O2_4 
REMARK    2  A    between atoms: O2_4  and  C3_5 
REMARK    3  A    between atoms: C3_5  and  C4_6 
REMARK    4  A    between atoms: C4_6  and  C5_7 
REMARK    5  A    between atoms: C5_7  and  C6_8 
REMARK    6  A    between atoms: C20_22  and  C21_23 
REMARK    7  A    between atoms: C21_23  and  C23_25 
REMARK    8  A    between atoms: C23_25  and  C24_26 
REMARK    9  A    between atoms: C24_26  and  C25_27 
ROOT
HETATM    1  C6  UNL     1      -5.855   5.486  13.912  1.00  0.00     0.023 C 
HETATM    2  C7  UNL     1      -6.922   6.054  14.885  1.00  0.00    -0.073 C 
HETATM    3  C8  UNL     1      -8.224   6.369  14.647  1.00  0.00    -0.085 C 
HETATM    4  C9  UNL     1      -9.185   6.770  15.747  1.00  0.00     0.043 C 
HETATM    5  C10 UNL     1      -8.893   6.420  13.296  1.00  0.00     0.043 C 
HETATM    6  C11 UNL     1      -6.282   6.323  16.245  1.00  0.00     0.035 C 
HETATM    7  C12 UNL     1      -5.151   7.354  16.109  1.00  0.00     0.010 C 
HETATM    8  C13 UNL     1      -4.103   6.899  15.075  1.00  0.00     0.003 C 
HETATM    9  C14 UNL     1      -4.739   6.591  13.656  1.00  0.00    -0.032 C 
HETATM   10  C15 UNL     1      -5.408   7.810  12.972  1.00  0.00     0.016 C 
HETATM   11  C16 UNL     1      -3.622   6.082  12.693  1.00  0.00     0.011 C 
HETATM   12  C17 UNL     1      -2.284   6.864  12.718  1.00  0.00     0.011 C 
HETATM   13  C18 UNL     1      -1.714   7.015  14.146  1.00  0.00    -0.032 C 
HETATM   14  C19 UNL     1      -1.337   5.579  14.639  1.00  0.00     0.016 C 
HETATM   15  C20 UNL     1      -0.473   7.943  14.400  1.00  0.00    -0.002 C 
HETATM   16  C29 UNL     1      -0.611   8.233  15.935  1.00  0.00     0.006 C 
HETATM   17  C30 UNL     1      -2.057   7.900  16.354  1.00  0.00     0.011 C 
HETATM   18  C31 UNL     1      -2.809   7.759  15.021  1.00  0.00    -0.032 C 
HETATM   19  C32 UNL     1      -3.113   9.222  14.563  1.00  0.00     0.016 C 
ENDROOT
BRANCH  15  20
HETATM   20  C21 UNL     1       0.976   7.469  14.041  1.00  0.00    -0.014 C 
HETATM   21  C22 UNL     1       1.998   8.539  14.476  1.00  0.00     0.010 C 
BRANCH  20  22
HETATM   22  C23 UNL     1       1.144   7.169  12.532  1.00  0.00     0.008 C 
BRANCH  22  23
HETATM   23  C24 UNL     1       1.418   8.391  11.636  1.00  0.00     0.028 C 
BRANCH  23  24
HETATM   24  C25 UNL     1       1.934   8.063  10.263  1.00  0.00    -0.025 C 
HETATM   25  C26 UNL     1       1.274   8.127   9.089  1.00  0.00    -0.091 C 
HETATM   26  C27 UNL     1       1.968   7.764   7.802  1.00  0.00     0.042 C 
HETATM   27  C28 UNL     1      -0.164   8.532   8.916  1.00  0.00     0.042 C 
ENDBRANCH  23  24
ENDBRANCH  22  23
ENDBRANCH  20  22
ENDBRANCH  15  20
BRANCH   1  28
HETATM   28  C5  UNL     1      -6.321   4.709  12.654  1.00  0.00     0.012 C 
BRANCH  28  29
HETATM   29  C4  UNL     1      -6.572   3.220  12.931  1.00  0.00     0.028 C 
BRANCH  29  30
HETATM   30  C3  UNL     1      -6.020   2.342  11.812  1.00  0.00     0.178 C 
BRANCH  30  31
HETATM   31  O2  UNL     1      -5.035   3.070  11.064  1.00  0.00    -0.322 OA
BRANCH  31  32
HETATM   32  C2  UNL     1      -3.753   2.632  11.193  1.00  0.00     0.254 C 
HETATM   33  C1  UNL     1      -2.831   3.513  10.404  1.00  0.00     0.126 C 
HETATM   34  O1  UNL     1      -3.389   1.665  11.848  1.00  0.00    -0.266 OA
ENDBRANCH  31  32
ENDBRANCH  30  31
ENDBRANCH  29  30
ENDBRANCH  28  29
ENDBRANCH   1  28
TORSDOF 9
ENDMDL
