MODEL 1
REMARK minimizedAffinity -9.23552513
REMARK  8 active torsions:
REMARK  status: ('A' for Active; 'I' for Inactive)
REMARK    1  A    between atoms: C2_2  and  C3_3 
REMARK    2  A    between atoms: C2_2  and  C9_11 
REMARK    3  A    between atoms: C3_3  and  C4_4 
REMARK    4  A    between atoms: C4_4  and  C5_5 
REMARK    5  A    between atoms: C6_6  and  C7_7 
REMARK    6  A    between atoms: C6_6  and  C8_9 
REMARK    7  A    between atoms: C7_7  and  O1_8 
REMARK    8  A    between atoms: C8_9  and  O2_10 
ROOT
HETATM    1  C9  UNL     1      -2.838   8.487  15.205  1.00  0.00    -0.002 C 
HETATM    2  C10 UNL     1      -1.800   8.014  16.260  1.00  0.00     0.007 C 
HETATM    3  C11 UNL     1      -0.463   7.796  15.531  1.00  0.00     0.015 C 
HETATM    4  C12 UNL     1      -0.640   8.463  14.153  1.00  0.00    -0.005 C 
HETATM    5  C13 UNL     1      -0.350   9.983  14.343  1.00  0.00     0.021 C 
HETATM    6  C14 UNL     1       0.234   8.046  12.975  1.00  0.00    -0.000 C 
HETATM    7  C15 UNL     1      -0.229   8.119  11.698  1.00  0.00    -0.060 C 
HETATM    8  C16 UNL     1      -1.664   8.579  11.412  1.00  0.00     0.036 C 
HETATM    9  C17 UNL     1      -2.579   8.879  12.617  1.00  0.00     0.015 C 
HETATM   10  C18 UNL     1      -2.150   8.095  13.861  1.00  0.00    -0.028 C 
HETATM   11  C19 UNL     1      -2.376   6.574  13.592  1.00  0.00     0.016 C 
HETATM   12  C20 UNL     1       0.621   7.688  10.472  1.00  0.00    -0.014 C 
HETATM   13  C21 UNL     1       0.252   6.209  10.212  1.00  0.00     0.020 C 
HETATM   14  C22 UNL     1       0.291   8.531   9.214  1.00  0.00     0.021 C 
HETATM   15  C23 UNL     1       1.187   8.223   8.025  1.00  0.00     0.080 C 
HETATM   16  C24 UNL     1       2.638   8.436   8.372  1.00  0.00     0.135 C 
HETATM   17  O3  UNL     1       3.371   9.042   7.589  1.00  0.00    -0.297 OA
HETATM   18  C25 UNL     1       3.173   7.773   9.651  1.00  0.00     0.018 C 
HETATM   19  C26 UNL     1       3.555   6.325   9.311  1.00  0.00     0.023 C 
HETATM   20  C27 UNL     1       4.483   8.507  10.040  1.00  0.00     0.023 C 
HETATM   21  C28 UNL     1       2.131   7.935  10.814  1.00  0.00     0.020 C 
HETATM   22  C29 UNL     1       2.509   7.173  12.088  1.00  0.00     0.090 C 
HETATM   23  C30 UNL     1       1.636   7.588  13.248  1.00  0.00     0.157 C 
HETATM   24  O4  UNL     1       2.076   7.524  14.394  1.00  0.00    -0.293 OA
ENDROOT
BRANCH   1  25
HETATM   25  C2  UNL     1      -4.270   7.968  15.521  1.00  0.00    -0.014 C 
HETATM   26  C1  UNL     1      -4.315   6.455  15.752  1.00  0.00     0.010 C 
BRANCH  25  27
HETATM   27  C3  UNL     1      -5.310   8.365  14.439  1.00  0.00     0.008 C 
BRANCH  27  28
HETATM   28  C4  UNL     1      -6.726   7.823  14.660  1.00  0.00     0.028 C 
BRANCH  28  29
HETATM   29  C5  UNL     1      -6.967   6.607  13.807  1.00  0.00    -0.020 C 
HETATM   30  C6  UNL     1      -8.149   6.091  13.405  1.00  0.00    -0.037 C 
BRANCH  30  31
HETATM   31  C7  UNL     1      -8.252   4.858  12.530  1.00  0.00     0.200 C 
BRANCH  31  32
HETATM   32  O1  UNL     1      -8.814   3.752  13.224  1.00  0.00    -0.397 OA
HETATM   33  H12 UNL     1      -9.731   4.009  13.425  1.00  0.00     0.209 HD
ENDBRANCH  31  32
ENDBRANCH  30  31
BRANCH  30  34
HETATM   34  C8  UNL     1      -9.493   6.675  13.754  1.00  0.00     0.200 C 
BRANCH  34  35
HETATM   35  O2  UNL     1      -9.858   6.229  15.053  1.00  0.00    -0.397 OA
HETATM   36  H15 UNL     1     -10.689   6.679  15.280  1.00  0.00     0.209 HD
ENDBRANCH  34  35
ENDBRANCH  30  34
ENDBRANCH  28  29
ENDBRANCH  27  28
ENDBRANCH  25  27
ENDBRANCH   1  25
TORSDOF 8
ENDMDL
MODEL 2
REMARK minimizedAffinity -9.14295578
REMARK  8 active torsions:
REMARK  status: ('A' for Active; 'I' for Inactive)
REMARK    1  A    between atoms: C2_2  and  C3_3 
REMARK    2  A    between atoms: C2_2  and  C9_11 
REMARK    3  A    between atoms: C3_3  and  C4_4 
REMARK    4  A    between atoms: C4_4  and  C5_5 
REMARK    5  A    between atoms: C6_6  and  C7_7 
REMARK    6  A    between atoms: C6_6  and  C8_9 
REMARK    7  A    between atoms: C7_7  and  O1_8 
REMARK    8  A    between atoms: C8_9  and  O2_10 
ROOT
HETATM    1  C9  UNL     1      -2.148   5.940  13.605  1.00  0.00    -0.002 C 
HETATM    2  C10 UNL     1      -2.304   5.416  12.151  1.00  0.00     0.007 C 
HETATM    3  C11 UNL     1      -0.932   5.532  11.465  1.00  0.00     0.015 C 
HETATM    4  C12 UNL     1       0.070   5.792  12.607  1.00  0.00    -0.005 C 
HETATM    5  C13 UNL     1       0.433   4.405  13.218  1.00  0.00     0.021 C 
HETATM    6  C14 UNL     1       1.414   6.453  12.321  1.00  0.00    -0.000 C 
HETATM    7  C15 UNL     1       2.032   7.220  13.258  1.00  0.00    -0.060 C 
HETATM    8  C16 UNL     1       1.370   7.480  14.617  1.00  0.00     0.036 C 
HETATM    9  C17 UNL     1      -0.044   6.910  14.850  1.00  0.00     0.015 C 
HETATM   10  C18 UNL     1      -0.805   6.730  13.532  1.00  0.00    -0.028 C 
HETATM   11  C19 UNL     1      -1.068   8.139  12.914  1.00  0.00     0.016 C 
HETATM   12  C20 UNL     1       3.393   7.925  13.002  1.00  0.00    -0.014 C 
HETATM   13  C21 UNL     1       3.035   9.343  12.499  1.00  0.00     0.020 C 
HETATM   14  C22 UNL     1       4.241   8.033  14.294  1.00  0.00     0.021 C 
HETATM   15  C23 UNL     1       5.629   8.607  14.061  1.00  0.00     0.080 C 
HETATM   16  C24 UNL     1       6.395   7.782  13.060  1.00  0.00     0.135 C 
HETATM   17  O3  UNL     1       7.567   7.478  13.286  1.00  0.00    -0.297 OA
HETATM   18  C25 UNL     1       5.704   7.453  11.726  1.00  0.00     0.018 C 
HETATM   19  C26 UNL     1       5.912   8.644  10.778  1.00  0.00     0.023 C 
HETATM   20  C27 UNL     1       6.450   6.243  11.104  1.00  0.00     0.023 C 
HETATM   21  C28 UNL     1       4.207   7.056  11.982  1.00  0.00     0.020 C 
HETATM   22  C29 UNL     1       3.396   6.859  10.698  1.00  0.00     0.090 C 
HETATM   23  C30 UNL     1       2.065   6.209  10.992  1.00  0.00     0.157 C 
HETATM   24  O4  UNL     1       1.527   5.512  10.134  1.00  0.00    -0.293 OA
ENDROOT
BRANCH   1  25
HETATM   25  C2  UNL     1      -3.437   6.650  14.110  1.00  0.00    -0.014 C 
HETATM   26  C1  UNL     1      -3.833   6.222  15.527  1.00  0.00     0.010 C 
BRANCH  25  27
HETATM   27  C3  UNL     1      -4.644   6.470  13.151  1.00  0.00     0.008 C 
BRANCH  27  28
HETATM   28  C4  UNL     1      -5.621   5.353  13.528  1.00  0.00     0.028 C 
BRANCH  28  29
HETATM   29  C5  UNL     1      -5.440   4.162  12.625  1.00  0.00    -0.020 C 
HETATM   30  C6  UNL     1      -6.303   3.148  12.398  1.00  0.00    -0.037 C 
BRANCH  30  31
HETATM   31  C7  UNL     1      -5.999   2.009  11.446  1.00  0.00     0.200 C 
BRANCH  31  32
HETATM   32  O1  UNL     1      -5.288   2.446  10.294  1.00  0.00    -0.397 OA
HETATM   33  H12 UNL     1      -4.425   2.753  10.622  1.00  0.00     0.209 HD
ENDBRANCH  31  32
ENDBRANCH  30  31
BRANCH  30  34
HETATM   34  C8  UNL     1      -7.663   3.032  13.035  1.00  0.00     0.200 C 
BRANCH  34  35
HETATM   35  O2  UNL     1      -8.252   1.805  12.626  1.00  0.00    -0.397 OA
HETATM   36  H15 UNL     1      -9.091   1.723  13.109  1.00  0.00     0.209 HD
ENDBRANCH  34  35
ENDBRANCH  30  34
ENDBRANCH  28  29
ENDBRANCH  27  28
ENDBRANCH  25  27
ENDBRANCH   1  25
TORSDOF 8
ENDMDL
MODEL 3
REMARK minimizedAffinity -8.71210575
REMARK  8 active torsions:
REMARK  status: ('A' for Active; 'I' for Inactive)
REMARK    1  A    between atoms: C2_2  and  C3_3 
REMARK    2  A    between atoms: C2_2  and  C9_11 
REMARK    3  A    between atoms: C3_3  and  C4_4 
REMARK    4  A    between atoms: C4_4  and  C5_5 
REMARK    5  A    between atoms: C6_6  and  C7_7 
REMARK    6  A    between atoms: C6_6  and  C8_9 
REMARK    7  A    between atoms: C7_7  and  O1_8 
REMARK    8  A    between atoms: C8_9  and  O2_10 
ROOT
HETATM    1  C9  UNL     1      -1.732   5.163  12.211  1.00  0.00    -0.002 C 
HETATM    2  C10 UNL     1      -1.712   5.142  13.764  1.00  0.00     0.007 C 
HETATM    3  C11 UNL     1      -0.473   5.930  14.222  1.00  0.00     0.015 C 
HETATM    4  C12 UNL     1       0.016   6.681  12.969  1.00  0.00    -0.005 C 
HETATM    5  C13 UNL     1      -0.835   7.982  12.856  1.00  0.00     0.021 C 
HETATM    6  C14 UNL     1       1.462   7.155  12.866  1.00  0.00    -0.000 C 
HETATM    7  C15 UNL     1       2.084   7.253  11.661  1.00  0.00    -0.060 C 
HETATM    8  C16 UNL     1       1.361   6.844  10.371  1.00  0.00     0.036 C 
HETATM    9  C17 UNL     1      -0.057   6.249  10.498  1.00  0.00     0.015 C 
HETATM   10  C18 UNL     1      -0.272   5.587  11.863  1.00  0.00    -0.028 C 
HETATM   11  C19 UNL     1       0.665   4.342  11.965  1.00  0.00     0.016 C 
HETATM   12  C20 UNL     1       3.560   7.714  11.513  1.00  0.00    -0.014 C 
HETATM   13  C21 UNL     1       4.401   6.417  11.513  1.00  0.00     0.020 C 
HETATM   14  C22 UNL     1       3.797   8.483  10.188  1.00  0.00     0.021 C 
HETATM   15  C23 UNL     1       5.199   9.056  10.062  1.00  0.00     0.080 C 
HETATM   16  C24 UNL     1       5.509   9.983  11.210  1.00  0.00     0.135 C 
HETATM   17  O3  UNL     1       6.044  11.071  10.990  1.00  0.00    -0.297 OA
HETATM   18  C25 UNL     1       5.251   9.468  12.636  1.00  0.00     0.018 C 
HETATM   19  C26 UNL     1       6.475   8.650  13.074  1.00  0.00     0.023 C 
HETATM   20  C27 UNL     1       5.175  10.705  13.568  1.00  0.00     0.023 C 
HETATM   21  C28 UNL     1       3.882   8.702  12.688  1.00  0.00     0.020 C 
HETATM   22  C29 UNL     1       3.611   8.021  14.033  1.00  0.00     0.090 C 
HETATM   23  C30 UNL     1       2.178   7.551  14.123  1.00  0.00     0.157 C 
HETATM   24  O4  UNL     1       1.631   7.477  15.221  1.00  0.00    -0.293 OA
ENDROOT
BRANCH   1  25
HETATM   25  C2  UNL     1      -2.317   3.849  11.618  1.00  0.00    -0.014 C 
HETATM   26  C1  UNL     1      -2.726   3.991  10.149  1.00  0.00     0.010 C 
BRANCH  25  27
HETATM   27  C3  UNL     1      -3.508   3.290  12.442  1.00  0.00     0.008 C 
BRANCH  27  28
HETATM   28  C4  UNL     1      -4.895   3.752  11.986  1.00  0.00     0.028 C 
BRANCH  28  29
HETATM   29  C5  UNL     1      -5.584   4.520  13.082  1.00  0.00    -0.020 C 
HETATM   30  C6  UNL     1      -6.747   4.226  13.704  1.00  0.00    -0.037 C 
BRANCH  30  31
HETATM   31  C7  UNL     1      -7.328   5.085  14.808  1.00  0.00     0.200 C 
BRANCH  31  32
HETATM   32  O1  UNL     1      -7.918   4.306  15.842  1.00  0.00    -0.397 OA
HETATM   33  H12 UNL     1      -7.182   3.815  16.248  1.00  0.00     0.209 HD
ENDBRANCH  31  32
ENDBRANCH  30  31
BRANCH  30  34
HETATM   34  C8  UNL     1      -7.592   3.017  13.397  1.00  0.00     0.200 C 
BRANCH  34  35
HETATM   35  O2  UNL     1      -8.912   3.450  13.099  1.00  0.00    -0.397 OA
HETATM   36  H15 UNL     1      -9.412   2.660  12.834  1.00  0.00     0.209 HD
ENDBRANCH  34  35
ENDBRANCH  30  34
ENDBRANCH  28  29
ENDBRANCH  27  28
ENDBRANCH  25  27
ENDBRANCH   1  25
TORSDOF 8
ENDMDL
MODEL 4
REMARK minimizedAffinity -8.56877995
REMARK  8 active torsions:
REMARK  status: ('A' for Active; 'I' for Inactive)
REMARK    1  A    between atoms: C2_2  and  C3_3 
REMARK    2  A    between atoms: C2_2  and  C9_11 
REMARK    3  A    between atoms: C3_3  and  C4_4 
REMARK    4  A    between atoms: C4_4  and  C5_5 
REMARK    5  A    between atoms: C6_6  and  C7_7 
REMARK    6  A    between atoms: C6_6  and  C8_9 
REMARK    7  A    between atoms: C7_7  and  O1_8 
REMARK    8  A    between atoms: C8_9  and  O2_10 
ROOT
HETATM    1  C9  UNL     1      -2.051   6.214  13.210  1.00  0.00    -0.002 C 
HETATM    2  C10 UNL     1      -2.120   5.519  11.822  1.00  0.00     0.007 C 
HETATM    3  C11 UNL     1      -0.699   5.519  11.232  1.00  0.00     0.015 C 
HETATM    4  C12 UNL     1       0.227   5.895  12.406  1.00  0.00    -0.005 C 
HETATM    5  C13 UNL     1       0.502   4.586  13.206  1.00  0.00     0.021 C 
HETATM    6  C14 UNL     1       1.608   6.485  12.142  1.00  0.00    -0.000 C 
HETATM    7  C15 UNL     1       2.182   7.348  13.024  1.00  0.00    -0.060 C 
HETATM    8  C16 UNL     1       1.432   7.788  14.288  1.00  0.00     0.036 C 
HETATM    9  C17 UNL     1      -0.012   7.283  14.482  1.00  0.00     0.015 C 
HETATM   10  C18 UNL     1      -0.683   6.959  13.143  1.00  0.00    -0.028 C 
HETATM   11  C19 UNL     1      -0.857   8.287  12.340  1.00  0.00     0.016 C 
HETATM   12  C20 UNL     1       3.578   7.985  12.786  1.00  0.00    -0.014 C 
HETATM   13  C21 UNL     1       3.302   9.338  12.090  1.00  0.00     0.020 C 
HETATM   14  C22 UNL     1       4.335   8.233  14.115  1.00  0.00     0.021 C 
HETATM   15  C23 UNL     1       5.754   8.743  13.918  1.00  0.00     0.080 C 
HETATM   16  C24 UNL     1       6.562   7.783  13.084  1.00  0.00     0.135 C 
HETATM   17  O3  UNL     1       7.706   7.484  13.432  1.00  0.00    -0.297 OA
HETATM   18  C25 UNL     1       5.959   7.308  11.752  1.00  0.00     0.018 C 
HETATM   19  C26 UNL     1       6.271   8.368  10.685  1.00  0.00     0.023 C 
HETATM   20  C27 UNL     1       6.708   6.014  11.339  1.00  0.00     0.023 C 
HETATM   21  C28 UNL     1       4.436   6.980  11.942  1.00  0.00     0.020 C 
HETATM   22  C29 UNL     1       3.712   6.644  10.635  1.00  0.00     0.090 C 
HETATM   23  C30 UNL     1       2.344   6.065  10.905  1.00  0.00     0.157 C 
HETATM   24  O4  UNL     1       1.846   5.280  10.101  1.00  0.00    -0.293 OA
ENDROOT
BRANCH   1  25
HETATM   25  C2  UNL     1      -3.350   7.010  13.528  1.00  0.00    -0.014 C 
HETATM   26  C1  UNL     1      -3.441   7.434  14.997  1.00  0.00     0.010 C 
BRANCH  25  27
HETATM   27  C3  UNL     1      -4.641   6.250  13.121  1.00  0.00     0.008 C 
BRANCH  27  28
HETATM   28  C4  UNL     1      -4.732   4.802  13.610  1.00  0.00     0.028 C 
BRANCH  28  29
HETATM   29  C5  UNL     1      -5.971   4.137  13.072  1.00  0.00    -0.020 C 
HETATM   30  C6  UNL     1      -7.245   4.277  13.499  1.00  0.00    -0.037 C 
BRANCH  30  31
HETATM   31  C7  UNL     1      -8.410   3.554  12.856  1.00  0.00     0.200 C 
BRANCH  31  32
HETATM   32  O1  UNL     1      -8.138   2.173  12.651  1.00  0.00    -0.397 OA
HETATM   33  H12 UNL     1      -8.049   1.790  13.541  1.00  0.00     0.209 HD
ENDBRANCH  31  32
ENDBRANCH  30  31
BRANCH  30  34
HETATM   34  C8  UNL     1      -7.665   5.170  14.637  1.00  0.00     0.200 C 
BRANCH  34  35
HETATM   35  O2  UNL     1      -8.940   5.721  14.335  1.00  0.00    -0.397 OA
HETATM   36  H15 UNL     1      -9.217   6.229  15.115  1.00  0.00     0.209 HD
ENDBRANCH  34  35
ENDBRANCH  30  34
ENDBRANCH  28  29
ENDBRANCH  27  28
ENDBRANCH  25  27
ENDBRANCH   1  25
TORSDOF 8
ENDMDL
MODEL 5
REMARK minimizedAffinity -8.54415607
REMARK  8 active torsions:
REMARK  status: ('A' for Active; 'I' for Inactive)
REMARK    1  A    between atoms: C2_2  and  C3_3 
REMARK    2  A    between atoms: C2_2  and  C9_11 
REMARK    3  A    between atoms: C3_3  and  C4_4 
REMARK    4  A    between atoms: C4_4  and  C5_5 
REMARK    5  A    between atoms: C6_6  and  C7_7 
REMARK    6  A    between atoms: C6_6  and  C8_9 
REMARK    7  A    between atoms: C7_7  and  O1_8 
REMARK    8  A    between atoms: C8_9  and  O2_10 
ROOT
HETATM    1  C9  UNL     1       0.897   6.429  12.182  1.00  0.00    -0.002 C 
HETATM    2  C10 UNL     1       1.036   4.907  11.905  1.00  0.00     0.007 C 
HETATM    3  C11 UNL     1      -0.359   4.277  12.061  1.00  0.00     0.015 C 
HETATM    4  C12 UNL     1      -1.339   5.466  12.087  1.00  0.00    -0.005 C 
HETATM    5  C13 UNL     1      -1.623   5.855  10.604  1.00  0.00     0.021 C 
HETATM    6  C14 UNL     1      -2.720   5.317  12.718  1.00  0.00    -0.000 C 
HETATM    7  C15 UNL     1      -3.345   6.377  13.295  1.00  0.00    -0.060 C 
HETATM    8  C16 UNL     1      -2.658   7.747  13.368  1.00  0.00     0.036 C 
HETATM    9  C17 UNL     1      -1.213   7.856  12.838  1.00  0.00     0.015 C 
HETATM   10  C18 UNL     1      -0.482   6.512  12.907  1.00  0.00    -0.028 C 
HETATM   11  C19 UNL     1      -0.300   6.121  14.408  1.00  0.00     0.016 C 
HETATM   12  C20 UNL     1      -4.743   6.265  13.964  1.00  0.00    -0.014 C 
HETATM   13  C21 UNL     1      -4.464   5.988  15.460  1.00  0.00     0.020 C 
HETATM   14  C22 UNL     1      -5.559   7.575  13.824  1.00  0.00     0.021 C 
HETATM   15  C23 UNL     1      -6.977   7.466  14.359  1.00  0.00     0.080 C 
HETATM   16  C24 UNL     1      -7.732   6.360  13.667  1.00  0.00     0.135 C 
HETATM   17  O3  UNL     1      -8.883   6.559  13.274  1.00  0.00    -0.297 OA
HETATM   18  C25 UNL     1      -7.065   4.977  13.589  1.00  0.00     0.018 C 
HETATM   19  C26 UNL     1      -7.353   4.237  14.902  1.00  0.00     0.023 C 
HETATM   20  C27 UNL     1      -7.773   4.185  12.458  1.00  0.00     0.023 C 
HETATM   21  C28 UNL     1      -5.545   5.136  13.230  1.00  0.00     0.020 C 
HETATM   22  C29 UNL     1      -4.762   3.821  13.279  1.00  0.00     0.090 C 
HETATM   23  C30 UNL     1      -3.396   3.979  12.656  1.00  0.00     0.157 C 
HETATM   24  O4  UNL     1      -2.851   3.011  12.131  1.00  0.00    -0.293 OA
ENDROOT
BRANCH   1  25
HETATM   25  C2  UNL     1       2.166   7.015  12.866  1.00  0.00    -0.014 C 
HETATM   26  C1  UNL     1       1.862   7.674  14.215  1.00  0.00     0.010 C 
BRANCH  25  27
HETATM   27  C3  UNL     1       2.937   8.010  11.958  1.00  0.00     0.008 C 
BRANCH  27  28
HETATM   28  C4  UNL     1       4.164   7.433  11.244  1.00  0.00     0.028 C 
BRANCH  28  29
HETATM   29  C5  UNL     1       3.744   6.549  10.100  1.00  0.00    -0.020 C 
HETATM   30  C6  UNL     1       3.075   6.897   8.979  1.00  0.00    -0.037 C 
BRANCH  30  31
HETATM   31  C7  UNL     1       2.723   5.903   7.892  1.00  0.00     0.200 C 
BRANCH  31  32
HETATM   32  O1  UNL     1       3.511   4.721   7.968  1.00  0.00    -0.397 OA
HETATM   33  H12 UNL     1       3.260   4.295   8.806  1.00  0.00     0.209 HD
ENDBRANCH  31  32
ENDBRANCH  30  31
BRANCH  30  34
HETATM   34  C8  UNL     1       2.619   8.297   8.663  1.00  0.00     0.200 C 
BRANCH  34  35
HETATM   35  O2  UNL     1       2.764   8.518   7.266  1.00  0.00    -0.397 OA
HETATM   36  H15 UNL     1       2.394   9.397   7.082  1.00  0.00     0.209 HD
ENDBRANCH  34  35
ENDBRANCH  30  34
ENDBRANCH  28  29
ENDBRANCH  27  28
ENDBRANCH  25  27
ENDBRANCH   1  25
TORSDOF 8
ENDMDL
MODEL 6
REMARK minimizedAffinity -8.50164413
REMARK  8 active torsions:
REMARK  status: ('A' for Active; 'I' for Inactive)
REMARK    1  A    between atoms: C2_2  and  C3_3 
REMARK    2  A    between atoms: C2_2  and  C9_11 
REMARK    3  A    between atoms: C3_3  and  C4_4 
REMARK    4  A    between atoms: C4_4  and  C5_5 
REMARK    5  A    between atoms: C6_6  and  C7_7 
REMARK    6  A    between atoms: C6_6  and  C8_9 
REMARK    7  A    between atoms: C7_7  and  O1_8 
REMARK    8  A    between atoms: C8_9  and  O2_10 
ROOT
HETATM    1  C9  UNL     1      -1.800   5.826  12.136  1.00  0.00    -0.002 C 
HETATM    2  C10 UNL     1      -2.471   6.545  13.338  1.00  0.00     0.007 C 
HETATM    3  C11 UNL     1      -1.522   7.665  13.798  1.00  0.00     0.015 C 
HETATM    4  C12 UNL     1      -0.486   7.808  12.667  1.00  0.00    -0.005 C 
HETATM    5  C13 UNL     1      -1.124   8.725  11.579  1.00  0.00     0.021 C 
HETATM    6  C14 UNL     1       0.880   8.428  12.942  1.00  0.00    -0.000 C 
HETATM    7  C15 UNL     1       1.976   8.055  12.229  1.00  0.00    -0.060 C 
HETATM    8  C16 UNL     1       1.878   6.964  11.156  1.00  0.00     0.036 C 
HETATM    9  C17 UNL     1       0.519   6.256  10.971  1.00  0.00     0.015 C 
HETATM   10  C18 UNL     1      -0.316   6.290  12.256  1.00  0.00    -0.028 C 
HETATM   11  C19 UNL     1       0.407   5.432  13.341  1.00  0.00     0.016 C 
HETATM   12  C20 UNL     1       3.388   8.649  12.490  1.00  0.00    -0.014 C 
HETATM   13  C21 UNL     1       4.067   7.680  13.485  1.00  0.00     0.020 C 
HETATM   14  C22 UNL     1       4.230   8.729  11.191  1.00  0.00     0.021 C 
HETATM   15  C23 UNL     1       5.573   9.416  11.381  1.00  0.00     0.080 C 
HETATM   16  C24 UNL     1       5.394  10.813  11.918  1.00  0.00     0.135 C 
HETATM   17  O3  UNL     1       6.032  11.744  11.423  1.00  0.00    -0.297 OA
HETATM   18  C25 UNL     1       4.503  10.996  13.157  1.00  0.00     0.018 C 
HETATM   19  C26 UNL     1       5.357  10.717  14.402  1.00  0.00     0.023 C 
HETATM   20  C27 UNL     1       4.091  12.490  13.215  1.00  0.00     0.023 C 
HETATM   21  C28 UNL     1       3.211  10.113  13.020  1.00  0.00     0.020 C 
HETATM   22  C29 UNL     1       2.333  10.112  14.276  1.00  0.00     0.090 C 
HETATM   23  C30 UNL     1       0.986   9.492  13.995  1.00  0.00     0.157 C 
HETATM   24  O4  UNL     1       0.005   9.849  14.644  1.00  0.00    -0.293 OA
ENDROOT
BRANCH   1  25
HETATM   25  C2  UNL     1      -2.134   4.307  12.104  1.00  0.00    -0.014 C 
HETATM   26  C1  UNL     1      -2.246   3.753  10.680  1.00  0.00     0.010 C 
BRANCH  25  27
HETATM   27  C3  UNL     1      -3.415   3.952  12.907  1.00  0.00     0.008 C 
BRANCH  27  28
HETATM   28  C4  UNL     1      -4.669   4.743  12.525  1.00  0.00     0.028 C 
BRANCH  28  29
HETATM   29  C5  UNL     1      -5.862   3.831  12.427  1.00  0.00    -0.020 C 
HETATM   30  C6  UNL     1      -7.016   3.888  13.128  1.00  0.00    -0.037 C 
BRANCH  30  31
HETATM   31  C7  UNL     1      -8.151   2.906  12.922  1.00  0.00     0.200 C 
BRANCH  31  32
HETATM   32  O1  UNL     1      -7.682   1.600  12.612  1.00  0.00    -0.397 OA
HETATM   33  H12 UNL     1      -7.213   1.296  13.408  1.00  0.00     0.209 HD
ENDBRANCH  31  32
ENDBRANCH  30  31
BRANCH  30  34
HETATM   34  C8  UNL     1      -7.324   4.928  14.173  1.00  0.00     0.200 C 
BRANCH  34  35
HETATM   35  O2  UNL     1      -8.644   5.411  13.958  1.00  0.00    -0.397 OA
HETATM   36  H15 UNL     1      -8.840   6.021  14.687  1.00  0.00     0.209 HD
ENDBRANCH  34  35
ENDBRANCH  30  34
ENDBRANCH  28  29
ENDBRANCH  27  28
ENDBRANCH  25  27
ENDBRANCH   1  25
TORSDOF 8
ENDMDL
MODEL 7
REMARK minimizedAffinity -8.48645401
REMARK  8 active torsions:
REMARK  status: ('A' for Active; 'I' for Inactive)
REMARK    1  A    between atoms: C2_2  and  C3_3 
REMARK    2  A    between atoms: C2_2  and  C9_11 
REMARK    3  A    between atoms: C3_3  and  C4_4 
REMARK    4  A    between atoms: C4_4  and  C5_5 
REMARK    5  A    between atoms: C6_6  and  C7_7 
REMARK    6  A    between atoms: C6_6  and  C8_9 
REMARK    7  A    between atoms: C7_7  and  O1_8 
REMARK    8  A    between atoms: C8_9  and  O2_10 
ROOT
HETATM    1  C9  UNL     1      -2.854   4.782  13.092  1.00  0.00    -0.002 C 
HETATM    2  C10 UNL     1      -2.769   4.461  11.575  1.00  0.00     0.007 C 
HETATM    3  C11 UNL     1      -1.380   4.905  11.083  1.00  0.00     0.015 C 
HETATM    4  C12 UNL     1      -0.559   5.157  12.363  1.00  0.00    -0.005 C 
HETATM    5  C13 UNL     1      -0.010   3.775  12.831  1.00  0.00     0.021 C 
HETATM    6  C14 UNL     1       0.663   6.069  12.330  1.00  0.00    -0.000 C 
HETATM    7  C15 UNL     1       1.036   6.781  13.427  1.00  0.00    -0.060 C 
HETATM    8  C16 UNL     1       0.207   6.723  14.717  1.00  0.00     0.036 C 
HETATM    9  C17 UNL     1      -1.095   5.896  14.700  1.00  0.00     0.015 C 
HETATM   10  C18 UNL     1      -1.678   5.788  13.287  1.00  0.00    -0.028 C 
HETATM   11  C19 UNL     1      -2.132   7.209  12.827  1.00  0.00     0.016 C 
HETATM   12  C20 UNL     1       2.263   7.733  13.431  1.00  0.00    -0.014 C 
HETATM   13  C21 UNL     1       1.703   9.130  13.074  1.00  0.00     0.020 C 
HETATM   14  C22 UNL     1       2.947   7.790  14.821  1.00  0.00     0.021 C 
HETATM   15  C23 UNL     1       4.222   8.617  14.835  1.00  0.00     0.080 C 
HETATM   16  C24 UNL     1       5.220   8.088  13.837  1.00  0.00     0.135 C 
HETATM   17  O3  UNL     1       6.401   7.955  14.164  1.00  0.00    -0.297 OA
HETATM   18  C25 UNL     1       4.735   7.849  12.397  1.00  0.00     0.018 C 
HETATM   19  C26 UNL     1       4.814   9.184  11.643  1.00  0.00     0.023 C 
HETATM   20  C27 UNL     1       5.746   6.887  11.721  1.00  0.00     0.023 C 
HETATM   21  C28 UNL     1       3.318   7.174  12.416  1.00  0.00     0.020 C 
HETATM   22  C29 UNL     1       2.686   7.036  11.027  1.00  0.00     0.090 C 
HETATM   23  C30 UNL     1       1.474   6.136  11.070  1.00  0.00     0.157 C 
HETATM   24  O4  UNL     1       1.159   5.493  10.071  1.00  0.00    -0.293 OA
ENDROOT
BRANCH   1  25
HETATM   25  C2  UNL     1      -4.294   5.184  13.523  1.00  0.00    -0.014 C 
HETATM   26  C1  UNL     1      -5.372   4.305  12.883  1.00  0.00     0.010 C 
BRANCH  25  27
HETATM   27  C3  UNL     1      -4.610   6.681  13.257  1.00  0.00     0.008 C 
BRANCH  27  28
HETATM   28  C4  UNL     1      -5.311   7.418  14.402  1.00  0.00     0.028 C 
BRANCH  28  29
HETATM   29  C5  UNL     1      -6.798   7.461  14.173  1.00  0.00    -0.020 C 
HETATM   30  C6  UNL     1      -7.786   7.244  15.068  1.00  0.00    -0.037 C 
BRANCH  30  31
HETATM   31  C7  UNL     1      -9.255   7.332  14.706  1.00  0.00     0.200 C 
BRANCH  31  32
HETATM   32  O1  UNL     1     -10.077   6.617  15.620  1.00  0.00    -0.397 OA
HETATM   33  H12 UNL     1      -9.987   7.082  16.470  1.00  0.00     0.209 HD
ENDBRANCH  31  32
ENDBRANCH  30  31
BRANCH  30  34
HETATM   34  C8  UNL     1      -7.560   6.911  16.519  1.00  0.00     0.200 C 
BRANCH  34  35
HETATM   35  O2  UNL     1      -6.500   5.968  16.608  1.00  0.00    -0.397 OA
HETATM   36  H15 UNL     1      -6.327   5.830  17.554  1.00  0.00     0.209 HD
ENDBRANCH  34  35
ENDBRANCH  30  34
ENDBRANCH  28  29
ENDBRANCH  27  28
ENDBRANCH  25  27
ENDBRANCH   1  25
TORSDOF 8
ENDMDL
MODEL 8
REMARK minimizedAffinity -8.41426373
REMARK  8 active torsions:
REMARK  status: ('A' for Active; 'I' for Inactive)
REMARK    1  A    between atoms: C2_2  and  C3_3 
REMARK    2  A    between atoms: C2_2  and  C9_11 
REMARK    3  A    between atoms: C3_3  and  C4_4 
REMARK    4  A    between atoms: C4_4  and  C5_5 
REMARK    5  A    between atoms: C6_6  and  C7_7 
REMARK    6  A    between atoms: C6_6  and  C8_9 
REMARK    7  A    between atoms: C7_7  and  O1_8 
REMARK    8  A    between atoms: C8_9  and  O2_10 
ROOT
HETATM    1  C9  UNL     1      -2.668   7.893  13.612  1.00  0.00    -0.002 C 
HETATM    2  C10 UNL     1      -2.413   7.538  15.103  1.00  0.00     0.007 C 
HETATM    3  C11 UNL     1      -0.894   7.599  15.342  1.00  0.00     0.015 C 
HETATM    4  C12 UNL     1      -0.318   8.312  14.103  1.00  0.00    -0.005 C 
HETATM    5  C13 UNL     1      -0.472   9.845  14.348  1.00  0.00     0.021 C 
HETATM    6  C14 UNL     1       1.145   8.127  13.715  1.00  0.00    -0.000 C 
HETATM    7  C15 UNL     1       1.541   8.201  12.416  1.00  0.00    -0.060 C 
HETATM    8  C16 UNL     1       0.515   8.426  11.297  1.00  0.00     0.036 C 
HETATM    9  C17 UNL     1      -0.976   8.487  11.688  1.00  0.00     0.015 C 
HETATM   10  C18 UNL     1      -1.254   7.711  12.979  1.00  0.00    -0.028 C 
HETATM   11  C19 UNL     1      -1.002   6.194  12.710  1.00  0.00     0.016 C 
HETATM   12  C20 UNL     1       3.017   8.001  11.976  1.00  0.00    -0.014 C 
HETATM   13  C21 UNL     1       3.145   6.500  11.626  1.00  0.00     0.020 C 
HETATM   14  C22 UNL     1       3.370   8.854  10.731  1.00  0.00     0.021 C 
HETATM   15  C23 UNL     1       4.838   8.780  10.343  1.00  0.00     0.080 C 
HETATM   16  C24 UNL     1       5.722   9.216  11.483  1.00  0.00     0.135 C 
HETATM   17  O3  UNL     1       6.659   9.987  11.269  1.00  0.00    -0.297 OA
HETATM   18  C25 UNL     1       5.484   8.574  12.859  1.00  0.00     0.018 C 
HETATM   19  C26 UNL     1       6.239   7.237  12.896  1.00  0.00     0.023 C 
HETATM   20  C27 UNL     1       6.142   9.495  13.920  1.00  0.00     0.023 C 
HETATM   21  C28 UNL     1       3.943   8.480  13.146  1.00  0.00     0.020 C 
HETATM   22  C29 UNL     1       3.604   7.715  14.429  1.00  0.00     0.090 C 
HETATM   23  C30 UNL     1       2.152   7.900  14.803  1.00  0.00     0.157 C 
HETATM   24  O4  UNL     1       1.816   7.839  15.984  1.00  0.00    -0.293 OA
ENDROOT
BRANCH   1  25
HETATM   25  C2  UNL     1      -3.883   7.118  13.028  1.00  0.00    -0.014 C 
HETATM   26  C1  UNL     1      -5.205   7.873  13.194  1.00  0.00     0.010 C 
BRANCH  25  27
HETATM   27  C3  UNL     1      -4.022   5.684  13.607  1.00  0.00     0.008 C 
BRANCH  27  28
HETATM   28  C4  UNL     1      -4.355   4.593  12.585  1.00  0.00     0.028 C 
BRANCH  28  29
HETATM   29  C5  UNL     1      -5.667   3.935  12.920  1.00  0.00    -0.020 C 
HETATM   30  C6  UNL     1      -6.304   2.953  12.247  1.00  0.00    -0.037 C 
BRANCH  30  31
HETATM   31  C7  UNL     1      -7.625   2.368  12.704  1.00  0.00     0.200 C 
BRANCH  31  32
HETATM   32  O1  UNL     1      -8.438   3.328  13.367  1.00  0.00    -0.397 OA
HETATM   33  H12 UNL     1      -8.663   3.990  12.689  1.00  0.00     0.209 HD
ENDBRANCH  31  32
ENDBRANCH  30  31
BRANCH  30  34
HETATM   34  C8  UNL     1      -5.784   2.311  10.988  1.00  0.00     0.200 C 
BRANCH  34  35
HETATM   35  O2  UNL     1      -4.797   1.351  11.342  1.00  0.00    -0.397 OA
HETATM   36  H15 UNL     1      -4.535   0.903  10.520  1.00  0.00     0.209 HD
ENDBRANCH  34  35
ENDBRANCH  30  34
ENDBRANCH  28  29
ENDBRANCH  27  28
ENDBRANCH  25  27
ENDBRANCH   1  25
TORSDOF 8
ENDMDL
MODEL 9
REMARK minimizedAffinity -8.37325287
REMARK  8 active torsions:
REMARK  status: ('A' for Active; 'I' for Inactive)
REMARK    1  A    between atoms: C2_2  and  C3_3 
REMARK    2  A    between atoms: C2_2  and  C9_11 
REMARK    3  A    between atoms: C3_3  and  C4_4 
REMARK    4  A    between atoms: C4_4  and  C5_5 
REMARK    5  A    between atoms: C6_6  and  C7_7 
REMARK    6  A    between atoms: C6_6  and  C8_9 
REMARK    7  A    between atoms: C7_7  and  O1_8 
REMARK    8  A    between atoms: C8_9  and  O2_10 
ROOT
HETATM    1  C9  UNL     1      -0.751   9.438  14.839  1.00  0.00    -0.002 C 
HETATM    2  C10 UNL     1      -0.024   8.294  14.081  1.00  0.00     0.007 C 
HETATM    3  C11 UNL     1      -1.095   7.297  13.607  1.00  0.00     0.015 C 
HETATM    4  C12 UNL     1      -2.439   8.030  13.787  1.00  0.00    -0.005 C 
HETATM    5  C13 UNL     1      -2.640   8.928  12.528  1.00  0.00     0.021 C 
HETATM    6  C14 UNL     1      -3.738   7.242  13.914  1.00  0.00    -0.000 C 
HETATM    7  C15 UNL     1      -4.784   7.726  14.637  1.00  0.00    -0.060 C 
HETATM    8  C16 UNL     1      -4.667   9.059  15.386  1.00  0.00     0.036 C 
HETATM    9  C17 UNL     1      -3.307   9.787  15.354  1.00  0.00     0.015 C 
HETATM   10  C18 UNL     1      -2.148   8.809  15.133  1.00  0.00    -0.028 C 
HETATM   11  C19 UNL     1      -2.041   7.875  16.379  1.00  0.00     0.016 C 
HETATM   12  C20 UNL     1      -6.118   6.948  14.805  1.00  0.00    -0.014 C 
HETATM   13  C21 UNL     1      -5.963   6.141  16.115  1.00  0.00     0.020 C 
HETATM   14  C22 UNL     1      -7.333   7.903  14.927  1.00  0.00     0.021 C 
HETATM   15  C23 UNL     1      -8.669   7.181  14.972  1.00  0.00     0.080 C 
HETATM   16  C24 UNL     1      -8.861   6.324  13.747  1.00  0.00     0.135 C 
HETATM   17  O3  UNL     1      -9.940   6.342  13.151  1.00  0.00    -0.297 OA
HETATM   18  C25 UNL     1      -7.727   5.359  13.363  1.00  0.00     0.018 C 
HETATM   19  C26 UNL     1      -7.898   4.074  14.187  1.00  0.00     0.023 C 
HETATM   20  C27 UNL     1      -7.931   4.974  11.875  1.00  0.00     0.023 C 
HETATM   21  C28 UNL     1      -6.340   6.076  13.522  1.00  0.00     0.020 C 
HETATM   22  C29 UNL     1      -5.141   5.147  13.308  1.00  0.00     0.090 C 
HETATM   23  C30 UNL     1      -3.858   5.935  13.189  1.00  0.00     0.157 C 
HETATM   24  O4  UNL     1      -2.928   5.485  12.523  1.00  0.00    -0.293 OA
ENDROOT
BRANCH   1  25
HETATM   25  C2  UNL     1       0.106   9.999  16.010  1.00  0.00    -0.014 C 
HETATM   26  C1  UNL     1       1.300   9.102  16.354  1.00  0.00     0.010 C 
BRANCH  25  27
HETATM   27  C3  UNL     1      -0.726  10.277  17.291  1.00  0.00     0.008 C 
BRANCH  27  28
HETATM   28  C4  UNL     1      -0.257  11.467  18.133  1.00  0.00     0.028 C 
BRANCH  28  29
HETATM   29  C5  UNL     1       0.275  11.000  19.461  1.00  0.00    -0.020 C 
HETATM   30  C6  UNL     1       1.563  10.899  19.855  1.00  0.00    -0.037 C 
BRANCH  30  31
HETATM   31  C7  UNL     1       1.964  10.421  21.236  1.00  0.00     0.200 C 
BRANCH  31  32
HETATM   32  O1  UNL     1       2.357   9.054  21.239  1.00  0.00    -0.397 OA
HETATM   33  H12 UNL     1       3.167   9.015  20.701  1.00  0.00     0.209 HD
ENDBRANCH  31  32
ENDBRANCH  30  31
BRANCH  30  34
HETATM   34  C8  UNL     1       2.745  11.261  18.995  1.00  0.00     0.200 C 
BRANCH  34  35
HETATM   35  O2  UNL     1       3.912  10.675  19.556  1.00  0.00    -0.397 OA
HETATM   36  H15 UNL     1       4.642  10.861  18.943  1.00  0.00     0.209 HD
ENDBRANCH  34  35
ENDBRANCH  30  34
ENDBRANCH  28  29
ENDBRANCH  27  28
ENDBRANCH  25  27
ENDBRANCH   1  25
TORSDOF 8
ENDMDL
