MODEL 1
REMARK minimizedAffinity -7.43070936
REMARK CNNscore 0.396998197
REMARK CNNaffinity 6.63522148
REMARK  13 active torsions:
REMARK  status: ('A' for Active; 'I' for Inactive)
REMARK    1  A    between atoms: C3_3  and  O1_4 
REMARK    2  A    between atoms: N1_14  and  O2_16 
REMARK    3  A    between atoms: O2_16  and  C13_17 
REMARK    4  A    between atoms: C13_17  and  C14_18 
REMARK       I    between atoms: C14_18  and  N2_20 
REMARK    5  A    between atoms: N2_20  and  C15_21 
REMARK    6  A    between atoms: C15_21  and  C16_22 
REMARK    7  A    between atoms: C15_21  and  C21_32 
REMARK       I    between atoms: C16_22  and  N3_24 
REMARK    8  A    between atoms: N3_24  and  C17_25 
REMARK    9  A    between atoms: C17_25  and  C18_26 
REMARK   10  A    between atoms: C17_25  and  C19_28 
REMARK   11  A    between atoms: C18_26  and  S1_27 
REMARK   12  A    between atoms: C19_28  and  C20_29 
REMARK   13  A    between atoms: C20_29  and  O6_31 
ROOT
HETATM    1  C1  UNL     1      -4.037  49.207 -23.380  1.00  0.00     0.015 C 
HETATM    2  C2  UNL     1      -3.844  49.001 -22.210  1.00  0.00    -0.078 C 
HETATM    3  C3  UNL     1      -3.622  48.703 -20.784  1.00  0.00     0.128 C 
HETATM    4  C4  UNL     1      -3.613  47.187 -20.530  1.00  0.00     0.052 C 
HETATM    5  C5  UNL     1      -3.038  47.082 -19.126  1.00  0.00     0.010 C 
HETATM    6  C6  UNL     1      -1.910  48.130 -19.107  1.00  0.00     0.002 C 
HETATM    7  C7  UNL     1      -1.533  48.694 -17.719  1.00  0.00    -0.004 C 
HETATM    8  C8  UNL     1      -2.699  49.035 -16.769  1.00  0.00     0.010 C 
HETATM    9  C9  UNL     1      -2.558  50.326 -15.955  1.00  0.00     0.035 C 
HETATM   10  C10 UNL     1      -1.166  50.772 -15.579  1.00  0.00    -0.069 C 
HETATM   11  C11 UNL     1      -0.990  51.609 -14.542  1.00  0.00     0.030 C 
HETATM   12  C12 UNL     1       0.346  52.194 -14.218  1.00  0.00     0.032 C 
HETATM   13  N1  UNL     1       0.643  52.816 -13.114  1.00  0.00    -0.271 N 
ATOM     14  H1  UNL     1       1.540  53.267 -12.931  1.00  0.00     0.194 HD
HETATM   15  C24 UNL     1       1.459  52.059 -15.244  1.00  0.00     0.060 C 
HETATM   16  C25 UNL     1       0.984  51.519 -16.593  1.00  0.00     0.020 C 
HETATM   17  C26 UNL     1      -0.007  50.332 -16.461  1.00  0.00    -0.016 C 
HETATM   18  C27 UNL     1       0.714  49.150 -15.754  1.00  0.00     0.020 C 
HETATM   19  C28 UNL     1      -0.528  49.862 -17.868  1.00  0.00     0.002 C 
HETATM   20  C29 UNL     1      -1.088  50.998 -18.765  1.00  0.00     0.007 C 
HETATM   21  C30 UNL     1      -2.307  50.615 -19.613  1.00  0.00     0.014 C 
HETATM   22  C31 UNL     1      -2.246  49.192 -20.206  1.00  0.00     0.003 C 
HETATM   23  C32 UNL     1      -1.123  49.152 -21.278  1.00  0.00     0.020 C 
ENDROOT
BRANCH   3  24
HETATM   24  O1  UNL     1      -4.708  49.265 -20.037  1.00  0.00    -0.377 OA
HETATM   25  H2  UNL     1      -5.531  48.929 -20.435  1.00  0.00     0.211 HD
ENDBRANCH   3  24
BRANCH  13  26
HETATM   26  O2  UNL     1      -0.428  52.789 -12.207  1.00  0.00    -0.271 OA
BRANCH  26  27
HETATM   27  C13 UNL     1      -0.153  53.675 -11.124  1.00  0.00     0.303 C 
BRANCH  27  28
HETATM   28  C14 UNL     1       1.249  53.328 -10.659  1.00  0.00     0.244 C 
HETATM   29  O3  UNL     1       1.679  52.180 -10.624  1.00  0.00    -0.271 OA
HETATM   30  N2  UNL     1       1.972  54.425 -10.236  1.00  0.00    -0.346 N 
HETATM   31  H16 UNL     1       1.509  55.331 -10.225  1.00  0.00     0.163 HD
BRANCH  30  32
HETATM   32  C15 UNL     1       3.272  54.322  -9.562  1.00  0.00     0.180 C 
BRANCH  32  33
HETATM   33  C16 UNL     1       3.000  54.135  -8.047  1.00  0.00     0.241 C 
HETATM   34  O4  UNL     1       3.659  53.396  -7.319  1.00  0.00    -0.271 OA
HETATM   35  N3  UNL     1       1.872  54.816  -7.611  1.00  0.00    -0.353 N 
HETATM   36  H18 UNL     1       1.451  55.415  -8.314  1.00  0.00     0.163 HD
BRANCH  35  37
HETATM   37  C17 UNL     1       1.683  55.178  -6.207  1.00  0.00     0.103 C 
BRANCH  37  38
HETATM   38  C18 UNL     1       0.564  54.307  -5.596  1.00  0.00     0.096 C 
BRANCH  38  39
HETATM   39  S1  UNL     1      -0.530  53.528  -6.819  1.00  0.00    -0.180 SA
HETATM   40  H22 UNL     1       0.343  52.604  -7.256  1.00  0.00     0.101 HD
ENDBRANCH  38  39
ENDBRANCH  37  38
BRANCH  37  41
HETATM   41  C19 UNL     1       1.465  56.696  -6.084  1.00  0.00     0.136 C 
BRANCH  41  42
HETATM   42  C20 UNL     1       0.018  57.081  -6.215  1.00  0.00     0.141 C 
HETATM   43  O5  UNL     1      -0.746  57.316  -5.292  1.00  0.00    -0.650 OA
BRANCH  42  44
HETATM   44  O6  UNL     1      -0.396  57.139  -7.498  1.00  0.00    -0.776 OA
HETATM   45  H25 UNL     1      -1.373  57.302  -7.435  1.00  0.00     0.167 HD
ENDBRANCH  42  44
ENDBRANCH  41  42
ENDBRANCH  37  41
ENDBRANCH  35  37
ENDBRANCH  32  33
BRANCH  32  46
HETATM   46  C21 UNL     1       4.184  55.530  -9.857  1.00  0.00     0.009 C 
HETATM   47  C22 UNL     1       4.052  55.975 -11.317  1.00  0.00     0.012 C 
HETATM   48  C23 UNL     1       3.927  56.722  -8.924  1.00  0.00     0.012 C 
ENDBRANCH  32  46
ENDBRANCH  30  32
ENDBRANCH  27  28
ENDBRANCH  26  27
ENDBRANCH  13  26
TORSDOF 13
ENDMDL
MODEL 2
REMARK minimizedAffinity -8.25977039
REMARK CNNscore 0.376551926
REMARK CNNaffinity 6.63329554
REMARK  13 active torsions:
REMARK  status: ('A' for Active; 'I' for Inactive)
REMARK    1  A    between atoms: C3_3  and  O1_4 
REMARK    2  A    between atoms: N1_14  and  O2_16 
REMARK    3  A    between atoms: O2_16  and  C13_17 
REMARK    4  A    between atoms: C13_17  and  C14_18 
REMARK       I    between atoms: C14_18  and  N2_20 
REMARK    5  A    between atoms: N2_20  and  C15_21 
REMARK    6  A    between atoms: C15_21  and  C16_22 
REMARK    7  A    between atoms: C15_21  and  C21_32 
REMARK       I    between atoms: C16_22  and  N3_24 
REMARK    8  A    between atoms: N3_24  and  C17_25 
REMARK    9  A    between atoms: C17_25  and  C18_26 
REMARK   10  A    between atoms: C17_25  and  C19_28 
REMARK   11  A    between atoms: C18_26  and  S1_27 
REMARK   12  A    between atoms: C19_28  and  C20_29 
REMARK   13  A    between atoms: C20_29  and  O6_31 
ROOT
HETATM    1  C1  UNL     1      -0.057  55.145 -27.232  1.00  0.00     0.015 C 
HETATM    2  C2  UNL     1      -0.340  53.981 -27.116  1.00  0.00    -0.078 C 
HETATM    3  C3  UNL     1      -0.638  52.544 -26.977  1.00  0.00     0.128 C 
HETATM    4  C4  UNL     1       0.643  51.734 -26.722  1.00  0.00     0.052 C 
HETATM    5  C5  UNL     1       0.105  50.385 -26.270  1.00  0.00     0.010 C 
HETATM    6  C6  UNL     1      -1.079  50.743 -25.355  1.00  0.00     0.002 C 
HETATM    7  C7  UNL     1      -2.178  49.666 -25.216  1.00  0.00    -0.004 C 
HETATM    8  C8  UNL     1      -2.603  48.938 -26.507  1.00  0.00     0.010 C 
HETATM    9  C9  UNL     1      -4.103  48.673 -26.677  1.00  0.00     0.035 C 
HETATM   10  C10 UNL     1      -4.926  48.468 -25.427  1.00  0.00    -0.069 C 
HETATM   11  C11 UNL     1      -6.103  47.822 -25.501  1.00  0.00     0.030 C 
HETATM   12  C12 UNL     1      -7.022  47.719 -24.328  1.00  0.00     0.032 C 
HETATM   13  N1  UNL     1      -8.052  46.929 -24.251  1.00  0.00    -0.271 N 
ATOM     14  H1  UNL     1      -8.709  46.914 -23.470  1.00  0.00     0.194 HD
HETATM   15  C24 UNL     1      -6.745  48.597 -23.118  1.00  0.00     0.060 C 
HETATM   16  C25 UNL     1      -5.663  49.648 -23.360  1.00  0.00     0.020 C 
HETATM   17  C26 UNL     1      -4.434  49.095 -24.131  1.00  0.00    -0.016 C 
HETATM   18  C27 UNL     1      -3.767  47.979 -23.280  1.00  0.00     0.020 C 
HETATM   19  C28 UNL     1      -3.385  50.228 -24.427  1.00  0.00     0.002 C 
HETATM   20  C29 UNL     1      -3.974  51.499 -25.094  1.00  0.00     0.007 C 
HETATM   21  C30 UNL     1      -3.069  52.161 -26.141  1.00  0.00     0.014 C 
HETATM   22  C31 UNL     1      -1.571  52.169 -25.772  1.00  0.00     0.003 C 
HETATM   23  C32 UNL     1      -1.366  53.124 -24.565  1.00  0.00     0.020 C 
ENDROOT
BRANCH   3  24
HETATM   24  O1  UNL     1      -1.206  52.087 -28.212  1.00  0.00    -0.377 OA
HETATM   25  H2  UNL     1      -0.589  52.343 -28.921  1.00  0.00     0.211 HD
ENDBRANCH   3  24
BRANCH  13  26
HETATM   26  O2  UNL     1      -8.146  46.099 -25.379  1.00  0.00    -0.271 OA
BRANCH  26  27
HETATM   27  C13 UNL     1      -9.023  46.695 -26.333  1.00  0.00     0.303 C 
BRANCH  27  28
HETATM   28  C14 UNL     1     -10.421  46.273 -25.920  1.00  0.00     0.244 C 
HETATM   29  O3  UNL     1     -10.651  45.261 -25.267  1.00  0.00    -0.271 OA
HETATM   30  N2  UNL     1     -11.408  47.113 -26.394  1.00  0.00    -0.346 N 
HETATM   31  H16 UNL     1     -11.134  47.887 -26.996  1.00  0.00     0.163 HD
BRANCH  30  32
HETATM   32  C15 UNL     1     -12.841  46.809 -26.295  1.00  0.00     0.180 C 
BRANCH  32  33
HETATM   33  C16 UNL     1     -13.166  46.569 -24.798  1.00  0.00     0.241 C 
HETATM   34  O4  UNL     1     -12.550  47.090 -23.872  1.00  0.00    -0.271 OA
HETATM   35  N3  UNL     1     -14.166  45.626 -24.606  1.00  0.00    -0.353 N 
HETATM   36  H18 UNL     1     -14.609  45.309 -25.462  1.00  0.00     0.163 HD
BRANCH  35  37
HETATM   37  C17 UNL     1     -14.953  45.576 -23.374  1.00  0.00     0.103 C 
BRANCH  37  38
HETATM   38  C18 UNL     1     -16.087  44.539 -23.528  1.00  0.00     0.096 C 
BRANCH  38  39
HETATM   39  S1  UNL     1     -16.967  44.623 -25.114  1.00  0.00    -0.180 SA
HETATM   40  H22 UNL     1     -15.991  44.092 -25.872  1.00  0.00     0.101 HD
ENDBRANCH  38  39
ENDBRANCH  37  38
BRANCH  37  41
HETATM   41  C19 UNL     1     -15.415  46.992 -22.993  1.00  0.00     0.136 C 
BRANCH  41  42
HETATM   42  C20 UNL     1     -15.136  47.320 -21.552  1.00  0.00     0.141 C 
HETATM   43  O5  UNL     1     -15.810  46.973 -20.596  1.00  0.00    -0.650 OA
BRANCH  42  44
HETATM   44  O6  UNL     1     -14.031  48.078 -21.392  1.00  0.00    -0.776 OA
HETATM   45  H25 UNL     1     -14.022  48.298 -20.425  1.00  0.00     0.167 HD
ENDBRANCH  42  44
ENDBRANCH  41  42
ENDBRANCH  37  41
ENDBRANCH  35  37
ENDBRANCH  32  33
BRANCH  32  46
HETATM   46  C21 UNL     1     -13.252  45.622 -27.190  1.00  0.00     0.009 C 
HETATM   47  C22 UNL     1     -13.306  44.320 -26.385  1.00  0.00     0.012 C 
HETATM   48  C23 UNL     1     -14.589  45.845 -27.911  1.00  0.00     0.012 C 
ENDBRANCH  32  46
ENDBRANCH  30  32
ENDBRANCH  27  28
ENDBRANCH  26  27
ENDBRANCH  13  26
TORSDOF 13
ENDMDL
MODEL 3
REMARK minimizedAffinity -7.55822849
REMARK CNNscore 0.372291267
REMARK CNNaffinity 5.97632599
REMARK  13 active torsions:
REMARK  status: ('A' for Active; 'I' for Inactive)
REMARK    1  A    between atoms: C3_3  and  O1_4 
REMARK    2  A    between atoms: N1_14  and  O2_16 
REMARK    3  A    between atoms: O2_16  and  C13_17 
REMARK    4  A    between atoms: C13_17  and  C14_18 
REMARK       I    between atoms: C14_18  and  N2_20 
REMARK    5  A    between atoms: N2_20  and  C15_21 
REMARK    6  A    between atoms: C15_21  and  C16_22 
REMARK    7  A    between atoms: C15_21  and  C21_32 
REMARK       I    between atoms: C16_22  and  N3_24 
REMARK    8  A    between atoms: N3_24  and  C17_25 
REMARK    9  A    between atoms: C17_25  and  C18_26 
REMARK   10  A    between atoms: C17_25  and  C19_28 
REMARK   11  A    between atoms: C18_26  and  S1_27 
REMARK   12  A    between atoms: C19_28  and  C20_29 
REMARK   13  A    between atoms: C20_29  and  O6_31 
ROOT
HETATM    1  C1  UNL     1      -5.386  48.096 -34.393  1.00  0.00     0.015 C 
HETATM    2  C2  UNL     1      -5.956  47.355 -33.636  1.00  0.00    -0.078 C 
HETATM    3  C3  UNL     1      -6.612  46.423 -32.701  1.00  0.00     0.128 C 
HETATM    4  C4  UNL     1      -5.574  45.645 -31.875  1.00  0.00     0.052 C 
HETATM    5  C5  UNL     1      -6.416  45.028 -30.769  1.00  0.00     0.010 C 
HETATM    6  C6  UNL     1      -7.401  46.146 -30.383  1.00  0.00     0.002 C 
HETATM    7  C7  UNL     1      -8.732  45.686 -29.748  1.00  0.00    -0.004 C 
HETATM    8  C8  UNL     1      -9.418  44.461 -30.386  1.00  0.00     0.010 C 
HETATM    9  C9  UNL     1     -10.943  44.530 -30.524  1.00  0.00     0.035 C 
HETATM   10  C10 UNL     1     -11.706  45.332 -29.498  1.00  0.00    -0.069 C 
HETATM   11  C11 UNL     1     -13.013  45.091 -29.298  1.00  0.00     0.030 C 
HETATM   12  C12 UNL     1     -13.847  45.949 -28.403  1.00  0.00     0.032 C 
HETATM   13  N1  UNL     1     -15.042  45.652 -27.981  1.00  0.00    -0.271 N 
ATOM     14  H1  UNL     1     -15.626  46.274 -27.422  1.00  0.00     0.194 HD
HETATM   15  C24 UNL     1     -13.270  47.275 -27.935  1.00  0.00     0.060 C 
HETATM   16  C25 UNL     1     -11.969  47.657 -28.639  1.00  0.00     0.020 C 
HETATM   17  C26 UNL     1     -10.982  46.467 -28.789  1.00  0.00    -0.016 C 
HETATM   18  C27 UNL     1     -10.576  45.970 -27.373  1.00  0.00     0.020 C 
HETATM   19  C28 UNL     1      -9.694  46.888 -29.587  1.00  0.00     0.002 C 
HETATM   20  C29 UNL     1      -9.972  47.595 -30.940  1.00  0.00     0.007 C 
HETATM   21  C30 UNL     1      -8.996  47.241 -32.070  1.00  0.00     0.014 C 
HETATM   22  C31 UNL     1      -7.528  47.097 -31.619  1.00  0.00     0.003 C 
HETATM   23  C32 UNL     1      -7.000  48.499 -31.208  1.00  0.00     0.020 C 
ENDROOT
BRANCH   3  24
HETATM   24  O1  UNL     1      -7.360  45.473 -33.470  1.00  0.00    -0.377 OA
HETATM   25  H2  UNL     1      -6.745  45.086 -34.120  1.00  0.00     0.211 HD
ENDBRANCH   3  24
BRANCH  13  26
HETATM   26  O2  UNL     1     -15.424  44.366 -28.393  1.00  0.00    -0.271 OA
BRANCH  26  27
HETATM   27  C13 UNL     1     -16.847  44.289 -28.444  1.00  0.00     0.303 C 
BRANCH  27  28
HETATM   28  C14 UNL     1     -17.324  44.630 -27.044  1.00  0.00     0.244 C 
HETATM   29  O3  UNL     1     -16.647  44.436 -26.039  1.00  0.00    -0.271 OA
HETATM   30  N2  UNL     1     -18.609  45.131 -27.010  1.00  0.00    -0.346 N 
HETATM   31  H16 UNL     1     -19.128  45.184 -27.884  1.00  0.00     0.163 HD
BRANCH  30  32
HETATM   32  C15 UNL     1     -19.358  45.347 -25.766  1.00  0.00     0.180 C 
BRANCH  32  33
HETATM   33  C16 UNL     1     -18.566  46.375 -24.917  1.00  0.00     0.241 C 
HETATM   34  O4  UNL     1     -18.853  47.568 -24.843  1.00  0.00    -0.271 OA
HETATM   35  N3  UNL     1     -17.437  45.831 -24.321  1.00  0.00    -0.353 N 
HETATM   36  H18 UNL     1     -17.348  44.827 -24.438  1.00  0.00     0.163 HD
BRANCH  35  37
HETATM   37  C17 UNL     1     -16.820  46.436 -23.140  1.00  0.00     0.103 C 
BRANCH  37  38
HETATM   38  C18 UNL     1     -15.518  47.156 -23.552  1.00  0.00     0.096 C 
BRANCH  38  39
HETATM   39  S1  UNL     1     -14.133  46.915 -22.402  1.00  0.00    -0.180 SA
HETATM   40  H22 UNL     1     -13.867  45.639 -22.730  1.00  0.00     0.101 HD
ENDBRANCH  38  39
ENDBRANCH  37  38
BRANCH  37  41
HETATM   41  C19 UNL     1     -16.655  45.376 -22.038  1.00  0.00     0.136 C 
BRANCH  41  42
HETATM   42  C20 UNL     1     -17.518  45.655 -20.839  1.00  0.00     0.141 C 
HETATM   43  O5  UNL     1     -18.302  44.873 -20.324  1.00  0.00    -0.650 OA
BRANCH  42  44
HETATM   44  O6  UNL     1     -17.358  46.905 -20.357  1.00  0.00    -0.776 OA
HETATM   45  H25 UNL     1     -18.044  46.984 -19.645  1.00  0.00     0.167 HD
ENDBRANCH  42  44
ENDBRANCH  41  42
ENDBRANCH  37  41
ENDBRANCH  35  37
ENDBRANCH  32  33
BRANCH  32  46
HETATM   46  C21 UNL     1     -19.627  44.032 -25.006  1.00  0.00     0.009 C 
HETATM   47  C22 UNL     1     -18.369  43.159 -24.957  1.00  0.00     0.012 C 
HETATM   48  C23 UNL     1     -20.164  44.255 -23.586  1.00  0.00     0.012 C 
ENDBRANCH  32  46
ENDBRANCH  30  32
ENDBRANCH  27  28
ENDBRANCH  26  27
ENDBRANCH  13  26
TORSDOF 13
ENDMDL
MODEL 4
REMARK minimizedAffinity -7.87693357
REMARK CNNscore 0.356978387
REMARK CNNaffinity 6.82843065
REMARK  13 active torsions:
REMARK  status: ('A' for Active; 'I' for Inactive)
REMARK    1  A    between atoms: C3_3  and  O1_4 
REMARK    2  A    between atoms: N1_14  and  O2_16 
REMARK    3  A    between atoms: O2_16  and  C13_17 
REMARK    4  A    between atoms: C13_17  and  C14_18 
REMARK       I    between atoms: C14_18  and  N2_20 
REMARK    5  A    between atoms: N2_20  and  C15_21 
REMARK    6  A    between atoms: C15_21  and  C16_22 
REMARK    7  A    between atoms: C15_21  and  C21_32 
REMARK       I    between atoms: C16_22  and  N3_24 
REMARK    8  A    between atoms: N3_24  and  C17_25 
REMARK    9  A    between atoms: C17_25  and  C18_26 
REMARK   10  A    between atoms: C17_25  and  C19_28 
REMARK   11  A    between atoms: C18_26  and  S1_27 
REMARK   12  A    between atoms: C19_28  and  C20_29 
REMARK   13  A    between atoms: C20_29  and  O6_31 
ROOT
HETATM    1  C1  UNL     1      -0.102  55.471 -27.098  1.00  0.00     0.015 C 
HETATM    2  C2  UNL     1      -0.399  54.308 -27.012  1.00  0.00    -0.078 C 
HETATM    3  C3  UNL     1      -0.719  52.872 -26.925  1.00  0.00     0.128 C 
HETATM    4  C4  UNL     1       0.539  52.010 -27.124  1.00  0.00     0.052 C 
HETATM    5  C5  UNL     1       0.083  50.635 -26.662  1.00  0.00     0.010 C 
HETATM    6  C6  UNL     1      -0.772  50.925 -25.415  1.00  0.00     0.002 C 
HETATM    7  C7  UNL     1      -1.840  49.865 -25.065  1.00  0.00    -0.004 C 
HETATM    8  C8  UNL     1      -2.651  49.282 -26.240  1.00  0.00     0.010 C 
HETATM    9  C9  UNL     1      -4.148  49.070 -25.994  1.00  0.00     0.035 C 
HETATM   10  C10 UNL     1      -4.592  48.757 -24.585  1.00  0.00    -0.069 C 
HETATM   11  C11 UNL     1      -5.773  48.150 -24.375  1.00  0.00     0.030 C 
HETATM   12  C12 UNL     1      -6.325  47.949 -23.002  1.00  0.00     0.032 C 
HETATM   13  N1  UNL     1      -7.330  47.179 -22.703  1.00  0.00    -0.271 N 
ATOM     14  H1  UNL     1      -7.737  47.099 -21.771  1.00  0.00     0.194 HD
HETATM   15  C24 UNL     1      -5.671  48.692 -21.847  1.00  0.00     0.060 C 
HETATM   16  C25 UNL     1      -4.650  49.738 -22.294  1.00  0.00     0.020 C 
HETATM   17  C26 UNL     1      -3.721  49.238 -23.434  1.00  0.00    -0.016 C 
HETATM   18  C27 UNL     1      -2.897  48.026 -22.915  1.00  0.00     0.020 C 
HETATM   19  C28 UNL     1      -2.743  50.371 -23.914  1.00  0.00     0.002 C 
HETATM   20  C29 UNL     1      -3.431  51.717 -24.265  1.00  0.00     0.007 C 
HETATM   21  C30 UNL     1      -2.828  52.461 -25.463  1.00  0.00     0.014 C 
HETATM   22  C31 UNL     1      -1.289  52.397 -25.541  1.00  0.00     0.003 C 
HETATM   23  C32 UNL     1      -0.700  53.219 -24.362  1.00  0.00     0.020 C 
ENDROOT
BRANCH   3  24
HETATM   24  O1  UNL     1      -1.637  52.556 -27.980  1.00  0.00    -0.377 OA
HETATM   25  H2  UNL     1      -1.234  52.869 -28.810  1.00  0.00     0.211 HD
ENDBRANCH   3  24
BRANCH  13  26
HETATM   26  O2  UNL     1      -7.783  46.471 -23.828  1.00  0.00    -0.271 OA
BRANCH  26  27
HETATM   27  C13 UNL     1      -9.185  46.679 -23.985  1.00  0.00     0.303 C 
BRANCH  27  28
HETATM   28  C14 UNL     1      -9.532  46.103 -25.345  1.00  0.00     0.244 C 
HETATM   29  O3  UNL     1      -9.791  44.918 -25.527  1.00  0.00    -0.271 OA
HETATM   30  N2  UNL     1      -9.478  47.034 -26.363  1.00  0.00    -0.346 N 
HETATM   31  H16 UNL     1      -9.177  47.979 -26.135  1.00  0.00     0.163 HD
BRANCH  30  32
HETATM   32  C15 UNL     1      -9.580  46.682 -27.785  1.00  0.00     0.180 C 
BRANCH  32  33
HETATM   33  C16 UNL     1     -10.666  45.583 -27.918  1.00  0.00     0.241 C 
HETATM   34  O4  UNL     1     -10.426  44.416 -28.216  1.00  0.00    -0.271 OA
HETATM   35  N3  UNL     1     -11.955  46.074 -27.760  1.00  0.00    -0.353 N 
HETATM   36  H18 UNL     1     -11.997  47.049 -27.481  1.00  0.00     0.163 HD
BRANCH  35  37
HETATM   37  C17 UNL     1     -13.070  45.208 -27.379  1.00  0.00     0.103 C 
BRANCH  37  38
HETATM   38  C18 UNL     1     -13.845  44.779 -28.643  1.00  0.00     0.096 C 
BRANCH  38  39
HETATM   39  S1  UNL     1     -15.638  44.620 -28.404  1.00  0.00    -0.180 SA
HETATM   40  H22 UNL     1     -15.912  45.935 -28.334  1.00  0.00     0.101 HD
ENDBRANCH  38  39
ENDBRANCH  37  38
BRANCH  37  41
HETATM   41  C19 UNL     1     -13.919  45.897 -26.298  1.00  0.00     0.136 C 
BRANCH  41  42
HETATM   42  C20 UNL     1     -13.093  46.380 -25.138  1.00  0.00     0.141 C 
HETATM   43  O5  UNL     1     -12.534  47.462 -25.059  1.00  0.00    -0.650 OA
BRANCH  42  44
HETATM   44  O6  UNL     1     -13.003  45.472 -24.144  1.00  0.00    -0.776 OA
HETATM   45  H25 UNL     1     -12.362  45.872 -23.502  1.00  0.00     0.167 HD
ENDBRANCH  42  44
ENDBRANCH  41  42
ENDBRANCH  37  41
ENDBRANCH  35  37
ENDBRANCH  32  33
BRANCH  32  46
HETATM   46  C21 UNL     1      -8.224  46.251 -28.381  1.00  0.00     0.009 C 
HETATM   47  C22 UNL     1      -7.073  47.049 -27.761  1.00  0.00     0.012 C 
HETATM   48  C23 UNL     1      -7.953  44.747 -28.238  1.00  0.00     0.012 C 
ENDBRANCH  32  46
ENDBRANCH  30  32
ENDBRANCH  27  28
ENDBRANCH  26  27
ENDBRANCH  13  26
TORSDOF 13
ENDMDL
MODEL 5
REMARK minimizedAffinity -8.47792912
REMARK CNNscore 0.276703954
REMARK CNNaffinity 6.44391775
REMARK  13 active torsions:
REMARK  status: ('A' for Active; 'I' for Inactive)
REMARK    1  A    between atoms: C3_3  and  O1_4 
REMARK    2  A    between atoms: N1_14  and  O2_16 
REMARK    3  A    between atoms: O2_16  and  C13_17 
REMARK    4  A    between atoms: C13_17  and  C14_18 
REMARK       I    between atoms: C14_18  and  N2_20 
REMARK    5  A    between atoms: N2_20  and  C15_21 
REMARK    6  A    between atoms: C15_21  and  C16_22 
REMARK    7  A    between atoms: C15_21  and  C21_32 
REMARK       I    between atoms: C16_22  and  N3_24 
REMARK    8  A    between atoms: N3_24  and  C17_25 
REMARK    9  A    between atoms: C17_25  and  C18_26 
REMARK   10  A    between atoms: C17_25  and  C19_28 
REMARK   11  A    between atoms: C18_26  and  S1_27 
REMARK   12  A    between atoms: C19_28  and  C20_29 
REMARK   13  A    between atoms: C20_29  and  O6_31 
ROOT
HETATM    1  C1  UNL     1      -8.535  40.804 -34.005  1.00  0.00     0.015 C 
HETATM    2  C2  UNL     1      -8.266  41.949 -33.748  1.00  0.00    -0.078 C 
HETATM    3  C3  UNL     1      -7.959  43.364 -33.475  1.00  0.00     0.128 C 
HETATM    4  C4  UNL     1      -8.756  44.294 -34.405  1.00  0.00     0.052 C 
HETATM    5  C5  UNL     1      -8.579  45.657 -33.755  1.00  0.00     0.010 C 
HETATM    6  C6  UNL     1      -8.700  45.368 -32.247  1.00  0.00     0.002 C 
HETATM    7  C7  UNL     1      -7.998  46.373 -31.307  1.00  0.00    -0.004 C 
HETATM    8  C8  UNL     1      -6.593  46.851 -31.727  1.00  0.00     0.010 C 
HETATM    9  C9  UNL     1      -5.556  46.980 -30.606  1.00  0.00     0.035 C 
HETATM   10  C10 UNL     1      -6.053  47.325 -29.223  1.00  0.00    -0.069 C 
HETATM   11  C11 UNL     1      -5.211  47.866 -28.326  1.00  0.00     0.030 C 
HETATM   12  C12 UNL     1      -5.610  48.091 -26.904  1.00  0.00     0.032 C 
HETATM   13  N1  UNL     1      -4.947  48.810 -26.045  1.00  0.00    -0.271 N 
ATOM     14  H1  UNL     1      -5.197  48.904 -25.060  1.00  0.00     0.194 HD
HETATM   15  C24 UNL     1      -6.891  47.442 -26.405  1.00  0.00     0.060 C 
HETATM   16  C25 UNL     1      -7.495  46.444 -27.392  1.00  0.00     0.020 C 
HETATM   17  C26 UNL     1      -7.482  46.951 -28.859  1.00  0.00    -0.016 C 
HETATM   18  C27 UNL     1      -8.355  48.234 -28.956  1.00  0.00     0.020 C 
HETATM   19  C28 UNL     1      -8.039  45.862 -29.847  1.00  0.00     0.002 C 
HETATM   20  C29 UNL     1      -7.387  44.462 -29.703  1.00  0.00     0.007 C 
HETATM   21  C30 UNL     1      -7.177  43.705 -31.021  1.00  0.00     0.014 C 
HETATM   22  C31 UNL     1      -8.330  43.863 -32.033  1.00  0.00     0.003 C 
HETATM   23  C32 UNL     1      -9.580  43.131 -31.474  1.00  0.00     0.020 C 
ENDROOT
BRANCH   3  24
HETATM   24  O1  UNL     1      -6.566  43.576 -33.736  1.00  0.00    -0.377 OA
HETATM   25  H2  UNL     1      -6.393  43.252 -34.639  1.00  0.00     0.211 HD
ENDBRANCH   3  24
BRANCH  13  26
HETATM   26  O2  UNL     1      -3.845  49.438 -26.646  1.00  0.00    -0.271 OA
BRANCH  26  27
HETATM   27  C13 UNL     1      -2.647  49.002 -26.007  1.00  0.00     0.303 C 
BRANCH  27  28
HETATM   28  C14 UNL     1      -2.701  49.578 -24.604  1.00  0.00     0.244 C 
HETATM   29  O3  UNL     1      -3.091  48.940 -23.632  1.00  0.00    -0.271 OA
HETATM   30  N2  UNL     1      -2.313  50.901 -24.541  1.00  0.00    -0.346 N 
HETATM   31  H16 UNL     1      -2.079  51.376 -25.410  1.00  0.00     0.163 HD
BRANCH  30  32
HETATM   32  C15 UNL     1      -2.467  51.729 -23.338  1.00  0.00     0.180 C 
BRANCH  32  33
HETATM   33  C16 UNL     1      -1.517  51.158 -22.253  1.00  0.00     0.241 C 
HETATM   34  O4  UNL     1      -1.096  50.004 -22.251  1.00  0.00    -0.271 OA
HETATM   35  N3  UNL     1      -1.265  52.057 -21.226  1.00  0.00    -0.353 N 
HETATM   36  H18 UNL     1      -1.649  52.984 -21.381  1.00  0.00     0.163 HD
BRANCH  35  37
HETATM   37  C17 UNL     1      -0.081  51.945 -20.375  1.00  0.00     0.103 C 
BRANCH  37  38
HETATM   38  C18 UNL     1      -0.444  51.178 -19.086  1.00  0.00     0.096 C 
BRANCH  38  39
HETATM   39  S1  UNL     1      -2.143  51.450 -18.505  1.00  0.00    -0.180 SA
HETATM   40  H22 UNL     1      -2.759  50.722 -19.453  1.00  0.00     0.101 HD
ENDBRANCH  38  39
ENDBRANCH  37  38
BRANCH  37  41
HETATM   41  C19 UNL     1       0.534  53.338 -20.151  1.00  0.00     0.136 C 
BRANCH  41  42
HETATM   42  C20 UNL     1       1.269  53.843 -21.362  1.00  0.00     0.141 C 
HETATM   43  O5  UNL     1       2.182  54.652 -21.358  1.00  0.00    -0.650 OA
BRANCH  42  44
HETATM   44  O6  UNL     1       0.809  53.312 -22.514  1.00  0.00    -0.776 OA
HETATM   45  H25 UNL     1       1.304  53.797 -23.223  1.00  0.00     0.167 HD
ENDBRANCH  42  44
ENDBRANCH  41  42
ENDBRANCH  37  41
ENDBRANCH  35  37
ENDBRANCH  32  33
BRANCH  32  46
HETATM   46  C21 UNL     1      -3.932  51.807 -22.862  1.00  0.00     0.009 C 
HETATM   47  C22 UNL     1      -4.895  51.838 -24.053  1.00  0.00     0.012 C 
HETATM   48  C23 UNL     1      -4.318  50.669 -21.907  1.00  0.00     0.012 C 
ENDBRANCH  32  46
ENDBRANCH  30  32
ENDBRANCH  27  28
ENDBRANCH  26  27
ENDBRANCH  13  26
TORSDOF 13
ENDMDL
MODEL 6
REMARK minimizedAffinity -8.66089725
REMARK CNNscore 0.276110739
REMARK CNNaffinity 6.56082916
REMARK  13 active torsions:
REMARK  status: ('A' for Active; 'I' for Inactive)
REMARK    1  A    between atoms: C3_3  and  O1_4 
REMARK    2  A    between atoms: N1_14  and  O2_16 
REMARK    3  A    between atoms: O2_16  and  C13_17 
REMARK    4  A    between atoms: C13_17  and  C14_18 
REMARK       I    between atoms: C14_18  and  N2_20 
REMARK    5  A    between atoms: N2_20  and  C15_21 
REMARK    6  A    between atoms: C15_21  and  C16_22 
REMARK    7  A    between atoms: C15_21  and  C21_32 
REMARK       I    between atoms: C16_22  and  N3_24 
REMARK    8  A    between atoms: N3_24  and  C17_25 
REMARK    9  A    between atoms: C17_25  and  C18_26 
REMARK   10  A    between atoms: C17_25  and  C19_28 
REMARK   11  A    between atoms: C18_26  and  S1_27 
REMARK   12  A    between atoms: C19_28  and  C20_29 
REMARK   13  A    between atoms: C20_29  and  O6_31 
ROOT
HETATM    1  C1  UNL     1     -15.774  44.454 -25.873  1.00  0.00     0.015 C 
HETATM    2  C2  UNL     1     -14.729  44.248 -26.433  1.00  0.00    -0.078 C 
HETATM    3  C3  UNL     1     -13.467  43.950 -27.134  1.00  0.00     0.128 C 
HETATM    4  C4  UNL     1     -13.614  42.719 -28.043  1.00  0.00     0.052 C 
HETATM    5  C5  UNL     1     -12.367  42.788 -28.910  1.00  0.00     0.010 C 
HETATM    6  C6  UNL     1     -12.220  44.286 -29.232  1.00  0.00     0.002 C 
HETATM    7  C7  UNL     1     -10.791  44.770 -29.567  1.00  0.00    -0.004 C 
HETATM    8  C8  UNL     1      -9.648  44.217 -28.692  1.00  0.00     0.010 C 
HETATM    9  C9  UNL     1      -8.554  45.214 -28.294  1.00  0.00     0.035 C 
HETATM   10  C10 UNL     1      -8.251  46.345 -29.248  1.00  0.00    -0.069 C 
HETATM   11  C11 UNL     1      -7.064  46.972 -29.185  1.00  0.00     0.030 C 
HETATM   12  C12 UNL     1      -6.769  48.186 -30.004  1.00  0.00     0.032 C 
HETATM   13  N1  UNL     1      -5.588  48.706 -30.173  1.00  0.00    -0.271 N 
ATOM     14  H1  UNL     1      -5.409  49.572 -30.682  1.00  0.00     0.194 HD
HETATM   15  C24 UNL     1      -7.926  48.880 -30.705  1.00  0.00     0.060 C 
HETATM   16  C25 UNL     1      -9.298  48.353 -30.288  1.00  0.00     0.020 C 
HETATM   17  C26 UNL     1      -9.354  46.804 -30.190  1.00  0.00    -0.016 C 
HETATM   18  C27 UNL     1      -9.070  46.201 -31.594  1.00  0.00     0.020 C 
HETATM   19  C28 UNL     1     -10.758  46.313 -29.682  1.00  0.00     0.002 C 
HETATM   20  C29 UNL     1     -11.257  47.002 -28.384  1.00  0.00     0.007 C 
HETATM   21  C30 UNL     1     -12.016  46.088 -27.415  1.00  0.00     0.014 C 
HETATM   22  C31 UNL     1     -12.958  45.077 -28.101  1.00  0.00     0.003 C 
HETATM   23  C32 UNL     1     -14.135  45.859 -28.746  1.00  0.00     0.020 C 
ENDROOT
BRANCH   3  24
HETATM   24  O1  UNL     1     -12.472  43.649 -26.147  1.00  0.00    -0.377 OA
HETATM   25  H2  UNL     1     -12.838  42.946 -25.579  1.00  0.00     0.211 HD
ENDBRANCH   3  24
BRANCH  13  26
HETATM   26  O2  UNL     1      -4.593  47.924 -29.566  1.00  0.00    -0.271 OA
BRANCH  26  27
HETATM   27  C13 UNL     1      -4.651  48.100 -28.152  1.00  0.00     0.303 C 
BRANCH  27  28
HETATM   28  C14 UNL     1      -3.999  49.443 -27.882  1.00  0.00     0.244 C 
HETATM   29  O3  UNL     1      -3.481  50.126 -28.759  1.00  0.00    -0.271 OA
HETATM   30  N2  UNL     1      -4.003  49.795 -26.547  1.00  0.00    -0.346 N 
HETATM   31  H16 UNL     1      -4.384  49.132 -25.876  1.00  0.00     0.163 HD
BRANCH  30  32
HETATM   32  C15 UNL     1      -3.263  50.946 -26.014  1.00  0.00     0.180 C 
BRANCH  32  33
HETATM   33  C16 UNL     1      -1.755  50.691 -26.269  1.00  0.00     0.241 C 
HETATM   34  O4  UNL     1      -1.221  49.589 -26.170  1.00  0.00    -0.271 OA
HETATM   35  N3  UNL     1      -1.045  51.855 -26.528  1.00  0.00    -0.353 N 
HETATM   36  H18 UNL     1      -1.624  52.684 -26.616  1.00  0.00     0.163 HD
BRANCH  35  37
HETATM   37  C17 UNL     1       0.232  51.839 -27.241  1.00  0.00     0.103 C 
BRANCH  37  38
HETATM   38  C18 UNL     1       1.391  51.890 -26.223  1.00  0.00     0.096 C 
BRANCH  38  39
HETATM   39  S1  UNL     1       0.948  52.621 -24.621  1.00  0.00    -0.180 SA
HETATM   40  H22 UNL     1       0.216  51.589 -24.166  1.00  0.00     0.101 HD
ENDBRANCH  38  39
ENDBRANCH  37  38
BRANCH  37  41
HETATM   41  C19 UNL     1       0.250  52.951 -28.304  1.00  0.00     0.136 C 
BRANCH  41  42
HETATM   42  C20 UNL     1      -0.611  54.123 -27.923  1.00  0.00     0.141 C 
HETATM   43  O5  UNL     1      -0.285  55.043 -27.190  1.00  0.00    -0.650 OA
BRANCH  42  44
HETATM   44  O6  UNL     1      -1.842  54.071 -28.475  1.00  0.00    -0.776 OA
HETATM   45  H25 UNL     1      -2.326  54.836 -28.069  1.00  0.00     0.167 HD
ENDBRANCH  42  44
ENDBRANCH  41  42
ENDBRANCH  37  41
ENDBRANCH  35  37
ENDBRANCH  32  33
BRANCH  32  46
HETATM   46  C21 UNL     1      -3.578  51.208 -24.527  1.00  0.00     0.009 C 
HETATM   47  C22 UNL     1      -3.075  50.059 -23.648  1.00  0.00     0.012 C 
HETATM   48  C23 UNL     1      -3.012  52.541 -24.017  1.00  0.00     0.012 C 
ENDBRANCH  32  46
ENDBRANCH  30  32
ENDBRANCH  27  28
ENDBRANCH  26  27
ENDBRANCH  13  26
TORSDOF 13
ENDMDL
MODEL 7
REMARK minimizedAffinity -7.40521717
REMARK CNNscore 0.200501174
REMARK CNNaffinity 5.90500116
REMARK  13 active torsions:
REMARK  status: ('A' for Active; 'I' for Inactive)
REMARK    1  A    between atoms: C3_3  and  O1_4 
REMARK    2  A    between atoms: N1_14  and  O2_16 
REMARK    3  A    between atoms: O2_16  and  C13_17 
REMARK    4  A    between atoms: C13_17  and  C14_18 
REMARK       I    between atoms: C14_18  and  N2_20 
REMARK    5  A    between atoms: N2_20  and  C15_21 
REMARK    6  A    between atoms: C15_21  and  C16_22 
REMARK    7  A    between atoms: C15_21  and  C21_32 
REMARK       I    between atoms: C16_22  and  N3_24 
REMARK    8  A    between atoms: N3_24  and  C17_25 
REMARK    9  A    between atoms: C17_25  and  C18_26 
REMARK   10  A    between atoms: C17_25  and  C19_28 
REMARK   11  A    between atoms: C18_26  and  S1_27 
REMARK   12  A    between atoms: C19_28  and  C20_29 
REMARK   13  A    between atoms: C20_29  and  O6_31 
ROOT
HETATM    1  C1  UNL     1      -0.268  52.460 -24.237  1.00  0.00     0.015 C 
HETATM    2  C2  UNL     1      -1.237  51.763 -24.390  1.00  0.00    -0.078 C 
HETATM    3  C3  UNL     1      -2.404  50.894 -24.621  1.00  0.00     0.128 C 
HETATM    4  C4  UNL     1      -2.142  49.907 -25.770  1.00  0.00     0.052 C 
HETATM    5  C5  UNL     1      -3.277  48.905 -25.621  1.00  0.00     0.010 C 
HETATM    6  C6  UNL     1      -3.394  48.699 -24.101  1.00  0.00     0.002 C 
HETATM    7  C7  UNL     1      -4.775  48.237 -23.584  1.00  0.00    -0.004 C 
HETATM    8  C8  UNL     1      -6.011  48.919 -24.205  1.00  0.00     0.010 C 
HETATM    9  C9  UNL     1      -7.151  49.268 -23.242  1.00  0.00     0.035 C 
HETATM   10  C10 UNL     1      -7.345  48.385 -22.032  1.00  0.00    -0.069 C 
HETATM   11  C11 UNL     1      -8.535  48.359 -21.407  1.00  0.00     0.030 C 
HETATM   12  C12 UNL     1      -8.737  47.618 -20.126  1.00  0.00     0.032 C 
HETATM   13  N1  UNL     1      -9.893  47.354 -19.588  1.00  0.00    -0.271 N 
ATOM     14  H1  UNL     1     -10.015  46.903 -18.681  1.00  0.00     0.194 HD
HETATM   15  C24 UNL     1      -7.509  47.122 -19.379  1.00  0.00     0.060 C 
HETATM   16  C25 UNL     1      -6.194  47.654 -19.946  1.00  0.00     0.020 C 
HETATM   17  C26 UNL     1      -6.141  47.624 -21.497  1.00  0.00    -0.016 C 
HETATM   18  C27 UNL     1      -6.251  46.150 -21.977  1.00  0.00     0.020 C 
HETATM   19  C28 UNL     1      -4.804  48.252 -22.037  1.00  0.00     0.002 C 
HETATM   20  C29 UNL     1      -4.468  49.655 -21.464  1.00  0.00     0.007 C 
HETATM   21  C30 UNL     1      -3.824  50.626 -22.461  1.00  0.00     0.014 C 
HETATM   22  C31 UNL     1      -2.801  49.973 -23.413  1.00  0.00     0.003 C 
HETATM   23  C32 UNL     1      -1.560  49.543 -22.584  1.00  0.00     0.020 C 
ENDROOT
BRANCH   3  24
HETATM   24  O1  UNL     1      -3.509  51.725 -25.002  1.00  0.00    -0.377 OA
HETATM   25  H2  UNL     1      -3.209  52.270 -25.752  1.00  0.00     0.211 HD
ENDBRANCH   3  24
BRANCH  13  26
HETATM   26  O2  UNL     1     -10.948  47.769 -20.415  1.00  0.00    -0.271 OA
BRANCH  26  27
HETATM   27  C13 UNL     1     -11.939  46.744 -20.467  1.00  0.00     0.303 C 
BRANCH  27  28
HETATM   28  C14 UNL     1     -12.950  47.208 -21.500  1.00  0.00     0.244 C 
HETATM   29  O3  UNL     1     -13.882  47.960 -21.236  1.00  0.00    -0.271 OA
HETATM   30  N2  UNL     1     -12.745  46.660 -22.749  1.00  0.00    -0.346 N 
HETATM   31  H16 UNL     1     -11.994  45.982 -22.860  1.00  0.00     0.163 HD
BRANCH  30  32
HETATM   32  C15 UNL     1     -13.699  46.799 -23.857  1.00  0.00     0.180 C 
BRANCH  32  33
HETATM   33  C16 UNL     1     -14.963  45.979 -23.492  1.00  0.00     0.241 C 
HETATM   34  O4  UNL     1     -15.012  44.751 -23.512  1.00  0.00    -0.271 OA
HETATM   35  N3  UNL     1     -16.069  46.776 -23.232  1.00  0.00    -0.353 N 
HETATM   36  H18 UNL     1     -15.870  47.771 -23.215  1.00  0.00     0.163 HD
BRANCH  35  37
HETATM   37  C17 UNL     1     -17.197  46.294 -22.435  1.00  0.00     0.103 C 
BRANCH  37  38
HETATM   38  C18 UNL     1     -16.679  45.358 -21.321  1.00  0.00     0.096 C 
BRANCH  38  39
HETATM   39  S1  UNL     1     -17.816  44.012 -20.886  1.00  0.00    -0.180 SA
HETATM   40  H22 UNL     1     -17.625  43.271 -21.992  1.00  0.00     0.101 HD
ENDBRANCH  38  39
ENDBRANCH  37  38
BRANCH  37  41
HETATM   41  C19 UNL     1     -18.262  45.679 -23.358  1.00  0.00     0.136 C 
BRANCH  41  42
HETATM   42  C20 UNL     1     -18.441  46.459 -24.630  1.00  0.00     0.141 C 
HETATM   43  O5  UNL     1     -19.158  47.436 -24.776  1.00  0.00    -0.650 OA
BRANCH  42  44
HETATM   44  O6  UNL     1     -17.716  45.964 -25.655  1.00  0.00    -0.776 OA
HETATM   45  H25 UNL     1     -18.000  46.501 -26.439  1.00  0.00     0.167 HD
ENDBRANCH  42  44
ENDBRANCH  41  42
ENDBRANCH  37  41
ENDBRANCH  35  37
ENDBRANCH  32  33
BRANCH  32  46
HETATM   46  C21 UNL     1     -13.091  46.381 -25.212  1.00  0.00     0.009 C 
HETATM   47  C22 UNL     1     -13.892  46.968 -26.378  1.00  0.00     0.012 C 
HETATM   48  C23 UNL     1     -11.611  46.761 -25.352  1.00  0.00     0.012 C 
ENDBRANCH  32  46
ENDBRANCH  30  32
ENDBRANCH  27  28
ENDBRANCH  26  27
ENDBRANCH  13  26
TORSDOF 13
ENDMDL
MODEL 8
REMARK minimizedAffinity -9.26684761
REMARK CNNscore 0.17594716
REMARK CNNaffinity 6.45902109
REMARK  13 active torsions:
REMARK  status: ('A' for Active; 'I' for Inactive)
REMARK    1  A    between atoms: C3_3  and  O1_4 
REMARK    2  A    between atoms: N1_14  and  O2_16 
REMARK    3  A    between atoms: O2_16  and  C13_17 
REMARK    4  A    between atoms: C13_17  and  C14_18 
REMARK       I    between atoms: C14_18  and  N2_20 
REMARK    5  A    between atoms: N2_20  and  C15_21 
REMARK    6  A    between atoms: C15_21  and  C16_22 
REMARK    7  A    between atoms: C15_21  and  C21_32 
REMARK       I    between atoms: C16_22  and  N3_24 
REMARK    8  A    between atoms: N3_24  and  C17_25 
REMARK    9  A    between atoms: C17_25  and  C18_26 
REMARK   10  A    between atoms: C17_25  and  C19_28 
REMARK   11  A    between atoms: C18_26  and  S1_27 
REMARK   12  A    between atoms: C19_28  and  C20_29 
REMARK   13  A    between atoms: C20_29  and  O6_31 
ROOT
HETATM    1  C1  UNL     1       0.793  50.680 -16.550  1.00  0.00     0.015 C 
HETATM    2  C2  UNL     1      -0.074  50.322 -17.303  1.00  0.00    -0.078 C 
HETATM    3  C3  UNL     1      -1.167  49.878 -18.187  1.00  0.00     0.128 C 
HETATM    4  C4  UNL     1      -2.519  49.911 -17.456  1.00  0.00     0.052 C 
HETATM    5  C5  UNL     1      -3.521  49.769 -18.592  1.00  0.00     0.010 C 
HETATM    6  C6  UNL     1      -2.941  50.652 -19.712  1.00  0.00     0.002 C 
HETATM    7  C7  UNL     1      -3.358  50.279 -21.152  1.00  0.00    -0.004 C 
HETATM    8  C8  UNL     1      -3.374  48.778 -21.504  1.00  0.00     0.010 C 
HETATM    9  C9  UNL     1      -2.837  48.398 -22.888  1.00  0.00     0.035 C 
HETATM   10  C10 UNL     1      -2.995  49.403 -24.004  1.00  0.00    -0.069 C 
HETATM   11  C11 UNL     1      -2.954  48.993 -25.284  1.00  0.00     0.030 C 
HETATM   12  C12 UNL     1      -2.959  49.960 -26.423  1.00  0.00     0.032 C 
HETATM   13  N1  UNL     1      -3.153  49.645 -27.671  1.00  0.00    -0.271 N 
ATOM     14  H1  UNL     1      -3.091  50.305 -28.446  1.00  0.00     0.194 HD
HETATM   15  C24 UNL     1      -2.726  51.431 -26.119  1.00  0.00     0.060 C 
HETATM   16  C25 UNL     1      -2.290  51.696 -24.679  1.00  0.00     0.020 C 
HETATM   17  C26 UNL     1      -3.096  50.876 -23.636  1.00  0.00    -0.016 C 
HETATM   18  C27 UNL     1      -4.592  51.291 -23.716  1.00  0.00     0.020 C 
HETATM   19  C28 UNL     1      -2.561  51.121 -22.178  1.00  0.00     0.002 C 
HETATM   20  C29 UNL     1      -1.029  50.942 -22.010  1.00  0.00     0.007 C 
HETATM   21  C30 UNL     1      -0.591  50.303 -20.686  1.00  0.00     0.014 C 
HETATM   22  C31 UNL     1      -1.401  50.769 -19.458  1.00  0.00     0.003 C 
HETATM   23  C32 UNL     1      -1.068  52.262 -19.185  1.00  0.00     0.020 C 
ENDROOT
BRANCH   3  24
HETATM   24  O1  UNL     1      -0.908  48.521 -18.568  1.00  0.00    -0.377 OA
HETATM   25  H2  UNL     1      -0.772  48.015 -17.745  1.00  0.00     0.211 HD
ENDBRANCH   3  24
BRANCH  13  26
HETATM   26  O2  UNL     1      -3.458  48.282 -27.813  1.00  0.00    -0.271 OA
BRANCH  26  27
HETATM   27  C13 UNL     1      -4.865  48.096 -27.682  1.00  0.00     0.303 C 
BRANCH  27  28
HETATM   28  C14 UNL     1      -5.425  48.224 -29.087  1.00  0.00     0.244 C 
HETATM   29  O3  UNL     1      -4.743  48.544 -30.055  1.00  0.00    -0.271 OA
HETATM   30  N2  UNL     1      -6.784  47.992 -29.158  1.00  0.00    -0.346 N 
HETATM   31  H16 UNL     1      -7.286  47.809 -28.292  1.00  0.00     0.163 HD
BRANCH  30  32
HETATM   32  C15 UNL     1      -7.583  48.246 -30.363  1.00  0.00     0.180 C 
BRANCH  32  33
HETATM   33  C16 UNL     1      -9.075  48.059 -29.983  1.00  0.00     0.241 C 
HETATM   34  O4  UNL     1     -10.011  48.505 -30.643  1.00  0.00    -0.271 OA
HETATM   35  N3  UNL     1      -9.247  47.419 -28.763  1.00  0.00    -0.353 N 
HETATM   36  H18 UNL     1      -8.387  47.075 -28.349  1.00  0.00     0.163 HD
BRANCH  35  37
HETATM   37  C17 UNL     1     -10.490  46.726 -28.424  1.00  0.00     0.103 C 
BRANCH  37  38
HETATM   38  C18 UNL     1     -10.422  45.269 -28.929  1.00  0.00     0.096 C 
BRANCH  38  39
HETATM   39  S1  UNL     1     -11.617  44.874 -30.238  1.00  0.00    -0.180 SA
HETATM   40  H22 UNL     1     -11.006  45.547 -31.228  1.00  0.00     0.101 HD
ENDBRANCH  38  39
ENDBRANCH  37  38
BRANCH  37  41
HETATM   41  C19 UNL     1     -11.694  47.536 -28.934  1.00  0.00     0.136 C 
BRANCH  41  42
HETATM   42  C20 UNL     1     -12.718  47.781 -27.862  1.00  0.00     0.141 C 
HETATM   43  O5  UNL     1     -13.609  47.013 -27.534  1.00  0.00    -0.650 OA
BRANCH  42  44
HETATM   44  O6  UNL     1     -12.576  48.983 -27.266  1.00  0.00    -0.776 OA
HETATM   45  H25 UNL     1     -13.360  49.054 -26.662  1.00  0.00     0.167 HD
ENDBRANCH  42  44
ENDBRANCH  41  42
ENDBRANCH  37  41
ENDBRANCH  35  37
ENDBRANCH  32  33
BRANCH  32  46
HETATM   46  C21 UNL     1      -7.157  47.356 -31.549  1.00  0.00     0.009 C 
HETATM   47  C22 UNL     1      -7.605  45.907 -31.337  1.00  0.00     0.012 C 
HETATM   48  C23 UNL     1      -7.670  47.869 -32.902  1.00  0.00     0.012 C 
ENDBRANCH  32  46
ENDBRANCH  30  32
ENDBRANCH  27  28
ENDBRANCH  26  27
ENDBRANCH  13  26
TORSDOF 13
ENDMDL
MODEL 9
REMARK minimizedAffinity -7.47406769
REMARK CNNscore 0.155714795
REMARK CNNaffinity 6.48568392
REMARK  13 active torsions:
REMARK  status: ('A' for Active; 'I' for Inactive)
REMARK    1  A    between atoms: C3_3  and  O1_4 
REMARK    2  A    between atoms: N1_14  and  O2_16 
REMARK    3  A    between atoms: O2_16  and  C13_17 
REMARK    4  A    between atoms: C13_17  and  C14_18 
REMARK       I    between atoms: C14_18  and  N2_20 
REMARK    5  A    between atoms: N2_20  and  C15_21 
REMARK    6  A    between atoms: C15_21  and  C16_22 
REMARK    7  A    between atoms: C15_21  and  C21_32 
REMARK       I    between atoms: C16_22  and  N3_24 
REMARK    8  A    between atoms: N3_24  and  C17_25 
REMARK    9  A    between atoms: C17_25  and  C18_26 
REMARK   10  A    between atoms: C17_25  and  C19_28 
REMARK   11  A    between atoms: C18_26  and  S1_27 
REMARK   12  A    between atoms: C19_28  and  C20_29 
REMARK   13  A    between atoms: C20_29  and  O6_31 
ROOT
HETATM    1  C1  UNL     1       0.017  55.548 -26.984  1.00  0.00     0.015 C 
HETATM    2  C2  UNL     1      -0.249  54.375 -26.959  1.00  0.00    -0.078 C 
HETATM    3  C3  UNL     1      -0.527  52.928 -26.939  1.00  0.00     0.128 C 
HETATM    4  C4  UNL     1       0.777  52.113 -26.952  1.00  0.00     0.052 C 
HETATM    5  C5  UNL     1       0.305  50.715 -26.582  1.00  0.00     0.010 C 
HETATM    6  C6  UNL     1      -0.741  50.955 -25.479  1.00  0.00     0.002 C 
HETATM    7  C7  UNL     1      -1.812  49.854 -25.309  1.00  0.00    -0.004 C 
HETATM    8  C8  UNL     1      -2.411  49.265 -26.602  1.00  0.00     0.010 C 
HETATM    9  C9  UNL     1      -3.920  48.998 -26.591  1.00  0.00     0.035 C 
HETATM   10  C10 UNL     1      -4.563  48.647 -25.271  1.00  0.00    -0.069 C 
HETATM   11  C11 UNL     1      -5.740  47.997 -25.253  1.00  0.00     0.030 C 
HETATM   12  C12 UNL     1      -6.488  47.754 -23.983  1.00  0.00     0.032 C 
HETATM   13  N1  UNL     1      -7.499  46.945 -23.852  1.00  0.00    -0.271 N 
ATOM     14  H1  UNL     1      -8.041  46.836 -22.994  1.00  0.00     0.194 HD
HETATM   15  C24 UNL     1      -6.045  48.498 -22.733  1.00  0.00     0.060 C 
HETATM   16  C25 UNL     1      -5.006  49.585 -23.005  1.00  0.00     0.020 C 
HETATM   17  C26 UNL     1      -3.896  49.136 -23.994  1.00  0.00    -0.016 C 
HETATM   18  C27 UNL     1      -3.119  47.944 -23.370  1.00  0.00     0.020 C 
HETATM   19  C28 UNL     1      -2.897  50.309 -24.305  1.00  0.00     0.002 C 
HETATM   20  C29 UNL     1      -3.571  51.637 -24.741  1.00  0.00     0.007 C 
HETATM   21  C30 UNL     1      -2.819  52.422 -25.823  1.00  0.00     0.014 C 
HETATM   22  C31 UNL     1      -1.284  52.410 -25.665  1.00  0.00     0.003 C 
HETATM   23  C32 UNL     1      -0.913  53.231 -24.400  1.00  0.00     0.020 C 
ENDROOT
BRANCH   3  24
HETATM   24  O1  UNL     1      -1.260  52.600 -28.126  1.00  0.00    -0.377 OA
HETATM   25  H2  UNL     1      -0.747  52.940 -28.881  1.00  0.00     0.211 HD
ENDBRANCH   3  24
BRANCH  13  26
HETATM   26  O2  UNL     1      -7.748  46.242 -25.041  1.00  0.00    -0.271 OA
BRANCH  26  27
HETATM   27  C13 UNL     1      -9.137  45.931 -25.124  1.00  0.00     0.303 C 
BRANCH  27  28
HETATM   28  C14 UNL     1      -9.487  46.019 -26.598  1.00  0.00     0.244 C 
HETATM   29  O3  UNL     1      -8.750  45.607 -27.488  1.00  0.00    -0.271 OA
HETATM   30  N2  UNL     1     -10.690  46.651 -26.838  1.00  0.00    -0.346 N 
HETATM   31  H16 UNL     1     -11.200  47.032 -26.045  1.00  0.00     0.163 HD
BRANCH  30  32
HETATM   32  C15 UNL     1     -11.148  47.029 -28.181  1.00  0.00     0.180 C 
BRANCH  32  33
HETATM   33  C16 UNL     1     -11.497  45.724 -28.942  1.00  0.00     0.241 C 
HETATM   34  O4  UNL     1     -12.546  45.551 -29.558  1.00  0.00    -0.271 OA
HETATM   35  N3  UNL     1     -10.545  44.728 -28.775  1.00  0.00    -0.353 N 
HETATM   36  H18 UNL     1      -9.715  45.026 -28.273  1.00  0.00     0.163 HD
BRANCH  35  37
HETATM   37  C17 UNL     1     -10.404  43.628 -29.728  1.00  0.00     0.103 C 
BRANCH  37  38
HETATM   38  C18 UNL     1     -11.522  42.591 -29.487  1.00  0.00     0.096 C 
BRANCH  38  39
HETATM   39  S1  UNL     1     -10.924  40.914 -29.129  1.00  0.00    -0.180 SA
HETATM   40  H22 UNL     1     -10.488  41.158 -27.881  1.00  0.00     0.101 HD
ENDBRANCH  38  39
ENDBRANCH  37  38
BRANCH  37  41
HETATM   41  C19 UNL     1      -8.974  43.067 -29.669  1.00  0.00     0.136 C 
BRANCH  41  42
HETATM   42  C20 UNL     1      -8.018  43.835 -30.538  1.00  0.00     0.141 C 
HETATM   43  O5  UNL     1      -7.046  44.465 -30.151  1.00  0.00    -0.650 OA
BRANCH  42  44
HETATM   44  O6  UNL     1      -8.341  43.782 -31.847  1.00  0.00    -0.776 OA
HETATM   45  H25 UNL     1      -7.700  44.400 -32.284  1.00  0.00     0.167 HD
ENDBRANCH  42  44
ENDBRANCH  41  42
ENDBRANCH  37  41
ENDBRANCH  35  37
ENDBRANCH  32  33
BRANCH  32  46
HETATM   46  C21 UNL     1     -10.114  47.895 -28.931  1.00  0.00     0.009 C 
HETATM   47  C22 UNL     1      -9.018  48.388 -27.982  1.00  0.00     0.012 C 
HETATM   48  C23 UNL     1      -9.481  47.175 -30.130  1.00  0.00     0.012 C 
ENDBRANCH  32  46
ENDBRANCH  30  32
ENDBRANCH  27  28
ENDBRANCH  26  27
ENDBRANCH  13  26
TORSDOF 13
ENDMDL
