MODEL 1
REMARK minimizedAffinity -6.86914492
REMARK CNNscore 0.779872894
REMARK CNNaffinity 6.69662619
REMARK  6 active torsions:
REMARK  status: ('A' for Active; 'I' for Inactive)
REMARK    1  A    between atoms: C2_2  and  O2_4 
REMARK    2  A    between atoms: O2_4  and  C3_5 
REMARK    3  A    between atoms: C19_23  and  C20_24 
REMARK    4  A    between atoms: C26_32  and  O7_33 
REMARK    5  A    between atoms: C27_34  and  C28_35 
REMARK    6  A    between atoms: C31_40  and  O10_41 
ROOT
HETATM    1  C3  UNL     1       7.316  55.727  -3.755  1.00  0.00     0.201 C 
HETATM    2  C4  UNL     1       8.386  56.529  -2.996  1.00  0.00     0.070 C 
HETATM    3  C5  UNL     1       8.159  58.042  -3.075  1.00  0.00     0.123 C 
HETATM    4  C6  UNL     1       9.449  58.807  -2.807  1.00  0.00     0.040 C 
HETATM    5  O3  UNL     1       7.694  58.399  -4.372  1.00  0.00    -0.351 OA
HETATM    6  C7  UNL     1       6.372  57.917  -4.660  1.00  0.00     0.325 C 
HETATM    7  O4  UNL     1       6.231  57.937  -6.084  1.00  0.00    -0.347 OA
HETATM    8  C8  UNL     1       5.355  56.952  -6.631  1.00  0.00     0.158 C 
HETATM    9  C9  UNL     1       4.653  57.567  -7.843  1.00  0.00     0.069 C 
HETATM   10  C10 UNL     1       3.646  56.623  -8.460  1.00  0.00    -0.065 C 
HETATM   11  C11 UNL     1       3.684  56.345  -9.776  1.00  0.00    -0.022 C 
HETATM   12  C12 UNL     1       2.713  55.448 -10.485  1.00  0.00     0.035 C 
HETATM   13  C13 UNL     1       1.445  55.153  -9.659  1.00  0.00     0.030 C 
HETATM   14  C14 UNL     1       1.840  54.821  -8.198  1.00  0.00     0.012 C 
HETATM   15  C15 UNL     1       0.658  54.281  -7.369  1.00  0.00     0.007 C 
HETATM   16  C16 UNL     1      -0.697  54.449  -8.043  1.00  0.00     0.013 C 
HETATM   17  C17 UNL     1      -0.817  53.914  -9.505  1.00  0.00    -0.005 C 
HETATM   18  C18 UNL     1      -1.986  54.715 -10.132  1.00  0.00     0.019 C 
HETATM   19  C19 UNL     1      -1.094  52.370  -9.513  1.00  0.00     0.028 C 
HETATM   20  C24 UNL     1       0.297  51.728  -9.546  1.00  0.00     0.013 C 
HETATM   21  C25 UNL     1       1.174  52.663 -10.364  1.00  0.00     0.040 C 
HETATM   22  C26 UNL     1       0.533  54.071 -10.295  1.00  0.00     0.070 C 
HETATM   23  C27 UNL     1       2.619  56.003  -7.513  1.00  0.00     0.043 C 
HETATM   24  C29 UNL     1       3.336  55.467  -6.247  1.00  0.00     0.056 C 
HETATM   25  C30 UNL     1       4.332  56.445  -5.613  1.00  0.00     0.156 C 
HETATM   26  O9  UNL     1       5.031  55.741  -4.581  1.00  0.00    -0.341 OA
HETATM   27  C31 UNL     1       6.023  56.551  -3.941  1.00  0.00     0.241 C 
ENDROOT
BRANCH  19  28
HETATM   28  C20 UNL     1      -1.980  51.840 -10.615  1.00  0.00    -0.045 A 
HETATM   29  C21 UNL     1      -1.709  51.636 -11.905  1.00  0.00     0.087 A 
HETATM   30  C22 UNL     1      -2.923  51.102 -12.520  1.00  0.00     0.283 A 
HETATM   31  O5  UNL     1      -3.030  50.804 -13.696  1.00  0.00    -0.260 OA
HETATM   32  O6  UNL     1      -3.892  50.986 -11.574  1.00  0.00    -0.314 OA
HETATM   33  C23 UNL     1      -3.380  51.444 -10.324  1.00  0.00     0.213 A 
ENDBRANCH  19  28
BRANCH  22  34
HETATM   34  O7  UNL     1       0.238  54.471 -11.640  1.00  0.00    -0.389 OA
HETATM   35  H35 UNL     1       1.025  54.338 -12.195  1.00  0.00     0.210 HD
ENDBRANCH  22  34
BRANCH  23  36
HETATM   36  C28 UNL     1       1.638  57.131  -7.154  1.00  0.00     0.245 C 
HETATM   37  O8  UNL     1       1.179  57.316  -6.030  1.00  0.00    -0.306 OA
ENDBRANCH  23  36
BRANCH  27  38
HETATM   38  O10 UNL     1       5.500  56.815  -2.627  1.00  0.00    -0.360 OA
HETATM   39  H40 UNL     1       4.616  57.192  -2.770  1.00  0.00     0.213 HD
ENDBRANCH  27  38
BRANCH   1  40
HETATM   40  O2  UNL     1       7.819  55.337  -5.056  1.00  0.00    -0.310 OA
BRANCH  40  41
HETATM   41  C2  UNL     1       7.668  54.029  -5.389  1.00  0.00     0.255 C 
HETATM   42  C1  UNL     1       8.523  53.175  -4.505  1.00  0.00     0.126 C 
HETATM   43  O1  UNL     1       6.934  53.595  -6.263  1.00  0.00    -0.266 OA
ENDBRANCH  40  41
ENDBRANCH   1  40
TORSDOF 6
ENDMDL
MODEL 2
REMARK minimizedAffinity -7.46635151
REMARK CNNscore 0.732347071
REMARK CNNaffinity 6.72153854
REMARK  6 active torsions:
REMARK  status: ('A' for Active; 'I' for Inactive)
REMARK    1  A    between atoms: C2_2  and  O2_4 
REMARK    2  A    between atoms: O2_4  and  C3_5 
REMARK    3  A    between atoms: C19_23  and  C20_24 
REMARK    4  A    between atoms: C26_32  and  O7_33 
REMARK    5  A    between atoms: C27_34  and  C28_35 
REMARK    6  A    between atoms: C31_40  and  O10_41 
ROOT
HETATM    1  C3  UNL     1       6.829  55.550  -4.933  1.00  0.00     0.201 C 
HETATM    2  C4  UNL     1       7.927  56.469  -4.374  1.00  0.00     0.070 C 
HETATM    3  C5  UNL     1       7.580  57.956  -4.507  1.00  0.00     0.123 C 
HETATM    4  C6  UNL     1       8.834  58.820  -4.463  1.00  0.00     0.040 C 
HETATM    5  O3  UNL     1       6.921  58.195  -5.746  1.00  0.00    -0.351 OA
HETATM    6  C7  UNL     1       5.612  57.610  -5.821  1.00  0.00     0.325 C 
HETATM    7  O4  UNL     1       5.282  57.525  -7.211  1.00  0.00    -0.347 OA
HETATM    8  C8  UNL     1       4.416  56.451  -7.576  1.00  0.00     0.158 C 
HETATM    9  C9  UNL     1       3.516  56.938  -8.712  1.00  0.00     0.069 C 
HETATM   10  C10 UNL     1       2.508  55.890  -9.131  1.00  0.00    -0.065 C 
HETATM   11  C11 UNL     1       2.390  55.528 -10.422  1.00  0.00    -0.022 C 
HETATM   12  C12 UNL     1       1.403  54.525 -10.939  1.00  0.00     0.035 C 
HETATM   13  C13 UNL     1       0.282  54.203  -9.930  1.00  0.00     0.030 C 
HETATM   14  C14 UNL     1       0.892  53.994  -8.522  1.00  0.00     0.012 C 
HETATM   15  C15 UNL     1      -0.126  53.434  -7.509  1.00  0.00     0.007 C 
HETATM   16  C16 UNL     1      -1.568  53.467  -7.998  1.00  0.00     0.013 C 
HETATM   17  C17 UNL     1      -1.841  52.830  -9.397  1.00  0.00    -0.005 C 
HETATM   18  C18 UNL     1      -3.140  53.509  -9.902  1.00  0.00     0.019 C 
HETATM   19  C19 UNL     1      -2.002  51.274  -9.279  1.00  0.00     0.028 C 
HETATM   20  C24 UNL     1      -0.584  50.725  -9.468  1.00  0.00     0.013 C 
HETATM   21  C25 UNL     1       0.105  51.659 -10.449  1.00  0.00     0.040 C 
HETATM   22  C26 UNL     1      -0.624  53.023 -10.372  1.00  0.00     0.070 C 
HETATM   23  C27 UNL     1       1.665  55.268  -8.018  1.00  0.00     0.043 C 
HETATM   24  C29 UNL     1       2.583  54.865  -6.834  1.00  0.00     0.056 C 
HETATM   25  C30 UNL     1       3.578  55.947  -6.400  1.00  0.00     0.156 C 
HETATM   26  O9  UNL     1       4.459  55.360  -5.436  1.00  0.00    -0.341 OA
HETATM   27  C31 UNL     1       5.464  56.274  -4.985  1.00  0.00     0.241 C 
ENDROOT
BRANCH  19  28
HETATM   28  C20 UNL     1      -2.985  50.615 -10.217  1.00  0.00    -0.045 A 
HETATM   29  C21 UNL     1      -4.235  50.208  -9.996  1.00  0.00     0.087 A 
HETATM   30  C22 UNL     1      -4.733  49.646 -11.250  1.00  0.00     0.283 A 
HETATM   31  O5  UNL     1      -5.846  49.176 -11.405  1.00  0.00    -0.260 OA
HETATM   32  O6  UNL     1      -3.766  49.744 -12.200  1.00  0.00    -0.314 OA
HETATM   33  C23 UNL     1      -2.608  50.344 -11.627  1.00  0.00     0.213 A 
ENDBRANCH  19  28
BRANCH  22  34
HETATM   34  O7  UNL     1      -1.124  53.313 -11.685  1.00  0.00    -0.389 OA
HETATM   35  H35 UNL     1      -0.411  53.196 -12.334  1.00  0.00     0.210 HD
ENDBRANCH  22  34
BRANCH  23  36
HETATM   36  C28 UNL     1       0.660  56.350  -7.592  1.00  0.00     0.245 C 
HETATM   37  O8  UNL     1      -0.558  56.251  -7.718  1.00  0.00    -0.306 OA
ENDBRANCH  23  36
BRANCH  27  38
HETATM   38  O10 UNL     1       5.103  56.589  -3.629  1.00  0.00    -0.360 OA
HETATM   39  H40 UNL     1       4.183  56.897  -3.670  1.00  0.00     0.213 HD
ENDBRANCH  27  38
BRANCH   1  40
HETATM   40  O2  UNL     1       7.181  55.110  -6.266  1.00  0.00    -0.310 OA
BRANCH  40  41
HETATM   41  C2  UNL     1       6.988  53.792  -6.531  1.00  0.00     0.255 C 
HETATM   42  C1  UNL     1       6.486  53.620  -7.932  1.00  0.00     0.126 C 
HETATM   43  O1  UNL     1       7.206  52.869  -5.762  1.00  0.00    -0.266 OA
ENDBRANCH  40  41
ENDBRANCH   1  40
TORSDOF 6
ENDMDL
MODEL 3
REMARK minimizedAffinity -7.67763567
REMARK CNNscore 0.613019049
REMARK CNNaffinity 6.33611727
REMARK  6 active torsions:
REMARK  status: ('A' for Active; 'I' for Inactive)
REMARK    1  A    between atoms: C2_2  and  O2_4 
REMARK    2  A    between atoms: O2_4  and  C3_5 
REMARK    3  A    between atoms: C19_23  and  C20_24 
REMARK    4  A    between atoms: C26_32  and  O7_33 
REMARK    5  A    between atoms: C27_34  and  C28_35 
REMARK    6  A    between atoms: C31_40  and  O10_41 
ROOT
HETATM    1  C3  UNL     1       8.125  54.341  -4.084  1.00  0.00     0.201 C 
HETATM    2  C4  UNL     1       9.527  54.781  -3.628  1.00  0.00     0.070 C 
HETATM    3  C5  UNL     1      10.013  56.046  -4.343  1.00  0.00     0.123 C 
HETATM    4  C6  UNL     1      11.532  56.155  -4.298  1.00  0.00     0.040 C 
HETATM    5  O3  UNL     1       9.612  56.020  -5.709  1.00  0.00    -0.351 OA
HETATM    6  C7  UNL     1       8.192  56.141  -5.892  1.00  0.00     0.325 C 
HETATM    7  O4  UNL     1       7.906  55.647  -7.204  1.00  0.00    -0.347 OA
HETATM    8  C8  UNL     1       6.616  55.060  -7.375  1.00  0.00     0.158 C 
HETATM    9  C9  UNL     1       6.136  55.381  -8.790  1.00  0.00     0.069 C 
HETATM   10  C10 UNL     1       4.741  54.858  -9.054  1.00  0.00    -0.065 C 
HETATM   11  C11 UNL     1       4.488  54.090 -10.129  1.00  0.00    -0.022 C 
HETATM   12  C12 UNL     1       3.137  53.551 -10.492  1.00  0.00     0.035 C 
HETATM   13  C13 UNL     1       1.985  54.243  -9.736  1.00  0.00     0.030 C 
HETATM   14  C14 UNL     1       2.356  54.387  -8.238  1.00  0.00     0.012 C 
HETATM   15  C15 UNL     1       1.167  54.848  -7.372  1.00  0.00     0.007 C 
HETATM   16  C16 UNL     1      -0.029  55.340  -8.175  1.00  0.00     0.013 C 
HETATM   17  C17 UNL     1      -0.556  54.384  -9.292  1.00  0.00    -0.005 C 
HETATM   18  C18 UNL     1      -1.293  55.307 -10.296  1.00  0.00     0.019 C 
HETATM   19  C19 UNL     1      -1.511  53.295  -8.689  1.00  0.00     0.028 C 
HETATM   20  C24 UNL     1      -0.585  52.128  -8.329  1.00  0.00     0.013 C 
HETATM   21  C25 UNL     1       0.518  52.125  -9.375  1.00  0.00     0.040 C 
HETATM   22  C26 UNL     1       0.609  53.560  -9.950  1.00  0.00     0.070 C 
HETATM   23  C27 UNL     1       3.667  55.232  -8.033  1.00  0.00     0.043 C 
HETATM   24  C29 UNL     1       4.204  54.986  -6.598  1.00  0.00     0.056 C 
HETATM   25  C30 UNL     1       5.606  55.548  -6.336  1.00  0.00     0.156 C 
HETATM   26  O9  UNL     1       6.022  55.085  -5.047  1.00  0.00    -0.341 OA
HETATM   27  C31 UNL     1       7.344  55.518  -4.709  1.00  0.00     0.241 C 
ENDROOT
BRANCH  19  28
HETATM   28  C20 UNL     1      -2.666  52.846  -9.551  1.00  0.00    -0.045 A 
HETATM   29  C21 UNL     1      -3.127  51.618  -9.789  1.00  0.00     0.087 A 
HETATM   30  C22 UNL     1      -4.271  51.754 -10.690  1.00  0.00     0.283 A 
HETATM   31  O5  UNL     1      -4.932  50.824 -11.115  1.00  0.00    -0.260 OA
HETATM   32  O6  UNL     1      -4.475  53.071 -10.958  1.00  0.00    -0.314 OA
HETATM   33  C23 UNL     1      -3.489  53.844 -10.279  1.00  0.00     0.213 A 
ENDBRANCH  19  28
BRANCH  22  34
HETATM   34  O7  UNL     1       0.372  53.469 -11.362  1.00  0.00    -0.389 OA
HETATM   35  H35 UNL     1       0.936  52.774 -11.738  1.00  0.00     0.210 HD
ENDBRANCH  22  34
BRANCH  23  36
HETATM   36  C28 UNL     1       3.365  56.721  -8.260  1.00  0.00     0.245 C 
HETATM   37  O8  UNL     1       3.194  57.538  -7.358  1.00  0.00    -0.306 OA
ENDBRANCH  23  36
BRANCH  27  38
HETATM   38  O10 UNL     1       7.163  56.500  -3.674  1.00  0.00    -0.360 OA
HETATM   39  H40 UNL     1       6.541  57.151  -4.039  1.00  0.00     0.213 HD
ENDBRANCH  27  38
BRANCH   1  40
HETATM   40  O2  UNL     1       8.233  53.275  -5.058  1.00  0.00    -0.310 OA
BRANCH  40  41
HETATM   41  C2  UNL     1       8.081  52.012  -4.582  1.00  0.00     0.255 C 
HETATM   42  C1  UNL     1       6.661  51.567  -4.757  1.00  0.00     0.126 C 
HETATM   43  O1  UNL     1       8.963  51.320  -4.097  1.00  0.00    -0.266 OA
ENDBRANCH  40  41
ENDBRANCH   1  40
TORSDOF 6
ENDMDL
MODEL 4
REMARK minimizedAffinity -7.23729467
REMARK CNNscore 0.602876902
REMARK CNNaffinity 6.52688169
REMARK  6 active torsions:
REMARK  status: ('A' for Active; 'I' for Inactive)
REMARK    1  A    between atoms: C2_2  and  O2_4 
REMARK    2  A    between atoms: O2_4  and  C3_5 
REMARK    3  A    between atoms: C19_23  and  C20_24 
REMARK    4  A    between atoms: C26_32  and  O7_33 
REMARK    5  A    between atoms: C27_34  and  C28_35 
REMARK    6  A    between atoms: C31_40  and  O10_41 
ROOT
HETATM    1  C3  UNL     1       1.225  49.591 -15.184  1.00  0.00     0.201 C 
HETATM    2  C4  UNL     1       0.291  48.845 -16.151  1.00  0.00     0.070 C 
HETATM    3  C5  UNL     1      -1.154  49.350 -16.087  1.00  0.00     0.123 C 
HETATM    4  C6  UNL     1      -2.128  48.300 -16.608  1.00  0.00     0.040 C 
HETATM    5  O3  UNL     1      -1.507  49.650 -14.740  1.00  0.00    -0.351 OA
HETATM    6  C7  UNL     1      -0.807  50.783 -14.203  1.00  0.00     0.325 C 
HETATM    7  O4  UNL     1      -0.898  50.682 -12.779  1.00  0.00    -0.347 OA
HETATM    8  C8  UNL     1       0.193  51.241 -12.048  1.00  0.00     0.158 C 
HETATM    9  C9  UNL     1      -0.363  51.835 -10.753  1.00  0.00     0.069 C 
HETATM   10  C10 UNL     1       0.709  52.517  -9.932  1.00  0.00    -0.065 C 
HETATM   11  C11 UNL     1       0.883  52.203  -8.635  1.00  0.00    -0.022 C 
HETATM   12  C12 UNL     1       1.894  52.844  -7.732  1.00  0.00     0.035 C 
HETATM   13  C13 UNL     1       2.479  54.149  -8.306  1.00  0.00     0.030 C 
HETATM   14  C14 UNL     1       2.832  53.949  -9.801  1.00  0.00     0.012 C 
HETATM   15  C15 UNL     1       3.641  55.125 -10.385  1.00  0.00     0.007 C 
HETATM   16  C16 UNL     1       3.685  56.352  -9.485  1.00  0.00     0.013 C 
HETATM   17  C17 UNL     1       4.130  56.115  -8.007  1.00  0.00    -0.005 C 
HETATM   18  C18 UNL     1       3.521  57.296  -7.210  1.00  0.00     0.019 C 
HETATM   19  C19 UNL     1       5.694  56.077  -7.895  1.00  0.00     0.028 C 
HETATM   20  C24 UNL     1       6.058  54.601  -8.089  1.00  0.00     0.013 C 
HETATM   21  C25 UNL     1       4.921  53.800  -7.476  1.00  0.00     0.040 C 
HETATM   22  C26 UNL     1       3.667  54.709  -7.479  1.00  0.00     0.070 C 
HETATM   23  C27 UNL     1       1.575  53.547 -10.656  1.00  0.00     0.043 C 
HETATM   24  C29 UNL     1       2.054  52.962 -12.011  1.00  0.00     0.056 C 
HETATM   25  C30 UNL     1       0.953  52.301 -12.848  1.00  0.00     0.156 C 
HETATM   26  O9  UNL     1       1.583  51.661 -13.963  1.00  0.00    -0.341 OA
HETATM   27  C31 UNL     1       0.648  50.972 -14.799  1.00  0.00     0.241 C 
ENDROOT
BRANCH  19  28
HETATM   28  C20 UNL     1       6.303  56.641  -6.634  1.00  0.00    -0.045 A 
HETATM   29  C21 UNL     1       6.285  57.888  -6.161  1.00  0.00     0.087 A 
HETATM   30  C22 UNL     1       7.021  57.880  -4.898  1.00  0.00     0.283 A 
HETATM   31  O5  UNL     1       7.202  58.858  -4.195  1.00  0.00    -0.260 OA
HETATM   32  O6  UNL     1       7.453  56.617  -4.640  1.00  0.00    -0.314 OA
HETATM   33  C23 UNL     1       7.046  55.758  -5.702  1.00  0.00     0.213 A 
ENDBRANCH  19  28
BRANCH  22  34
HETATM   34  O7  UNL     1       3.236  54.845  -6.118  1.00  0.00    -0.389 OA
HETATM   35  H35 UNL     1       3.180  53.966  -5.709  1.00  0.00     0.210 HD
ENDBRANCH  22  34
BRANCH  23  36
HETATM   36  C28 UNL     1       0.680  54.777 -10.873  1.00  0.00     0.245 C 
HETATM   37  O8  UNL     1      -0.485  54.860 -10.493  1.00  0.00    -0.306 OA
ENDBRANCH  23  36
BRANCH  27  38
HETATM   38  O10 UNL     1       0.579  51.751 -16.006  1.00  0.00    -0.360 OA
HETATM   39  H40 UNL     1       0.366  52.655 -15.720  1.00  0.00     0.213 HD
ENDBRANCH  27  38
BRANCH   1  40
HETATM   40  O2  UNL     1       1.421  48.809 -13.981  1.00  0.00    -0.310 OA
BRANCH  40  41
HETATM   41  C2  UNL     1       2.649  48.250 -13.825  1.00  0.00     0.255 C 
HETATM   42  C1  UNL     1       2.583  46.781 -14.110  1.00  0.00     0.126 C 
HETATM   43  O1  UNL     1       3.671  48.844 -13.518  1.00  0.00    -0.266 OA
ENDBRANCH  40  41
ENDBRANCH   1  40
TORSDOF 6
ENDMDL
MODEL 5
REMARK minimizedAffinity -7.70862341
REMARK CNNscore 0.574928761
REMARK CNNaffinity 6.19096041
REMARK  6 active torsions:
REMARK  status: ('A' for Active; 'I' for Inactive)
REMARK    1  A    between atoms: C2_2  and  O2_4 
REMARK    2  A    between atoms: O2_4  and  C3_5 
REMARK    3  A    between atoms: C19_23  and  C20_24 
REMARK    4  A    between atoms: C26_32  and  O7_33 
REMARK    5  A    between atoms: C27_34  and  C28_35 
REMARK    6  A    between atoms: C31_40  and  O10_41 
ROOT
HETATM    1  C3  UNL     1      -7.427  41.946 -33.546  1.00  0.00     0.201 C 
HETATM    2  C4  UNL     1      -6.118  41.639 -34.291  1.00  0.00     0.070 C 
HETATM    3  C5  UNL     1      -4.874  42.060 -33.501  1.00  0.00     0.123 C 
HETATM    4  C6  UNL     1      -3.675  42.252 -34.423  1.00  0.00     0.040 C 
HETATM    5  O3  UNL     1      -5.116  43.291 -32.829  1.00  0.00    -0.351 OA
HETATM    6  C7  UNL     1      -6.079  43.186 -31.769  1.00  0.00     0.325 C 
HETATM    7  O4  UNL     1      -6.552  44.512 -31.513  1.00  0.00    -0.347 OA
HETATM    8  C8  UNL     1      -7.892  44.608 -31.033  1.00  0.00     0.158 C 
HETATM    9  C9  UNL     1      -7.958  45.780 -30.052  1.00  0.00     0.069 C 
HETATM   10  C10 UNL     1      -9.329  45.928 -29.430  1.00  0.00    -0.065 C 
HETATM   11  C11 UNL     1      -9.972  47.109 -29.460  1.00  0.00    -0.022 C 
HETATM   12  C12 UNL     1     -11.316  47.363 -28.846  1.00  0.00     0.035 C 
HETATM   13  C13 UNL     1     -11.750  46.261 -27.859  1.00  0.00     0.030 C 
HETATM   14  C14 UNL     1     -11.459  44.868 -28.471  1.00  0.00     0.012 C 
HETATM   15  C15 UNL     1     -12.080  43.717 -27.655  1.00  0.00     0.007 C 
HETATM   16  C16 UNL     1     -12.597  44.139 -26.286  1.00  0.00     0.013 C 
HETATM   17  C17 UNL     1     -13.567  45.362 -26.257  1.00  0.00    -0.005 C 
HETATM   18  C18 UNL     1     -13.444  45.937 -24.823  1.00  0.00     0.019 C 
HETATM   19  C19 UNL     1     -15.035  44.918 -26.586  1.00  0.00     0.028 C 
HETATM   20  C24 UNL     1     -15.146  45.051 -28.108  1.00  0.00     0.013 C 
HETATM   21  C25 UNL     1     -14.273  46.234 -28.494  1.00  0.00     0.040 C 
HETATM   22  C26 UNL     1     -13.217  46.409 -27.375  1.00  0.00     0.070 C 
HETATM   23  C27 UNL     1      -9.933  44.674 -28.797  1.00  0.00     0.043 C 
HETATM   24  C29 UNL     1      -9.774  43.474 -29.768  1.00  0.00     0.056 C 
HETATM   25  C30 UNL     1      -8.372  43.317 -30.367  1.00  0.00     0.156 C 
HETATM   26  O9  UNL     1      -8.441  42.293 -31.365  1.00  0.00    -0.341 OA
HETATM   27  C31 UNL     1      -7.188  42.085 -32.025  1.00  0.00     0.241 C 
ENDROOT
BRANCH  19  28
HETATM   28  C20 UNL     1     -16.147  45.654 -25.878  1.00  0.00    -0.045 A 
HETATM   29  C21 UNL     1     -17.457  45.665 -26.126  1.00  0.00     0.087 A 
HETATM   30  C22 UNL     1     -18.076  46.540 -25.132  1.00  0.00     0.283 A 
HETATM   31  O5  UNL     1     -19.268  46.781 -25.066  1.00  0.00    -0.260 OA
HETATM   32  O6  UNL     1     -17.115  47.024 -24.300  1.00  0.00    -0.314 OA
HETATM   33  C23 UNL     1     -15.847  46.516 -24.708  1.00  0.00     0.213 A 
ENDBRANCH  19  28
BRANCH  22  34
HETATM   34  O7  UNL     1     -13.378  47.730 -26.839  1.00  0.00    -0.389 OA
HETATM   35  H35 UNL     1     -13.403  48.372 -27.568  1.00  0.00     0.210 HD
ENDBRANCH  22  34
BRANCH  23  36
HETATM   36  C28 UNL     1      -9.150  44.436 -27.496  1.00  0.00     0.245 C 
HETATM   37  O8  UNL     1      -7.938  44.599 -27.378  1.00  0.00    -0.306 OA
ENDBRANCH  23  36
BRANCH  27  38
HETATM   38  O10 UNL     1      -6.723  40.809 -31.553  1.00  0.00    -0.360 OA
HETATM   39  H40 UNL     1      -6.730  40.873 -30.584  1.00  0.00     0.213 HD
ENDBRANCH  27  38
BRANCH   1  40
HETATM   40  O2  UNL     1      -8.007  43.174 -34.048  1.00  0.00    -0.310 OA
BRANCH  40  41
HETATM   41  C2  UNL     1      -9.130  43.041 -34.800  1.00  0.00     0.255 C 
HETATM   42  C1  UNL     1     -10.334  43.418 -33.993  1.00  0.00     0.126 C 
HETATM   43  O1  UNL     1      -9.170  42.687 -35.968  1.00  0.00    -0.266 OA
ENDBRANCH  40  41
ENDBRANCH   1  40
TORSDOF 6
ENDMDL
MODEL 6
REMARK minimizedAffinity -8.19101048
REMARK CNNscore 0.548632622
REMARK CNNaffinity 6.61030626
REMARK  6 active torsions:
REMARK  status: ('A' for Active; 'I' for Inactive)
REMARK    1  A    between atoms: C2_2  and  O2_4 
REMARK    2  A    between atoms: O2_4  and  C3_5 
REMARK    3  A    between atoms: C19_23  and  C20_24 
REMARK    4  A    between atoms: C26_32  and  O7_33 
REMARK    5  A    between atoms: C27_34  and  C28_35 
REMARK    6  A    between atoms: C31_40  and  O10_41 
ROOT
HETATM    1  C3  UNL     1      -1.172  51.085 -17.919  1.00  0.00     0.201 C 
HETATM    2  C4  UNL     1      -1.796  50.116 -18.937  1.00  0.00     0.070 C 
HETATM    3  C5  UNL     1      -2.299  48.820 -18.290  1.00  0.00     0.123 C 
HETATM    4  C6  UNL     1      -2.404  47.698 -19.316  1.00  0.00     0.040 C 
HETATM    5  O3  UNL     1      -1.399  48.403 -17.269  1.00  0.00    -0.351 OA
HETATM    6  C7  UNL     1      -1.380  49.277 -16.130  1.00  0.00     0.325 C 
HETATM    7  O4  UNL     1      -0.157  49.015 -15.435  1.00  0.00    -0.347 OA
HETATM    8  C8  UNL     1       0.396  50.120 -14.720  1.00  0.00     0.158 C 
HETATM    9  C9  UNL     1       1.062  49.577 -13.455  1.00  0.00     0.069 C 
HETATM   10  C10 UNL     1       1.625  50.681 -12.587  1.00  0.00    -0.065 C 
HETATM   11  C11 UNL     1       2.905  50.642 -12.173  1.00  0.00    -0.022 C 
HETATM   12  C12 UNL     1       3.544  51.669 -11.287  1.00  0.00     0.035 C 
HETATM   13  C13 UNL     1       2.522  52.588 -10.588  1.00  0.00     0.030 C 
HETATM   14  C14 UNL     1       1.448  53.044 -11.606  1.00  0.00     0.012 C 
HETATM   15  C15 UNL     1       0.531  54.151 -11.050  1.00  0.00     0.007 C 
HETATM   16  C16 UNL     1       0.669  54.372  -9.550  1.00  0.00     0.013 C 
HETATM   17  C17 UNL     1       2.117  54.594  -9.010  1.00  0.00    -0.005 C 
HETATM   18  C18 UNL     1       2.057  54.183  -7.517  1.00  0.00     0.019 C 
HETATM   19  C19 UNL     1       2.556  56.089  -9.189  1.00  0.00     0.028 C 
HETATM   20  C24 UNL     1       3.219  56.134 -10.569  1.00  0.00     0.013 C 
HETATM   21  C25 UNL     1       3.902  54.789 -10.755  1.00  0.00     0.040 C 
HETATM   22  C26 UNL     1       3.177  53.776  -9.834  1.00  0.00     0.070 C 
HETATM   23  C27 UNL     1       0.676  51.826 -12.236  1.00  0.00     0.043 C 
HETATM   24  C29 UNL     1      -0.060  52.304 -13.515  1.00  0.00     0.056 C 
HETATM   25  C30 UNL     1      -0.652  51.177 -14.370  1.00  0.00     0.156 C 
HETATM   26  O9  UNL     1      -1.128  51.763 -15.586  1.00  0.00    -0.341 OA
HETATM   27  C31 UNL     1      -1.671  50.792 -16.486  1.00  0.00     0.241 C 
ENDROOT
BRANCH  19  28
HETATM   28  C20 UNL     1       3.450  56.672  -8.121  1.00  0.00    -0.045 A 
HETATM   29  C21 UNL     1       4.757  56.503  -7.915  1.00  0.00     0.087 A 
HETATM   30  C22 UNL     1       5.115  57.304  -6.746  1.00  0.00     0.283 A 
HETATM   31  O5  UNL     1       6.236  57.381  -6.276  1.00  0.00    -0.260 OA
HETATM   32  O6  UNL     1       4.009  57.947  -6.287  1.00  0.00    -0.314 OA
HETATM   33  C23 UNL     1       2.893  57.595  -7.100  1.00  0.00     0.213 A 
ENDBRANCH  19  28
BRANCH  22  34
HETATM   34  O7  UNL     1       4.156  53.245  -8.931  1.00  0.00    -0.389 OA
HETATM   35  H35 UNL     1       4.933  52.951  -9.434  1.00  0.00     0.210 HD
ENDBRANCH  22  34
BRANCH  23  36
HETATM   36  C28 UNL     1      -0.316  51.256 -11.210  1.00  0.00     0.245 C 
HETATM   37  O8  UNL     1      -1.521  51.498 -11.205  1.00  0.00    -0.306 OA
ENDBRANCH  23  36
BRANCH  27  38
HETATM   38  O10 UNL     1      -3.090  51.027 -16.479  1.00  0.00    -0.360 OA
HETATM   39  H40 UNL     1      -3.355  50.991 -15.545  1.00  0.00     0.213 HD
ENDBRANCH  27  38
BRANCH   1  40
HETATM   40  O2  UNL     1       0.272  50.973 -17.948  1.00  0.00    -0.310 OA
BRANCH  40  41
HETATM   41  C2  UNL     1       0.962  52.143 -17.959  1.00  0.00     0.255 C 
HETATM   42  C1  UNL     1       0.628  52.922 -19.194  1.00  0.00     0.126 C 
HETATM   43  O1  UNL     1       1.729  52.528 -17.091  1.00  0.00    -0.266 OA
ENDBRANCH  40  41
ENDBRANCH   1  40
TORSDOF 6
ENDMDL
MODEL 7
REMARK minimizedAffinity -8.90287304
REMARK CNNscore 0.539122641
REMARK CNNaffinity 6.89095831
REMARK  6 active torsions:
REMARK  status: ('A' for Active; 'I' for Inactive)
REMARK    1  A    between atoms: C2_2  and  O2_4 
REMARK    2  A    between atoms: O2_4  and  C3_5 
REMARK    3  A    between atoms: C19_23  and  C20_24 
REMARK    4  A    between atoms: C26_32  and  O7_33 
REMARK    5  A    between atoms: C27_34  and  C28_35 
REMARK    6  A    between atoms: C31_40  and  O10_41 
ROOT
HETATM    1  C3  UNL     1      -1.361  52.971 -24.496  1.00  0.00     0.201 C 
HETATM    2  C4  UNL     1      -0.273  53.330 -25.521  1.00  0.00     0.070 C 
HETATM    3  C5  UNL     1      -0.163  52.302 -26.652  1.00  0.00     0.123 C 
HETATM    4  C6  UNL     1       1.204  52.365 -27.322  1.00  0.00     0.040 C 
HETATM    5  O3  UNL     1      -0.342  50.987 -26.137  1.00  0.00    -0.351 OA
HETATM    6  C7  UNL     1      -1.677  50.730 -25.674  1.00  0.00     0.325 C 
HETATM    7  O4  UNL     1      -1.596  49.604 -24.796  1.00  0.00    -0.347 OA
HETATM    8  C8  UNL     1      -2.567  49.563 -23.752  1.00  0.00     0.158 C 
HETATM    9  C9  UNL     1      -2.934  48.099 -23.506  1.00  0.00     0.069 C 
HETATM   10  C10 UNL     1      -4.013  47.949 -22.456  1.00  0.00    -0.065 C 
HETATM   11  C11 UNL     1      -3.837  47.127 -21.405  1.00  0.00    -0.022 C 
HETATM   12  C12 UNL     1      -4.857  46.888 -20.332  1.00  0.00     0.035 C 
HETATM   13  C13 UNL     1      -6.268  47.377 -20.716  1.00  0.00     0.030 C 
HETATM   14  C14 UNL     1      -6.175  48.783 -21.359  1.00  0.00     0.012 C 
HETATM   15  C15 UNL     1      -7.555  49.444 -21.550  1.00  0.00     0.007 C 
HETATM   16  C16 UNL     1      -8.728  48.494 -21.345  1.00  0.00     0.013 C 
HETATM   17  C17 UNL     1      -8.736  47.678 -20.014  1.00  0.00    -0.005 C 
HETATM   18  C18 UNL     1      -9.604  46.429 -20.315  1.00  0.00     0.019 C 
HETATM   19  C19 UNL     1      -9.327  48.532 -18.839  1.00  0.00     0.028 C 
HETATM   20  C24 UNL     1      -8.113  49.239 -18.228  1.00  0.00     0.013 C 
HETATM   21  C25 UNL     1      -6.947  48.275 -18.369  1.00  0.00     0.040 C 
HETATM   22  C26 UNL     1      -7.281  47.320 -19.542  1.00  0.00     0.070 C 
HETATM   23  C27 UNL     1      -5.277  48.785 -22.650  1.00  0.00     0.043 C 
HETATM   24  C29 UNL     1      -4.887  50.247 -22.990  1.00  0.00     0.056 C 
HETATM   25  C30 UNL     1      -3.814  50.386 -24.077  1.00  0.00     0.156 C 
HETATM   26  O9  UNL     1      -3.441  51.767 -24.141  1.00  0.00    -0.341 OA
HETATM   27  C31 UNL     1      -2.410  52.012 -25.102  1.00  0.00     0.241 C 
ENDROOT
BRANCH  19  28
HETATM   28  C20 UNL     1     -10.129  47.795 -17.794  1.00  0.00    -0.045 A 
HETATM   29  C21 UNL     1     -11.418  47.452 -17.790  1.00  0.00     0.087 A 
HETATM   30  C22 UNL     1     -11.672  46.746 -16.536  1.00  0.00     0.283 A 
HETATM   31  O5  UNL     1     -12.752  46.293 -16.203  1.00  0.00    -0.260 OA
HETATM   32  O6  UNL     1     -10.518  46.672 -15.822  1.00  0.00    -0.314 OA
HETATM   33  C23 UNL     1      -9.478  47.325 -16.546  1.00  0.00     0.213 A 
ENDBRANCH  19  28
BRANCH  22  34
HETATM   34  O7  UNL     1      -7.279  45.985 -19.017  1.00  0.00    -0.389 OA
HETATM   35  H35 UNL     1      -6.464  45.840 -18.509  1.00  0.00     0.210 HD
ENDBRANCH  22  34
BRANCH  23  36
HETATM   36  C28 UNL     1      -6.042  48.134 -23.813  1.00  0.00     0.245 C 
HETATM   37  O8  UNL     1      -5.639  48.103 -24.974  1.00  0.00    -0.306 OA
ENDBRANCH  23  36
BRANCH  27  38
HETATM   38  O10 UNL     1      -3.057  52.720 -26.174  1.00  0.00    -0.360 OA
HETATM   39  H40 UNL     1      -3.809  52.164 -26.435  1.00  0.00     0.213 HD
ENDBRANCH  27  38
BRANCH   1  40
HETATM   40  O2  UNL     1      -0.761  52.343 -23.336  1.00  0.00    -0.310 OA
BRANCH  40  41
HETATM   41  C2  UNL     1       0.363  52.932 -22.852  1.00  0.00     0.255 C 
HETATM   42  C1  UNL     1       0.753  52.298 -21.553  1.00  0.00     0.126 C 
HETATM   43  O1  UNL     1       0.987  53.832 -23.392  1.00  0.00    -0.266 OA
ENDBRANCH  40  41
ENDBRANCH   1  40
TORSDOF 6
ENDMDL
MODEL 8
REMARK minimizedAffinity -8.01606178
REMARK CNNscore 0.458566219
REMARK CNNaffinity 6.07196665
REMARK  6 active torsions:
REMARK  status: ('A' for Active; 'I' for Inactive)
REMARK    1  A    between atoms: C2_2  and  O2_4 
REMARK    2  A    between atoms: O2_4  and  C3_5 
REMARK    3  A    between atoms: C19_23  and  C20_24 
REMARK    4  A    between atoms: C26_32  and  O7_33 
REMARK    5  A    between atoms: C27_34  and  C28_35 
REMARK    6  A    between atoms: C31_40  and  O10_41 
ROOT
HETATM    1  C3  UNL     1      -5.424  48.279 -21.088  1.00  0.00     0.201 C 
HETATM    2  C4  UNL     1      -4.151  48.964 -20.564  1.00  0.00     0.070 C 
HETATM    3  C5  UNL     1      -3.610  50.024 -21.529  1.00  0.00     0.123 C 
HETATM    4  C6  UNL     1      -2.130  50.292 -21.278  1.00  0.00     0.040 C 
HETATM    5  O3  UNL     1      -3.757  49.582 -22.874  1.00  0.00    -0.351 OA
HETATM    6  C7  UNL     1      -5.125  49.506 -23.305  1.00  0.00     0.325 C 
HETATM    7  O4  UNL     1      -5.146  48.643 -24.446  1.00  0.00    -0.347 OA
HETATM    8  C8  UNL     1      -6.353  47.906 -24.640  1.00  0.00     0.158 C 
HETATM    9  C9  UNL     1      -6.587  47.775 -26.146  1.00  0.00     0.069 C 
HETATM   10  C10 UNL     1      -7.884  47.063 -26.462  1.00  0.00    -0.065 C 
HETATM   11  C11 UNL     1      -7.901  46.007 -27.295  1.00  0.00    -0.022 C 
HETATM   12  C12 UNL     1      -9.137  45.257 -27.695  1.00  0.00     0.035 C 
HETATM   13  C13 UNL     1     -10.439  46.013 -27.362  1.00  0.00     0.030 C 
HETATM   14  C14 UNL     1     -10.350  46.601 -25.932  1.00  0.00     0.012 C 
HETATM   15  C15 UNL     1     -11.697  47.162 -25.434  1.00  0.00     0.007 C 
HETATM   16  C16 UNL     1     -12.753  47.291 -26.524  1.00  0.00     0.013 C 
HETATM   17  C17 UNL     1     -13.023  46.017 -27.384  1.00  0.00    -0.005 C 
HETATM   18  C18 UNL     1     -13.613  46.548 -28.715  1.00  0.00     0.019 C 
HETATM   19  C19 UNL     1     -14.013  45.047 -26.650  1.00  0.00     0.028 C 
HETATM   20  C24 UNL     1     -13.110  44.123 -25.827  1.00  0.00     0.013 C 
HETATM   21  C25 UNL     1     -11.838  43.941 -26.640  1.00  0.00     0.040 C 
HETATM   22  C26 UNL     1     -11.718  45.163 -27.583  1.00  0.00     0.070 C 
HETATM   23  C27 UNL     1      -9.142  47.595 -25.776  1.00  0.00     0.043 C 
HETATM   24  C29 UNL     1      -8.859  47.810 -24.266  1.00  0.00     0.056 C 
HETATM   25  C30 UNL     1      -7.557  48.560 -23.960  1.00  0.00     0.156 C 
HETATM   26  O9  UNL     1      -7.355  48.514 -22.543  1.00  0.00    -0.341 OA
HETATM   27  C31 UNL     1      -6.140  49.153 -22.142  1.00  0.00     0.241 C 
ENDROOT
BRANCH  19  28
HETATM   28  C20 UNL     1     -14.972  44.265 -27.516  1.00  0.00    -0.045 A 
HETATM   29  C21 UNL     1     -15.997  44.690 -28.255  1.00  0.00     0.087 A 
HETATM   30  C22 UNL     1     -16.582  43.514 -28.897  1.00  0.00     0.283 A 
HETATM   31  O5  UNL     1     -17.542  43.539 -29.645  1.00  0.00    -0.260 OA
HETATM   32  O6  UNL     1     -15.878  42.409 -28.534  1.00  0.00    -0.314 OA
HETATM   33  C23 UNL     1     -14.833  42.793 -27.643  1.00  0.00     0.213 A 
ENDBRANCH  19  28
BRANCH  22  34
HETATM   34  O7  UNL     1     -11.694  44.663 -28.928  1.00  0.00    -0.389 OA
HETATM   35  H35 UNL     1     -11.037  43.950 -28.994  1.00  0.00     0.210 HD
ENDBRANCH  22  34
BRANCH  23  36
HETATM   36  C28 UNL     1      -9.473  48.926 -26.469  1.00  0.00     0.245 C 
HETATM   37  O8  UNL     1      -9.846  49.938 -25.881  1.00  0.00    -0.306 OA
ENDBRANCH  23  36
BRANCH  27  38
HETATM   38  O10 UNL     1      -6.552  50.360 -21.476  1.00  0.00    -0.360 OA
HETATM   39  H40 UNL     1      -7.130  50.820 -22.108  1.00  0.00     0.213 HD
ENDBRANCH  27  38
BRANCH   1  40
HETATM   40  O2  UNL     1      -5.090  47.001 -21.682  1.00  0.00    -0.310 OA
BRANCH  40  41
HETATM   41  C2  UNL     1      -5.436  45.900 -20.967  1.00  0.00     0.255 C 
HETATM   42  C1  UNL     1      -4.208  45.137 -20.575  1.00  0.00     0.126 C 
HETATM   43  O1  UNL     1      -6.573  45.574 -20.662  1.00  0.00    -0.266 OA
ENDBRANCH  40  41
ENDBRANCH   1  40
TORSDOF 6
ENDMDL
MODEL 9
REMARK minimizedAffinity -6.81599426
REMARK CNNscore 0.43931672
REMARK CNNaffinity 5.93436432
REMARK  6 active torsions:
REMARK  status: ('A' for Active; 'I' for Inactive)
REMARK    1  A    between atoms: C2_2  and  O2_4 
REMARK    2  A    between atoms: O2_4  and  C3_5 
REMARK    3  A    between atoms: C19_23  and  C20_24 
REMARK    4  A    between atoms: C26_32  and  O7_33 
REMARK    5  A    between atoms: C27_34  and  C28_35 
REMARK    6  A    between atoms: C31_40  and  O10_41 
ROOT
HETATM    1  C3  UNL     1      -9.232  43.514 -26.075  1.00  0.00     0.201 C 
HETATM    2  C4  UNL     1     -10.430  43.060 -26.924  1.00  0.00     0.070 C 
HETATM    3  C5  UNL     1     -11.482  44.160 -27.102  1.00  0.00     0.123 C 
HETATM    4  C6  UNL     1     -12.842  43.570 -27.454  1.00  0.00     0.040 C 
HETATM    5  O3  UNL     1     -11.620  44.903 -25.895  1.00  0.00    -0.351 OA
HETATM    6  C7  UNL     1     -10.464  45.691 -25.571  1.00  0.00     0.325 C 
HETATM    7  O4  UNL     1     -10.552  45.990 -24.175  1.00  0.00    -0.347 OA
HETATM    8  C8  UNL     1      -9.306  46.156 -23.499  1.00  0.00     0.158 C 
HETATM    9  C9  UNL     1      -9.491  47.230 -22.426  1.00  0.00     0.069 C 
HETATM   10  C10 UNL     1      -8.204  47.532 -21.692  1.00  0.00    -0.065 C 
HETATM   11  C11 UNL     1      -8.157  47.498 -20.347  1.00  0.00    -0.022 C 
HETATM   12  C12 UNL     1      -6.940  47.811 -19.530  1.00  0.00     0.035 C 
HETATM   13  C13 UNL     1      -5.838  48.531 -20.333  1.00  0.00     0.030 C 
HETATM   14  C14 UNL     1      -5.658  47.838 -21.707  1.00  0.00     0.012 C 
HETATM   15  C15 UNL     1      -4.417  48.342 -22.471  1.00  0.00     0.007 C 
HETATM   16  C16 UNL     1      -3.791  49.596 -21.873  1.00  0.00     0.013 C 
HETATM   17  C17 UNL     1      -3.463  49.549 -20.348  1.00  0.00    -0.005 C 
HETATM   18  C18 UNL     1      -3.441  51.031 -19.896  1.00  0.00     0.019 C 
HETATM   19  C19 UNL     1      -2.088  48.839 -20.094  1.00  0.00     0.028 C 
HETATM   20  C24 UNL     1      -2.445  47.359 -19.915  1.00  0.00     0.013 C 
HETATM   21  C25 UNL     1      -3.805  47.332 -19.237  1.00  0.00     0.040 C 
HETATM   22  C26 UNL     1      -4.503  48.677 -19.555  1.00  0.00     0.070 C 
HETATM   23  C27 UNL     1      -6.983  47.851 -22.554  1.00  0.00     0.043 C 
HETATM   24  C29 UNL     1      -6.863  46.805 -23.693  1.00  0.00     0.056 C 
HETATM   25  C30 UNL     1      -8.168  46.531 -24.450  1.00  0.00     0.156 C 
HETATM   26  O9  UNL     1      -7.932  45.427 -25.331  1.00  0.00    -0.341 OA
HETATM   27  C31 UNL     1      -9.102  45.054 -26.066  1.00  0.00     0.241 C 
ENDROOT
BRANCH  19  28
HETATM   28  C20 UNL     1      -1.253  49.355 -18.947  1.00  0.00    -0.045 A 
HETATM   29  C21 UNL     1      -0.409  50.386 -18.901  1.00  0.00     0.087 A 
HETATM   30  C22 UNL     1       0.126  50.444 -17.542  1.00  0.00     0.283 A 
HETATM   31  O5  UNL     1       0.932  51.269 -17.149  1.00  0.00    -0.260 OA
HETATM   32  O6  UNL     1      -0.426  49.448 -16.800  1.00  0.00    -0.314 OA
HETATM   33  C23 UNL     1      -1.315  48.694 -17.620  1.00  0.00     0.213 A 
ENDBRANCH  19  28
BRANCH  22  34
HETATM   34  O7  UNL     1      -4.786  49.317 -18.303  1.00  0.00    -0.389 OA
HETATM   35  H35 UNL     1      -5.227  48.686 -17.711  1.00  0.00     0.210 HD
ENDBRANCH  22  34
BRANCH  23  36
HETATM   36  C28 UNL     1      -7.221  49.259 -23.122  1.00  0.00     0.245 C 
HETATM   37  O8  UNL     1      -7.535  50.235 -22.444  1.00  0.00    -0.306 OA
ENDBRANCH  23  36
BRANCH  27  38
HETATM   38  O10 UNL     1      -8.840  45.462 -27.420  1.00  0.00    -0.360 OA
HETATM   39  H40 UNL     1      -8.608  46.404 -27.367  1.00  0.00     0.213 HD
ENDBRANCH  27  38
BRANCH   1  40
HETATM   40  O2  UNL     1      -9.382  43.044 -24.714  1.00  0.00    -0.310 OA
BRANCH  40  41
HETATM   41  C2  UNL     1      -8.389  42.246 -24.243  1.00  0.00     0.255 C 
HETATM   42  C1  UNL     1      -8.965  41.174 -23.371  1.00  0.00     0.126 C 
HETATM   43  O1  UNL     1      -7.200  42.359 -24.499  1.00  0.00    -0.266 OA
ENDBRANCH  40  41
ENDBRANCH   1  40
TORSDOF 6
ENDMDL
