MODEL 1
REMARK minimizedAffinity -10.5745802
REMARK  6 active torsions:
REMARK  status: ('A' for Active; 'I' for Inactive)
REMARK    1  A    between atoms: C12_13  and  C13_14 
REMARK    2  A    between atoms: C13_14  and  C15_16 
REMARK    3  A    between atoms: C15_16  and  C16_17 
REMARK    4  A    between atoms: C16_17  and  C17_18 
REMARK    5  A    between atoms: C18_19  and  C20_21 
REMARK    6  A    between atoms: C20_21  and  O3_23 
ROOT
HETATM    1  C1  UNL     1      -7.628   4.598  13.953  1.00  0.00     0.052 C 
HETATM    2  C2  UNL     1      -6.514   4.066  13.092  1.00  0.00    -0.013 C 
HETATM    3  C3  UNL     1      -5.355   4.691  12.771  1.00  0.00    -0.066 C 
HETATM    4  C4  UNL     1      -5.041   6.099  13.238  1.00  0.00     0.036 C 
HETATM    5  C5  UNL     1      -3.648   6.205  13.846  1.00  0.00     0.010 C 
HETATM    6  C6  UNL     1      -2.595   5.803  12.809  1.00  0.00     0.007 C 
HETATM    7  C7  UNL     1      -2.816   4.327  12.375  1.00  0.00     0.068 C 
HETATM    8  C8  UNL     1      -1.743   3.957  11.332  1.00  0.00     0.133 C 
HETATM    9  O1  UNL     1      -2.018   3.429  10.254  1.00  0.00    -0.298 OA
HETATM   10  C9  UNL     1      -0.285   4.252  11.686  1.00  0.00     0.089 C 
HETATM   11  C10 UNL     1      -0.148   5.736  12.050  1.00  0.00    -0.026 C 
HETATM   12  C11 UNL     1      -0.458   6.569  10.764  1.00  0.00     0.016 C 
HETATM   13  C12 UNL     1       1.214   6.222  12.640  1.00  0.00    -0.002 C 
HETATM   14  C21 UNL     1       0.793   7.511  13.418  1.00  0.00     0.006 C 
HETATM   15  C22 UNL     1      -0.737   7.470  13.611  1.00  0.00     0.011 C 
HETATM   16  C23 UNL     1      -1.124   6.027  13.264  1.00  0.00    -0.032 C 
HETATM   17  C24 UNL     1      -0.829   5.179  14.546  1.00  0.00     0.016 C 
HETATM   18  C25 UNL     1      -4.271   4.061  11.873  1.00  0.00     0.027 C 
HETATM   19  C26 UNL     1      -4.490   2.538  11.738  1.00  0.00     0.018 C 
HETATM   20  C27 UNL     1      -5.929   2.205  11.409  1.00  0.00     0.084 C 
HETATM   21  C28 UNL     1      -6.821   2.716  12.505  1.00  0.00     0.155 C 
HETATM   22  O4  UNL     1      -7.808   2.081  12.870  1.00  0.00    -0.293 OA
ENDROOT
BRANCH  13  23
HETATM   23  C13 UNL     1       2.433   6.487  11.703  1.00  0.00    -0.014 C 
HETATM   24  C14 UNL     1       2.587   7.972  11.359  1.00  0.00     0.010 C 
BRANCH  23  25
HETATM   25  C15 UNL     1       2.290   5.659  10.393  1.00  0.00     0.008 C 
BRANCH  25  26
HETATM   26  C16 UNL     1       2.538   6.419   9.083  1.00  0.00     0.028 C 
BRANCH  26  27
HETATM   27  C17 UNL     1       2.989   5.527   7.960  1.00  0.00    -0.013 C 
HETATM   28  C18 UNL     1       3.666   4.367   8.067  1.00  0.00     0.008 C 
HETATM   29  C19 UNL     1       4.146   3.748   9.345  1.00  0.00     0.055 C 
BRANCH  28  30
HETATM   30  C20 UNL     1       3.980   3.661   6.797  1.00  0.00     0.171 C 
HETATM   31  O2  UNL     1       3.637   3.991   5.676  1.00  0.00    -0.646 OA
BRANCH  30  32
HETATM   32  O3  UNL     1       4.718   2.557   6.995  1.00  0.00    -0.773 OA
HETATM   33  H28 UNL     1       4.839   2.200   6.090  1.00  0.00     0.167 HD
ENDBRANCH  30  32
ENDBRANCH  28  30
ENDBRANCH  26  27
ENDBRANCH  25  26
ENDBRANCH  23  25
ENDBRANCH  13  23
TORSDOF 6
ENDMDL
MODEL 2
REMARK minimizedAffinity -10.1321678
REMARK  6 active torsions:
REMARK  status: ('A' for Active; 'I' for Inactive)
REMARK    1  A    between atoms: C12_13  and  C13_14 
REMARK    2  A    between atoms: C13_14  and  C15_16 
REMARK    3  A    between atoms: C15_16  and  C16_17 
REMARK    4  A    between atoms: C16_17  and  C17_18 
REMARK    5  A    between atoms: C18_19  and  C20_21 
REMARK    6  A    between atoms: C20_21  and  O3_23 
ROOT
HETATM    1  C1  UNL     1      -7.658   4.334  13.466  1.00  0.00     0.052 C 
HETATM    2  C2  UNL     1      -6.382   3.896  12.800  1.00  0.00    -0.013 C 
HETATM    3  C3  UNL     1      -5.259   4.632  12.614  1.00  0.00    -0.066 C 
HETATM    4  C4  UNL     1      -5.163   6.082  13.048  1.00  0.00     0.036 C 
HETATM    5  C5  UNL     1      -3.891   6.361  13.840  1.00  0.00     0.010 C 
HETATM    6  C6  UNL     1      -2.663   6.039  12.985  1.00  0.00     0.007 C 
HETATM    7  C7  UNL     1      -2.666   4.533  12.600  1.00  0.00     0.068 C 
HETATM    8  C8  UNL     1      -1.420   4.245  11.739  1.00  0.00     0.133 C 
HETATM    9  O1  UNL     1      -1.478   3.651  10.661  1.00  0.00    -0.298 OA
HETATM   10  C9  UNL     1      -0.067   4.709  12.279  1.00  0.00     0.089 C 
HETATM   11  C10 UNL     1      -0.137   6.211  12.583  1.00  0.00    -0.026 C 
HETATM   12  C11 UNL     1      -0.341   6.959  11.225  1.00  0.00     0.016 C 
HETATM   13  C12 UNL     1       1.067   6.864  13.333  1.00  0.00    -0.002 C 
HETATM   14  C21 UNL     1       0.407   8.127  13.977  1.00  0.00     0.006 C 
HETATM   15  C22 UNL     1      -1.122   7.926  13.954  1.00  0.00     0.011 C 
HETATM   16  C23 UNL     1      -1.305   6.438  13.630  1.00  0.00    -0.032 C 
HETATM   17  C24 UNL     1      -1.114   5.673  14.983  1.00  0.00     0.016 C 
HETATM   18  C25 UNL     1      -3.997   4.092  11.912  1.00  0.00     0.027 C 
HETATM   19  C26 UNL     1      -4.036   2.551  11.826  1.00  0.00     0.018 C 
HETATM   20  C27 UNL     1      -5.370   2.051  11.314  1.00  0.00     0.084 C 
HETATM   21  C28 UNL     1      -6.460   2.501  12.245  1.00  0.00     0.155 C 
HETATM   22  O4  UNL     1      -7.419   1.776  12.500  1.00  0.00    -0.293 OA
ENDROOT
BRANCH  13  23
HETATM   23  C13 UNL     1       2.376   7.226  12.565  1.00  0.00    -0.014 C 
HETATM   24  C14 UNL     1       2.317   8.629  11.951  1.00  0.00     0.010 C 
BRANCH  23  25
HETATM   25  C15 UNL     1       2.648   6.177  11.449  1.00  0.00     0.008 C 
BRANCH  25  26
HETATM   26  C16 UNL     1       3.500   6.656  10.265  1.00  0.00     0.028 C 
BRANCH  26  27
HETATM   27  C17 UNL     1       2.849   6.410   8.933  1.00  0.00    -0.013 C 
HETATM   28  C18 UNL     1       2.651   7.308   7.947  1.00  0.00     0.008 C 
HETATM   29  C19 UNL     1       3.010   8.762   8.003  1.00  0.00     0.055 C 
BRANCH  28  30
HETATM   30  C20 UNL     1       1.995   6.805   6.712  1.00  0.00     0.171 C 
HETATM   31  O2  UNL     1       1.100   7.348   6.089  1.00  0.00    -0.646 OA
BRANCH  30  32
HETATM   32  O3  UNL     1       2.498   5.626   6.309  1.00  0.00    -0.773 OA
HETATM   33  H28 UNL     1       1.977   5.419   5.506  1.00  0.00     0.167 HD
ENDBRANCH  30  32
ENDBRANCH  28  30
ENDBRANCH  26  27
ENDBRANCH  25  26
ENDBRANCH  23  25
ENDBRANCH  13  23
TORSDOF 6
ENDMDL
MODEL 3
REMARK minimizedAffinity -9.76612473
REMARK  6 active torsions:
REMARK  status: ('A' for Active; 'I' for Inactive)
REMARK    1  A    between atoms: C12_13  and  C13_14 
REMARK    2  A    between atoms: C13_14  and  C15_16 
REMARK    3  A    between atoms: C15_16  and  C16_17 
REMARK    4  A    between atoms: C16_17  and  C17_18 
REMARK    5  A    between atoms: C18_19  and  C20_21 
REMARK    6  A    between atoms: C20_21  and  O3_23 
ROOT
HETATM    1  C1  UNL     1      -7.640   4.276  13.587  1.00  0.00     0.052 C 
HETATM    2  C2  UNL     1      -6.381   3.868  12.871  1.00  0.00    -0.013 C 
HETATM    3  C3  UNL     1      -5.266   4.615  12.678  1.00  0.00    -0.066 C 
HETATM    4  C4  UNL     1      -5.164   6.049  13.157  1.00  0.00     0.036 C 
HETATM    5  C5  UNL     1      -3.871   6.309  13.923  1.00  0.00     0.010 C 
HETATM    6  C6  UNL     1      -2.667   6.022  13.022  1.00  0.00     0.007 C 
HETATM    7  C7  UNL     1      -2.675   4.530  12.586  1.00  0.00     0.068 C 
HETATM    8  C8  UNL     1      -1.453   4.277  11.681  1.00  0.00     0.133 C 
HETATM    9  O1  UNL     1      -1.539   3.720  10.586  1.00  0.00    -0.298 OA
HETATM   10  C9  UNL     1      -0.087   4.730  12.198  1.00  0.00     0.089 C 
HETATM   11  C10 UNL     1      -0.155   6.221  12.554  1.00  0.00    -0.026 C 
HETATM   12  C11 UNL     1      -0.400   7.013  11.229  1.00  0.00     0.016 C 
HETATM   13  C12 UNL     1       1.067   6.854  13.292  1.00  0.00    -0.002 C 
HETATM   14  C21 UNL     1       0.420   8.091  13.996  1.00  0.00     0.006 C 
HETATM   15  C22 UNL     1      -1.107   7.883  14.011  1.00  0.00     0.011 C 
HETATM   16  C23 UNL     1      -1.293   6.406  13.642  1.00  0.00    -0.032 C 
HETATM   17  C24 UNL     1      -1.060   5.597  14.962  1.00  0.00     0.016 C 
HETATM   18  C25 UNL     1      -4.023   4.106  11.922  1.00  0.00     0.027 C 
HETATM   19  C26 UNL     1      -4.058   2.568  11.785  1.00  0.00     0.018 C 
HETATM   20  C27 UNL     1      -5.404   2.079  11.295  1.00  0.00     0.084 C 
HETATM   21  C28 UNL     1      -6.468   2.492  12.271  1.00  0.00     0.155 C 
HETATM   22  O4  UNL     1      -7.417   1.753  12.528  1.00  0.00    -0.293 OA
ENDROOT
BRANCH  13  23
HETATM   23  C13 UNL     1       2.353   7.249  12.500  1.00  0.00    -0.014 C 
HETATM   24  C14 UNL     1       3.047   8.477  13.098  1.00  0.00     0.010 C 
BRANCH  23  25
HETATM   25  C15 UNL     1       1.998   7.523  11.010  1.00  0.00     0.008 C 
BRANCH  25  26
HETATM   26  C16 UNL     1       3.181   7.824  10.079  1.00  0.00     0.028 C 
BRANCH  26  27
HETATM   27  C17 UNL     1       4.401   7.004  10.391  1.00  0.00    -0.013 C 
HETATM   28  C18 UNL     1       5.636   7.462  10.681  1.00  0.00     0.008 C 
HETATM   29  C19 UNL     1       6.051   8.902  10.707  1.00  0.00     0.055 C 
BRANCH  28  30
HETATM   30  C20 UNL     1       6.673   6.439  10.972  1.00  0.00     0.171 C 
HETATM   31  O2  UNL     1       6.695   5.289  10.572  1.00  0.00    -0.646 OA
BRANCH  30  32
HETATM   32  O3  UNL     1       7.648   6.911  11.766  1.00  0.00    -0.773 OA
HETATM   33  H28 UNL     1       8.244   6.141  11.876  1.00  0.00     0.167 HD
ENDBRANCH  30  32
ENDBRANCH  28  30
ENDBRANCH  26  27
ENDBRANCH  25  26
ENDBRANCH  23  25
ENDBRANCH  13  23
TORSDOF 6
ENDMDL
MODEL 4
REMARK minimizedAffinity -9.57039928
REMARK  6 active torsions:
REMARK  status: ('A' for Active; 'I' for Inactive)
REMARK    1  A    between atoms: C12_13  and  C13_14 
REMARK    2  A    between atoms: C13_14  and  C15_16 
REMARK    3  A    between atoms: C15_16  and  C16_17 
REMARK    4  A    between atoms: C16_17  and  C17_18 
REMARK    5  A    between atoms: C18_19  and  C20_21 
REMARK    6  A    between atoms: C20_21  and  O3_23 
ROOT
HETATM    1  C1  UNL     1      -7.340   5.051  14.300  1.00  0.00     0.052 C 
HETATM    2  C2  UNL     1      -6.307   4.467  13.373  1.00  0.00    -0.013 C 
HETATM    3  C3  UNL     1      -5.163   5.054  12.945  1.00  0.00    -0.066 C 
HETATM    4  C4  UNL     1      -4.782   6.467  13.344  1.00  0.00     0.036 C 
HETATM    5  C5  UNL     1      -3.344   6.555  13.840  1.00  0.00     0.010 C 
HETATM    6  C6  UNL     1      -2.384   6.098  12.738  1.00  0.00     0.007 C 
HETATM    7  C7  UNL     1      -2.671   4.617  12.367  1.00  0.00     0.068 C 
HETATM    8  C8  UNL     1      -1.691   4.191  11.256  1.00  0.00     0.133 C 
HETATM    9  O1  UNL     1      -2.060   3.639  10.218  1.00  0.00    -0.298 OA
HETATM   10  C9  UNL     1      -0.204   4.459  11.488  1.00  0.00     0.089 C 
HETATM   11  C10 UNL     1      -0.005   5.949  11.796  1.00  0.00    -0.026 C 
HETATM   12  C11 UNL     1      -0.395   6.754  10.513  1.00  0.00     0.016 C 
HETATM   13  C12 UNL     1       1.409   6.418  12.265  1.00  0.00    -0.002 C 
HETATM   14  C21 UNL     1       1.078   7.739  13.033  1.00  0.00     0.006 C 
HETATM   15  C22 UNL     1      -0.432   7.741  13.345  1.00  0.00     0.011 C 
HETATM   16  C23 UNL     1      -0.877   6.299  13.072  1.00  0.00    -0.032 C 
HETATM   17  C24 UNL     1      -0.503   5.479  14.352  1.00  0.00     0.016 C 
HETATM   18  C25 UNL     1      -4.166   4.373  11.986  1.00  0.00     0.027 C 
HETATM   19  C26 UNL     1      -4.429   2.853  11.914  1.00  0.00     0.018 C 
HETATM   20  C27 UNL     1      -5.896   2.546  11.706  1.00  0.00     0.084 C 
HETATM   21  C28 UNL     1      -6.689   3.110  12.851  1.00  0.00     0.155 C 
HETATM   22  O4  UNL     1      -7.659   2.510  13.310  1.00  0.00    -0.293 OA
ENDROOT
BRANCH  13  23
HETATM   23  C13 UNL     1       2.558   6.626  11.229  1.00  0.00    -0.014 C 
HETATM   24  C14 UNL     1       2.843   5.358  10.418  1.00  0.00     0.010 C 
BRANCH  23  25
HETATM   25  C15 UNL     1       3.855   7.085  11.956  1.00  0.00     0.008 C 
BRANCH  25  26
HETATM   26  C16 UNL     1       5.178   6.742  11.257  1.00  0.00     0.028 C 
BRANCH  26  27
HETATM   27  C17 UNL     1       6.363   6.790  12.181  1.00  0.00    -0.013 C 
HETATM   28  C18 UNL     1       6.916   7.886  12.736  1.00  0.00     0.008 C 
HETATM   29  C19 UNL     1       6.478   9.301  12.503  1.00  0.00     0.055 C 
BRANCH  28  30
HETATM   30  C20 UNL     1       8.079   7.662  13.634  1.00  0.00     0.171 C 
HETATM   31  O2  UNL     1       9.257   7.715  13.329  1.00  0.00    -0.646 OA
BRANCH  30  32
HETATM   32  O3  UNL     1       7.705   7.375  14.892  1.00  0.00    -0.773 OA
HETATM   33  H28 UNL     1       8.557   7.248  15.359  1.00  0.00     0.167 HD
ENDBRANCH  30  32
ENDBRANCH  28  30
ENDBRANCH  26  27
ENDBRANCH  25  26
ENDBRANCH  23  25
ENDBRANCH  13  23
TORSDOF 6
ENDMDL
MODEL 5
REMARK minimizedAffinity -9.54761982
REMARK  6 active torsions:
REMARK  status: ('A' for Active; 'I' for Inactive)
REMARK    1  A    between atoms: C12_13  and  C13_14 
REMARK    2  A    between atoms: C13_14  and  C15_16 
REMARK    3  A    between atoms: C15_16  and  C16_17 
REMARK    4  A    between atoms: C16_17  and  C17_18 
REMARK    5  A    between atoms: C18_19  and  C20_21 
REMARK    6  A    between atoms: C20_21  and  O3_23 
ROOT
HETATM    1  C1  UNL     1       0.112   3.828  11.872  1.00  0.00     0.052 C 
HETATM    2  C2  UNL     1      -1.366   3.573  11.990  1.00  0.00    -0.013 C 
HETATM    3  C3  UNL     1      -2.244   4.198  12.812  1.00  0.00    -0.066 C 
HETATM    4  C4  UNL     1      -1.808   5.267  13.796  1.00  0.00     0.036 C 
HETATM    5  C5  UNL     1      -2.687   6.510  13.720  1.00  0.00     0.010 C 
HETATM    6  C6  UNL     1      -4.139   6.140  14.033  1.00  0.00     0.007 C 
HETATM    7  C7  UNL     1      -4.664   5.119  12.985  1.00  0.00     0.068 C 
HETATM    8  C8  UNL     1      -6.125   4.768  13.331  1.00  0.00     0.133 C 
HETATM    9  O1  UNL     1      -6.528   3.608  13.415  1.00  0.00    -0.298 OA
HETATM   10  C9  UNL     1      -7.094   5.929  13.554  1.00  0.00     0.089 C 
HETATM   11  C10 UNL     1      -6.526   6.857  14.636  1.00  0.00    -0.026 C 
HETATM   12  C11 UNL     1      -6.495   6.054  15.978  1.00  0.00     0.016 C 
HETATM   13  C12 UNL     1      -7.248   8.218  14.888  1.00  0.00    -0.002 C 
HETATM   14  C21 UNL     1      -6.112   9.079  15.529  1.00  0.00     0.006 C 
HETATM   15  C22 UNL     1      -4.766   8.388  15.228  1.00  0.00     0.011 C 
HETATM   16  C23 UNL     1      -5.104   7.356  14.145  1.00  0.00    -0.032 C 
HETATM   17  C24 UNL     1      -5.129   8.141  12.791  1.00  0.00     0.016 C 
HETATM   18  C25 UNL     1      -3.747   3.860  12.863  1.00  0.00     0.027 C 
HETATM   19  C26 UNL     1      -4.168   3.046  11.620  1.00  0.00     0.018 C 
HETATM   20  C27 UNL     1      -3.218   1.899  11.354  1.00  0.00     0.084 C 
HETATM   21  C28 UNL     1      -1.836   2.441  11.120  1.00  0.00     0.155 C 
HETATM   22  O4  UNL     1      -1.088   1.936  10.285  1.00  0.00    -0.293 OA
ENDROOT
BRANCH  13  23
HETATM   23  C13 UNL     1      -8.560   8.273  15.732  1.00  0.00    -0.014 C 
HETATM   24  C14 UNL     1      -9.505   7.111  15.410  1.00  0.00     0.010 C 
BRANCH  23  25
HETATM   25  C15 UNL     1      -9.292   9.625  15.492  1.00  0.00     0.008 C 
BRANCH  25  26
HETATM   26  C16 UNL     1     -10.825   9.584  15.564  1.00  0.00     0.028 C 
BRANCH  26  27
HETATM   27  C17 UNL     1     -11.483   9.745  14.221  1.00  0.00    -0.013 C 
HETATM   28  C18 UNL     1     -12.574   9.096  13.769  1.00  0.00     0.008 C 
HETATM   29  C19 UNL     1     -13.335   8.040  14.512  1.00  0.00     0.055 C 
BRANCH  28  30
HETATM   30  C20 UNL     1     -13.038   9.450  12.402  1.00  0.00     0.171 C 
HETATM   31  O2  UNL     1     -14.182   9.407  11.987  1.00  0.00    -0.646 OA
BRANCH  30  32
HETATM   32  O3  UNL     1     -12.031   9.845  11.606  1.00  0.00    -0.773 OA
HETATM   33  H28 UNL     1     -12.475  10.035  10.754  1.00  0.00     0.167 HD
ENDBRANCH  30  32
ENDBRANCH  28  30
ENDBRANCH  26  27
ENDBRANCH  25  26
ENDBRANCH  23  25
ENDBRANCH  13  23
TORSDOF 6
ENDMDL
MODEL 6
REMARK minimizedAffinity -9.43752003
REMARK  6 active torsions:
REMARK  status: ('A' for Active; 'I' for Inactive)
REMARK    1  A    between atoms: C12_13  and  C13_14 
REMARK    2  A    between atoms: C13_14  and  C15_16 
REMARK    3  A    between atoms: C15_16  and  C16_17 
REMARK    4  A    between atoms: C16_17  and  C17_18 
REMARK    5  A    between atoms: C18_19  and  C20_21 
REMARK    6  A    between atoms: C20_21  and  O3_23 
ROOT
HETATM    1  C1  UNL     1      -7.904   3.721  13.184  1.00  0.00     0.052 C 
HETATM    2  C2  UNL     1      -6.543   3.484  12.586  1.00  0.00    -0.013 C 
HETATM    3  C3  UNL     1      -5.503   4.352  12.541  1.00  0.00    -0.066 C 
HETATM    4  C4  UNL     1      -5.605   5.762  13.087  1.00  0.00     0.036 C 
HETATM    5  C5  UNL     1      -4.430   6.114  13.993  1.00  0.00     0.010 C 
HETATM    6  C6  UNL     1      -3.119   6.001  13.210  1.00  0.00     0.007 C 
HETATM    7  C7  UNL     1      -2.921   4.542  12.715  1.00  0.00     0.068 C 
HETATM    8  C8  UNL     1      -1.596   4.466  11.931  1.00  0.00     0.133 C 
HETATM    9  O1  UNL     1      -1.513   3.961  10.811  1.00  0.00    -0.298 OA
HETATM   10  C9  UNL     1      -0.345   5.030  12.605  1.00  0.00     0.089 C 
HETATM   11  C10 UNL     1      -0.609   6.485  13.014  1.00  0.00    -0.026 C 
HETATM   12  C11 UNL     1      -0.808   7.316  11.705  1.00  0.00     0.016 C 
HETATM   13  C12 UNL     1       0.458   7.202  13.900  1.00  0.00    -0.002 C 
HETATM   14  C21 UNL     1      -0.386   8.327  14.585  1.00  0.00     0.006 C 
HETATM   15  C22 UNL     1      -1.876   7.961  14.432  1.00  0.00     0.011 C 
HETATM   16  C23 UNL     1      -1.862   6.494  13.984  1.00  0.00    -0.032 C 
HETATM   17  C24 UNL     1      -1.674   5.645  15.287  1.00  0.00     0.016 C 
HETATM   18  C25 UNL     1      -4.143   4.015  11.897  1.00  0.00     0.027 C 
HETATM   19  C26 UNL     1      -3.998   2.491  11.693  1.00  0.00     0.018 C 
HETATM   20  C27 UNL     1      -5.227   1.892  11.046  1.00  0.00     0.084 C 
HETATM   21  C28 UNL     1      -6.421   2.140  11.923  1.00  0.00     0.155 C 
HETATM   22  O4  UNL     1      -7.305   1.293  12.050  1.00  0.00    -0.293 OA
ENDROOT
BRANCH  13  23
HETATM   23  C13 UNL     1       1.764   7.770  13.262  1.00  0.00    -0.014 C 
HETATM   24  C14 UNL     1       1.485   8.945  12.320  1.00  0.00     0.010 C 
BRANCH  23  25
HETATM   25  C15 UNL     1       2.512   6.646  12.489  1.00  0.00     0.008 C 
BRANCH  25  26
HETATM   26  C16 UNL     1       2.779   6.912  11.001  1.00  0.00     0.028 C 
BRANCH  26  27
HETATM   27  C17 UNL     1       3.193   5.680  10.246  1.00  0.00    -0.013 C 
HETATM   28  C18 UNL     1       3.119   5.480   8.915  1.00  0.00     0.008 C 
HETATM   29  C19 UNL     1       2.563   6.447   7.914  1.00  0.00     0.055 C 
BRANCH  28  30
HETATM   30  C20 UNL     1       3.613   4.172   8.412  1.00  0.00     0.171 C 
HETATM   31  O2  UNL     1       3.783   3.855   7.248  1.00  0.00    -0.646 OA
BRANCH  30  32
HETATM   32  O3  UNL     1       3.872   3.306   9.406  1.00  0.00    -0.773 OA
HETATM   33  H28 UNL     1       4.176   2.503   8.934  1.00  0.00     0.167 HD
ENDBRANCH  30  32
ENDBRANCH  28  30
ENDBRANCH  26  27
ENDBRANCH  25  26
ENDBRANCH  23  25
ENDBRANCH  13  23
TORSDOF 6
ENDMDL
MODEL 7
REMARK minimizedAffinity -9.16888618
REMARK  6 active torsions:
REMARK  status: ('A' for Active; 'I' for Inactive)
REMARK    1  A    between atoms: C12_13  and  C13_14 
REMARK    2  A    between atoms: C13_14  and  C15_16 
REMARK    3  A    between atoms: C15_16  and  C16_17 
REMARK    4  A    between atoms: C16_17  and  C17_18 
REMARK    5  A    between atoms: C18_19  and  C20_21 
REMARK    6  A    between atoms: C20_21  and  O3_23 
ROOT
HETATM    1  C1  UNL     1      -5.361   3.932  12.527  1.00  0.00     0.052 C 
HETATM    2  C2  UNL     1      -4.664   5.208  12.916  1.00  0.00    -0.013 C 
HETATM    3  C3  UNL     1      -3.328   5.434  12.954  1.00  0.00    -0.066 C 
HETATM    4  C4  UNL     1      -2.317   4.353  12.627  1.00  0.00     0.036 C 
HETATM    5  C5  UNL     1      -1.257   4.836  11.643  1.00  0.00     0.010 C 
HETATM    6  C6  UNL     1      -0.503   6.029  12.236  1.00  0.00     0.007 C 
HETATM    7  C7  UNL     1      -1.487   7.204  12.494  1.00  0.00     0.068 C 
HETATM    8  C8  UNL     1      -0.695   8.384  13.091  1.00  0.00     0.133 C 
HETATM    9  O1  UNL     1      -1.051   8.976  14.111  1.00  0.00    -0.298 OA
HETATM   10  C9  UNL     1       0.568   8.830  12.354  1.00  0.00     0.089 C 
HETATM   11  C10 UNL     1       1.504   7.625  12.189  1.00  0.00    -0.026 C 
HETATM   12  C11 UNL     1       1.966   7.185  13.616  1.00  0.00     0.016 C 
HETATM   13  C12 UNL     1       2.768   7.796  11.288  1.00  0.00    -0.002 C 
HETATM   14  C21 UNL     1       3.080   6.321  10.877  1.00  0.00     0.006 C 
HETATM   15  C22 UNL     1       1.823   5.473  11.158  1.00  0.00     0.011 C 
HETATM   16  C23 UNL     1       0.713   6.507  11.390  1.00  0.00    -0.032 C 
HETATM   17  C24 UNL     1       0.230   6.951   9.969  1.00  0.00     0.016 C 
HETATM   18  C25 UNL     1      -2.707   6.782  13.373  1.00  0.00     0.027 C 
HETATM   19  C26 UNL     1      -3.766   7.905  13.342  1.00  0.00     0.018 C 
HETATM   20  C27 UNL     1      -5.042   7.493  14.044  1.00  0.00     0.084 C 
HETATM   21  C28 UNL     1      -5.615   6.283  13.363  1.00  0.00     0.155 C 
HETATM   22  O4  UNL     1      -6.830   6.144  13.228  1.00  0.00    -0.293 OA
ENDROOT
BRANCH  13  23
HETATM   23  C13 UNL     1       4.036   8.523  11.834  1.00  0.00    -0.014 C 
HETATM   24  C14 UNL     1       5.171   8.557  10.806  1.00  0.00     0.010 C 
BRANCH  23  25
HETATM   25  C15 UNL     1       4.529   7.829  13.137  1.00  0.00     0.008 C 
BRANCH  25  26
HETATM   26  C16 UNL     1       6.041   7.580  13.237  1.00  0.00     0.028 C 
BRANCH  26  27
HETATM   27  C17 UNL     1       6.587   7.819  14.617  1.00  0.00    -0.013 C 
HETATM   28  C18 UNL     1       7.861   8.109  14.948  1.00  0.00     0.008 C 
HETATM   29  C19 UNL     1       9.011   8.212  13.992  1.00  0.00     0.055 C 
BRANCH  28  30
HETATM   30  C20 UNL     1       8.142   8.318  16.392  1.00  0.00     0.171 C 
HETATM   31  O2  UNL     1       7.590   9.109  17.135  1.00  0.00    -0.646 OA
BRANCH  30  32
HETATM   32  O3  UNL     1       9.119   7.515  16.844  1.00  0.00    -0.773 OA
HETATM   33  H28 UNL     1       9.199   7.763  17.788  1.00  0.00     0.167 HD
ENDBRANCH  30  32
ENDBRANCH  28  30
ENDBRANCH  26  27
ENDBRANCH  25  26
ENDBRANCH  23  25
ENDBRANCH  13  23
TORSDOF 6
ENDMDL
MODEL 8
REMARK minimizedAffinity -9.1312418
REMARK  6 active torsions:
REMARK  status: ('A' for Active; 'I' for Inactive)
REMARK    1  A    between atoms: C12_13  and  C13_14 
REMARK    2  A    between atoms: C13_14  and  C15_16 
REMARK    3  A    between atoms: C15_16  and  C16_17 
REMARK    4  A    between atoms: C16_17  and  C17_18 
REMARK    5  A    between atoms: C18_19  and  C20_21 
REMARK    6  A    between atoms: C20_21  and  O3_23 
ROOT
HETATM    1  C1  UNL     1      -6.464   2.733  12.065  1.00  0.00     0.052 C 
HETATM    2  C2  UNL     1      -5.964   4.055  12.582  1.00  0.00    -0.013 C 
HETATM    3  C3  UNL     1      -4.684   4.389  12.882  1.00  0.00    -0.066 C 
HETATM    4  C4  UNL     1      -3.543   3.399  12.760  1.00  0.00     0.036 C 
HETATM    5  C5  UNL     1      -2.355   3.982  12.003  1.00  0.00     0.010 C 
HETATM    6  C6  UNL     1      -1.833   5.223  12.731  1.00  0.00     0.007 C 
HETATM    7  C7  UNL     1      -2.942   6.309  12.791  1.00  0.00     0.068 C 
HETATM    8  C8  UNL     1      -2.384   7.541  13.531  1.00  0.00     0.133 C 
HETATM    9  O1  UNL     1      -2.980   8.086  14.461  1.00  0.00    -0.298 OA
HETATM   10  C9  UNL     1      -1.042   8.099  13.056  1.00  0.00     0.089 C 
HETATM   11  C10 UNL     1       0.004   6.977  13.077  1.00  0.00    -0.026 C 
HETATM   12  C11 UNL     1       0.214   6.555  14.568  1.00  0.00     0.016 C 
HETATM   13  C12 UNL     1       1.401   7.266  12.442  1.00  0.00    -0.002 C 
HETATM   14  C21 UNL     1       1.910   5.827  12.100  1.00  0.00     0.006 C 
HETATM   15  C22 UNL     1       0.696   4.876  12.130  1.00  0.00     0.011 C 
HETATM   16  C23 UNL     1      -0.519   5.812  12.140  1.00  0.00    -0.032 C 
HETATM   17  C24 UNL     1      -0.751   6.238  10.651  1.00  0.00     0.016 C 
HETATM   18  C25 UNL     1      -4.271   5.775  13.414  1.00  0.00     0.027 C 
HETATM   19  C26 UNL     1      -5.394   6.809  13.175  1.00  0.00     0.018 C 
HETATM   20  C27 UNL     1      -6.743   6.283  13.614  1.00  0.00     0.084 C 
HETATM   21  C28 UNL     1      -7.070   5.041  12.834  1.00  0.00     0.155 C 
HETATM   22  O4  UNL     1      -8.219   4.806  12.464  1.00  0.00    -0.293 OA
ENDROOT
BRANCH  13  23
HETATM   23  C13 UNL     1       2.474   8.085  13.225  1.00  0.00    -0.014 C 
HETATM   24  C14 UNL     1       2.061   9.549  13.413  1.00  0.00     0.010 C 
BRANCH  23  25
HETATM   25  C15 UNL     1       3.841   8.018  12.487  1.00  0.00     0.008 C 
BRANCH  25  26
HETATM   26  C16 UNL     1       3.887   7.136  11.230  1.00  0.00     0.028 C 
BRANCH  26  27
HETATM   27  C17 UNL     1       3.444   7.858   9.988  1.00  0.00    -0.013 C 
HETATM   28  C18 UNL     1       2.996   7.304   8.843  1.00  0.00     0.008 C 
HETATM   29  C19 UNL     1       2.891   5.835   8.564  1.00  0.00     0.055 C 
BRANCH  28  30
HETATM   30  C20 UNL     1       2.601   8.243   7.761  1.00  0.00     0.171 C 
HETATM   31  O2  UNL     1       1.644   8.134   7.015  1.00  0.00    -0.646 OA
BRANCH  30  32
HETATM   32  O3  UNL     1       3.437   9.289   7.661  1.00  0.00    -0.773 OA
HETATM   33  H28 UNL     1       3.064   9.808   6.919  1.00  0.00     0.167 HD
ENDBRANCH  30  32
ENDBRANCH  28  30
ENDBRANCH  26  27
ENDBRANCH  25  26
ENDBRANCH  23  25
ENDBRANCH  13  23
TORSDOF 6
ENDMDL
MODEL 9
REMARK minimizedAffinity -9.12425423
REMARK  6 active torsions:
REMARK  status: ('A' for Active; 'I' for Inactive)
REMARK    1  A    between atoms: C12_13  and  C13_14 
REMARK    2  A    between atoms: C13_14  and  C15_16 
REMARK    3  A    between atoms: C15_16  and  C16_17 
REMARK    4  A    between atoms: C16_17  and  C17_18 
REMARK    5  A    between atoms: C18_19  and  C20_21 
REMARK    6  A    between atoms: C20_21  and  O3_23 
ROOT
HETATM    1  C1  UNL     1      -5.278   2.521  11.222  1.00  0.00     0.052 C 
HETATM    2  C2  UNL     1      -4.822   3.699  12.040  1.00  0.00    -0.013 C 
HETATM    3  C3  UNL     1      -3.545   4.080  12.289  1.00  0.00    -0.066 C 
HETATM    4  C4  UNL     1      -2.354   3.297  11.773  1.00  0.00     0.036 C 
HETATM    5  C5  UNL     1      -1.326   4.196  11.095  1.00  0.00     0.010 C 
HETATM    6  C6  UNL     1      -0.813   5.241  12.089  1.00  0.00     0.007 C 
HETATM    7  C7  UNL     1      -1.988   6.137  12.571  1.00  0.00     0.068 C 
HETATM    8  C8  UNL     1      -1.437   7.174  13.570  1.00  0.00     0.133 C 
HETATM    9  O1  UNL     1      -1.948   7.372  14.673  1.00  0.00    -0.298 OA
HETATM   10  C9  UNL     1      -0.218   7.989  13.138  1.00  0.00     0.089 C 
HETATM   11  C10 UNL     1       0.908   7.030  12.731  1.00  0.00    -0.026 C 
HETATM   12  C11 UNL     1       1.344   6.242  14.009  1.00  0.00     0.016 C 
HETATM   13  C12 UNL     1       2.182   7.638  12.063  1.00  0.00    -0.002 C 
HETATM   14  C21 UNL     1       2.755   6.415  11.275  1.00  0.00     0.006 C 
HETATM   15  C22 UNL     1       1.635   5.361  11.157  1.00  0.00     0.011 C 
HETATM   16  C23 UNL     1       0.361   6.114  11.559  1.00  0.00    -0.032 C 
HETATM   17  C24 UNL     1      -0.096   6.902  10.286  1.00  0.00     0.016 C 
HETATM   18  C25 UNL     1      -3.177   5.306  13.149  1.00  0.00     0.027 C 
HETATM   19  C26 UNL     1      -4.400   6.232  13.332  1.00  0.00     0.018 C 
HETATM   20  C27 UNL     1      -5.635   5.456  13.739  1.00  0.00     0.084 C 
HETATM   21  C28 UNL     1      -5.960   4.447  12.676  1.00  0.00     0.155 C 
HETATM   22  O4  UNL     1      -7.126   4.193  12.374  1.00  0.00    -0.293 OA
ENDROOT
BRANCH  13  23
HETATM   23  C13 UNL     1       3.279   8.327  12.934  1.00  0.00    -0.014 C 
HETATM   24  C14 UNL     1       2.946   9.792  13.231  1.00  0.00     0.010 C 
BRANCH  23  25
HETATM   25  C15 UNL     1       4.660   8.238  12.221  1.00  0.00     0.008 C 
BRANCH  25  26
HETATM   26  C16 UNL     1       5.703   7.326  12.882  1.00  0.00     0.028 C 
BRANCH  26  27
HETATM   27  C17 UNL     1       6.106   7.789  14.254  1.00  0.00    -0.013 C 
HETATM   28  C18 UNL     1       7.354   8.051  14.689  1.00  0.00     0.008 C 
HETATM   29  C19 UNL     1       8.611   7.890  13.889  1.00  0.00     0.055 C 
BRANCH  28  30
HETATM   30  C20 UNL     1       7.484   8.515  16.095  1.00  0.00     0.171 C 
HETATM   31  O2  UNL     1       6.828   9.385  16.639  1.00  0.00    -0.646 OA
BRANCH  30  32
HETATM   32  O3  UNL     1       8.447   7.858  16.763  1.00  0.00    -0.773 OA
HETATM   33  H28 UNL     1       8.423   8.265  17.654  1.00  0.00     0.167 HD
ENDBRANCH  30  32
ENDBRANCH  28  30
ENDBRANCH  26  27
ENDBRANCH  25  26
ENDBRANCH  23  25
ENDBRANCH  13  23
TORSDOF 6
ENDMDL
