MODEL 1
REMARK minimizedAffinity -8.02950287
REMARK CNNscore 0.480539501
REMARK CNNaffinity 6.63806391
REMARK  13 active torsions:
REMARK  status: ('A' for Active; 'I' for Inactive)
REMARK    1  A    between atoms: O1_2  and  C2_3 
REMARK    2  A    between atoms: C8_9  and  O2_10 
REMARK    3  A    between atoms: O2_10  and  C9_11 
REMARK    4  A    between atoms: C10_13  and  C11_14 
REMARK    5  A    between atoms: C11_14  and  O4_15 
REMARK    6  A    between atoms: C12_16  and  O5_17 
REMARK    7  A    between atoms: C13_18  and  O6_19 
REMARK    8  A    between atoms: C14_20  and  O7_21 
REMARK    9  A    between atoms: C24_31  and  C25_32 
REMARK   10  A    between atoms: C25_32  and  C27_34 
REMARK   11  A    between atoms: C27_34  and  C28_35 
REMARK   12  A    between atoms: C29_36  and  C30_37 
REMARK   13  A    between atoms: C30_37  and  O8_40 
ROOT
HETATM    1  C2  UNL     1      -0.358  10.785  17.068  1.00  0.00     0.149 C 
HETATM    2  C3  UNL     1      -0.149   9.487  16.340  1.00  0.00     0.009 C 
HETATM    3  C4  UNL     1      -0.902   9.139  15.278  1.00  0.00    -0.066 C 
HETATM    4  C5  UNL     1      -2.010  10.112  14.885  1.00  0.00     0.024 C 
HETATM    5  C6  UNL     1      -2.867   9.621  13.704  1.00  0.00     0.012 C 
HETATM    6  C7  UNL     1      -2.068   9.051  12.534  1.00  0.00     0.034 C 
HETATM    7  C8  UNL     1      -0.760   8.334  12.903  1.00  0.00     0.136 C 
HETATM    8  C15 UNL     1      -0.657   7.903  14.399  1.00  0.00     0.002 C 
HETATM    9  C16 UNL     1       0.758   7.295  14.606  1.00  0.00     0.022 C 
HETATM   10  C17 UNL     1      -1.652   6.776  14.754  1.00  0.00     0.022 C 
HETATM   11  C18 UNL     1      -2.847  10.565  16.161  1.00  0.00    -0.030 C 
HETATM   12  C19 UNL     1      -3.608   9.326  16.729  1.00  0.00     0.016 C 
HETATM   13  C20 UNL     1      -3.929  11.606  15.727  1.00  0.00     0.011 C 
HETATM   14  C21 UNL     1      -4.516  12.563  16.783  1.00  0.00     0.011 C 
HETATM   15  C22 UNL     1      -3.639  12.824  18.019  1.00  0.00    -0.032 C 
HETATM   16  C23 UNL     1      -4.142  11.912  19.186  1.00  0.00     0.016 C 
HETATM   17  C24 UNL     1      -3.630  14.296  18.563  1.00  0.00    -0.002 C 
HETATM   18  C33 UNL     1      -2.287  14.352  19.353  1.00  0.00     0.006 C 
HETATM   19  C34 UNL     1      -1.447  13.134  18.930  1.00  0.00     0.011 C 
HETATM   20  C35 UNL     1      -2.121  12.613  17.648  1.00  0.00    -0.029 C 
HETATM   21  C36 UNL     1      -1.594  13.520  16.486  1.00  0.00     0.016 C 
HETATM   22  C37 UNL     1      -1.865  11.106  17.303  1.00  0.00     0.036 C 
ENDROOT
BRANCH   7  23
HETATM   23  O2  UNL     1      -0.603   7.181  12.063  1.00  0.00    -0.352 OA
BRANCH  23  24
HETATM   24  C9  UNL     1       0.672   7.079  11.424  1.00  0.00     0.292 C 
HETATM   25  O3  UNL     1       0.611   7.650  10.123  1.00  0.00    -0.348 OA
HETATM   26  C10 UNL     1       1.843   7.581   9.397  1.00  0.00     0.179 C 
HETATM   27  C12 UNL     1       2.297   6.126   9.197  1.00  0.00     0.180 C 
HETATM   28  C13 UNL     1       2.311   5.361  10.524  1.00  0.00     0.183 C 
HETATM   29  C14 UNL     1       1.045   5.582  11.356  1.00  0.00     0.204 C 
BRANCH  26  30
HETATM   30  C11 UNL     1       1.655   8.300   8.050  1.00  0.00     0.198 C 
BRANCH  30  31
HETATM   31  O4  UNL     1       2.875   8.893   7.605  1.00  0.00    -0.398 OA
HETATM   32  H16 UNL     1       2.687   9.328   6.756  1.00  0.00     0.209 HD
ENDBRANCH  30  31
ENDBRANCH  26  30
BRANCH  27  33
HETATM   33  O5  UNL     1       3.612   6.103   8.622  1.00  0.00    -0.390 OA
HETATM   34  H18 UNL     1       4.210   5.692   9.280  1.00  0.00     0.210 HD
ENDBRANCH  27  33
BRANCH  28  35
HETATM   35  O6  UNL     1       3.485   5.718  11.292  1.00  0.00    -0.390 OA
HETATM   36  H20 UNL     1       3.483   6.674  11.467  1.00  0.00     0.210 HD
ENDBRANCH  28  35
BRANCH  29  37
HETATM   37  O7  UNL     1       1.253   5.036  12.671  1.00  0.00    -0.388 OA
HETATM   38  H22 UNL     1       2.219   4.955  12.800  1.00  0.00     0.210 HD
ENDBRANCH  29  37
ENDBRANCH  23  24
ENDBRANCH   7  23
BRANCH   1  39
HETATM   39  O1  UNL     1       0.280  10.694  18.350  1.00  0.00    -0.386 OA
HETATM   40  C1  UNL     1       1.676  10.965  18.303  1.00  0.00     0.202 C 
ENDBRANCH   1  39
BRANCH  17  41
HETATM   41  C25 UNL     1      -4.837  14.816  19.406  1.00  0.00    -0.010 C 
HETATM   42  C26 UNL     1      -4.475  16.080  20.199  1.00  0.00     0.010 C 
BRANCH  41  43
HETATM   43  C27 UNL     1      -5.343  13.717  20.381  1.00  0.00     0.031 C 
BRANCH  43  44
HETATM   44  C28 UNL     1      -6.369  14.227  21.358  1.00  0.00    -0.027 C 
HETATM   45  C29 UNL     1      -7.127  13.445  22.147  1.00  0.00     0.006 C 
BRANCH  45  46
HETATM   46  C30 UNL     1      -8.170  13.919  23.135  1.00  0.00     0.068 C 
HETATM   47  C31 UNL     1      -8.823  12.717  23.820  1.00  0.00     0.050 C 
HETATM   48  C32 UNL     1      -7.531  14.849  24.166  1.00  0.00     0.050 C 
BRANCH  46  49
HETATM   49  O8  UNL     1      -9.188  14.648  22.451  1.00  0.00    -0.387 OA
HETATM   50  H54 UNL     1      -9.856  14.907  23.108  1.00  0.00     0.211 HD
ENDBRANCH  46  49
ENDBRANCH  45  46
ENDBRANCH  43  44
ENDBRANCH  41  43
ENDBRANCH  17  41
TORSDOF 13
ENDMDL
MODEL 2
REMARK minimizedAffinity -7.9044466
REMARK CNNscore 0.480167687
REMARK CNNaffinity 6.67438745
REMARK  13 active torsions:
REMARK  status: ('A' for Active; 'I' for Inactive)
REMARK    1  A    between atoms: O1_2  and  C2_3 
REMARK    2  A    between atoms: C8_9  and  O2_10 
REMARK    3  A    between atoms: O2_10  and  C9_11 
REMARK    4  A    between atoms: C10_13  and  C11_14 
REMARK    5  A    between atoms: C11_14  and  O4_15 
REMARK    6  A    between atoms: C12_16  and  O5_17 
REMARK    7  A    between atoms: C13_18  and  O6_19 
REMARK    8  A    between atoms: C14_20  and  O7_21 
REMARK    9  A    between atoms: C24_31  and  C25_32 
REMARK   10  A    between atoms: C25_32  and  C27_34 
REMARK   11  A    between atoms: C27_34  and  C28_35 
REMARK   12  A    between atoms: C29_36  and  C30_37 
REMARK   13  A    between atoms: C30_37  and  O8_40 
ROOT
HETATM    1  C2  UNL     1     -11.160 -10.031   2.086  1.00  0.00     0.149 C 
HETATM    2  C3  UNL     1     -10.748 -10.750   3.339  1.00  0.00     0.009 C 
HETATM    3  C4  UNL     1      -9.514 -10.614   3.863  1.00  0.00    -0.066 C 
HETATM    4  C5  UNL     1      -8.542  -9.728   3.088  1.00  0.00     0.024 C 
HETATM    5  C6  UNL     1      -7.135  -9.669   3.711  1.00  0.00     0.012 C 
HETATM    6  C7  UNL     1      -7.120  -9.467   5.224  1.00  0.00     0.034 C 
HETATM    7  C8  UNL     1      -8.291 -10.095   5.995  1.00  0.00     0.136 C 
HETATM    8  C15 UNL     1      -9.065 -11.200   5.211  1.00  0.00     0.002 C 
HETATM    9  C16 UNL     1     -10.263 -11.640   6.098  1.00  0.00     0.022 C 
HETATM   10  C17 UNL     1      -8.214 -12.471   4.996  1.00  0.00     0.022 C 
HETATM   11  C18 UNL     1      -8.560 -10.089   1.538  1.00  0.00    -0.030 C 
HETATM   12  C19 UNL     1      -7.997 -11.532   1.349  1.00  0.00     0.016 C 
HETATM   13  C20 UNL     1      -7.601  -9.121   0.771  1.00  0.00     0.011 C 
HETATM   14  C21 UNL     1      -7.804  -8.907  -0.742  1.00  0.00     0.011 C 
HETATM   15  C22 UNL     1      -9.216  -9.188  -1.281  1.00  0.00    -0.032 C 
HETATM   16  C23 UNL     1      -9.230 -10.619  -1.914  1.00  0.00     0.016 C 
HETATM   17  C24 UNL     1      -9.749  -8.200  -2.378  1.00  0.00    -0.002 C 
HETATM   18  C33 UNL     1     -11.294  -8.374  -2.261  1.00  0.00     0.006 C 
HETATM   19  C34 UNL     1     -11.583  -9.094  -0.933  1.00  0.00     0.011 C 
HETATM   20  C35 UNL     1     -10.275  -8.987  -0.130  1.00  0.00    -0.029 C 
HETATM   21  C36 UNL     1     -10.283  -7.559   0.515  1.00  0.00     0.016 C 
HETATM   22  C37 UNL     1     -10.060 -10.070   0.982  1.00  0.00     0.036 C 
ENDROOT
BRANCH   7  23
HETATM   23  O2  UNL     1      -7.802 -10.641   7.229  1.00  0.00    -0.352 OA
BRANCH  23  24
HETATM   24  C9  UNL     1      -7.245  -9.677   8.127  1.00  0.00     0.292 C 
HETATM   25  O3  UNL     1      -6.282 -10.298   8.970  1.00  0.00    -0.348 OA
HETATM   26  C10 UNL     1      -5.678  -9.410   9.918  1.00  0.00     0.179 C 
HETATM   27  C12 UNL     1      -6.726  -8.794  10.858  1.00  0.00     0.180 C 
HETATM   28  C13 UNL     1      -7.882  -8.171  10.070  1.00  0.00     0.183 C 
HETATM   29  C14 UNL     1      -8.404  -9.080   8.955  1.00  0.00     0.204 C 
BRANCH  26  30
HETATM   30  C11 UNL     1      -4.610 -10.191  10.703  1.00  0.00     0.198 C 
BRANCH  30  31
HETATM   31  O4  UNL     1      -3.878  -9.332  11.577  1.00  0.00    -0.398 OA
HETATM   32  H16 UNL     1      -3.224  -9.885  12.038  1.00  0.00     0.209 HD
ENDBRANCH  30  31
ENDBRANCH  26  30
BRANCH  27  33
HETATM   33  O5  UNL     1      -6.111  -7.786  11.674  1.00  0.00    -0.390 OA
HETATM   34  H18 UNL     1      -6.523  -6.929  11.438  1.00  0.00     0.210 HD
ENDBRANCH  27  33
BRANCH  28  35
HETATM   35  O6  UNL     1      -7.481  -6.890   9.526  1.00  0.00    -0.390 OA
HETATM   36  H20 UNL     1      -6.714  -7.008   8.942  1.00  0.00     0.210 HD
ENDBRANCH  28  35
BRANCH  29  37
HETATM   37  O7  UNL     1      -9.303  -8.324   8.122  1.00  0.00    -0.388 OA
HETATM   38  H22 UNL     1      -9.113  -7.378   8.278  1.00  0.00     0.210 HD
ENDBRANCH  29  37
ENDBRANCH  23  24
ENDBRANCH   7  23
BRANCH   1  39
HETATM   39  O1  UNL     1     -12.335 -10.668   1.564  1.00  0.00    -0.386 OA
HETATM   40  C1  UNL     1     -13.248 -11.079   2.575  1.00  0.00     0.202 C 
ENDBRANCH   1  39
BRANCH  17  41
HETATM   41  C25 UNL     1      -9.245  -8.334  -3.849  1.00  0.00    -0.010 C 
HETATM   42  C26 UNL     1      -7.757  -7.975  -3.976  1.00  0.00     0.010 C 
BRANCH  41  43
HETATM   43  C27 UNL     1     -10.080  -7.434  -4.803  1.00  0.00     0.031 C 
BRANCH  43  44
HETATM   44  C28 UNL     1      -9.819  -5.966  -4.601  1.00  0.00    -0.027 C 
HETATM   45  C29 UNL     1      -9.869  -5.041  -5.576  1.00  0.00     0.006 C 
BRANCH  45  46
HETATM   46  C30 UNL     1      -9.608  -3.559  -5.415  1.00  0.00     0.068 C 
HETATM   47  C31 UNL     1      -9.304  -2.932  -6.777  1.00  0.00     0.050 C 
HETATM   48  C32 UNL     1     -10.814  -2.883  -4.764  1.00  0.00     0.050 C 
BRANCH  46  49
HETATM   49  O8  UNL     1      -8.476  -3.357  -4.569  1.00  0.00    -0.387 OA
HETATM   50  H54 UNL     1      -8.317  -2.400  -4.515  1.00  0.00     0.211 HD
ENDBRANCH  46  49
ENDBRANCH  45  46
ENDBRANCH  43  44
ENDBRANCH  41  43
ENDBRANCH  17  41
TORSDOF 13
ENDMDL
MODEL 3
REMARK minimizedAffinity -8.27192688
REMARK CNNscore 0.421592534
REMARK CNNaffinity 7.1108737
REMARK  13 active torsions:
REMARK  status: ('A' for Active; 'I' for Inactive)
REMARK    1  A    between atoms: O1_2  and  C2_3 
REMARK    2  A    between atoms: C8_9  and  O2_10 
REMARK    3  A    between atoms: O2_10  and  C9_11 
REMARK    4  A    between atoms: C10_13  and  C11_14 
REMARK    5  A    between atoms: C11_14  and  O4_15 
REMARK    6  A    between atoms: C12_16  and  O5_17 
REMARK    7  A    between atoms: C13_18  and  O6_19 
REMARK    8  A    between atoms: C14_20  and  O7_21 
REMARK    9  A    between atoms: C24_31  and  C25_32 
REMARK   10  A    between atoms: C25_32  and  C27_34 
REMARK   11  A    between atoms: C27_34  and  C28_35 
REMARK   12  A    between atoms: C29_36  and  C30_37 
REMARK   13  A    between atoms: C30_37  and  O8_40 
ROOT
HETATM    1  C2  UNL     1      -9.486  -9.704   0.284  1.00  0.00     0.149 C 
HETATM    2  C3  UNL     1      -8.825 -10.743   1.143  1.00  0.00     0.009 C 
HETATM    3  C4  UNL     1      -7.502 -10.990   1.067  1.00  0.00    -0.066 C 
HETATM    4  C5  UNL     1      -6.721 -10.190   0.028  1.00  0.00     0.024 C 
HETATM    5  C6  UNL     1      -5.230 -10.568  -0.044  1.00  0.00     0.012 C 
HETATM    6  C7  UNL     1      -4.543 -10.701   1.313  1.00  0.00     0.034 C 
HETATM    7  C8  UNL     1      -5.425 -11.211   2.463  1.00  0.00     0.136 C 
HETATM    8  C15 UNL     1      -6.732 -11.932   2.007  1.00  0.00     0.002 C 
HETATM    9  C16 UNL     1      -7.536 -12.282   3.290  1.00  0.00     0.022 C 
HETATM   10  C17 UNL     1      -6.445 -13.281   1.311  1.00  0.00     0.022 C 
HETATM   11  C18 UNL     1      -7.470 -10.201  -1.376  1.00  0.00    -0.030 C 
HETATM   12  C19 UNL     1      -7.472 -11.659  -1.935  1.00  0.00     0.016 C 
HETATM   13  C20 UNL     1      -6.674  -9.322  -2.394  1.00  0.00     0.011 C 
HETATM   14  C21 UNL     1      -7.405  -8.753  -3.627  1.00  0.00     0.011 C 
HETATM   15  C22 UNL     1      -8.929  -8.604  -3.499  1.00  0.00    -0.032 C 
HETATM   16  C23 UNL     1      -9.608  -9.830  -4.193  1.00  0.00     0.016 C 
HETATM   17  C24 UNL     1      -9.555  -7.314  -4.139  1.00  0.00    -0.002 C 
HETATM   18  C33 UNL     1     -10.897  -7.172  -3.359  1.00  0.00     0.006 C 
HETATM   19  C34 UNL     1     -10.814  -8.079  -2.118  1.00  0.00     0.011 C 
HETATM   20  C35 UNL     1      -9.321  -8.428  -1.982  1.00  0.00    -0.029 C 
HETATM   21  C36 UNL     1      -8.657  -7.203  -1.267  1.00  0.00     0.016 C 
HETATM   22  C37 UNL     1      -8.993  -9.743  -1.195  1.00  0.00     0.036 C 
ENDROOT
BRANCH   7  23
HETATM   23  O2  UNL     1      -4.655 -12.098   3.287  1.00  0.00    -0.352 OA
BRANCH  23  24
HETATM   24  C9  UNL     1      -4.280 -11.557   4.556  1.00  0.00     0.292 C 
HETATM   25  O3  UNL     1      -5.340 -10.767   5.081  1.00  0.00    -0.348 OA
HETATM   26  C10 UNL     1      -5.049 -10.168   6.348  1.00  0.00     0.179 C 
HETATM   27  C12 UNL     1      -3.832  -9.234   6.263  1.00  0.00     0.180 C 
HETATM   28  C13 UNL     1      -2.635  -9.939   5.618  1.00  0.00     0.183 C 
HETATM   29  C14 UNL     1      -3.006 -10.707   4.347  1.00  0.00     0.204 C 
BRANCH  26  30
HETATM   30  C11 UNL     1      -6.302  -9.414   6.828  1.00  0.00     0.198 C 
BRANCH  30  31
HETATM   31  O4  UNL     1      -6.029  -8.026   7.021  1.00  0.00    -0.398 OA
HETATM   32  H16 UNL     1      -6.856  -7.612   7.323  1.00  0.00     0.209 HD
ENDBRANCH  30  31
ENDBRANCH  26  30
BRANCH  27  33
HETATM   33  O5  UNL     1      -3.468  -8.790   7.579  1.00  0.00    -0.390 OA
HETATM   34  H18 UNL     1      -2.576  -9.146   7.770  1.00  0.00     0.210 HD
ENDBRANCH  27  33
BRANCH  28  35
HETATM   35  O6  UNL     1      -2.003 -10.825   6.574  1.00  0.00    -0.390 OA
HETATM   36  H20 UNL     1      -2.646 -11.486   6.879  1.00  0.00     0.210 HD
ENDBRANCH  28  35
BRANCH  29  37
HETATM   37  O7  UNL     1      -1.890 -11.529   3.959  1.00  0.00    -0.388 OA
HETATM   38  H22 UNL     1      -1.320 -11.632   4.746  1.00  0.00     0.210 HD
ENDBRANCH  29  37
ENDBRANCH  23  24
ENDBRANCH   7  23
BRANCH   1  39
HETATM   39  O1  UNL     1     -10.900  -9.947   0.285  1.00  0.00    -0.386 OA
HETATM   40  C1  UNL     1     -11.234 -11.320   0.461  1.00  0.00     0.202 C 
ENDBRANCH   1  39
BRANCH  17  41
HETATM   41  C25 UNL     1      -9.755  -7.238  -5.685  1.00  0.00    -0.010 C 
HETATM   42  C26 UNL     1      -8.418  -7.322  -6.437  1.00  0.00     0.010 C 
BRANCH  41  43
HETATM   43  C27 UNL     1     -10.493  -5.929  -6.082  1.00  0.00     0.031 C 
BRANCH  43  44
HETATM   44  C28 UNL     1      -9.574  -4.740  -6.169  1.00  0.00    -0.027 C 
HETATM   45  C29 UNL     1      -9.581  -3.706  -5.311  1.00  0.00     0.006 C 
BRANCH  45  46
HETATM   46  C30 UNL     1      -8.678  -2.493  -5.368  1.00  0.00     0.068 C 
HETATM   47  C31 UNL     1      -8.244  -2.234  -6.811  1.00  0.00     0.050 C 
HETATM   48  C32 UNL     1      -9.399  -1.276  -4.791  1.00  0.00     0.050 C 
BRANCH  46  49
HETATM   49  O8  UNL     1      -7.507  -2.725  -4.586  1.00  0.00    -0.387 OA
HETATM   50  H54 UNL     1      -6.936  -1.943  -4.672  1.00  0.00     0.211 HD
ENDBRANCH  46  49
ENDBRANCH  45  46
ENDBRANCH  43  44
ENDBRANCH  41  43
ENDBRANCH  17  41
TORSDOF 13
ENDMDL
MODEL 4
REMARK minimizedAffinity -8.10560799
REMARK CNNscore 0.383461028
REMARK CNNaffinity 7.17749357
REMARK  13 active torsions:
REMARK  status: ('A' for Active; 'I' for Inactive)
REMARK    1  A    between atoms: O1_2  and  C2_3 
REMARK    2  A    between atoms: C8_9  and  O2_10 
REMARK    3  A    between atoms: O2_10  and  C9_11 
REMARK    4  A    between atoms: C10_13  and  C11_14 
REMARK    5  A    between atoms: C11_14  and  O4_15 
REMARK    6  A    between atoms: C12_16  and  O5_17 
REMARK    7  A    between atoms: C13_18  and  O6_19 
REMARK    8  A    between atoms: C14_20  and  O7_21 
REMARK    9  A    between atoms: C24_31  and  C25_32 
REMARK   10  A    between atoms: C25_32  and  C27_34 
REMARK   11  A    between atoms: C27_34  and  C28_35 
REMARK   12  A    between atoms: C29_36  and  C30_37 
REMARK   13  A    between atoms: C30_37  and  O8_40 
ROOT
HETATM    1  C2  UNL     1      -5.144   4.827  13.486  1.00  0.00     0.149 C 
HETATM    2  C3  UNL     1      -3.794   4.790  12.828  1.00  0.00     0.009 C 
HETATM    3  C4  UNL     1      -2.755   5.509  13.298  1.00  0.00    -0.066 C 
HETATM    4  C5  UNL     1      -3.036   6.400  14.504  1.00  0.00     0.024 C 
HETATM    5  C6  UNL     1      -1.821   7.236  14.946  1.00  0.00     0.012 C 
HETATM    6  C7  UNL     1      -0.508   6.461  15.013  1.00  0.00     0.034 C 
HETATM    7  C8  UNL     1      -0.346   5.327  13.990  1.00  0.00     0.136 C 
HETATM    8  C15 UNL     1      -1.315   5.414  12.769  1.00  0.00     0.002 C 
HETATM    9  C16 UNL     1      -1.079   4.143  11.904  1.00  0.00     0.022 C 
HETATM   10  C17 UNL     1      -0.992   6.612  11.849  1.00  0.00     0.022 C 
HETATM   11  C18 UNL     1      -4.370   7.241  14.288  1.00  0.00    -0.030 C 
HETATM   12  C19 UNL     1      -4.149   8.244  13.113  1.00  0.00     0.016 C 
HETATM   13  C20 UNL     1      -4.657   8.092  15.567  1.00  0.00     0.011 C 
HETATM   14  C21 UNL     1      -6.094   8.584  15.834  1.00  0.00     0.011 C 
HETATM   15  C22 UNL     1      -7.219   7.772  15.174  1.00  0.00    -0.032 C 
HETATM   16  C23 UNL     1      -7.665   8.511  13.869  1.00  0.00     0.016 C 
HETATM   17  C24 UNL     1      -8.513   7.552  16.036  1.00  0.00    -0.002 C 
HETATM   18  C33 UNL     1      -9.138   6.283  15.381  1.00  0.00     0.006 C 
HETATM   19  C34 UNL     1      -8.059   5.635  14.496  1.00  0.00     0.011 C 
HETATM   20  C35 UNL     1      -6.738   6.289  14.938  1.00  0.00    -0.029 C 
HETATM   21  C36 UNL     1      -6.293   5.527  16.232  1.00  0.00     0.016 C 
HETATM   22  C37 UNL     1      -5.577   6.271  13.885  1.00  0.00     0.036 C 
ENDROOT
BRANCH   7  23
HETATM   23  O2  UNL     1       1.010   5.307  13.521  1.00  0.00    -0.352 OA
BRANCH  23  24
HETATM   24  C9  UNL     1       1.276   6.192  12.430  1.00  0.00     0.292 C 
HETATM   25  O3  UNL     1       1.950   5.494  11.390  1.00  0.00    -0.348 OA
HETATM   26  C10 UNL     1       2.273   6.306  10.257  1.00  0.00     0.179 C 
HETATM   27  C12 UNL     1       3.194   7.474  10.645  1.00  0.00     0.180 C 
HETATM   28  C13 UNL     1       2.626   8.258  11.831  1.00  0.00     0.183 C 
HETATM   29  C14 UNL     1       2.139   7.356  12.968  1.00  0.00     0.204 C 
BRANCH  26  30
HETATM   30  C11 UNL     1       2.923   5.411   9.187  1.00  0.00     0.198 C 
BRANCH  30  31
HETATM   31  O4  UNL     1       3.225   4.117   9.708  1.00  0.00    -0.398 OA
HETATM   32  H16 UNL     1       3.631   3.607   8.987  1.00  0.00     0.209 HD
ENDBRANCH  30  31
ENDBRANCH  26  30
BRANCH  27  33
HETATM   33  O5  UNL     1       3.354   8.358   9.525  1.00  0.00    -0.390 OA
HETATM   34  H18 UNL     1       2.959   9.219   9.775  1.00  0.00     0.210 HD
ENDBRANCH  27  33
BRANCH  28  35
HETATM   35  O6  UNL     1       1.557   9.129  11.388  1.00  0.00    -0.390 OA
HETATM   36  H20 UNL     1       0.853   8.598  10.981  1.00  0.00     0.210 HD
ENDBRANCH  28  35
BRANCH  29  37
HETATM   37  O7  UNL     1       1.405   8.155  13.913  1.00  0.00    -0.388 OA
HETATM   38  H22 UNL     1       1.137   8.974  13.452  1.00  0.00     0.210 HD
ENDBRANCH  29  37
ENDBRANCH  23  24
ENDBRANCH   7  23
BRANCH   1  39
HETATM   39  O1  UNL     1      -6.113   4.314  12.562  1.00  0.00    -0.386 OA
HETATM   40  C1  UNL     1      -5.626   3.226  11.784  1.00  0.00     0.202 C 
ENDBRANCH   1  39
BRANCH  17  41
HETATM   41  C25 UNL     1      -9.545   8.712  16.190  1.00  0.00    -0.010 C 
HETATM   42  C26 UNL     1     -10.315   8.616  17.516  1.00  0.00     0.010 C 
BRANCH  41  43
HETATM   43  C27 UNL     1     -10.550   8.719  15.004  1.00  0.00     0.031 C 
BRANCH  43  44
HETATM   44  C28 UNL     1     -10.985  10.105  14.612  1.00  0.00    -0.027 C 
HETATM   45  C29 UNL     1     -10.457  11.239  15.107  1.00  0.00     0.006 C 
BRANCH  45  46
HETATM   46  C30 UNL     1     -10.869  12.648  14.742  1.00  0.00     0.068 C 
HETATM   47  C31 UNL     1     -11.501  13.337  15.953  1.00  0.00     0.050 C 
HETATM   48  C32 UNL     1      -9.659  13.435  14.241  1.00  0.00     0.050 C 
BRANCH  46  49
HETATM   49  O8  UNL     1     -11.839  12.613  13.695  1.00  0.00    -0.387 OA
HETATM   50  H54 UNL     1     -12.105  13.529  13.510  1.00  0.00     0.211 HD
ENDBRANCH  46  49
ENDBRANCH  45  46
ENDBRANCH  43  44
ENDBRANCH  41  43
ENDBRANCH  17  41
TORSDOF 13
ENDMDL
MODEL 5
REMARK minimizedAffinity -9.72370338
REMARK CNNscore 0.372110665
REMARK CNNaffinity 7.20130587
REMARK  13 active torsions:
REMARK  status: ('A' for Active; 'I' for Inactive)
REMARK    1  A    between atoms: O1_2  and  C2_3 
REMARK    2  A    between atoms: C8_9  and  O2_10 
REMARK    3  A    between atoms: O2_10  and  C9_11 
REMARK    4  A    between atoms: C10_13  and  C11_14 
REMARK    5  A    between atoms: C11_14  and  O4_15 
REMARK    6  A    between atoms: C12_16  and  O5_17 
REMARK    7  A    between atoms: C13_18  and  O6_19 
REMARK    8  A    between atoms: C14_20  and  O7_21 
REMARK    9  A    between atoms: C24_31  and  C25_32 
REMARK   10  A    between atoms: C25_32  and  C27_34 
REMARK   11  A    between atoms: C27_34  and  C28_35 
REMARK   12  A    between atoms: C29_36  and  C30_37 
REMARK   13  A    between atoms: C30_37  and  O8_40 
ROOT
HETATM    1  C2  UNL     1      -0.685   7.646  15.115  1.00  0.00     0.149 C 
HETATM    2  C3  UNL     1       0.282   8.717  15.533  1.00  0.00     0.009 C 
HETATM    3  C4  UNL     1      -0.049   9.658  16.439  1.00  0.00    -0.066 C 
HETATM    4  C5  UNL     1      -1.475   9.606  16.981  1.00  0.00     0.024 C 
HETATM    5  C6  UNL     1      -1.800  10.747  17.963  1.00  0.00     0.012 C 
HETATM    6  C7  UNL     1      -0.723  11.006  19.013  1.00  0.00     0.034 C 
HETATM    7  C8  UNL     1       0.724  10.747  18.567  1.00  0.00     0.136 C 
HETATM    8  C15 UNL     1       0.926  10.695  17.020  1.00  0.00     0.002 C 
HETATM    9  C16 UNL     1       2.413  10.325  16.763  1.00  0.00     0.022 C 
HETATM   10  C17 UNL     1       0.716  12.073  16.355  1.00  0.00     0.022 C 
HETATM   11  C18 UNL     1      -2.525   9.438  15.797  1.00  0.00    -0.030 C 
HETATM   12  C19 UNL     1      -2.498  10.724  14.913  1.00  0.00     0.016 C 
HETATM   13  C20 UNL     1      -3.965   9.327  16.396  1.00  0.00     0.011 C 
HETATM   14  C21 UNL     1      -5.077   8.666  15.557  1.00  0.00     0.011 C 
HETATM   15  C22 UNL     1      -4.610   7.685  14.470  1.00  0.00    -0.032 C 
HETATM   16  C23 UNL     1      -4.606   8.431  13.096  1.00  0.00     0.016 C 
HETATM   17  C24 UNL     1      -5.482   6.392  14.284  1.00  0.00    -0.002 C 
HETATM   18  C33 UNL     1      -4.478   5.408  13.609  1.00  0.00     0.006 C 
HETATM   19  C34 UNL     1      -3.064   5.988  13.788  1.00  0.00     0.011 C 
HETATM   20  C35 UNL     1      -3.214   7.072  14.871  1.00  0.00    -0.029 C 
HETATM   21  C36 UNL     1      -3.196   6.314  16.242  1.00  0.00     0.016 C 
HETATM   22  C37 UNL     1      -2.123   8.196  14.872  1.00  0.00     0.036 C 
ENDROOT
BRANCH   7  23
HETATM   23  O2  UNL     1       1.576  11.758  19.125  1.00  0.00    -0.352 OA
BRANCH  23  24
HETATM   24  C9  UNL     1       2.646  11.257  19.930  1.00  0.00     0.292 C 
HETATM   25  O3  UNL     1       2.132  10.415  20.953  1.00  0.00    -0.348 OA
HETATM   26  C10 UNL     1       3.133   9.876  21.824  1.00  0.00     0.179 C 
HETATM   27  C12 UNL     1       3.908  10.989  22.546  1.00  0.00     0.180 C 
HETATM   28  C13 UNL     1       4.439  12.029  21.555  1.00  0.00     0.183 C 
HETATM   29  C14 UNL     1       3.390  12.471  20.532  1.00  0.00     0.204 C 
BRANCH  26  30
HETATM   30  C11 UNL     1       2.448   8.930  22.825  1.00  0.00     0.198 C 
BRANCH  30  31
HETATM   31  O4  UNL     1       1.851   7.817  22.160  1.00  0.00    -0.398 OA
HETATM   32  H16 UNL     1       1.438   7.263  22.845  1.00  0.00     0.209 HD
ENDBRANCH  30  31
ENDBRANCH  26  30
BRANCH  27  33
HETATM   33  O5  UNL     1       5.009  10.421  23.271  1.00  0.00    -0.390 OA
HETATM   34  H18 UNL     1       5.832  10.769  22.871  1.00  0.00     0.210 HD
ENDBRANCH  27  33
BRANCH  28  35
HETATM   35  O6  UNL     1       5.615  11.521  20.881  1.00  0.00    -0.390 OA
HETATM   36  H20 UNL     1       5.391  10.703  20.406  1.00  0.00     0.210 HD
ENDBRANCH  28  35
BRANCH  29  37
HETATM   37  O7  UNL     1       4.038  13.245  19.507  1.00  0.00    -0.388 OA
HETATM   38  H22 UNL     1       4.991  13.033  19.544  1.00  0.00     0.210 HD
ENDBRANCH  29  37
ENDBRANCH  23  24
ENDBRANCH   7  23
BRANCH   1  39
HETATM   39  O1  UNL     1      -0.219   7.068  13.888  1.00  0.00    -0.386 OA
HETATM   40  C1  UNL     1       1.136   6.637  13.948  1.00  0.00     0.202 C 
ENDBRANCH   1  39
BRANCH  17  41
HETATM   41  C25 UNL     1      -6.838   6.479  13.514  1.00  0.00    -0.010 C 
HETATM   42  C26 UNL     1      -7.864   7.339  14.266  1.00  0.00     0.010 C 
BRANCH  41  43
HETATM   43  C27 UNL     1      -7.425   5.061  13.270  1.00  0.00     0.031 C 
BRANCH  43  44
HETATM   44  C28 UNL     1      -6.711   4.311  12.178  1.00  0.00    -0.027 C 
HETATM   45  C29 UNL     1      -6.184   3.081  12.315  1.00  0.00     0.006 C 
BRANCH  45  46
HETATM   46  C30 UNL     1      -5.457   2.298  11.244  1.00  0.00     0.068 C 
HETATM   47  C31 UNL     1      -3.991   2.113  11.639  1.00  0.00     0.050 C 
HETATM   48  C32 UNL     1      -6.136   0.945  11.032  1.00  0.00     0.050 C 
BRANCH  46  49
HETATM   49  O8  UNL     1      -5.499   3.013  10.010  1.00  0.00    -0.387 OA
HETATM   50  H54 UNL     1      -4.995   2.500   9.356  1.00  0.00     0.211 HD
ENDBRANCH  46  49
ENDBRANCH  45  46
ENDBRANCH  43  44
ENDBRANCH  41  43
ENDBRANCH  17  41
TORSDOF 13
ENDMDL
MODEL 6
REMARK minimizedAffinity -8.02324867
REMARK CNNscore 0.362292588
REMARK CNNaffinity 7.28800583
REMARK  13 active torsions:
REMARK  status: ('A' for Active; 'I' for Inactive)
REMARK    1  A    between atoms: O1_2  and  C2_3 
REMARK    2  A    between atoms: C8_9  and  O2_10 
REMARK    3  A    between atoms: O2_10  and  C9_11 
REMARK    4  A    between atoms: C10_13  and  C11_14 
REMARK    5  A    between atoms: C11_14  and  O4_15 
REMARK    6  A    between atoms: C12_16  and  O5_17 
REMARK    7  A    between atoms: C13_18  and  O6_19 
REMARK    8  A    between atoms: C14_20  and  O7_21 
REMARK    9  A    between atoms: C24_31  and  C25_32 
REMARK   10  A    between atoms: C25_32  and  C27_34 
REMARK   11  A    between atoms: C27_34  and  C28_35 
REMARK   12  A    between atoms: C29_36  and  C30_37 
REMARK   13  A    between atoms: C30_37  and  O8_40 
ROOT
HETATM    1  C2  UNL     1      -5.014   4.796  13.397  1.00  0.00     0.149 C 
HETATM    2  C3  UNL     1      -3.676   4.754  12.715  1.00  0.00     0.009 C 
HETATM    3  C4  UNL     1      -2.628   5.476  13.161  1.00  0.00    -0.066 C 
HETATM    4  C5  UNL     1      -2.888   6.374  14.366  1.00  0.00     0.024 C 
HETATM    5  C6  UNL     1      -1.664   7.213  14.781  1.00  0.00     0.012 C 
HETATM    6  C7  UNL     1      -0.351   6.437  14.830  1.00  0.00     0.034 C 
HETATM    7  C8  UNL     1      -0.208   5.297  13.810  1.00  0.00     0.136 C 
HETATM    8  C15 UNL     1      -1.198   5.377  12.606  1.00  0.00     0.002 C 
HETATM    9  C16 UNL     1      -0.979   4.101  11.746  1.00  0.00     0.022 C 
HETATM   10  C17 UNL     1      -0.892   6.569  11.673  1.00  0.00     0.022 C 
HETATM   11  C18 UNL     1      -4.225   7.214  14.170  1.00  0.00    -0.030 C 
HETATM   12  C19 UNL     1      -4.024   8.211  12.985  1.00  0.00     0.016 C 
HETATM   13  C20 UNL     1      -4.488   8.074  15.449  1.00  0.00     0.011 C 
HETATM   14  C21 UNL     1      -5.919   8.568  15.739  1.00  0.00     0.011 C 
HETATM   15  C22 UNL     1      -7.057   7.753  15.104  1.00  0.00    -0.032 C 
HETATM   16  C23 UNL     1      -7.526   8.484  13.803  1.00  0.00     0.016 C 
HETATM   17  C24 UNL     1      -8.335   7.538  15.991  1.00  0.00    -0.002 C 
HETATM   18  C33 UNL     1      -8.973   6.266  15.355  1.00  0.00     0.006 C 
HETATM   19  C34 UNL     1      -7.910   5.611  14.455  1.00  0.00     0.011 C 
HETATM   20  C35 UNL     1      -6.581   6.268  14.869  1.00  0.00    -0.029 C 
HETATM   21  C36 UNL     1      -6.112   5.514  16.159  1.00  0.00     0.016 C 
HETATM   22  C37 UNL     1      -5.439   6.243  13.795  1.00  0.00     0.036 C 
ENDROOT
BRANCH   7  23
HETATM   23  O2  UNL     1       1.140   5.273  13.317  1.00  0.00    -0.352 OA
BRANCH  23  24
HETATM   24  C9  UNL     1       1.420   6.243  12.304  1.00  0.00     0.292 C 
HETATM   25  O3  UNL     1       1.975   5.606  11.160  1.00  0.00    -0.348 OA
HETATM   26  C10 UNL     1       2.304   6.503  10.094  1.00  0.00     0.179 C 
HETATM   27  C12 UNL     1       3.340   7.547  10.537  1.00  0.00     0.180 C 
HETATM   28  C13 UNL     1       2.906   8.247  11.829  1.00  0.00     0.183 C 
HETATM   29  C14 UNL     1       2.407   7.273  12.899  1.00  0.00     0.204 C 
BRANCH  26  30
HETATM   30  C11 UNL     1       2.816   5.675   8.903  1.00  0.00     0.198 C 
BRANCH  30  31
HETATM   31  O4  UNL     1       2.538   6.325   7.663  1.00  0.00    -0.398 OA
HETATM   32  H16 UNL     1       2.884   5.752   6.957  1.00  0.00     0.209 HD
ENDBRANCH  30  31
ENDBRANCH  26  30
BRANCH  27  33
HETATM   33  O5  UNL     1       3.513   8.527   9.503  1.00  0.00    -0.390 OA
HETATM   34  H18 UNL     1       3.207   9.386   9.861  1.00  0.00     0.210 HD
ENDBRANCH  27  33
BRANCH  28  35
HETATM   35  O6  UNL     1       1.893   9.240  11.542  1.00  0.00    -0.390 OA
HETATM   36  H20 UNL     1       1.124   8.812  11.129  1.00  0.00     0.210 HD
ENDBRANCH  28  35
BRANCH  29  37
HETATM   37  O7  UNL     1       1.796   8.025  13.963  1.00  0.00    -0.388 OA
HETATM   38  H22 UNL     1       1.574   8.906  13.603  1.00  0.00     0.210 HD
ENDBRANCH  29  37
ENDBRANCH  23  24
ENDBRANCH   7  23
BRANCH   1  39
HETATM   39  O1  UNL     1      -6.000   4.278  12.493  1.00  0.00    -0.386 OA
HETATM   40  C1  UNL     1      -5.601   3.067  11.861  1.00  0.00     0.202 C 
ENDBRANCH   1  39
BRANCH  17  41
HETATM   41  C25 UNL     1      -9.364   8.700  16.157  1.00  0.00    -0.010 C 
HETATM   42  C26 UNL     1     -10.282   8.478  17.368  1.00  0.00     0.010 C 
BRANCH  41  43
HETATM   43  C27 UNL     1     -10.226   8.862  14.874  1.00  0.00     0.031 C 
BRANCH  43  44
HETATM   44  C28 UNL     1     -11.631   8.351  15.043  1.00  0.00    -0.027 C 
HETATM   45  C29 UNL     1     -12.319   7.683  14.101  1.00  0.00     0.006 C 
BRANCH  45  46
HETATM   46  C30 UNL     1     -13.733   7.158  14.231  1.00  0.00     0.068 C 
HETATM   47  C31 UNL     1     -14.551   7.554  13.001  1.00  0.00     0.050 C 
HETATM   48  C32 UNL     1     -13.714   5.640  14.406  1.00  0.00     0.050 C 
BRANCH  46  49
HETATM   49  O8  UNL     1     -14.356   7.729  15.382  1.00  0.00    -0.387 OA
HETATM   50  H54 UNL     1     -15.269   7.398  15.416  1.00  0.00     0.211 HD
ENDBRANCH  46  49
ENDBRANCH  45  46
ENDBRANCH  43  44
ENDBRANCH  41  43
ENDBRANCH  17  41
TORSDOF 13
ENDMDL
MODEL 7
REMARK minimizedAffinity -7.56049871
REMARK CNNscore 0.331180513
REMARK CNNaffinity 7.08245039
REMARK  13 active torsions:
REMARK  status: ('A' for Active; 'I' for Inactive)
REMARK    1  A    between atoms: O1_2  and  C2_3 
REMARK    2  A    between atoms: C8_9  and  O2_10 
REMARK    3  A    between atoms: O2_10  and  C9_11 
REMARK    4  A    between atoms: C10_13  and  C11_14 
REMARK    5  A    between atoms: C11_14  and  O4_15 
REMARK    6  A    between atoms: C12_16  and  O5_17 
REMARK    7  A    between atoms: C13_18  and  O6_19 
REMARK    8  A    between atoms: C14_20  and  O7_21 
REMARK    9  A    between atoms: C24_31  and  C25_32 
REMARK   10  A    between atoms: C25_32  and  C27_34 
REMARK   11  A    between atoms: C27_34  and  C28_35 
REMARK   12  A    between atoms: C29_36  and  C30_37 
REMARK   13  A    between atoms: C30_37  and  O8_40 
ROOT
HETATM    1  C2  UNL     1       4.844  10.576  15.874  1.00  0.00     0.149 C 
HETATM    2  C3  UNL     1       6.257  10.393  16.351  1.00  0.00     0.009 C 
HETATM    3  C4  UNL     1       7.220   9.900  15.546  1.00  0.00    -0.066 C 
HETATM    4  C5  UNL     1       6.786   9.493  14.141  1.00  0.00     0.024 C 
HETATM    5  C6  UNL     1       7.923   8.883  13.301  1.00  0.00     0.012 C 
HETATM    6  C7  UNL     1       9.243   9.647  13.369  1.00  0.00     0.034 C 
HETATM    7  C8  UNL     1       9.545  10.344  14.704  1.00  0.00     0.136 C 
HETATM    8  C15 UNL     1       8.710   9.817  15.913  1.00  0.00     0.002 C 
HETATM    9  C16 UNL     1       9.071  10.699  17.141  1.00  0.00     0.022 C 
HETATM   10  C17 UNL     1       9.095   8.374  16.307  1.00  0.00     0.022 C 
HETATM   11  C18 UNL     1       5.460   8.615  14.189  1.00  0.00    -0.030 C 
HETATM   12  C19 UNL     1       5.777   7.261  14.899  1.00  0.00     0.016 C 
HETATM   13  C20 UNL     1       5.014   8.271  12.730  1.00  0.00     0.011 C 
HETATM   14  C21 UNL     1       3.545   7.890  12.465  1.00  0.00     0.011 C 
HETATM   15  C22 UNL     1       2.519   8.400  13.489  1.00  0.00    -0.032 C 
HETATM   16  C23 UNL     1       2.194   7.240  14.487  1.00  0.00     0.016 C 
HETATM   17  C24 UNL     1       1.148   8.898  12.909  1.00  0.00    -0.002 C 
HETATM   18  C33 UNL     1       0.631   9.843  14.036  1.00  0.00     0.006 C 
HETATM   19  C34 UNL     1       1.816  10.147  14.969  1.00  0.00     0.011 C 
HETATM   20  C35 UNL     1       3.064   9.707  14.182  1.00  0.00    -0.029 C 
HETATM   21  C36 UNL     1       3.391  10.885  13.202  1.00  0.00     0.016 C 
HETATM   22  C37 UNL     1       4.330   9.364  15.039  1.00  0.00     0.036 C 
ENDROOT
BRANCH   7  23
HETATM   23  O2  UNL     1      10.943  10.212  14.998  1.00  0.00    -0.352 OA
BRANCH  23  24
HETATM   24  C9  UNL     1      11.773  11.214  14.407  1.00  0.00     0.292 C 
HETATM   25  O3  UNL     1      11.544  11.271  13.004  1.00  0.00    -0.348 OA
HETATM   26  C10 UNL     1      12.345  12.241  12.321  1.00  0.00     0.179 C 
HETATM   27  C12 UNL     1      13.844  11.951  12.490  1.00  0.00     0.180 C 
HETATM   28  C13 UNL     1      14.212  11.768  13.965  1.00  0.00     0.183 C 
HETATM   29  C14 UNL     1      13.243  10.850  14.714  1.00  0.00     0.204 C 
BRANCH  26  30
HETATM   30  C11 UNL     1      11.939  12.247  10.837  1.00  0.00     0.198 C 
BRANCH  30  31
HETATM   31  O4  UNL     1      11.556  10.944  10.398  1.00  0.00    -0.398 OA
HETATM   32  H16 UNL     1      11.314  11.018   9.459  1.00  0.00     0.209 HD
ENDBRANCH  30  31
ENDBRANCH  26  30
BRANCH  27  33
HETATM   33  O5  UNL     1      14.612  13.033  11.941  1.00  0.00    -0.390 OA
HETATM   34  H18 UNL     1      15.101  13.449  12.681  1.00  0.00     0.210 HD
ENDBRANCH  27  33
BRANCH  28  35
HETATM   35  O6  UNL     1      14.293  13.056  14.622  1.00  0.00    -0.390 OA
HETATM   36  H20 UNL     1      13.438  13.512  14.553  1.00  0.00     0.210 HD
ENDBRANCH  28  35
BRANCH  29  37
HETATM   37  O7  UNL     1      13.517  10.937  16.124  1.00  0.00    -0.388 OA
HETATM   38  H22 UNL     1      14.014  11.765  16.271  1.00  0.00     0.210 HD
ENDBRANCH  29  37
ENDBRANCH  23  24
ENDBRANCH   7  23
BRANCH   1  39
HETATM   39  O1  UNL     1       3.994  10.715  17.021  1.00  0.00    -0.386 OA
HETATM   40  C1  UNL     1       4.483  11.653  17.973  1.00  0.00     0.202 C 
ENDBRANCH   1  39
BRANCH  17  41
HETATM   41  C25 UNL     1       0.072   7.856  12.466  1.00  0.00    -0.010 C 
HETATM   42  C26 UNL     1       0.558   6.414  12.672  1.00  0.00     0.010 C 
BRANCH  41  43
HETATM   43  C27 UNL     1      -0.319   8.066  10.977  1.00  0.00     0.031 C 
BRANCH  43  44
HETATM   44  C28 UNL     1       0.734   7.577  10.019  1.00  0.00    -0.027 C 
HETATM   45  C29 UNL     1       1.157   8.256   8.938  1.00  0.00     0.006 C 
BRANCH  45  46
HETATM   46  C30 UNL     1       2.208   7.796   7.951  1.00  0.00     0.068 C 
HETATM   47  C31 UNL     1       3.065   6.695   8.578  1.00  0.00     0.050 C 
HETATM   48  C32 UNL     1       1.541   7.301   6.669  1.00  0.00     0.050 C 
BRANCH  46  49
HETATM   49  O8  UNL     1       3.063   8.888   7.613  1.00  0.00    -0.387 OA
HETATM   50  H54 UNL     1       3.744   8.551   7.007  1.00  0.00     0.211 HD
ENDBRANCH  46  49
ENDBRANCH  45  46
ENDBRANCH  43  44
ENDBRANCH  41  43
ENDBRANCH  17  41
TORSDOF 13
ENDMDL
MODEL 8
REMARK minimizedAffinity -10.3441858
REMARK CNNscore 0.292506844
REMARK CNNaffinity 7.57549524
REMARK  13 active torsions:
REMARK  status: ('A' for Active; 'I' for Inactive)
REMARK    1  A    between atoms: O1_2  and  C2_3 
REMARK    2  A    between atoms: C8_9  and  O2_10 
REMARK    3  A    between atoms: O2_10  and  C9_11 
REMARK    4  A    between atoms: C10_13  and  C11_14 
REMARK    5  A    between atoms: C11_14  and  O4_15 
REMARK    6  A    between atoms: C12_16  and  O5_17 
REMARK    7  A    between atoms: C13_18  and  O6_19 
REMARK    8  A    between atoms: C14_20  and  O7_21 
REMARK    9  A    between atoms: C24_31  and  C25_32 
REMARK   10  A    between atoms: C25_32  and  C27_34 
REMARK   11  A    between atoms: C27_34  and  C28_35 
REMARK   12  A    between atoms: C29_36  and  C30_37 
REMARK   13  A    between atoms: C30_37  and  O8_40 
ROOT
HETATM    1  C2  UNL     1      -0.145   5.227  12.023  1.00  0.00     0.149 C 
HETATM    2  C3  UNL     1       0.978   5.411  11.043  1.00  0.00     0.009 C 
HETATM    3  C4  UNL     1       1.782   6.492  11.080  1.00  0.00    -0.066 C 
HETATM    4  C5  UNL     1       1.460   7.541  12.140  1.00  0.00     0.024 C 
HETATM    5  C6  UNL     1       2.382   8.774  12.083  1.00  0.00     0.012 C 
HETATM    6  C7  UNL     1       3.865   8.450  11.930  1.00  0.00     0.034 C 
HETATM    7  C8  UNL     1       4.196   7.189  11.118  1.00  0.00     0.136 C 
HETATM    8  C15 UNL     1       3.034   6.682  10.207  1.00  0.00     0.002 C 
HETATM    9  C16 UNL     1       3.509   5.356   9.550  1.00  0.00     0.022 C 
HETATM   10  C17 UNL     1       2.741   7.647   9.038  1.00  0.00     0.022 C 
HETATM   11  C18 UNL     1      -0.094   7.882  12.147  1.00  0.00    -0.030 C 
HETATM   12  C19 UNL     1      -0.464   8.574  10.797  1.00  0.00     0.016 C 
HETATM   13  C20 UNL     1      -0.393   8.911  13.285  1.00  0.00     0.011 C 
HETATM   14  C21 UNL     1      -1.827   9.023  13.838  1.00  0.00     0.011 C 
HETATM   15  C22 UNL     1      -2.718   7.783  13.659  1.00  0.00    -0.032 C 
HETATM   16  C23 UNL     1      -3.637   8.006  12.414  1.00  0.00     0.016 C 
HETATM   17  C24 UNL     1      -3.661   7.428  14.863  1.00  0.00    -0.002 C 
HETATM   18  C33 UNL     1      -3.936   5.911  14.636  1.00  0.00     0.006 C 
HETATM   19  C34 UNL     1      -2.900   5.395  13.622  1.00  0.00     0.011 C 
HETATM   20  C35 UNL     1      -1.819   6.491  13.569  1.00  0.00    -0.029 C 
HETATM   21  C36 UNL     1      -0.894   6.243  14.808  1.00  0.00     0.016 C 
HETATM   22  C37 UNL     1      -0.955   6.538  12.263  1.00  0.00     0.036 C 
ENDROOT
BRANCH   7  23
HETATM   23  O2  UNL     1       5.357   7.440  10.312  1.00  0.00    -0.352 OA
BRANCH  23  24
HETATM   24  C9  UNL     1       6.433   8.080  11.001  1.00  0.00     0.292 C 
HETATM   25  O3  UNL     1       6.561   7.542  12.311  1.00  0.00    -0.348 OA
HETATM   26  C10 UNL     1       7.607   8.135  13.087  1.00  0.00     0.179 C 
HETATM   27  C12 UNL     1       7.384   9.644  13.273  1.00  0.00     0.180 C 
HETATM   28  C13 UNL     1       7.133  10.338  11.931  1.00  0.00     0.183 C 
HETATM   29  C14 UNL     1       6.126   9.594  11.051  1.00  0.00     0.204 C 
BRANCH  26  30
HETATM   30  C11 UNL     1       7.681   7.408  14.441  1.00  0.00     0.198 C 
BRANCH  30  31
HETATM   31  O4  UNL     1       6.474   6.697  14.714  1.00  0.00    -0.398 OA
HETATM   32  H16 UNL     1       6.586   6.265  15.578  1.00  0.00     0.209 HD
ENDBRANCH  30  31
ENDBRANCH  26  30
BRANCH  27  33
HETATM   33  O5  UNL     1       8.534  10.230  13.902  1.00  0.00    -0.390 OA
HETATM   34  H18 UNL     1       8.929  10.856  13.261  1.00  0.00     0.210 HD
ENDBRANCH  27  33
BRANCH  28  35
HETATM   35  O6  UNL     1       8.383  10.517  11.221  1.00  0.00    -0.390 OA
HETATM   36  H20 UNL     1       8.798   9.652  11.068  1.00  0.00     0.210 HD
ENDBRANCH  28  35
BRANCH  29  37
HETATM   37  O7  UNL     1       6.143  10.173   9.734  1.00  0.00    -0.388 OA
HETATM   38  H22 UNL     1       6.985  10.660   9.644  1.00  0.00     0.210 HD
ENDBRANCH  29  37
ENDBRANCH  23  24
ENDBRANCH   7  23
BRANCH   1  39
HETATM   39  O1  UNL     1      -1.046   4.241  11.500  1.00  0.00    -0.386 OA
HETATM   40  C1  UNL     1      -0.562   2.909  11.637  1.00  0.00     0.202 C 
ENDBRANCH   1  39
BRANCH  17  41
HETATM   41  C25 UNL     1      -4.974   8.244  15.083  1.00  0.00    -0.010 C 
HETATM   42  C26 UNL     1      -4.810   9.298  16.187  1.00  0.00     0.010 C 
BRANCH  41  43
HETATM   43  C27 UNL     1      -6.158   7.301  15.435  1.00  0.00     0.031 C 
BRANCH  43  44
HETATM   44  C28 UNL     1      -6.763   6.642  14.224  1.00  0.00    -0.027 C 
HETATM   45  C29 UNL     1      -7.210   5.374  14.188  1.00  0.00     0.006 C 
BRANCH  45  46
HETATM   46  C30 UNL     1      -7.818   4.677  12.992  1.00  0.00     0.068 C 
HETATM   47  C31 UNL     1      -8.605   5.680  12.147  1.00  0.00     0.050 C 
HETATM   48  C32 UNL     1      -6.722   4.010  12.161  1.00  0.00     0.050 C 
BRANCH  46  49
HETATM   49  O8  UNL     1      -8.720   3.661  13.431  1.00  0.00    -0.387 OA
HETATM   50  H54 UNL     1      -9.117   3.258  12.640  1.00  0.00     0.211 HD
ENDBRANCH  46  49
ENDBRANCH  45  46
ENDBRANCH  43  44
ENDBRANCH  41  43
ENDBRANCH  17  41
TORSDOF 13
ENDMDL
MODEL 9
REMARK minimizedAffinity -7.74406433
REMARK CNNscore 0.28279531
REMARK CNNaffinity 7.20901489
REMARK  13 active torsions:
REMARK  status: ('A' for Active; 'I' for Inactive)
REMARK    1  A    between atoms: O1_2  and  C2_3 
REMARK    2  A    between atoms: C8_9  and  O2_10 
REMARK    3  A    between atoms: O2_10  and  C9_11 
REMARK    4  A    between atoms: C10_13  and  C11_14 
REMARK    5  A    between atoms: C11_14  and  O4_15 
REMARK    6  A    between atoms: C12_16  and  O5_17 
REMARK    7  A    between atoms: C13_18  and  O6_19 
REMARK    8  A    between atoms: C14_20  and  O7_21 
REMARK    9  A    between atoms: C24_31  and  C25_32 
REMARK   10  A    between atoms: C25_32  and  C27_34 
REMARK   11  A    between atoms: C27_34  and  C28_35 
REMARK   12  A    between atoms: C29_36  and  C30_37 
REMARK   13  A    between atoms: C30_37  and  O8_40 
ROOT
HETATM    1  C2  UNL     1     -10.333  10.027  14.589  1.00  0.00     0.149 C 
HETATM    2  C3  UNL     1      -9.184   9.243  15.156  1.00  0.00     0.009 C 
HETATM    3  C4  UNL     1      -8.871   8.013  14.703  1.00  0.00    -0.066 C 
HETATM    4  C5  UNL     1      -9.776   7.440  13.616  1.00  0.00     0.024 C 
HETATM    5  C6  UNL     1      -9.395   6.010  13.191  1.00  0.00     0.012 C 
HETATM    6  C7  UNL     1      -7.901   5.792  12.964  1.00  0.00     0.034 C 
HETATM    7  C8  UNL     1      -6.961   6.621  13.851  1.00  0.00     0.136 C 
HETATM    8  C15 UNL     1      -7.631   7.212  15.131  1.00  0.00     0.002 C 
HETATM    9  C16 UNL     1      -6.567   8.094  15.842  1.00  0.00     0.022 C 
HETATM   10  C17 UNL     1      -8.015   6.117  16.150  1.00  0.00     0.022 C 
HETATM   11  C18 UNL     1     -11.309   7.626  13.999  1.00  0.00    -0.030 C 
HETATM   12  C19 UNL     1     -11.623   6.757  15.257  1.00  0.00     0.016 C 
HETATM   13  C20 UNL     1     -12.202   7.084  12.835  1.00  0.00     0.011 C 
HETATM   14  C21 UNL     1     -13.654   7.585  12.709  1.00  0.00     0.011 C 
HETATM   15  C22 UNL     1     -13.956   8.950  13.347  1.00  0.00    -0.032 C 
HETATM   16  C23 UNL     1     -14.612   8.710  14.747  1.00  0.00     0.016 C 
HETATM   17  C24 UNL     1     -14.925   9.891  12.547  1.00  0.00    -0.002 C 
HETATM   18  C33 UNL     1     -14.556  11.300  13.102  1.00  0.00     0.006 C 
HETATM   19  C34 UNL     1     -13.215  11.172  13.847  1.00  0.00     0.011 C 
HETATM   20  C35 UNL     1     -12.640   9.817  13.397  1.00  0.00    -0.029 C 
HETATM   21  C36 UNL     1     -11.968  10.077  12.006  1.00  0.00     0.016 C 
HETATM   22  C37 UNL     1     -11.606   9.154  14.370  1.00  0.00     0.036 C 
ENDROOT
BRANCH   7  23
HETATM   23  O2  UNL     1      -5.839   5.811  14.232  1.00  0.00    -0.352 OA
BRANCH  23  24
HETATM   24  C9  UNL     1      -5.207   5.122  13.150  1.00  0.00     0.292 C 
HETATM   25  O3  UNL     1      -5.847   3.871  12.930  1.00  0.00    -0.348 OA
HETATM   26  C10 UNL     1      -5.271   3.100  11.871  1.00  0.00     0.179 C 
HETATM   27  C12 UNL     1      -3.796   2.773  12.150  1.00  0.00     0.180 C 
HETATM   28  C13 UNL     1      -3.005   4.036  12.502  1.00  0.00     0.183 C 
HETATM   29  C14 UNL     1      -3.720   4.926  13.521  1.00  0.00     0.204 C 
BRANCH  26  30
HETATM   30  C11 UNL     1      -6.105   1.819  11.693  1.00  0.00     0.198 C 
BRANCH  30  31
HETATM   31  O4  UNL     1      -6.042   1.342  10.349  1.00  0.00    -0.398 OA
HETATM   32  H16 UNL     1      -6.587   0.537  10.306  1.00  0.00     0.209 HD
ENDBRANCH  30  31
ENDBRANCH  26  30
BRANCH  27  33
HETATM   33  O5  UNL     1      -3.210   2.153  10.996  1.00  0.00    -0.390 OA
HETATM   34  H18 UNL     1      -2.513   2.756  10.663  1.00  0.00     0.210 HD
ENDBRANCH  27  33
BRANCH  28  35
HETATM   35  O6  UNL     1      -2.706   4.789  11.301  1.00  0.00    -0.390 OA
HETATM   36  H20 UNL     1      -3.534   5.036  10.857  1.00  0.00     0.210 HD
ENDBRANCH  28  35
BRANCH  29  37
HETATM   37  O7  UNL     1      -3.033   6.188  13.599  1.00  0.00    -0.388 OA
HETATM   38  H22 UNL     1      -2.499   6.277  12.786  1.00  0.00     0.210 HD
ENDBRANCH  29  37
ENDBRANCH  23  24
ENDBRANCH   7  23
BRANCH   1  39
HETATM   39  O1  UNL     1     -10.667  11.073  15.511  1.00  0.00    -0.386 OA
HETATM   40  C1  UNL     1      -9.624  12.026  15.683  1.00  0.00     0.202 C 
ENDBRANCH   1  39
BRANCH  17  41
HETATM   41  C25 UNL     1     -16.462   9.624  12.577  1.00  0.00    -0.010 C 
HETATM   42  C26 UNL     1     -16.985   9.471  14.013  1.00  0.00     0.010 C 
BRANCH  41  43
HETATM   43  C27 UNL     1     -16.818   8.354  11.756  1.00  0.00     0.031 C 
BRANCH  43  44
HETATM   44  C28 UNL     1     -17.386   7.247  12.604  1.00  0.00    -0.027 C 
HETATM   45  C29 UNL     1     -16.894   5.996  12.656  1.00  0.00     0.006 C 
BRANCH  45  46
HETATM   46  C30 UNL     1     -17.439   4.858  13.490  1.00  0.00     0.068 C 
HETATM   47  C31 UNL     1     -17.943   3.738  12.578  1.00  0.00     0.050 C 
HETATM   48  C32 UNL     1     -16.358   4.340  14.438  1.00  0.00     0.050 C 
BRANCH  46  49
HETATM   49  O8  UNL     1     -18.536   5.317  14.278  1.00  0.00    -0.387 OA
HETATM   50  H54 UNL     1     -18.882   4.556  14.773  1.00  0.00     0.211 HD
ENDBRANCH  46  49
ENDBRANCH  45  46
ENDBRANCH  43  44
ENDBRANCH  41  43
ENDBRANCH  17  41
TORSDOF 13
ENDMDL
