MODEL 1
REMARK minimizedAffinity -6.5385294
REMARK CNNscore 0.712774277
REMARK CNNaffinity 7.06196594
REMARK  5 active torsions:
REMARK  status: ('A' for Active; 'I' for Inactive)
REMARK    1  A    between atoms: C2_2  and  C3_3 
REMARK    2  A    between atoms: C4_5  and  C5_6 
REMARK    3  A    between atoms: C5_6  and  C6_7 
REMARK    4  A    between atoms: C6_7  and  C7_8 
REMARK    5  A    between atoms: C7_8  and  C9_10 
ROOT
HETATM    1  C9  UNL     1      -1.683  14.798   4.477  1.00  0.00    -0.002 C 
HETATM    2  C10 UNL     1      -2.512  14.909   3.166  1.00  0.00     0.007 C 
HETATM    3  C11 UNL     1      -1.526  14.822   1.986  1.00  0.00     0.015 C 
HETATM    4  C12 UNL     1      -0.206  14.324   2.603  1.00  0.00    -0.005 C 
HETATM    5  C13 UNL     1      -0.304  12.770   2.706  1.00  0.00     0.021 C 
HETATM    6  C14 UNL     1       1.115  14.588   1.894  1.00  0.00    -0.000 C 
HETATM    7  C15 UNL     1       2.275  14.732   2.585  1.00  0.00    -0.060 C 
HETATM    8  C16 UNL     1       2.272  14.678   4.121  1.00  0.00     0.036 C 
HETATM    9  C17 UNL     1       0.911  14.546   4.837  1.00  0.00     0.015 C 
HETATM   10  C18 UNL     1      -0.236  15.095   3.981  1.00  0.00    -0.028 C 
HETATM   11  C19 UNL     1      -0.051  16.639   3.830  1.00  0.00     0.016 C 
HETATM   12  C20 UNL     1       3.651  14.986   1.909  1.00  0.00    -0.014 C 
HETATM   13  C21 UNL     1       3.989  16.482   2.099  1.00  0.00     0.020 C 
HETATM   14  C22 UNL     1       4.745  14.107   2.567  1.00  0.00     0.021 C 
HETATM   15  C23 UNL     1       6.083  14.042   1.839  1.00  0.00     0.080 C 
HETATM   16  C24 UNL     1       6.155  14.790   0.530  1.00  0.00     0.135 C 
HETATM   17  O2  UNL     1       7.222  15.306   0.189  1.00  0.00    -0.297 OA
HETATM   18  C25 UNL     1       4.932  14.794  -0.394  1.00  0.00     0.018 C 
HETATM   19  C26 UNL     1       4.938  16.119  -1.192  1.00  0.00     0.023 C 
HETATM   20  C27 UNL     1       5.138  13.643  -1.398  1.00  0.00     0.023 C 
HETATM   21  C28 UNL     1       3.606  14.558   0.406  1.00  0.00     0.020 C 
HETATM   22  C29 UNL     1       2.367  15.128  -0.286  1.00  0.00     0.090 C 
HETATM   23  C30 UNL     1       1.122  14.633   0.399  1.00  0.00     0.157 C 
HETATM   24  O3  UNL     1       0.144  14.293  -0.259  1.00  0.00    -0.293 OA
ENDROOT
BRANCH   1  25
HETATM   25  C7  UNL     1      -2.298  15.642   5.628  1.00  0.00    -0.014 C 
HETATM   26  C8  UNL     1      -3.224  16.754   5.122  1.00  0.00     0.010 C 
BRANCH  25  27
HETATM   27  C6  UNL     1      -1.224  16.251   6.570  1.00  0.00     0.008 C 
BRANCH  27  28
HETATM   28  C5  UNL     1      -1.477  17.702   6.999  1.00  0.00     0.028 C 
BRANCH  28  29
HETATM   29  C4  UNL     1      -1.525  17.815   8.497  1.00  0.00    -0.017 C 
HETATM   30  C2  UNL     1      -2.567  18.203   9.256  1.00  0.00    -0.028 C 
HETATM   31  C1  UNL     1      -3.937  18.585   8.794  1.00  0.00     0.051 C 
BRANCH  30  32
HETATM   32  C3  UNL     1      -2.369  18.246  10.738  1.00  0.00     0.265 C 
HETATM   33  O1  UNL     1      -3.171  17.806  11.551  1.00  0.00    -0.302 OA
ENDBRANCH  30  32
ENDBRANCH  28  29
ENDBRANCH  27  28
ENDBRANCH  25  27
ENDBRANCH   1  25
TORSDOF 5
ENDMDL
MODEL 2
REMARK minimizedAffinity -8.43684959
REMARK CNNscore 0.519007564
REMARK CNNaffinity 7.0929184
REMARK  5 active torsions:
REMARK  status: ('A' for Active; 'I' for Inactive)
REMARK    1  A    between atoms: C2_2  and  C3_3 
REMARK    2  A    between atoms: C4_5  and  C5_6 
REMARK    3  A    between atoms: C5_6  and  C6_7 
REMARK    4  A    between atoms: C6_7  and  C7_8 
REMARK    5  A    between atoms: C7_8  and  C9_10 
ROOT
HETATM    1  C9  UNL     1      -4.089   7.231  14.897  1.00  0.00    -0.002 C 
HETATM    2  C10 UNL     1      -4.519   5.860  14.302  1.00  0.00     0.007 C 
HETATM    3  C11 UNL     1      -3.383   5.378  13.382  1.00  0.00     0.015 C 
HETATM    4  C12 UNL     1      -2.184   6.286  13.715  1.00  0.00    -0.005 C 
HETATM    5  C13 UNL     1      -1.490   5.685  14.976  1.00  0.00     0.021 C 
HETATM    6  C14 UNL     1      -1.063   6.473  12.702  1.00  0.00    -0.000 C 
HETATM    7  C15 UNL     1      -0.346   7.624  12.642  1.00  0.00    -0.060 C 
HETATM    8  C16 UNL     1      -0.684   8.796  13.578  1.00  0.00     0.036 C 
HETATM    9  C17 UNL     1      -1.907   8.648  14.508  1.00  0.00     0.015 C 
HETATM   10  C18 UNL     1      -2.932   7.657  13.945  1.00  0.00    -0.028 C 
HETATM   11  C19 UNL     1      -3.538   8.258  12.635  1.00  0.00     0.016 C 
HETATM   12  C20 UNL     1       0.818   7.859  11.640  1.00  0.00    -0.014 C 
HETATM   13  C21 UNL     1       0.281   8.778  10.519  1.00  0.00     0.020 C 
HETATM   14  C22 UNL     1       2.016   8.536  12.353  1.00  0.00     0.021 C 
HETATM   15  C23 UNL     1       3.324   8.582  11.571  1.00  0.00     0.080 C 
HETATM   16  C24 UNL     1       3.309   7.903  10.224  1.00  0.00     0.135 C 
HETATM   17  O2  UNL     1       4.003   8.359   9.312  1.00  0.00    -0.297 OA
HETATM   18  C25 UNL     1       2.517   6.601  10.054  1.00  0.00     0.018 C 
HETATM   19  C26 UNL     1       2.029   6.523   8.589  1.00  0.00     0.023 C 
HETATM   20  C27 UNL     1       3.517   5.450  10.276  1.00  0.00     0.023 C 
HETATM   21  C28 UNL     1       1.357   6.494  11.101  1.00  0.00     0.020 C 
HETATM   22  C29 UNL     1       0.206   5.596  10.646  1.00  0.00     0.090 C 
HETATM   23  C30 UNL     1      -0.727   5.332  11.795  1.00  0.00     0.157 C 
HETATM   24  O3  UNL     1      -1.202   4.214  11.966  1.00  0.00    -0.293 OA
ENDROOT
BRANCH   1  25
HETATM   25  C7  UNL     1      -5.302   8.177  15.117  1.00  0.00    -0.014 C 
HETATM   26  C8  UNL     1      -4.905   9.516  15.748  1.00  0.00     0.010 C 
BRANCH  25  27
HETATM   27  C6  UNL     1      -6.433   7.522  15.956  1.00  0.00     0.008 C 
BRANCH  27  28
HETATM   28  C5  UNL     1      -7.783   7.387  15.240  1.00  0.00     0.028 C 
BRANCH  28  29
HETATM   29  C4  UNL     1      -7.759   6.242  14.266  1.00  0.00    -0.017 C 
HETATM   30  C2  UNL     1      -8.721   5.891  13.392  1.00  0.00    -0.028 C 
HETATM   31  C1  UNL     1     -10.032   6.571  13.160  1.00  0.00     0.051 C 
BRANCH  30  32
HETATM   32  C3  UNL     1      -8.469   4.698  12.525  1.00  0.00     0.265 C 
HETATM   33  O1  UNL     1      -8.564   3.539  12.908  1.00  0.00    -0.302 OA
ENDBRANCH  30  32
ENDBRANCH  28  29
ENDBRANCH  27  28
ENDBRANCH  25  27
ENDBRANCH   1  25
TORSDOF 5
ENDMDL
MODEL 3
REMARK minimizedAffinity -6.86330128
REMARK CNNscore 0.457437277
REMARK CNNaffinity 6.86580896
REMARK  5 active torsions:
REMARK  status: ('A' for Active; 'I' for Inactive)
REMARK    1  A    between atoms: C2_2  and  C3_3 
REMARK    2  A    between atoms: C4_5  and  C5_6 
REMARK    3  A    between atoms: C5_6  and  C6_7 
REMARK    4  A    between atoms: C6_7  and  C7_8 
REMARK    5  A    between atoms: C7_8  and  C9_10 
ROOT
HETATM    1  C9  UNL     1      -9.884   8.256  14.436  1.00  0.00    -0.002 C 
HETATM    2  C10 UNL     1     -10.491   6.853  14.149  1.00  0.00     0.007 C 
HETATM    3  C11 UNL     1     -11.948   7.064  13.695  1.00  0.00     0.015 C 
HETATM    4  C12 UNL     1     -12.061   8.571  13.396  1.00  0.00    -0.005 C 
HETATM    5  C13 UNL     1     -11.521   8.794  11.949  1.00  0.00     0.021 C 
HETATM    6  C14 UNL     1     -13.421   9.253  13.417  1.00  0.00    -0.000 C 
HETATM    7  C15 UNL     1     -13.553  10.562  13.755  1.00  0.00    -0.060 C 
HETATM    8  C16 UNL     1     -12.322  11.381  14.173  1.00  0.00     0.036 C 
HETATM    9  C17 UNL     1     -10.968  10.648  14.280  1.00  0.00     0.015 C 
HETATM   10  C18 UNL     1     -11.154   9.150  14.552  1.00  0.00    -0.028 C 
HETATM   11  C19 UNL     1     -11.778   8.976  15.974  1.00  0.00     0.016 C 
HETATM   12  C20 UNL     1     -14.916  11.309  13.775  1.00  0.00    -0.014 C 
HETATM   13  C21 UNL     1     -15.341  11.450  15.254  1.00  0.00     0.020 C 
HETATM   14  C22 UNL     1     -14.771  12.711  13.129  1.00  0.00     0.021 C 
HETATM   15  C23 UNL     1     -16.071  13.450  12.831  1.00  0.00     0.080 C 
HETATM   16  C24 UNL     1     -17.342  12.697  13.141  1.00  0.00     0.135 C 
HETATM   17  O2  UNL     1     -18.336  13.322  13.518  1.00  0.00    -0.297 OA
HETATM   18  C25 UNL     1     -17.397  11.188  12.875  1.00  0.00     0.018 C 
HETATM   19  C26 UNL     1     -18.376  10.557  13.892  1.00  0.00     0.023 C 
HETATM   20  C27 UNL     1     -18.006  11.014  11.470  1.00  0.00     0.023 C 
HETATM   21  C28 UNL     1     -15.969  10.546  12.908  1.00  0.00     0.020 C 
HETATM   22  C29 UNL     1     -15.979   9.055  13.251  1.00  0.00     0.090 C 
HETATM   23  C30 UNL     1     -14.620   8.461  13.002  1.00  0.00     0.157 C 
HETATM   24  O3  UNL     1     -14.511   7.353  12.487  1.00  0.00    -0.293 OA
ENDROOT
BRANCH   1  25
HETATM   25  C7  UNL     1      -8.853   8.217  15.597  1.00  0.00    -0.014 C 
HETATM   26  C8  UNL     1      -7.454   8.676  15.168  1.00  0.00     0.010 C 
BRANCH  25  27
HETATM   27  C6  UNL     1      -8.756   6.821  16.272  1.00  0.00     0.008 C 
BRANCH  27  28
HETATM   28  C5  UNL     1      -7.386   6.139  16.168  1.00  0.00     0.028 C 
BRANCH  28  29
HETATM   29  C4  UNL     1      -7.494   4.833  15.430  1.00  0.00    -0.017 C 
HETATM   30  C2  UNL     1      -7.418   4.637  14.100  1.00  0.00    -0.028 C 
HETATM   31  C1  UNL     1      -7.177   5.664  13.040  1.00  0.00     0.051 C 
BRANCH  30  32
HETATM   32  C3  UNL     1      -7.566   3.236  13.597  1.00  0.00     0.265 C 
HETATM   33  O1  UNL     1      -8.479   2.860  12.873  1.00  0.00    -0.302 OA
ENDBRANCH  30  32
ENDBRANCH  28  29
ENDBRANCH  27  28
ENDBRANCH  25  27
ENDBRANCH   1  25
TORSDOF 5
ENDMDL
MODEL 4
REMARK minimizedAffinity -8.29982376
REMARK CNNscore 0.397802174
REMARK CNNaffinity 6.99265432
REMARK  5 active torsions:
REMARK  status: ('A' for Active; 'I' for Inactive)
REMARK    1  A    between atoms: C2_2  and  C3_3 
REMARK    2  A    between atoms: C4_5  and  C5_6 
REMARK    3  A    between atoms: C5_6  and  C6_7 
REMARK    4  A    between atoms: C6_7  and  C7_8 
REMARK    5  A    between atoms: C7_8  and  C9_10 
ROOT
HETATM    1  C9  UNL     1      -5.441   6.405  15.209  1.00  0.00    -0.002 C 
HETATM    2  C10 UNL     1      -5.105   7.885  15.546  1.00  0.00     0.007 C 
HETATM    3  C11 UNL     1      -6.416   8.689  15.455  1.00  0.00     0.015 C 
HETATM    4  C12 UNL     1      -7.534   7.631  15.408  1.00  0.00    -0.005 C 
HETATM    5  C13 UNL     1      -7.830   7.210  16.881  1.00  0.00     0.021 C 
HETATM    6  C14 UNL     1      -8.892   7.981  14.819  1.00  0.00    -0.000 C 
HETATM    7  C15 UNL     1      -9.666   7.044  14.213  1.00  0.00    -0.060 C 
HETATM    8  C16 UNL     1      -9.160   5.599  14.067  1.00  0.00     0.036 C 
HETATM    9  C17 UNL     1      -7.727   5.284  14.546  1.00  0.00     0.015 C 
HETATM   10  C18 UNL     1      -6.833   6.529  14.520  1.00  0.00    -0.028 C 
HETATM   11  C19 UNL     1      -6.634   6.968  13.033  1.00  0.00     0.016 C 
HETATM   12  C20 UNL     1     -11.067   7.346  13.611  1.00  0.00    -0.014 C 
HETATM   13  C21 UNL     1     -10.902   7.413  12.076  1.00  0.00     0.020 C 
HETATM   14  C22 UNL     1     -12.069   6.225  13.989  1.00  0.00     0.021 C 
HETATM   15  C23 UNL     1     -13.538   6.515  13.704  1.00  0.00     0.080 C 
HETATM   16  C24 UNL     1     -13.843   7.885  13.149  1.00  0.00     0.135 C 
HETATM   17  O2  UNL     1     -14.780   8.020  12.359  1.00  0.00    -0.297 OA
HETATM   18  C25 UNL     1     -13.050   9.091  13.665  1.00  0.00     0.018 C 
HETATM   19  C26 UNL     1     -12.966  10.133  12.527  1.00  0.00     0.023 C 
HETATM   20  C27 UNL     1     -13.885   9.708  14.804  1.00  0.00     0.023 C 
HETATM   21  C28 UNL     1     -11.648   8.663  14.219  1.00  0.00     0.020 C 
HETATM   22  C29 UNL     1     -10.610   9.785  14.182  1.00  0.00     0.090 C 
HETATM   23  C30 UNL     1      -9.391   9.384  14.966  1.00  0.00     0.157 C 
HETATM   24  O3  UNL     1      -8.822  10.195  15.690  1.00  0.00    -0.293 OA
ENDROOT
BRANCH   1  25
HETATM   25  C7  UNL     1      -4.271   5.695  14.473  1.00  0.00    -0.014 C 
HETATM   26  C8  UNL     1      -2.912   6.349  14.748  1.00  0.00     0.010 C 
BRANCH  25  27
HETATM   27  C6  UNL     1      -4.496   5.591  12.940  1.00  0.00     0.008 C 
BRANCH  27  28
HETATM   28  C5  UNL     1      -4.563   4.163  12.385  1.00  0.00     0.028 C 
BRANCH  28  29
HETATM   29  C4  UNL     1      -3.242   3.756  11.795  1.00  0.00    -0.017 C 
HETATM   30  C2  UNL     1      -2.808   2.507  11.543  1.00  0.00    -0.028 C 
HETATM   31  C1  UNL     1      -3.547   1.225  11.761  1.00  0.00     0.051 C 
BRANCH  30  32
HETATM   32  C3  UNL     1      -1.440   2.352  10.958  1.00  0.00     0.265 C 
HETATM   33  O1  UNL     1      -0.461   2.988  11.326  1.00  0.00    -0.302 OA
ENDBRANCH  30  32
ENDBRANCH  28  29
ENDBRANCH  27  28
ENDBRANCH  25  27
ENDBRANCH   1  25
TORSDOF 5
ENDMDL
MODEL 5
REMARK minimizedAffinity -6.49596214
REMARK CNNscore 0.382633924
REMARK CNNaffinity 5.5429287
REMARK  5 active torsions:
REMARK  status: ('A' for Active; 'I' for Inactive)
REMARK    1  A    between atoms: C2_2  and  C3_3 
REMARK    2  A    between atoms: C4_5  and  C5_6 
REMARK    3  A    between atoms: C5_6  and  C6_7 
REMARK    4  A    between atoms: C6_7  and  C7_8 
REMARK    5  A    between atoms: C7_8  and  C9_10 
ROOT
HETATM    1  C9  UNL     1      -8.663  -9.479  12.207  1.00  0.00    -0.002 C 
HETATM    2  C10 UNL     1      -7.340 -10.075  12.766  1.00  0.00     0.007 C 
HETATM    3  C11 UNL     1      -6.405 -10.328  11.569  1.00  0.00     0.015 C 
HETATM    4  C12 UNL     1      -7.047  -9.572  10.391  1.00  0.00    -0.005 C 
HETATM    5  C13 UNL     1      -6.593  -8.083  10.499  1.00  0.00     0.021 C 
HETATM    6  C14 UNL     1      -6.728  -9.977   8.959  1.00  0.00    -0.000 C 
HETATM    7  C15 UNL     1      -7.629  -9.809   7.957  1.00  0.00    -0.060 C 
HETATM    8  C16 UNL     1      -9.025  -9.242   8.258  1.00  0.00     0.036 C 
HETATM    9  C17 UNL     1      -9.388  -8.961   9.732  1.00  0.00     0.015 C 
HETATM   10  C18 UNL     1      -8.574  -9.835  10.693  1.00  0.00    -0.028 C 
HETATM   11  C19 UNL     1      -8.997 -11.326  10.490  1.00  0.00     0.016 C 
HETATM   12  C20 UNL     1      -7.346 -10.190   6.476  1.00  0.00    -0.014 C 
HETATM   13  C21 UNL     1      -8.095 -11.511   6.190  1.00  0.00     0.020 C 
HETATM   14  C22 UNL     1      -7.855  -9.075   5.527  1.00  0.00     0.021 C 
HETATM   15  C23 UNL     1      -7.408  -9.177   4.073  1.00  0.00     0.080 C 
HETATM   16  C24 UNL     1      -6.471 -10.315   3.751  1.00  0.00     0.135 C 
HETATM   17  O2  UNL     1      -6.531 -10.849   2.641  1.00  0.00    -0.297 OA
HETATM   18  C25 UNL     1      -5.395 -10.705   4.771  1.00  0.00     0.018 C 
HETATM   19  C26 UNL     1      -5.113 -12.217   4.617  1.00  0.00     0.023 C 
HETATM   20  C27 UNL     1      -4.115  -9.948   4.367  1.00  0.00     0.023 C 
HETATM   21  C28 UNL     1      -5.807 -10.295   6.226  1.00  0.00     0.020 C 
HETATM   22  C29 UNL     1      -5.135 -11.139   7.309  1.00  0.00     0.090 C 
HETATM   23  C30 UNL     1      -5.367 -10.521   8.661  1.00  0.00     0.157 C 
HETATM   24  O3  UNL     1      -4.464 -10.483   9.490  1.00  0.00    -0.293 OA
ENDROOT
BRANCH   1  25
HETATM   25  C7  UNL     1      -9.898  -9.923  13.039  1.00  0.00    -0.014 C 
HETATM   26  C8  UNL     1     -10.957  -8.821  13.167  1.00  0.00     0.010 C 
BRANCH  25  27
HETATM   27  C6  UNL     1      -9.519 -10.446  14.451  1.00  0.00     0.008 C 
BRANCH  27  28
HETATM   28  C5  UNL     1     -10.650 -10.405  15.488  1.00  0.00     0.028 C 
BRANCH  28  29
HETATM   29  C4  UNL     1     -10.107 -10.115  16.859  1.00  0.00    -0.017 C 
HETATM   30  C2  UNL     1     -10.264  -8.988  17.579  1.00  0.00    -0.028 C 
HETATM   31  C1  UNL     1     -11.041  -7.767  17.202  1.00  0.00     0.051 C 
BRANCH  30  32
HETATM   32  C3  UNL     1      -9.616  -8.929  18.926  1.00  0.00     0.265 C 
HETATM   33  O1  UNL     1      -8.716  -8.152  19.221  1.00  0.00    -0.302 OA
ENDBRANCH  30  32
ENDBRANCH  28  29
ENDBRANCH  27  28
ENDBRANCH  25  27
ENDBRANCH   1  25
TORSDOF 5
ENDMDL
MODEL 6
REMARK minimizedAffinity -7.35259008
REMARK CNNscore 0.380289972
REMARK CNNaffinity 6.71739769
REMARK  5 active torsions:
REMARK  status: ('A' for Active; 'I' for Inactive)
REMARK    1  A    between atoms: C2_2  and  C3_3 
REMARK    2  A    between atoms: C4_5  and  C5_6 
REMARK    3  A    between atoms: C5_6  and  C6_7 
REMARK    4  A    between atoms: C6_7  and  C7_8 
REMARK    5  A    between atoms: C7_8  and  C9_10 
ROOT
HETATM    1  C9  UNL     1      -1.532  10.418  16.319  1.00  0.00    -0.002 C 
HETATM    2  C10 UNL     1      -0.287  10.155  17.213  1.00  0.00     0.007 C 
HETATM    3  C11 UNL     1       0.823   9.590  16.307  1.00  0.00     0.015 C 
HETATM    4  C12 UNL     1       0.338   9.851  14.868  1.00  0.00    -0.005 C 
HETATM    5  C13 UNL     1       0.722  11.321  14.514  1.00  0.00     0.021 C 
HETATM    6  C14 UNL     1       0.879   9.016  13.717  1.00  0.00    -0.000 C 
HETATM    7  C15 UNL     1       0.132   8.762  12.612  1.00  0.00    -0.060 C 
HETATM    8  C16 UNL     1      -1.312   9.282  12.518  1.00  0.00     0.036 C 
HETATM    9  C17 UNL     1      -1.899  10.012  13.746  1.00  0.00     0.015 C 
HETATM   10  C18 UNL     1      -1.208   9.581  15.045  1.00  0.00    -0.028 C 
HETATM   11  C19 UNL     1      -1.547   8.080  15.316  1.00  0.00     0.016 C 
HETATM   12  C20 UNL     1       0.643   7.931  11.402  1.00  0.00    -0.014 C 
HETATM   13  C21 UNL     1      -0.012   6.534  11.496  1.00  0.00     0.020 C 
HETATM   14  C22 UNL     1       0.243   8.615  10.070  1.00  0.00     0.021 C 
HETATM   15  C23 UNL     1       0.904   8.067   8.810  1.00  0.00     0.080 C 
HETATM   16  C24 UNL     1       1.915   6.968   9.023  1.00  0.00     0.135 C 
HETATM   17  O2  UNL     1       2.038   6.088   8.166  1.00  0.00    -0.297 OA
HETATM   18  C25 UNL     1       2.841   7.032  10.243  1.00  0.00     0.018 C 
HETATM   19  C26 UNL     1       3.191   5.585  10.657  1.00  0.00     0.023 C 
HETATM   20  C27 UNL     1       4.141   7.711   9.771  1.00  0.00     0.023 C 
HETATM   21  C28 UNL     1       2.204   7.873  11.402  1.00  0.00     0.020 C 
HETATM   22  C29 UNL     1       2.736   7.500  12.787  1.00  0.00     0.090 C 
HETATM   23  C30 UNL     1       2.286   8.516  13.801  1.00  0.00     0.157 C 
HETATM   24  O3  UNL     1       3.055   8.904  14.675  1.00  0.00    -0.293 OA
ENDROOT
BRANCH   1  25
HETATM   25  C7  UNL     1      -2.861  10.180  17.087  1.00  0.00    -0.014 C 
HETATM   26  C8  UNL     1      -2.640   9.811  18.559  1.00  0.00     0.010 C 
BRANCH  25  27
HETATM   27  C6  UNL     1      -3.764   9.111  16.414  1.00  0.00     0.008 C 
BRANCH  27  28
HETATM   28  C5  UNL     1      -4.955   9.666  15.622  1.00  0.00     0.028 C 
BRANCH  28  29
HETATM   29  C4  UNL     1      -5.878   8.557  15.198  1.00  0.00    -0.017 C 
HETATM   30  C2  UNL     1      -5.741   7.739  14.138  1.00  0.00    -0.028 C 
HETATM   31  C1  UNL     1      -4.624   7.715  13.144  1.00  0.00     0.051 C 
BRANCH  30  32
HETATM   32  C3  UNL     1      -6.804   6.710  13.915  1.00  0.00     0.265 C 
HETATM   33  O1  UNL     1      -6.755   5.567  14.352  1.00  0.00    -0.302 OA
ENDBRANCH  30  32
ENDBRANCH  28  29
ENDBRANCH  27  28
ENDBRANCH  25  27
ENDBRANCH   1  25
TORSDOF 5
ENDMDL
MODEL 7
REMARK minimizedAffinity -6.92115974
REMARK CNNscore 0.371552289
REMARK CNNaffinity 5.77474451
REMARK  5 active torsions:
REMARK  status: ('A' for Active; 'I' for Inactive)
REMARK    1  A    between atoms: C2_2  and  C3_3 
REMARK    2  A    between atoms: C4_5  and  C5_6 
REMARK    3  A    between atoms: C5_6  and  C6_7 
REMARK    4  A    between atoms: C6_7  and  C7_8 
REMARK    5  A    between atoms: C7_8  and  C9_10 
ROOT
HETATM    1  C9  UNL     1     -17.565   2.901  13.891  1.00  0.00    -0.002 C 
HETATM    2  C10 UNL     1     -17.691   2.840  15.439  1.00  0.00     0.007 C 
HETATM    3  C11 UNL     1     -17.030   1.530  15.907  1.00  0.00     0.015 C 
HETATM    4  C12 UNL     1     -16.238   1.023  14.687  1.00  0.00    -0.005 C 
HETATM    5  C13 UNL     1     -14.871   1.774  14.682  1.00  0.00     0.021 C 
HETATM    6  C14 UNL     1     -15.876  -0.451  14.571  1.00  0.00    -0.000 C 
HETATM    7  C15 UNL     1     -15.744  -1.056  13.362  1.00  0.00    -0.060 C 
HETATM    8  C16 UNL     1     -16.005  -0.267  12.069  1.00  0.00     0.036 C 
HETATM    9  C17 UNL     1     -16.503   1.189  12.199  1.00  0.00     0.015 C 
HETATM   10  C18 UNL     1     -17.232   1.423  13.527  1.00  0.00    -0.028 C 
HETATM   11  C19 UNL     1     -18.551   0.584  13.526  1.00  0.00     0.016 C 
HETATM   12  C20 UNL     1     -15.360  -2.552  13.188  1.00  0.00    -0.014 C 
HETATM   13  C21 UNL     1     -16.650  -3.318  12.819  1.00  0.00     0.020 C 
HETATM   14  C22 UNL     1     -14.308  -2.711  12.062  1.00  0.00     0.021 C 
HETATM   15  C23 UNL     1     -13.635  -4.076  11.959  1.00  0.00     0.080 C 
HETATM   16  C24 UNL     1     -14.030  -5.084  13.010  1.00  0.00     0.135 C 
HETATM   17  O2  UNL     1     -14.062  -6.281  12.715  1.00  0.00    -0.297 OA
HETATM   18  C25 UNL     1     -14.274  -4.607  14.446  1.00  0.00     0.018 C 
HETATM   19  C26 UNL     1     -15.324  -5.541  15.091  1.00  0.00     0.023 C 
HETATM   20  C27 UNL     1     -12.946  -4.802  15.204  1.00  0.00     0.023 C 
HETATM   21  C28 UNL     1     -14.681  -3.094  14.488  1.00  0.00     0.020 C 
HETATM   22  C29 UNL     1     -15.495  -2.716  15.726  1.00  0.00     0.090 C 
HETATM   23  C30 UNL     1     -15.613  -1.220  15.826  1.00  0.00     0.157 C 
HETATM   24  O3  UNL     1     -15.511  -0.660  16.913  1.00  0.00    -0.293 OA
ENDROOT
BRANCH   1  25
HETATM   25  C7  UNL     1     -18.783   3.606  13.235  1.00  0.00    -0.014 C 
HETATM   26  C8  UNL     1     -19.218   2.945  11.922  1.00  0.00     0.010 C 
BRANCH  25  27
HETATM   27  C6  UNL     1     -18.547   5.123  12.998  1.00  0.00     0.008 C 
BRANCH  27  28
HETATM   28  C5  UNL     1     -17.076   5.551  12.918  1.00  0.00     0.028 C 
BRANCH  28  29
HETATM   29  C4  UNL     1     -16.952   6.933  12.340  1.00  0.00    -0.017 C 
HETATM   30  C2  UNL     1     -15.843   7.693  12.268  1.00  0.00    -0.028 C 
HETATM   31  C1  UNL     1     -14.463   7.335  12.719  1.00  0.00     0.051 C 
BRANCH  30  32
HETATM   32  C3  UNL     1     -15.971   9.051  11.653  1.00  0.00     0.265 C 
HETATM   33  O1  UNL     1     -16.371   9.252  10.514  1.00  0.00    -0.302 OA
ENDBRANCH  30  32
ENDBRANCH  28  29
ENDBRANCH  27  28
ENDBRANCH  25  27
ENDBRANCH   1  25
TORSDOF 5
ENDMDL
MODEL 8
REMARK minimizedAffinity -7.84899426
REMARK CNNscore 0.356384039
REMARK CNNaffinity 6.94874573
REMARK  5 active torsions:
REMARK  status: ('A' for Active; 'I' for Inactive)
REMARK    1  A    between atoms: C2_2  and  C3_3 
REMARK    2  A    between atoms: C4_5  and  C5_6 
REMARK    3  A    between atoms: C5_6  and  C6_7 
REMARK    4  A    between atoms: C6_7  and  C7_8 
REMARK    5  A    between atoms: C7_8  and  C9_10 
ROOT
HETATM    1  C9  UNL     1       2.230   6.746  11.763  1.00  0.00    -0.002 C 
HETATM    2  C10 UNL     1       2.043   5.247  11.393  1.00  0.00     0.007 C 
HETATM    3  C11 UNL     1       0.576   4.879  11.681  1.00  0.00     0.015 C 
HETATM    4  C12 UNL     1      -0.144   6.226  11.881  1.00  0.00    -0.005 C 
HETATM    5  C13 UNL     1      -0.503   6.770  10.464  1.00  0.00     0.021 C 
HETATM    6  C14 UNL     1      -1.447   6.285  12.666  1.00  0.00    -0.000 C 
HETATM    7  C15 UNL     1      -1.801   7.392  13.369  1.00  0.00    -0.060 C 
HETATM    8  C16 UNL     1      -0.861   8.606  13.427  1.00  0.00     0.036 C 
HETATM    9  C17 UNL     1       0.517   8.486  12.742  1.00  0.00     0.015 C 
HETATM   10  C18 UNL     1       0.979   7.028  12.648  1.00  0.00    -0.028 C 
HETATM   11  C19 UNL     1       1.242   6.495  14.094  1.00  0.00     0.016 C 
HETATM   12  C20 UNL     1      -3.127   7.510  14.172  1.00  0.00    -0.014 C 
HETATM   13  C21 UNL     1      -2.776   7.340  15.667  1.00  0.00     0.020 C 
HETATM   14  C22 UNL     1      -3.779   8.896  13.935  1.00  0.00     0.021 C 
HETATM   15  C23 UNL     1      -5.210   9.059  14.434  1.00  0.00     0.080 C 
HETATM   16  C24 UNL     1      -5.840   7.828  15.039  1.00  0.00     0.135 C 
HETATM   17  O2  UNL     1      -6.651   7.957  15.958  1.00  0.00    -0.297 OA
HETATM   18  C25 UNL     1      -5.537   6.457  14.423  1.00  0.00     0.018 C 
HETATM   19  C26 UNL     1      -5.618   5.397  15.546  1.00  0.00     0.023 C 
HETATM   20  C27 UNL     1      -6.674   6.166  13.424  1.00  0.00     0.023 C 
HETATM   21  C28 UNL     1      -4.165   6.457  13.667  1.00  0.00     0.020 C 
HETATM   22  C29 UNL     1      -3.528   5.070  13.562  1.00  0.00     0.090 C 
HETATM   23  C30 UNL     1      -2.368   5.109  12.605  1.00  0.00     0.157 C 
HETATM   24  O3  UNL     1      -2.185   4.189  11.813  1.00  0.00    -0.293 OA
ENDROOT
BRANCH   1  25
HETATM   25  C7  UNL     1       3.653   7.037  12.313  1.00  0.00    -0.014 C 
HETATM   26  C8  UNL     1       3.666   8.143  13.375  1.00  0.00     0.010 C 
BRANCH  25  27
HETATM   27  C6  UNL     1       4.675   7.379  11.195  1.00  0.00     0.008 C 
BRANCH  27  28
HETATM   28  C5  UNL     1       4.127   8.239  10.049  1.00  0.00     0.028 C 
BRANCH  28  29
HETATM   29  C4  UNL     1       3.675   7.378   8.904  1.00  0.00    -0.017 C 
HETATM   30  C2  UNL     1       2.536   7.491   8.195  1.00  0.00    -0.028 C 
HETATM   31  C1  UNL     1       1.459   8.517   8.359  1.00  0.00     0.051 C 
BRANCH  30  32
HETATM   32  C3  UNL     1       2.300   6.502   7.098  1.00  0.00     0.265 C 
HETATM   33  O1  UNL     1       2.646   5.328   7.146  1.00  0.00    -0.302 OA
ENDBRANCH  30  32
ENDBRANCH  28  29
ENDBRANCH  27  28
ENDBRANCH  25  27
ENDBRANCH   1  25
TORSDOF 5
ENDMDL
MODEL 9
REMARK minimizedAffinity -7.21733761
REMARK CNNscore 0.336852789
REMARK CNNaffinity 5.76219559
REMARK  5 active torsions:
REMARK  status: ('A' for Active; 'I' for Inactive)
REMARK    1  A    between atoms: C2_2  and  C3_3 
REMARK    2  A    between atoms: C4_5  and  C5_6 
REMARK    3  A    between atoms: C5_6  and  C6_7 
REMARK    4  A    between atoms: C6_7  and  C7_8 
REMARK    5  A    between atoms: C7_8  and  C9_10 
ROOT
HETATM    1  C9  UNL     1       2.850  12.448  20.349  1.00  0.00    -0.002 C 
HETATM    2  C10 UNL     1       3.828  11.423  19.709  1.00  0.00     0.007 C 
HETATM    3  C11 UNL     1       3.068  10.698  18.583  1.00  0.00     0.015 C 
HETATM    4  C12 UNL     1       1.794  11.533  18.356  1.00  0.00    -0.005 C 
HETATM    5  C13 UNL     1       2.179  12.712  17.410  1.00  0.00     0.021 C 
HETATM    6  C14 UNL     1       0.569  10.897  17.713  1.00  0.00    -0.000 C 
HETATM    7  C15 UNL     1      -0.687  11.320  18.010  1.00  0.00    -0.060 C 
HETATM    8  C16 UNL     1      -0.905  12.431  19.050  1.00  0.00     0.036 C 
HETATM    9  C17 UNL     1       0.332  12.975  19.796  1.00  0.00     0.015 C 
HETATM   10  C18 UNL     1       1.464  11.942  19.845  1.00  0.00    -0.028 C 
HETATM   11  C19 UNL     1       1.003  10.739  20.730  1.00  0.00     0.016 C 
HETATM   12  C20 UNL     1      -1.968  10.717  17.369  1.00  0.00    -0.014 C 
HETATM   13  C21 UNL     1      -2.619   9.793  18.423  1.00  0.00     0.020 C 
HETATM   14  C22 UNL     1      -2.954  11.845  16.973  1.00  0.00     0.021 C 
HETATM   15  C23 UNL     1      -4.128  11.432  16.091  1.00  0.00     0.080 C 
HETATM   16  C24 UNL     1      -4.148   9.987  15.659  1.00  0.00     0.135 C 
HETATM   17  O2  UNL     1      -5.232   9.419  15.505  1.00  0.00    -0.297 OA
HETATM   18  C25 UNL     1      -2.825   9.293  15.315  1.00  0.00     0.018 C 
HETATM   19  C26 UNL     1      -2.971   7.790  15.644  1.00  0.00     0.023 C 
HETATM   20  C27 UNL     1      -2.647   9.423  13.790  1.00  0.00     0.023 C 
HETATM   21  C28 UNL     1      -1.614   9.972  16.042  1.00  0.00     0.020 C 
HETATM   22  C29 UNL     1      -0.422   9.036  16.243  1.00  0.00     0.090 C 
HETATM   23  C30 UNL     1       0.778   9.822  16.695  1.00  0.00     0.157 C 
HETATM   24  O3  UNL     1       1.892   9.569  16.247  1.00  0.00    -0.293 OA
ENDROOT
BRANCH   1  25
HETATM   25  C7  UNL     1       3.106  12.625  21.871  1.00  0.00    -0.014 C 
HETATM   26  C8  UNL     1       3.176  14.097  22.295  1.00  0.00     0.010 C 
BRANCH  25  27
HETATM   27  C6  UNL     1       4.380  11.883  22.359  1.00  0.00     0.008 C 
BRANCH  27  28
HETATM   28  C5  UNL     1       5.375  12.744  23.149  1.00  0.00     0.028 C 
BRANCH  28  29
HETATM   29  C4  UNL     1       6.787  12.301  22.888  1.00  0.00    -0.017 C 
HETATM   30  C2  UNL     1       7.911  13.030  23.025  1.00  0.00    -0.028 C 
HETATM   31  C1  UNL     1       8.027  14.445  23.498  1.00  0.00     0.051 C 
BRANCH  30  32
HETATM   32  C3  UNL     1       9.211  12.369  22.694  1.00  0.00     0.265 C 
HETATM   33  O1  UNL     1       9.363  11.577  21.773  1.00  0.00    -0.302 OA
ENDBRANCH  30  32
ENDBRANCH  28  29
ENDBRANCH  27  28
ENDBRANCH  25  27
ENDBRANCH   1  25
TORSDOF 5
ENDMDL
