MODEL 1
REMARK minimizedAffinity -9.62909698
REMARK CNNscore 0.604007781
REMARK CNNaffinity 7.70087385
REMARK  13 active torsions:
REMARK  status: ('A' for Active; 'I' for Inactive)
REMARK    1  A    between atoms: C19_21  and  O3_22 
REMARK    2  A    between atoms: C19_21  and  C20_23 
REMARK    3  A    between atoms: C20_23  and  C21_25 
REMARK    4  A    between atoms: C21_25  and  O5_26 
REMARK    5  A    between atoms: O5_26  and  C22_27 
REMARK    6  A    between atoms: C22_27  and  C23_29 
REMARK    7  A    between atoms: C23_29  and  C24_30 
REMARK    8  A    between atoms: C24_30  and  C25_31 
REMARK       I    between atoms: C25_31  and  N1_33 
REMARK    9  A    between atoms: N1_33  and  C26_34 
REMARK   10  A    between atoms: C26_34  and  C27_35 
REMARK   11  A    between atoms: C26_34  and  C34_42 
REMARK   12  A    between atoms: C27_35  and  C28_36 
REMARK   13  A    between atoms: C34_42  and  O9_44 
ROOT
HETATM    1  C20 UNL     1      -6.815   3.259  12.705  1.00  0.00     0.185 C 
HETATM    2  O4  UNL     1      -7.541   2.505  13.360  1.00  0.00    -0.292 OA
ENDROOT
BRANCH   1   3
HETATM    3  C19 UNL     1      -6.790   4.804  12.955  1.00  0.00     0.128 C 
HETATM    4  C14 UNL     1      -7.659   5.291  14.171  1.00  0.00     0.005 C 
HETATM    5  C13 UNL     1      -7.083   6.581  14.799  1.00  0.00     0.091 C 
HETATM    6  C15 UNL     1      -7.745   4.220  15.282  1.00  0.00     0.019 C 
HETATM    7  C16 UNL     1      -9.083   5.569  13.579  1.00  0.00     0.002 C 
HETATM    8  C12 UNL     1      -8.024   7.128  15.845  1.00  0.00     0.133 C 
HETATM    9  C11 UNL     1      -9.479   7.332  15.442  1.00  0.00     0.072 C 
HETATM   10  O2  UNL     1      -7.623   7.383  16.980  1.00  0.00    -0.297 OA
HETATM   11  C2  UNL     1      -9.991   8.793  15.749  1.00  0.00    -0.009 C 
HETATM   12  C10 UNL     1      -9.698   6.945  13.962  1.00  0.00     0.003 C 
HETATM   13  C1  UNL     1     -10.426   8.870  17.232  1.00  0.00     0.021 C 
HETATM   14  C3  UNL     1      -8.907   9.868  15.459  1.00  0.00     0.022 C 
HETATM   15  C7  UNL     1     -11.214   9.108  14.878  1.00  0.00    -0.067 C 
HETATM   16  C4  UNL     1      -9.425  11.301  15.573  1.00  0.00     0.084 C 
HETATM   17  C5  UNL     1     -10.669  11.512  14.748  1.00  0.00     0.149 C 
HETATM   18  O1  UNL     1     -11.017  12.625  14.362  1.00  0.00    -0.293 OA
HETATM   19  C6  UNL     1     -11.513  10.338  14.424  1.00  0.00     0.053 C 
HETATM   20  C8  UNL     1     -12.040   7.920  14.476  1.00  0.00     0.035 C 
HETATM   21  C9  UNL     1     -11.208   6.976  13.604  1.00  0.00     0.010 C 
HETATM   22  C17 UNL     1      -8.948   5.454  12.049  1.00  0.00     0.009 C 
HETATM   23  C18 UNL     1      -7.456   5.506  11.763  1.00  0.00     0.047 C 
BRANCH   3  24
HETATM   24  O3  UNL     1      -5.468   5.322  13.016  1.00  0.00    -0.381 OA
HETATM   25  H25 UNL     1      -5.032   5.020  13.841  1.00  0.00     0.211 HD
ENDBRANCH   3  24
ENDBRANCH   1   3
BRANCH   1  26
HETATM   26  C21 UNL     1      -5.848   2.665  11.687  1.00  0.00     0.260 C 
BRANCH  26  27
HETATM   27  O5  UNL     1      -4.634   3.399  11.554  1.00  0.00    -0.314 OA
BRANCH  27  28
HETATM   28  C22 UNL     1      -3.504   2.659  11.434  1.00  0.00     0.259 C 
HETATM   29  O6  UNL     1      -3.408   1.496  11.818  1.00  0.00    -0.265 OA
BRANCH  28  30
HETATM   30  C23 UNL     1      -2.352   3.416  10.815  1.00  0.00     0.120 C 
BRANCH  30  31
HETATM   31  C24 UNL     1      -1.886   4.635  11.600  1.00  0.00     0.112 C 
BRANCH  31  32
HETATM   32  C25 UNL     1      -0.399   4.884  11.439  1.00  0.00     0.218 C 
HETATM   33  O7  UNL     1       0.382   4.052  10.991  1.00  0.00    -0.274 OA
HETATM   34  N1  UNL     1      -0.017   6.143  11.847  1.00  0.00    -0.346 N 
HETATM   35  H32 UNL     1      -0.632   6.611  12.505  1.00  0.00     0.163 HD
BRANCH  34  36
HETATM   36  C26 UNL     1       1.406   6.502  11.938  1.00  0.00     0.186 C 
BRANCH  36  37
HETATM   37  C27 UNL     1       1.703   7.701  11.030  1.00  0.00     0.074 C 
BRANCH  37  38
HETATM   38  C28 UNL     1       1.823   7.349   9.568  1.00  0.00    -0.056 A 
HETATM   39  C29 UNL     1       1.124   8.082   8.599  1.00  0.00     0.007 A 
HETATM   40  C30 UNL     1       1.241   7.759   7.247  1.00  0.00     0.001 A 
HETATM   41  C31 UNL     1       2.057   6.700   6.850  1.00  0.00     0.000 A 
HETATM   42  C32 UNL     1       2.756   5.965   7.805  1.00  0.00     0.001 A 
HETATM   43  C33 UNL     1       2.641   6.287   9.158  1.00  0.00     0.007 A 
ENDBRANCH  37  38
ENDBRANCH  36  37
BRANCH  36  44
HETATM   44  C34 UNL     1       1.680   6.868  13.394  1.00  0.00     0.163 C 
HETATM   45  O8  UNL     1       2.120   7.941  13.788  1.00  0.00    -0.648 OA
BRANCH  44  46
HETATM   46  O9  UNL     1       1.399   5.881  14.264  1.00  0.00    -0.775 OA
HETATM   47  H41 UNL     1       1.612   6.248  15.146  1.00  0.00     0.167 HD
ENDBRANCH  44  46
ENDBRANCH  36  44
ENDBRANCH  34  36
ENDBRANCH  31  32
ENDBRANCH  30  31
ENDBRANCH  28  30
ENDBRANCH  27  28
ENDBRANCH  26  27
ENDBRANCH   1  26
TORSDOF 13
ENDMDL
MODEL 2
REMARK minimizedAffinity -9.26906395
REMARK CNNscore 0.548289061
REMARK CNNaffinity 7.38410187
REMARK  13 active torsions:
REMARK  status: ('A' for Active; 'I' for Inactive)
REMARK    1  A    between atoms: C19_21  and  O3_22 
REMARK    2  A    between atoms: C19_21  and  C20_23 
REMARK    3  A    between atoms: C20_23  and  C21_25 
REMARK    4  A    between atoms: C21_25  and  O5_26 
REMARK    5  A    between atoms: O5_26  and  C22_27 
REMARK    6  A    between atoms: C22_27  and  C23_29 
REMARK    7  A    between atoms: C23_29  and  C24_30 
REMARK    8  A    between atoms: C24_30  and  C25_31 
REMARK       I    between atoms: C25_31  and  N1_33 
REMARK    9  A    between atoms: N1_33  and  C26_34 
REMARK   10  A    between atoms: C26_34  and  C27_35 
REMARK   11  A    between atoms: C26_34  and  C34_42 
REMARK   12  A    between atoms: C27_35  and  C28_36 
REMARK   13  A    between atoms: C34_42  and  O9_44 
ROOT
HETATM    1  C20 UNL     1       1.382   8.039  12.946  1.00  0.00     0.185 C 
HETATM    2  O4  UNL     1       1.824   6.907  12.725  1.00  0.00    -0.292 OA
ENDROOT
BRANCH   1   3
HETATM    3  C19 UNL     1      -0.143   8.368  12.824  1.00  0.00     0.128 C 
HETATM    4  C14 UNL     1      -1.070   7.586  13.824  1.00  0.00     0.005 C 
HETATM    5  C13 UNL     1      -2.342   8.395  14.167  1.00  0.00     0.091 C 
HETATM    6  C15 UNL     1      -0.342   7.262  15.149  1.00  0.00     0.019 C 
HETATM    7  C16 UNL     1      -1.458   6.261  13.083  1.00  0.00     0.002 C 
HETATM    8  C12 UNL     1      -3.298   7.559  14.984  1.00  0.00     0.133 C 
HETATM    9  C11 UNL     1      -3.668   6.184  14.442  1.00  0.00     0.072 C 
HETATM   10  O2  UNL     1      -3.744   7.977  16.052  1.00  0.00    -0.297 OA
HETATM   11  C2  UNL     1      -5.229   5.969  14.356  1.00  0.00    -0.009 C 
HETATM   12  C10 UNL     1      -2.976   5.926  13.084  1.00  0.00     0.003 C 
HETATM   13  C1  UNL     1      -5.750   5.525  15.743  1.00  0.00     0.021 C 
HETATM   14  C3  UNL     1      -5.974   7.254  13.897  1.00  0.00     0.022 C 
HETATM   15  C7  UNL     1      -5.544   4.855  13.350  1.00  0.00    -0.067 C 
HETATM   16  C4  UNL     1      -7.462   7.031  13.631  1.00  0.00     0.084 C 
HETATM   17  C5  UNL     1      -7.694   5.874  12.693  1.00  0.00     0.149 C 
HETATM   18  O1  UNL     1      -8.723   5.765  12.030  1.00  0.00    -0.293 OA
HETATM   19  C6  UNL     1      -6.658   4.819  12.597  1.00  0.00     0.053 C 
HETATM   20  C8  UNL     1      -4.472   3.817  13.184  1.00  0.00     0.035 C 
HETATM   21  C9  UNL     1      -3.203   4.462  12.622  1.00  0.00     0.010 C 
HETATM   22  C17 UNL     1      -0.945   6.406  11.638  1.00  0.00     0.009 C 
HETATM   23  C18 UNL     1      -0.642   7.884  11.455  1.00  0.00     0.047 C 
BRANCH   3  24
HETATM   24  O3  UNL     1      -0.400   9.765  12.854  1.00  0.00    -0.381 OA
HETATM   25  H25 UNL     1      -0.235  10.112  13.756  1.00  0.00     0.211 HD
ENDBRANCH   3  24
ENDBRANCH   1   3
BRANCH   1  26
HETATM   26  C21 UNL     1       2.331   9.127  13.439  1.00  0.00     0.260 C 
BRANCH  26  27
HETATM   27  O5  UNL     1       2.117   9.498  14.798  1.00  0.00    -0.314 OA
BRANCH  27  28
HETATM   28  C22 UNL     1       3.055   9.077  15.682  1.00  0.00     0.259 C 
HETATM   29  O6  UNL     1       3.238   9.597  16.779  1.00  0.00    -0.265 OA
BRANCH  28  30
HETATM   30  C23 UNL     1       3.888   7.924  15.171  1.00  0.00     0.120 C 
BRANCH  30  31
HETATM   31  C24 UNL     1       5.326   8.276  14.814  1.00  0.00     0.112 C 
BRANCH  31  32
HETATM   32  C25 UNL     1       5.630   8.020  13.351  1.00  0.00     0.218 C 
HETATM   33  O7  UNL     1       6.396   8.709  12.687  1.00  0.00    -0.274 OA
HETATM   34  N1  UNL     1       4.954   6.931  12.845  1.00  0.00    -0.346 N 
HETATM   35  H32 UNL     1       4.111   6.654  13.337  1.00  0.00     0.163 HD
BRANCH  34  36
HETATM   36  C26 UNL     1       4.978   6.638  11.404  1.00  0.00     0.186 C 
BRANCH  36  37
HETATM   37  C27 UNL     1       4.626   7.901  10.608  1.00  0.00     0.074 C 
BRANCH  37  38
HETATM   38  C28 UNL     1       3.730   7.649   9.421  1.00  0.00    -0.056 A 
HETATM   39  C29 UNL     1       3.350   8.703   8.579  1.00  0.00     0.007 A 
HETATM   40  C30 UNL     1       2.526   8.467   7.478  1.00  0.00     0.001 A 
HETATM   41  C31 UNL     1       2.073   7.177   7.209  1.00  0.00     0.000 A 
HETATM   42  C32 UNL     1       2.445   6.121   8.039  1.00  0.00     0.001 A 
HETATM   43  C33 UNL     1       3.270   6.354   9.140  1.00  0.00     0.007 A 
ENDBRANCH  37  38
ENDBRANCH  36  37
BRANCH  36  44
HETATM   44  C34 UNL     1       6.394   6.183  11.065  1.00  0.00     0.163 C 
HETATM   45  O8  UNL     1       7.211   6.823  10.415  1.00  0.00    -0.648 OA
BRANCH  44  46
HETATM   46  O9  UNL     1       6.702   4.964  11.544  1.00  0.00    -0.775 OA
HETATM   47  H41 UNL     1       7.626   4.804  11.263  1.00  0.00     0.167 HD
ENDBRANCH  44  46
ENDBRANCH  36  44
ENDBRANCH  34  36
ENDBRANCH  31  32
ENDBRANCH  30  31
ENDBRANCH  28  30
ENDBRANCH  27  28
ENDBRANCH  26  27
ENDBRANCH   1  26
TORSDOF 13
ENDMDL
MODEL 3
REMARK minimizedAffinity -8.0219841
REMARK CNNscore 0.518008769
REMARK CNNaffinity 7.3555398
REMARK  13 active torsions:
REMARK  status: ('A' for Active; 'I' for Inactive)
REMARK    1  A    between atoms: C19_21  and  O3_22 
REMARK    2  A    between atoms: C19_21  and  C20_23 
REMARK    3  A    between atoms: C20_23  and  C21_25 
REMARK    4  A    between atoms: C21_25  and  O5_26 
REMARK    5  A    between atoms: O5_26  and  C22_27 
REMARK    6  A    between atoms: C22_27  and  C23_29 
REMARK    7  A    between atoms: C23_29  and  C24_30 
REMARK    8  A    between atoms: C24_30  and  C25_31 
REMARK       I    between atoms: C25_31  and  N1_33 
REMARK    9  A    between atoms: N1_33  and  C26_34 
REMARK   10  A    between atoms: C26_34  and  C27_35 
REMARK   11  A    between atoms: C26_34  and  C34_42 
REMARK   12  A    between atoms: C27_35  and  C28_36 
REMARK   13  A    between atoms: C34_42  and  O9_44 
ROOT
HETATM    1  C20 UNL     1      -4.965   7.233  13.885  1.00  0.00     0.185 C 
HETATM    2  O4  UNL     1      -5.154   7.973  12.914  1.00  0.00    -0.292 OA
ENDROOT
BRANCH   1   3
HETATM    3  C19 UNL     1      -3.747   7.432  14.849  1.00  0.00     0.128 C 
HETATM    4  C14 UNL     1      -3.708   8.819  15.586  1.00  0.00     0.005 C 
HETATM    5  C13 UNL     1      -2.995   8.713  16.955  1.00  0.00     0.091 C 
HETATM    6  C15 UNL     1      -5.127   9.381  15.832  1.00  0.00     0.019 C 
HETATM    7  C16 UNL     1      -2.907   9.773  14.635  1.00  0.00     0.002 C 
HETATM    8  C12 UNL     1      -2.811  10.082  17.564  1.00  0.00     0.133 C 
HETATM    9  C11 UNL     1      -2.156  11.153  16.701  1.00  0.00     0.072 C 
HETATM   10  O2  UNL     1      -3.192  10.317  18.711  1.00  0.00    -0.297 OA
HETATM   11  C2  UNL     1      -0.929  11.839  17.418  1.00  0.00    -0.009 C 
HETATM   12  C10 UNL     1      -1.768  10.581  15.319  1.00  0.00     0.003 C 
HETATM   13  C1  UNL     1      -1.454  12.958  18.348  1.00  0.00     0.021 C 
HETATM   14  C3  UNL     1      -0.085  10.822  18.237  1.00  0.00     0.022 C 
HETATM   15  C7  UNL     1      -0.010  12.481  16.372  1.00  0.00    -0.067 C 
HETATM   16  C4  UNL     1       1.208  11.416  18.795  1.00  0.00     0.084 C 
HETATM   17  C5  UNL     1       2.020  12.094  17.721  1.00  0.00     0.149 C 
HETATM   18  O1  UNL     1       3.231  12.271  17.830  1.00  0.00    -0.293 OA
HETATM   19  C6  UNL     1       1.323  12.590  16.511  1.00  0.00     0.053 C 
HETATM   20  C8  UNL     1      -0.687  12.922  15.105  1.00  0.00     0.035 C 
HETATM   21  C9  UNL     1      -1.272  11.711  14.377  1.00  0.00     0.010 C 
HETATM   22  C17 UNL     1      -2.334   8.886  13.514  1.00  0.00     0.009 C 
HETATM   23  C18 UNL     1      -2.459   7.457  14.015  1.00  0.00     0.047 C 
BRANCH   3  24
HETATM   24  O3  UNL     1      -3.595   6.350  15.758  1.00  0.00    -0.381 OA
HETATM   25  H25 UNL     1      -4.322   6.366  16.416  1.00  0.00     0.211 HD
ENDBRANCH   3  24
ENDBRANCH   1   3
BRANCH   1  26
HETATM   26  C21 UNL     1      -5.990   6.152  14.211  1.00  0.00     0.260 C 
BRANCH  26  27
HETATM   27  O5  UNL     1      -6.505   5.487  13.060  1.00  0.00    -0.314 OA
BRANCH  27  28
HETATM   28  C22 UNL     1      -7.077   4.278  13.281  1.00  0.00     0.259 C 
HETATM   29  O6  UNL     1      -8.041   4.107  14.022  1.00  0.00    -0.265 OA
BRANCH  28  30
HETATM   30  C23 UNL     1      -6.387   3.145  12.556  1.00  0.00     0.120 C 
BRANCH  30  31
HETATM   31  C24 UNL     1      -5.448   3.574  11.437  1.00  0.00     0.112 C 
BRANCH  31  32
HETATM   32  C25 UNL     1      -3.990   3.457  11.839  1.00  0.00     0.218 C 
HETATM   33  O7  UNL     1      -3.595   3.572  12.993  1.00  0.00    -0.274 OA
HETATM   34  N1  UNL     1      -3.157   3.206  10.770  1.00  0.00    -0.346 N 
HETATM   35  H32 UNL     1      -3.504   3.473   9.854  1.00  0.00     0.163 HD
BRANCH  34  36
HETATM   36  C26 UNL     1      -1.697   3.243  10.935  1.00  0.00     0.186 C 
BRANCH  36  37
HETATM   37  C27 UNL     1      -1.337   3.901  12.272  1.00  0.00     0.074 C 
BRANCH  37  38
HETATM   38  C28 UNL     1      -0.270   4.962  12.168  1.00  0.00    -0.056 A 
HETATM   39  C29 UNL     1       0.391   5.423  13.315  1.00  0.00     0.007 A 
HETATM   40  C30 UNL     1       1.382   6.400  13.216  1.00  0.00     0.001 A 
HETATM   41  C31 UNL     1       1.722   6.926  11.970  1.00  0.00     0.000 A 
HETATM   42  C32 UNL     1       1.071   6.475  10.823  1.00  0.00     0.001 A 
HETATM   43  C33 UNL     1       0.081   5.497  10.920  1.00  0.00     0.007 A 
ENDBRANCH  37  38
ENDBRANCH  36  37
BRANCH  36  44
HETATM   44  C34 UNL     1      -1.209   1.797  10.916  1.00  0.00     0.163 C 
HETATM   45  O8  UNL     1      -1.925   0.804  10.940  1.00  0.00    -0.648 OA
BRANCH  44  46
HETATM   46  O9  UNL     1       0.131   1.677  10.877  1.00  0.00    -0.775 OA
HETATM   47  H41 UNL     1       0.301   0.713  10.863  1.00  0.00     0.167 HD
ENDBRANCH  44  46
ENDBRANCH  36  44
ENDBRANCH  34  36
ENDBRANCH  31  32
ENDBRANCH  30  31
ENDBRANCH  28  30
ENDBRANCH  27  28
ENDBRANCH  26  27
ENDBRANCH   1  26
TORSDOF 13
ENDMDL
MODEL 4
REMARK minimizedAffinity -9.86064529
REMARK CNNscore 0.3684192
REMARK CNNaffinity 6.61269569
REMARK  13 active torsions:
REMARK  status: ('A' for Active; 'I' for Inactive)
REMARK    1  A    between atoms: C19_21  and  O3_22 
REMARK    2  A    between atoms: C19_21  and  C20_23 
REMARK    3  A    between atoms: C20_23  and  C21_25 
REMARK    4  A    between atoms: C21_25  and  O5_26 
REMARK    5  A    between atoms: O5_26  and  C22_27 
REMARK    6  A    between atoms: C22_27  and  C23_29 
REMARK    7  A    between atoms: C23_29  and  C24_30 
REMARK    8  A    between atoms: C24_30  and  C25_31 
REMARK       I    between atoms: C25_31  and  N1_33 
REMARK    9  A    between atoms: N1_33  and  C26_34 
REMARK   10  A    between atoms: C26_34  and  C27_35 
REMARK   11  A    between atoms: C26_34  and  C34_42 
REMARK   12  A    between atoms: C27_35  and  C28_36 
REMARK   13  A    between atoms: C34_42  and  O9_44 
ROOT
HETATM    1  C20 UNL     1      -1.713   8.830  15.537  1.00  0.00     0.185 C 
HETATM    2  O4  UNL     1      -2.607   9.390  14.893  1.00  0.00    -0.292 OA
ENDROOT
BRANCH   1   3
HETATM    3  C19 UNL     1      -0.751   7.787  14.877  1.00  0.00     0.128 C 
HETATM    4  C14 UNL     1       0.365   8.406  13.959  1.00  0.00     0.005 C 
HETATM    5  C13 UNL     1       1.631   7.518  13.928  1.00  0.00     0.091 C 
HETATM    6  C15 UNL     1       0.786   9.816  14.435  1.00  0.00     0.019 C 
HETATM    7  C16 UNL     1      -0.271   8.487  12.529  1.00  0.00     0.002 C 
HETATM    8  C12 UNL     1       2.616   8.035  12.908  1.00  0.00     0.133 C 
HETATM    9  C11 UNL     1       2.101   8.282  11.496  1.00  0.00     0.072 C 
HETATM   10  O2  UNL     1       3.786   8.258  13.220  1.00  0.00    -0.297 OA
HETATM   11  C2  UNL     1       2.973   7.555  10.399  1.00  0.00    -0.009 C 
HETATM   12  C10 UNL     1       0.607   7.906  11.384  1.00  0.00     0.003 C 
HETATM   13  C1  UNL     1       4.201   8.437  10.070  1.00  0.00     0.021 C 
HETATM   14  C3  UNL     1       3.442   6.147  10.862  1.00  0.00     0.022 C 
HETATM   15  C7  UNL     1       2.153   7.382   9.115  1.00  0.00    -0.067 C 
HETATM   16  C4  UNL     1       4.134   5.346   9.760  1.00  0.00     0.084 C 
HETATM   17  C5  UNL     1       3.300   5.283   8.506  1.00  0.00     0.149 C 
HETATM   18  O1  UNL     1       3.440   4.394   7.670  1.00  0.00    -0.293 OA
HETATM   19  C6  UNL     1       2.301   6.351   8.265  1.00  0.00     0.053 C 
HETATM   20  C8  UNL     1       1.084   8.413   8.891  1.00  0.00     0.035 C 
HETATM   21  C9  UNL     1       0.036   8.329  10.003  1.00  0.00     0.010 C 
HETATM   22  C17 UNL     1      -1.612   7.734  12.607  1.00  0.00     0.009 C 
HETATM   23  C18 UNL     1      -1.556   6.927  13.893  1.00  0.00     0.047 C 
BRANCH   3  24
HETATM   24  O3  UNL     1      -0.206   6.879  15.824  1.00  0.00    -0.381 OA
HETATM   25  H25 UNL     1       0.437   7.346  16.399  1.00  0.00     0.211 HD
ENDBRANCH   3  24
ENDBRANCH   1   3
BRANCH   1  26
HETATM   26  C21 UNL     1      -1.480   9.228  16.990  1.00  0.00     0.260 C 
BRANCH  26  27
HETATM   27  O5  UNL     1      -1.666  10.619  17.239  1.00  0.00    -0.314 OA
BRANCH  27  28
HETATM   28  C22 UNL     1      -0.629  11.258  17.835  1.00  0.00     0.259 C 
HETATM   29  O6  UNL     1       0.089  12.072  17.260  1.00  0.00    -0.265 OA
BRANCH  28  30
HETATM   30  C23 UNL     1      -0.412  10.842  19.271  1.00  0.00     0.120 C 
BRANCH  30  31
HETATM   31  C24 UNL     1       0.718  11.570  19.989  1.00  0.00     0.112 C 
BRANCH  31  32
HETATM   32  C25 UNL     1       1.871  10.644  20.323  1.00  0.00     0.218 C 
HETATM   33  O7  UNL     1       2.397   9.895  19.507  1.00  0.00    -0.274 OA
HETATM   34  N1  UNL     1       2.268  10.733  21.639  1.00  0.00    -0.346 N 
HETATM   35  H32 UNL     1       1.580  11.090  22.295  1.00  0.00     0.163 HD
BRANCH  34  36
HETATM   36  C26 UNL     1       3.244   9.784  22.194  1.00  0.00     0.186 C 
BRANCH  36  37
HETATM   37  C27 UNL     1       4.210  10.516  23.133  1.00  0.00     0.074 C 
BRANCH  37  38
HETATM   38  C28 UNL     1       5.287  11.295  22.421  1.00  0.00    -0.056 A 
HETATM   39  C29 UNL     1       5.307  11.367  21.021  1.00  0.00     0.007 A 
HETATM   40  C30 UNL     1       6.301  12.093  20.364  1.00  0.00     0.001 A 
HETATM   41  C31 UNL     1       7.285  12.753  21.098  1.00  0.00     0.000 A 
HETATM   42  C32 UNL     1       7.274  12.689  22.491  1.00  0.00     0.001 A 
HETATM   43  C33 UNL     1       6.281  11.964  23.150  1.00  0.00     0.007 A 
ENDBRANCH  37  38
ENDBRANCH  36  37
BRANCH  36  44
HETATM   44  C34 UNL     1       2.454   8.735  22.971  1.00  0.00     0.163 C 
HETATM   45  O8  UNL     1       2.300   8.714  24.185  1.00  0.00    -0.648 OA
BRANCH  44  46
HETATM   46  O9  UNL     1       1.915   7.776  22.194  1.00  0.00    -0.775 OA
HETATM   47  H41 UNL     1       1.440   7.184  22.811  1.00  0.00     0.167 HD
ENDBRANCH  44  46
ENDBRANCH  36  44
ENDBRANCH  34  36
ENDBRANCH  31  32
ENDBRANCH  30  31
ENDBRANCH  28  30
ENDBRANCH  27  28
ENDBRANCH  26  27
ENDBRANCH   1  26
TORSDOF 13
ENDMDL
MODEL 5
REMARK minimizedAffinity -9.29578209
REMARK CNNscore 0.33403489
REMARK CNNaffinity 6.19496775
REMARK  13 active torsions:
REMARK  status: ('A' for Active; 'I' for Inactive)
REMARK    1  A    between atoms: C19_21  and  O3_22 
REMARK    2  A    between atoms: C19_21  and  C20_23 
REMARK    3  A    between atoms: C20_23  and  C21_25 
REMARK    4  A    between atoms: C21_25  and  O5_26 
REMARK    5  A    between atoms: O5_26  and  C22_27 
REMARK    6  A    between atoms: C22_27  and  C23_29 
REMARK    7  A    between atoms: C23_29  and  C24_30 
REMARK    8  A    between atoms: C24_30  and  C25_31 
REMARK       I    between atoms: C25_31  and  N1_33 
REMARK    9  A    between atoms: N1_33  and  C26_34 
REMARK   10  A    between atoms: C26_34  and  C27_35 
REMARK   11  A    between atoms: C26_34  and  C34_42 
REMARK   12  A    between atoms: C27_35  and  C28_36 
REMARK   13  A    between atoms: C34_42  and  O9_44 
ROOT
HETATM    1  C20 UNL     1      -2.570   8.715  16.050  1.00  0.00     0.185 C 
HETATM    2  O4  UNL     1      -2.631   7.631  16.639  1.00  0.00    -0.292 OA
ENDROOT
BRANCH   1   3
HETATM    3  C19 UNL     1      -2.303   8.803  14.510  1.00  0.00     0.128 C 
HETATM    4  C14 UNL     1      -1.330   7.706  13.945  1.00  0.00     0.005 C 
HETATM    5  C13 UNL     1      -1.642   7.380  12.466  1.00  0.00     0.091 C 
HETATM    6  C15 UNL     1      -1.416   6.389  14.750  1.00  0.00     0.019 C 
HETATM    7  C16 UNL     1       0.107   8.321  14.069  1.00  0.00     0.002 C 
HETATM    8  C12 UNL     1      -0.591   6.461  11.892  1.00  0.00     0.133 C 
HETATM    9  C11 UNL     1       0.867   6.874  12.053  1.00  0.00     0.072 C 
HETATM   10  O2  UNL     1      -0.910   5.413  11.330  1.00  0.00    -0.297 OA
HETATM   11  C2  UNL     1       1.647   6.880  10.681  1.00  0.00    -0.009 C 
HETATM   12  C10 UNL     1       0.975   8.232  12.782  1.00  0.00     0.003 C 
HETATM   13  C1  UNL     1       2.124   5.441  10.370  1.00  0.00     0.021 C 
HETATM   14  C3  UNL     1       0.773   7.412   9.511  1.00  0.00     0.022 C 
HETATM   15  C7  UNL     1       2.885   7.778  10.793  1.00  0.00    -0.067 C 
HETATM   16  C4  UNL     1       1.551   7.600   8.209  1.00  0.00     0.084 C 
HETATM   17  C5  UNL     1       2.792   8.431   8.414  1.00  0.00     0.149 C 
HETATM   18  O1  UNL     1       3.330   9.042   7.494  1.00  0.00    -0.293 OA
HETATM   19  C6  UNL     1       3.396   8.481   9.767  1.00  0.00     0.053 C 
HETATM   20  C8  UNL     1       3.468   7.902  12.172  1.00  0.00     0.035 C 
HETATM   21  C9  UNL     1       2.455   8.564  13.109  1.00  0.00     0.010 C 
HETATM   22  C17 UNL     1      -0.085   9.792  14.482  1.00  0.00     0.009 C 
HETATM   23  C18 UNL     1      -1.548  10.107  14.216  1.00  0.00     0.047 C 
BRANCH   3  24
HETATM   24  O3  UNL     1      -3.505   8.876  13.756  1.00  0.00    -0.381 OA
HETATM   25  H25 UNL     1      -3.968   8.013  13.787  1.00  0.00     0.211 HD
ENDBRANCH   3  24
ENDBRANCH   1   3
BRANCH   1  26
HETATM   26  C21 UNL     1      -2.853  10.000  16.821  1.00  0.00     0.260 C 
BRANCH  26  27
HETATM   27  O5  UNL     1      -2.276  10.023  18.124  1.00  0.00    -0.314 OA
BRANCH  27  28
HETATM   28  C22 UNL     1      -1.296  10.939  18.322  1.00  0.00     0.259 C 
HETATM   29  O6  UNL     1      -1.020  11.825  17.518  1.00  0.00    -0.265 OA
BRANCH  28  30
HETATM   30  C23 UNL     1      -0.543  10.743  19.618  1.00  0.00     0.120 C 
BRANCH  30  31
HETATM   31  C24 UNL     1       0.760  11.525  19.731  1.00  0.00     0.112 C 
BRANCH  31  32
HETATM   32  C25 UNL     1       1.927  10.637  20.114  1.00  0.00     0.218 C 
HETATM   33  O7  UNL     1       2.526   9.923  19.317  1.00  0.00    -0.274 OA
HETATM   34  N1  UNL     1       2.246  10.718  21.452  1.00  0.00    -0.346 N 
HETATM   35  H32 UNL     1       1.510  11.038  22.074  1.00  0.00     0.163 HD
BRANCH  34  36
HETATM   36  C26 UNL     1       3.226   9.796  22.045  1.00  0.00     0.186 C 
BRANCH  36  37
HETATM   37  C27 UNL     1       4.118  10.550  23.039  1.00  0.00     0.074 C 
BRANCH  37  38
HETATM   38  C28 UNL     1       5.211  11.362  22.389  1.00  0.00    -0.056 A 
HETATM   39  C29 UNL     1       5.346  11.387  20.994  1.00  0.00     0.007 A 
HETATM   40  C30 UNL     1       6.354  12.143  20.394  1.00  0.00     0.001 A 
HETATM   41  C31 UNL     1       7.236  12.881  21.183  1.00  0.00     0.000 A 
HETATM   42  C32 UNL     1       7.110  12.864  22.570  1.00  0.00     0.001 A 
HETATM   43  C33 UNL     1       6.103  12.109  23.172  1.00  0.00     0.007 A 
ENDBRANCH  37  38
ENDBRANCH  36  37
BRANCH  36  44
HETATM   44  C34 UNL     1       2.434   8.712  22.772  1.00  0.00     0.163 C 
HETATM   45  O8  UNL     1       1.901   7.746  22.244  1.00  0.00    -0.648 OA
BRANCH  44  46
HETATM   46  O9  UNL     1       2.348   8.902  24.101  1.00  0.00    -0.775 OA
HETATM   47  H41 UNL     1       1.828   8.143  24.436  1.00  0.00     0.167 HD
ENDBRANCH  44  46
ENDBRANCH  36  44
ENDBRANCH  34  36
ENDBRANCH  31  32
ENDBRANCH  30  31
ENDBRANCH  28  30
ENDBRANCH  27  28
ENDBRANCH  26  27
ENDBRANCH   1  26
TORSDOF 13
ENDMDL
MODEL 6
REMARK minimizedAffinity -8.55208683
REMARK CNNscore 0.287168324
REMARK CNNaffinity 7.55886316
REMARK  13 active torsions:
REMARK  status: ('A' for Active; 'I' for Inactive)
REMARK    1  A    between atoms: C19_21  and  O3_22 
REMARK    2  A    between atoms: C19_21  and  C20_23 
REMARK    3  A    between atoms: C20_23  and  C21_25 
REMARK    4  A    between atoms: C21_25  and  O5_26 
REMARK    5  A    between atoms: O5_26  and  C22_27 
REMARK    6  A    between atoms: C22_27  and  C23_29 
REMARK    7  A    between atoms: C23_29  and  C24_30 
REMARK    8  A    between atoms: C24_30  and  C25_31 
REMARK       I    between atoms: C25_31  and  N1_33 
REMARK    9  A    between atoms: N1_33  and  C26_34 
REMARK   10  A    between atoms: C26_34  and  C27_35 
REMARK   11  A    between atoms: C26_34  and  C34_42 
REMARK   12  A    between atoms: C27_35  and  C28_36 
REMARK   13  A    between atoms: C34_42  and  O9_44 
ROOT
HETATM    1  C20 UNL     1      -6.189   6.446  15.415  1.00  0.00     0.185 C 
HETATM    2  O4  UNL     1      -6.649   5.446  15.976  1.00  0.00    -0.292 OA
ENDROOT
BRANCH   1   3
HETATM    3  C19 UNL     1      -7.114   7.506  14.728  1.00  0.00     0.128 C 
HETATM    4  C14 UNL     1      -8.468   7.785  15.476  1.00  0.00     0.005 C 
HETATM    5  C13 UNL     1      -8.969   9.225  15.221  1.00  0.00     0.091 C 
HETATM    6  C15 UNL     1      -8.331   7.593  17.004  1.00  0.00     0.019 C 
HETATM    7  C16 UNL     1      -9.487   6.748  14.890  1.00  0.00     0.002 C 
HETATM    8  C12 UNL     1     -10.351   9.416  15.799  1.00  0.00     0.133 C 
HETATM    9  C11 UNL     1     -11.419   8.401  15.412  1.00  0.00     0.072 C 
HETATM   10  O2  UNL     1     -10.590  10.351  16.562  1.00  0.00    -0.297 OA
HETATM   11  C2  UNL     1     -12.723   9.084  14.842  1.00  0.00    -0.009 C 
HETATM   12  C10 UNL     1     -10.848   7.348  14.436  1.00  0.00     0.003 C 
HETATM   13  C1  UNL     1     -13.616   9.524  16.026  1.00  0.00     0.021 C 
HETATM   14  C3  UNL     1     -12.397  10.309  13.941  1.00  0.00     0.022 C 
HETATM   15  C7  UNL     1     -13.511   8.074  14.000  1.00  0.00    -0.067 C 
HETATM   16  C4  UNL     1     -13.622  10.882  13.230  1.00  0.00     0.084 C 
HETATM   17  C5  UNL     1     -14.386   9.817  12.486  1.00  0.00     0.149 C 
HETATM   18  O1  UNL     1     -15.128  10.082  11.544  1.00  0.00    -0.293 OA
HETATM   19  C6  UNL     1     -14.258   8.410  12.933  1.00  0.00     0.053 C 
HETATM   20  C8  UNL     1     -13.335   6.635  14.390  1.00  0.00     0.035 C 
HETATM   21  C9  UNL     1     -11.878   6.214  14.188  1.00  0.00     0.010 C 
HETATM   22  C17 UNL     1      -8.781   6.068  13.703  1.00  0.00     0.009 C 
HETATM   23  C18 UNL     1      -7.584   6.946  13.378  1.00  0.00     0.047 C 
BRANCH   3  24
HETATM   24  O3  UNL     1      -6.424   8.711  14.425  1.00  0.00    -0.381 OA
HETATM   25  H25 UNL     1      -6.220   9.192  15.255  1.00  0.00     0.211 HD
ENDBRANCH   3  24
ENDBRANCH   1   3
BRANCH   1  26
HETATM   26  C21 UNL     1      -4.687   6.707  15.469  1.00  0.00     0.260 C 
BRANCH  26  27
HETATM   27  O5  UNL     1      -4.045   6.612  14.200  1.00  0.00    -0.314 OA
BRANCH  27  28
HETATM   28  C22 UNL     1      -2.735   6.260  14.224  1.00  0.00     0.259 C 
HETATM   29  O6  UNL     1      -2.251   5.497  15.055  1.00  0.00    -0.265 OA
BRANCH  28  30
HETATM   30  C23 UNL     1      -1.913   6.929  13.147  1.00  0.00     0.120 C 
BRANCH  30  31
HETATM   31  C24 UNL     1      -1.652   6.076  11.912  1.00  0.00     0.112 C 
BRANCH  31  32
HETATM   32  C25 UNL     1      -1.428   4.618  12.262  1.00  0.00     0.218 C 
HETATM   33  O7  UNL     1      -0.567   4.233  13.045  1.00  0.00    -0.274 OA
HETATM   34  N1  UNL     1      -2.297   3.770  11.610  1.00  0.00    -0.346 N 
HETATM   35  H32 UNL     1      -2.714   4.122  10.753  1.00  0.00     0.163 HD
BRANCH  34  36
HETATM   36  C26 UNL     1      -2.116   2.313  11.680  1.00  0.00     0.186 C 
BRANCH  36  37
HETATM   37  C27 UNL     1      -3.373   1.604  11.164  1.00  0.00     0.074 C 
BRANCH  37  38
HETATM   38  C28 UNL     1      -4.660   2.139  11.741  1.00  0.00    -0.056 A 
HETATM   39  C29 UNL     1      -5.870   1.462  11.534  1.00  0.00     0.007 A 
HETATM   40  C30 UNL     1      -7.059   1.956  12.073  1.00  0.00     0.001 A 
HETATM   41  C31 UNL     1      -7.050   3.131  12.822  1.00  0.00     0.000 A 
HETATM   42  C32 UNL     1      -5.853   3.813  13.034  1.00  0.00     0.001 A 
HETATM   43  C33 UNL     1      -4.663   3.320  12.497  1.00  0.00     0.007 A 
ENDBRANCH  37  38
ENDBRANCH  36  37
BRANCH  36  44
HETATM   44  C34 UNL     1      -0.922   1.971  10.793  1.00  0.00     0.163 C 
HETATM   45  O8  UNL     1       0.253   2.169  11.072  1.00  0.00    -0.648 OA
BRANCH  44  46
HETATM   46  O9  UNL     1      -1.262   1.414   9.616  1.00  0.00    -0.775 OA
HETATM   47  H41 UNL     1      -0.414   1.243   9.159  1.00  0.00     0.167 HD
ENDBRANCH  44  46
ENDBRANCH  36  44
ENDBRANCH  34  36
ENDBRANCH  31  32
ENDBRANCH  30  31
ENDBRANCH  28  30
ENDBRANCH  27  28
ENDBRANCH  26  27
ENDBRANCH   1  26
TORSDOF 13
ENDMDL
MODEL 7
REMARK minimizedAffinity -8.05416965
REMARK CNNscore 0.263011783
REMARK CNNaffinity 6.56277227
REMARK  13 active torsions:
REMARK  status: ('A' for Active; 'I' for Inactive)
REMARK    1  A    between atoms: C19_21  and  O3_22 
REMARK    2  A    between atoms: C19_21  and  C20_23 
REMARK    3  A    between atoms: C20_23  and  C21_25 
REMARK    4  A    between atoms: C21_25  and  O5_26 
REMARK    5  A    between atoms: O5_26  and  C22_27 
REMARK    6  A    between atoms: C22_27  and  C23_29 
REMARK    7  A    between atoms: C23_29  and  C24_30 
REMARK    8  A    between atoms: C24_30  and  C25_31 
REMARK       I    between atoms: C25_31  and  N1_33 
REMARK    9  A    between atoms: N1_33  and  C26_34 
REMARK   10  A    between atoms: C26_34  and  C27_35 
REMARK   11  A    between atoms: C26_34  and  C34_42 
REMARK   12  A    between atoms: C27_35  and  C28_36 
REMARK   13  A    between atoms: C34_42  and  O9_44 
ROOT
HETATM    1  C20 UNL     1      -3.311   7.496  15.258  1.00  0.00     0.185 C 
HETATM    2  O4  UNL     1      -2.488   7.466  16.179  1.00  0.00    -0.292 OA
ENDROOT
BRANCH   1   3
HETATM    3  C19 UNL     1      -2.870   7.620  13.761  1.00  0.00     0.128 C 
HETATM    4  C14 UNL     1      -1.600   6.778  13.375  1.00  0.00     0.005 C 
HETATM    5  C13 UNL     1      -1.628   6.363  11.886  1.00  0.00     0.091 C 
HETATM    6  C15 UNL     1      -1.481   5.493  14.224  1.00  0.00     0.019 C 
HETATM    7  C16 UNL     1      -0.378   7.721  13.648  1.00  0.00     0.002 C 
HETATM    8  C12 UNL     1      -0.324   5.712  11.492  1.00  0.00     0.133 C 
HETATM    9  C11 UNL     1       0.961   6.464  11.814  1.00  0.00     0.072 C 
HETATM   10  O2  UNL     1      -0.311   4.610  10.945  1.00  0.00    -0.297 OA
HETATM   11  C2  UNL     1       1.894   6.634  10.552  1.00  0.00    -0.009 C 
HETATM   12  C10 UNL     1       0.649   7.821  12.485  1.00  0.00     0.003 C 
HETATM   13  C1  UNL     1       2.732   5.346  10.372  1.00  0.00     0.021 C 
HETATM   14  C3  UNL     1       1.083   6.922   9.258  1.00  0.00     0.022 C 
HETATM   15  C7  UNL     1       2.860   7.804  10.775  1.00  0.00    -0.067 C 
HETATM   16  C4  UNL     1       1.960   7.270   8.056  1.00  0.00     0.084 C 
HETATM   17  C5  UNL     1       2.932   8.376   8.374  1.00  0.00     0.149 C 
HETATM   18  O1  UNL     1       3.429   9.082   7.501  1.00  0.00    -0.293 OA
HETATM   19  C6  UNL     1       3.323   8.591   9.788  1.00  0.00     0.053 C 
HETATM   20  C8  UNL     1       3.209   8.086  12.208  1.00  0.00     0.035 C 
HETATM   21  C9  UNL     1       1.954   8.502  12.979  1.00  0.00     0.010 C 
HETATM   22  C17 UNL     1      -0.963   9.110  13.963  1.00  0.00     0.009 C 
HETATM   23  C18 UNL     1      -2.410   9.062  13.502  1.00  0.00     0.047 C 
BRANCH   3  24
HETATM   24  O3  UNL     1      -3.944   7.392  12.860  1.00  0.00    -0.381 OA
HETATM   25  H25 UNL     1      -4.192   6.444  12.874  1.00  0.00     0.211 HD
ENDBRANCH   3  24
ENDBRANCH   1   3
BRANCH   1  26
HETATM   26  C21 UNL     1      -4.792   7.317  15.575  1.00  0.00     0.260 C 
BRANCH  26  27
HETATM   27  O5  UNL     1      -5.314   6.054  15.171  1.00  0.00    -0.314 OA
BRANCH  27  28
HETATM   28  C22 UNL     1      -6.642   5.870  15.375  1.00  0.00     0.259 C 
HETATM   29  O6  UNL     1      -7.338   5.123  14.691  1.00  0.00    -0.265 OA
BRANCH  28  30
HETATM   30  C23 UNL     1      -7.198   6.703  16.505  1.00  0.00     0.120 C 
BRANCH  30  31
HETATM   31  C24 UNL     1      -8.664   7.093  16.359  1.00  0.00     0.112 C 
BRANCH  31  32
HETATM   32  C25 UNL     1      -8.843   8.322  15.489  1.00  0.00     0.218 C 
HETATM   33  O7  UNL     1      -7.909   8.971  15.032  1.00  0.00    -0.274 OA
HETATM   34  N1  UNL     1     -10.167   8.632  15.265  1.00  0.00    -0.346 N 
HETATM   35  H32 UNL     1     -10.835   8.277  15.942  1.00  0.00     0.163 HD
BRANCH  34  36
HETATM   36  C26 UNL     1     -10.539   9.890  14.602  1.00  0.00     0.186 C 
BRANCH  36  37
HETATM   37  C27 UNL     1     -11.765   9.668  13.708  1.00  0.00     0.074 C 
BRANCH  37  38
HETATM   38  C28 UNL     1     -12.654   8.535  14.157  1.00  0.00    -0.056 A 
HETATM   39  C29 UNL     1     -12.390   7.219  13.753  1.00  0.00     0.007 A 
HETATM   40  C30 UNL     1     -13.211   6.171  14.173  1.00  0.00     0.001 A 
HETATM   41  C31 UNL     1     -14.303   6.429  15.000  1.00  0.00     0.000 A 
HETATM   42  C32 UNL     1     -14.575   7.734  15.407  1.00  0.00     0.001 A 
HETATM   43  C33 UNL     1     -13.756   8.782  14.989  1.00  0.00     0.007 A 
ENDBRANCH  37  38
ENDBRANCH  36  37
BRANCH  36  44
HETATM   44  C34 UNL     1     -10.871  10.894  15.703  1.00  0.00     0.163 C 
HETATM   45  O8  UNL     1     -10.369  10.917  16.819  1.00  0.00    -0.648 OA
BRANCH  44  46
HETATM   46  O9  UNL     1     -11.807  11.794  15.352  1.00  0.00    -0.775 OA
HETATM   47  H41 UNL     1     -11.915  12.370  16.137  1.00  0.00     0.167 HD
ENDBRANCH  44  46
ENDBRANCH  36  44
ENDBRANCH  34  36
ENDBRANCH  31  32
ENDBRANCH  30  31
ENDBRANCH  28  30
ENDBRANCH  27  28
ENDBRANCH  26  27
ENDBRANCH   1  26
TORSDOF 13
ENDMDL
MODEL 8
REMARK minimizedAffinity -8.6995039
REMARK CNNscore 0.259861678
REMARK CNNaffinity 6.01580667
REMARK  13 active torsions:
REMARK  status: ('A' for Active; 'I' for Inactive)
REMARK    1  A    between atoms: C19_21  and  O3_22 
REMARK    2  A    between atoms: C19_21  and  C20_23 
REMARK    3  A    between atoms: C20_23  and  C21_25 
REMARK    4  A    between atoms: C21_25  and  O5_26 
REMARK    5  A    between atoms: O5_26  and  C22_27 
REMARK    6  A    between atoms: C22_27  and  C23_29 
REMARK    7  A    between atoms: C23_29  and  C24_30 
REMARK    8  A    between atoms: C24_30  and  C25_31 
REMARK       I    between atoms: C25_31  and  N1_33 
REMARK    9  A    between atoms: N1_33  and  C26_34 
REMARK   10  A    between atoms: C26_34  and  C27_35 
REMARK   11  A    between atoms: C26_34  and  C34_42 
REMARK   12  A    between atoms: C27_35  and  C28_36 
REMARK   13  A    between atoms: C34_42  and  O9_44 
ROOT
HETATM    1  C20 UNL     1       5.537   7.718  12.194  1.00  0.00     0.185 C 
HETATM    2  O4  UNL     1       6.291   8.035  11.268  1.00  0.00    -0.292 OA
ENDROOT
BRANCH   1   3
HETATM    3  C19 UNL     1       5.957   7.879  13.693  1.00  0.00     0.128 C 
HETATM    4  C14 UNL     1       6.360   9.339  14.113  1.00  0.00     0.005 C 
HETATM    5  C13 UNL     1       6.072   9.597  15.610  1.00  0.00     0.091 C 
HETATM    6  C15 UNL     1       5.598  10.405  13.293  1.00  0.00     0.019 C 
HETATM    7  C16 UNL     1       7.899   9.442  13.835  1.00  0.00     0.002 C 
HETATM    8  C12 UNL     1       6.626  10.936  16.034  1.00  0.00     0.133 C 
HETATM    9  C11 UNL     1       8.087  11.225  15.712  1.00  0.00     0.072 C 
HETATM   10  O2  UNL     1       5.912  11.760  16.604  1.00  0.00    -0.297 OA
HETATM   11  C2  UNL     1       8.906  11.681  16.981  1.00  0.00    -0.009 C 
HETATM   12  C10 UNL     1       8.743  10.016  15.008  1.00  0.00     0.003 C 
HETATM   13  C1  UNL     1       8.689  13.197  17.199  1.00  0.00     0.021 C 
HETATM   14  C3  UNL     1       8.492  10.898  18.259  1.00  0.00     0.022 C 
HETATM   15  C7  UNL     1      10.403  11.443  16.746  1.00  0.00    -0.067 C 
HETATM   16  C4  UNL     1       9.386  11.186  19.464  1.00  0.00     0.084 C 
HETATM   17  C5  UNL     1      10.845  11.003  19.134  1.00  0.00     0.149 C 
HETATM   18  O1  UNL     1      11.689  10.778  19.998  1.00  0.00    -0.293 OA
HETATM   19  C6  UNL     1      11.274  11.132  17.721  1.00  0.00     0.053 C 
HETATM   20  C8  UNL     1      10.844  11.496  15.311  1.00  0.00     0.035 C 
HETATM   21  C9  UNL     1      10.171  10.375  14.516  1.00  0.00     0.010 C 
HETATM   22  C17 UNL     1       8.373   8.020  13.483  1.00  0.00     0.009 C 
HETATM   23  C18 UNL     1       7.254   7.092  13.927  1.00  0.00     0.047 C 
BRANCH   3  24
HETATM   24  O3  UNL     1       5.003   7.321  14.586  1.00  0.00    -0.381 OA
HETATM   25  H25 UNL     1       4.192   7.871  14.589  1.00  0.00     0.211 HD
ENDBRANCH   3  24
ENDBRANCH   1   3
BRANCH   1  26
HETATM   26  C21 UNL     1       4.124   7.241  11.875  1.00  0.00     0.260 C 
BRANCH  26  27
HETATM   27  O5  UNL     1       3.114   7.887  12.646  1.00  0.00    -0.314 OA
BRANCH  27  28
HETATM   28  C22 UNL     1       1.890   7.970  12.069  1.00  0.00     0.259 C 
HETATM   29  O6  UNL     1       1.581   8.829  11.248  1.00  0.00    -0.265 OA
BRANCH  28  30
HETATM   30  C23 UNL     1       0.921   6.921  12.564  1.00  0.00     0.120 C 
BRANCH  30  31
HETATM   31  C24 UNL     1       0.892   5.634  11.749  1.00  0.00     0.112 C 
BRANCH  31  32
HETATM   32  C25 UNL     1      -0.182   4.678  12.230  1.00  0.00     0.218 C 
HETATM   33  O7  UNL     1      -0.245   4.252  13.377  1.00  0.00    -0.274 OA
HETATM   34  N1  UNL     1      -1.082   4.340  11.242  1.00  0.00    -0.346 N 
HETATM   35  H32 UNL     1      -0.762   4.446  10.284  1.00  0.00     0.163 HD
BRANCH  34  36
HETATM   36  C26 UNL     1      -2.081   3.286  11.468  1.00  0.00     0.186 C 
BRANCH  36  37
HETATM   37  C27 UNL     1      -3.345   3.579  10.652  1.00  0.00     0.074 C 
BRANCH  37  38
HETATM   38  C28 UNL     1      -4.631   3.320  11.396  1.00  0.00    -0.056 A 
HETATM   39  C29 UNL     1      -5.365   2.148  11.164  1.00  0.00     0.007 A 
HETATM   40  C30 UNL     1      -6.551   1.907  11.857  1.00  0.00     0.001 A 
HETATM   41  C31 UNL     1      -7.016   2.834  12.789  1.00  0.00     0.000 A 
HETATM   42  C32 UNL     1      -6.294   4.002  13.028  1.00  0.00     0.001 A 
HETATM   43  C33 UNL     1      -5.108   4.245  12.336  1.00  0.00     0.007 A 
ENDBRANCH  37  38
ENDBRANCH  36  37
BRANCH  36  44
HETATM   44  C34 UNL     1      -1.454   1.973  11.007  1.00  0.00     0.163 C 
HETATM   45  O8  UNL     1      -0.309   1.836  10.596  1.00  0.00    -0.648 OA
BRANCH  44  46
HETATM   46  O9  UNL     1      -2.289   0.919  11.078  1.00  0.00    -0.775 OA
HETATM   47  H41 UNL     1      -1.764   0.155  10.764  1.00  0.00     0.167 HD
ENDBRANCH  44  46
ENDBRANCH  36  44
ENDBRANCH  34  36
ENDBRANCH  31  32
ENDBRANCH  30  31
ENDBRANCH  28  30
ENDBRANCH  27  28
ENDBRANCH  26  27
ENDBRANCH   1  26
TORSDOF 13
ENDMDL
MODEL 9
REMARK minimizedAffinity -8.28813362
REMARK CNNscore 0.239260077
REMARK CNNaffinity 6.03877783
REMARK  13 active torsions:
REMARK  status: ('A' for Active; 'I' for Inactive)
REMARK    1  A    between atoms: C19_21  and  O3_22 
REMARK    2  A    between atoms: C19_21  and  C20_23 
REMARK    3  A    between atoms: C20_23  and  C21_25 
REMARK    4  A    between atoms: C21_25  and  O5_26 
REMARK    5  A    between atoms: O5_26  and  C22_27 
REMARK    6  A    between atoms: C22_27  and  C23_29 
REMARK    7  A    between atoms: C23_29  and  C24_30 
REMARK    8  A    between atoms: C24_30  and  C25_31 
REMARK       I    between atoms: C25_31  and  N1_33 
REMARK    9  A    between atoms: N1_33  and  C26_34 
REMARK   10  A    between atoms: C26_34  and  C27_35 
REMARK   11  A    between atoms: C26_34  and  C34_42 
REMARK   12  A    between atoms: C27_35  and  C28_36 
REMARK   13  A    between atoms: C34_42  and  O9_44 
ROOT
HETATM    1  C20 UNL     1      -1.674   9.486  16.468  1.00  0.00     0.185 C 
HETATM    2  O4  UNL     1      -2.760   9.436  17.053  1.00  0.00    -0.292 OA
ENDROOT
BRANCH   1   3
HETATM    3  C19 UNL     1      -1.578   9.515  14.906  1.00  0.00     0.128 C 
HETATM    4  C14 UNL     1      -0.848   8.279  14.265  1.00  0.00     0.005 C 
HETATM    5  C13 UNL     1      -1.375   7.985  12.842  1.00  0.00     0.091 C 
HETATM    6  C15 UNL     1      -1.032   6.999  15.113  1.00  0.00     0.019 C 
HETATM    7  C16 UNL     1       0.667   8.675  14.208  1.00  0.00     0.002 C 
HETATM    8  C12 UNL     1      -0.544   6.913  12.179  1.00  0.00     0.133 C 
HETATM    9  C11 UNL     1       0.967   7.107  12.160  1.00  0.00     0.072 C 
HETATM   10  O2  UNL     1      -1.077   5.919  11.687  1.00  0.00    -0.297 OA
HETATM   11  C2  UNL     1       1.574   6.981  10.710  1.00  0.00    -0.009 C 
HETATM   12  C10 UNL     1       1.356   8.443  12.833  1.00  0.00     0.003 C 
HETATM   13  C1  UNL     1       1.796   5.484  10.388  1.00  0.00     0.021 C 
HETATM   14  C3  UNL     1       0.657   7.623   9.632  1.00  0.00     0.022 C 
HETATM   15  C7  UNL     1       2.935   7.687  10.654  1.00  0.00    -0.067 C 
HETATM   16  C4  UNL     1       1.296   7.678   8.245  1.00  0.00     0.084 C 
HETATM   17  C5  UNL     1       2.660   8.318   8.283  1.00  0.00     0.149 C 
HETATM   18  O1  UNL     1       3.171   8.831   7.290  1.00  0.00    -0.293 OA
HETATM   19  C6  UNL     1       3.419   8.294   9.556  1.00  0.00     0.053 C 
HETATM   20  C8  UNL     1       3.686   7.739  11.953  1.00  0.00     0.035 C 
HETATM   21  C9  UNL     1       2.898   8.555  12.980  1.00  0.00     0.010 C 
HETATM   22  C17 UNL     1       0.742  10.163  14.597  1.00  0.00     0.009 C 
HETATM   23  C18 UNL     1      -0.680  10.688  14.490  1.00  0.00     0.047 C 
BRANCH   3  24
HETATM   24  O3  UNL     1      -2.836   9.757  14.291  1.00  0.00    -0.381 OA
HETATM   25  H25 UNL     1      -3.414   8.973  14.400  1.00  0.00     0.211 HD
ENDBRANCH   3  24
ENDBRANCH   1   3
BRANCH   1  26
HETATM   26  C21 UNL     1      -0.392   9.613  17.285  1.00  0.00     0.260 C 
BRANCH  26  27
HETATM   27  O5  UNL     1      -0.282  10.849  17.986  1.00  0.00    -0.314 OA
BRANCH  27  28
HETATM   28  C22 UNL     1       0.654  10.893  18.966  1.00  0.00     0.259 C 
HETATM   29  O6  UNL     1       1.688  10.231  18.949  1.00  0.00    -0.265 OA
BRANCH  28  30
HETATM   30  C23 UNL     1       0.285  11.809  20.110  1.00  0.00     0.120 C 
BRANCH  30  31
HETATM   31  C24 UNL     1       0.804  13.235  19.986  1.00  0.00     0.112 C 
BRANCH  31  32
HETATM   32  C25 UNL     1       2.315  13.304  20.086  1.00  0.00     0.218 C 
HETATM   33  O7  UNL     1       3.015  13.971  19.333  1.00  0.00    -0.274 OA
HETATM   34  N1  UNL     1       2.820  12.538  21.115  1.00  0.00    -0.346 N 
HETATM   35  H32 UNL     1       2.234  11.776  21.441  1.00  0.00     0.163 HD
BRANCH  34  36
HETATM   36  C26 UNL     1       4.269  12.333  21.254  1.00  0.00     0.186 C 
BRANCH  36  37
HETATM   37  C27 UNL     1       4.672  12.427  22.730  1.00  0.00     0.074 C 
BRANCH  37  38
HETATM   38  C28 UNL     1       6.124  12.770  22.950  1.00  0.00    -0.056 A 
HETATM   39  C29 UNL     1       7.093  11.759  23.018  1.00  0.00     0.007 A 
HETATM   40  C30 UNL     1       8.436  12.078  23.216  1.00  0.00     0.001 A 
HETATM   41  C31 UNL     1       8.825  13.411  23.348  1.00  0.00     0.000 A 
HETATM   42  C32 UNL     1       7.871  14.424  23.282  1.00  0.00     0.001 A 
HETATM   43  C33 UNL     1       6.527  14.107  23.083  1.00  0.00     0.007 A 
ENDBRANCH  37  38
ENDBRANCH  36  37
BRANCH  36  44
HETATM   44  C34 UNL     1       4.574  10.937  20.717  1.00  0.00     0.163 C 
HETATM   45  O8  UNL     1       4.247   9.883  21.246  1.00  0.00    -0.648 OA
BRANCH  44  46
HETATM   46  O9  UNL     1       5.272  10.939  19.567  1.00  0.00    -0.775 OA
HETATM   47  H41 UNL     1       5.390   9.995  19.337  1.00  0.00     0.167 HD
ENDBRANCH  44  46
ENDBRANCH  36  44
ENDBRANCH  34  36
ENDBRANCH  31  32
ENDBRANCH  30  31
ENDBRANCH  28  30
ENDBRANCH  27  28
ENDBRANCH  26  27
ENDBRANCH   1  26
TORSDOF 13
ENDMDL
