MODEL 1
REMARK minimizedAffinity -8.73457718
REMARK CNNscore 0.413154691
REMARK CNNaffinity 6.88194656
REMARK  9 active torsions:
REMARK  status: ('A' for Active; 'I' for Inactive)
REMARK    1  A    between atoms: C3_3  and  O1_4 
REMARK    2  A    between atoms: N1_14  and  O2_16 
REMARK    3  A    between atoms: O2_16  and  C13_17 
REMARK    4  A    between atoms: C13_17  and  C14_18 
REMARK       I    between atoms: C14_18  and  N2_20 
REMARK    5  A    between atoms: N2_20  and  C15_21 
REMARK    6  A    between atoms: C15_21  and  C16_22 
REMARK    7  A    between atoms: C15_21  and  C18_26 
REMARK    8  A    between atoms: C16_22  and  C17_23 
REMARK    9  A    between atoms: C17_23  and  O5_25 
ROOT
HETATM    1  C1  UNL     1      -7.836   6.886  13.060  1.00  0.00     0.015 C 
HETATM    2  C2  UNL     1      -6.852   6.393  13.545  1.00  0.00    -0.078 C 
HETATM    3  C3  UNL     1      -5.665   5.770  14.148  1.00  0.00     0.128 C 
HETATM    4  C4  UNL     1      -5.589   6.060  15.644  1.00  0.00     0.052 C 
HETATM    5  C5  UNL     1      -4.147   5.735  15.999  1.00  0.00     0.010 C 
HETATM    6  C6  UNL     1      -3.293   6.166  14.785  1.00  0.00     0.002 C 
HETATM    7  C7  UNL     1      -2.501   7.460  15.104  1.00  0.00    -0.004 C 
HETATM    8  C8  UNL     1      -1.317   7.686  14.132  1.00  0.00     0.010 C 
HETATM    9  C9  UNL     1      -0.950   9.160  13.940  1.00  0.00     0.035 C 
HETATM   10  C10 UNL     1      -1.161   9.908  15.228  1.00  0.00    -0.069 C 
HETATM   11  C11 UNL     1      -0.115  10.374  15.931  1.00  0.00     0.030 C 
HETATM   12  C12 UNL     1      -0.286  11.004  17.266  1.00  0.00     0.032 C 
HETATM   13  N1  UNL     1       0.773  11.506  17.838  1.00  0.00    -0.271 N 
ATOM     14  H1  UNL     1       1.713  11.462  17.444  1.00  0.00     0.194 HD
HETATM   15  C25 UNL     1      -1.673  11.033  17.880  1.00  0.00     0.060 C 
HETATM   16  C26 UNL     1      -2.594   9.980  17.267  1.00  0.00     0.020 C 
HETATM   17  C27 UNL     1      -2.608   9.980  15.710  1.00  0.00    -0.016 C 
HETATM   18  C28 UNL     1      -3.240  11.304  15.226  1.00  0.00     0.020 C 
HETATM   19  C29 UNL     1      -3.420   8.701  15.227  1.00  0.00     0.002 C 
HETATM   20  C30 UNL     1      -4.317   8.869  13.981  1.00  0.00     0.007 C 
HETATM   21  C31 UNL     1      -4.302   7.707  12.989  1.00  0.00     0.014 C 
HETATM   22  C32 UNL     1      -4.285   6.269  13.573  1.00  0.00     0.003 C 
HETATM   23  C33 UNL     1      -3.810   5.340  12.426  1.00  0.00     0.020 C 
ENDROOT
BRANCH   3  24
HETATM   24  O1  UNL     1      -5.820   4.354  13.996  1.00  0.00    -0.377 OA
HETATM   25  H2  UNL     1      -5.046   3.914  14.376  1.00  0.00     0.211 HD
ENDBRANCH   3  24
BRANCH  13  26
HETATM   26  O2  UNL     1       0.459  12.114  19.062  1.00  0.00    -0.271 OA
BRANCH  26  27
HETATM   27  C13 UNL     1       0.427  11.121  20.083  1.00  0.00     0.303 C 
BRANCH  27  28
HETATM   28  C14 UNL     1       1.778  10.424  20.186  1.00  0.00     0.244 C 
HETATM   29  O3  UNL     1       2.229   9.719  19.288  1.00  0.00    -0.271 OA
HETATM   30  N2  UNL     1       2.476  10.717  21.339  1.00  0.00    -0.354 N 
HETATM   31  H16 UNL     1       2.013  11.307  22.031  1.00  0.00     0.162 HD
BRANCH  30  32
HETATM   32  C15 UNL     1       3.817  10.217  21.635  1.00  0.00     0.098 C 
BRANCH  32  33
HETATM   33  C16 UNL     1       3.816   9.533  23.011  1.00  0.00     0.135 C 
BRANCH  33  34
HETATM   34  C17 UNL     1       2.594   8.698  23.269  1.00  0.00     0.141 C 
HETATM   35  O4  UNL     1       2.023   8.575  24.339  1.00  0.00    -0.650 OA
BRANCH  34  36
HETATM   36  O5  UNL     1       2.160   8.032  22.181  1.00  0.00    -0.776 OA
HETATM   37  H20 UNL     1       1.388   7.523  22.512  1.00  0.00     0.167 HD
ENDBRANCH  34  36
ENDBRANCH  33  34
ENDBRANCH  32  33
BRANCH  32  38
HETATM   38  C18 UNL     1       4.882  11.336  21.476  1.00  0.00     0.014 C 
HETATM   39  C19 UNL     1       4.692  12.139  20.172  1.00  0.00     0.033 C 
HETATM   40  C20 UNL     1       5.163  13.586  20.285  1.00  0.00     0.169 C 
HETATM   41  O6  UNL     1       6.298  13.671  21.136  1.00  0.00    -0.381 OA
HETATM   42  C21 UNL     1       6.015  13.374  22.511  1.00  0.00     0.054 C 
HETATM   43  C22 UNL     1       7.329  12.846  23.104  1.00  0.00     0.045 C 
HETATM   44  C23 UNL     1       5.636  14.671  23.234  1.00  0.00     0.045 C 
HETATM   45  C24 UNL     1       4.895  12.318  22.663  1.00  0.00     0.044 C 
ENDBRANCH  32  38
ENDBRANCH  30  32
ENDBRANCH  27  28
ENDBRANCH  26  27
ENDBRANCH  13  26
TORSDOF 9
ENDMDL
MODEL 2
REMARK minimizedAffinity -8.62730885
REMARK CNNscore 0.393794358
REMARK CNNaffinity 7.14987564
REMARK  9 active torsions:
REMARK  status: ('A' for Active; 'I' for Inactive)
REMARK    1  A    between atoms: C3_3  and  O1_4 
REMARK    2  A    between atoms: N1_14  and  O2_16 
REMARK    3  A    between atoms: O2_16  and  C13_17 
REMARK    4  A    between atoms: C13_17  and  C14_18 
REMARK       I    between atoms: C14_18  and  N2_20 
REMARK    5  A    between atoms: N2_20  and  C15_21 
REMARK    6  A    between atoms: C15_21  and  C16_22 
REMARK    7  A    between atoms: C15_21  and  C18_26 
REMARK    8  A    between atoms: C16_22  and  C17_23 
REMARK    9  A    between atoms: C17_23  and  O5_25 
ROOT
HETATM    1  C1  UNL     1      -8.893   6.057  11.400  1.00  0.00     0.015 C 
HETATM    2  C2  UNL     1      -8.611   6.133  12.567  1.00  0.00    -0.078 C 
HETATM    3  C3  UNL     1      -8.293   6.234  13.999  1.00  0.00     0.128 C 
HETATM    4  C4  UNL     1      -8.005   7.678  14.399  1.00  0.00     0.052 C 
HETATM    5  C5  UNL     1      -7.298   7.543  15.739  1.00  0.00     0.010 C 
HETATM    6  C6  UNL     1      -6.427   6.270  15.644  1.00  0.00     0.002 C 
HETATM    7  C7  UNL     1      -4.928   6.639  15.512  1.00  0.00    -0.004 C 
HETATM    8  C8  UNL     1      -3.992   5.456  15.863  1.00  0.00     0.010 C 
HETATM    9  C9  UNL     1      -2.643   5.504  15.142  1.00  0.00     0.035 C 
HETATM   10  C10 UNL     1      -2.201   6.933  14.983  1.00  0.00    -0.069 C 
HETATM   11  C11 UNL     1      -1.153   7.409  15.678  1.00  0.00     0.030 C 
HETATM   12  C12 UNL     1      -0.773   8.844  15.637  1.00  0.00     0.032 C 
HETATM   13  N1  UNL     1       0.309   9.202  16.273  1.00  0.00    -0.271 N 
ATOM     14  H1  UNL     1       0.888   8.566  16.822  1.00  0.00     0.194 HD
HETATM   15  C25 UNL     1      -1.655   9.805  14.862  1.00  0.00     0.060 C 
HETATM   16  C26 UNL     1      -3.061   9.249  14.650  1.00  0.00     0.020 C 
HETATM   17  C27 UNL     1      -3.091   7.795  14.092  1.00  0.00    -0.016 C 
HETATM   18  C28 UNL     1      -2.515   7.810  12.659  1.00  0.00     0.020 C 
HETATM   19  C29 UNL     1      -4.594   7.281  14.143  1.00  0.00     0.002 C 
HETATM   20  C30 UNL     1      -5.074   6.397  12.970  1.00  0.00     0.007 C 
HETATM   21  C31 UNL     1      -5.953   5.208  13.350  1.00  0.00     0.014 C 
HETATM   22  C32 UNL     1      -7.017   5.429  14.457  1.00  0.00     0.003 C 
HETATM   23  C33 UNL     1      -7.421   4.020  14.961  1.00  0.00     0.020 C 
ENDROOT
BRANCH   3  24
HETATM   24  O1  UNL     1      -9.464   5.819  14.712  1.00  0.00    -0.377 OA
HETATM   25  H2  UNL     1      -9.283   5.865  15.662  1.00  0.00     0.211 HD
ENDBRANCH   3  24
BRANCH  13  26
HETATM   26  O2  UNL     1       0.576  10.568  16.107  1.00  0.00    -0.271 OA
BRANCH  26  27
HETATM   27  C13 UNL     1       0.647  11.189  17.387  1.00  0.00     0.303 C 
BRANCH  27  28
HETATM   28  C14 UNL     1       1.804  10.613  18.193  1.00  0.00     0.244 C 
HETATM   29  O3  UNL     1       2.666   9.896  17.692  1.00  0.00    -0.271 OA
HETATM   30  N2  UNL     1       1.837  11.028  19.507  1.00  0.00    -0.354 N 
HETATM   31  H16 UNL     1       1.071  11.617  19.833  1.00  0.00     0.162 HD
BRANCH  30  32
HETATM   32  C15 UNL     1       2.883  10.657  20.458  1.00  0.00     0.098 C 
BRANCH  32  33
HETATM   33  C16 UNL     1       2.242  10.264  21.798  1.00  0.00     0.135 C 
BRANCH  33  34
HETATM   34  C17 UNL     1       2.523   8.846  22.208  1.00  0.00     0.141 C 
HETATM   35  O4  UNL     1       1.692   7.970  22.374  1.00  0.00    -0.650 OA
BRANCH  34  36
HETATM   36  O5  UNL     1       3.830   8.599  22.420  1.00  0.00    -0.776 OA
HETATM   37  H20 UNL     1       3.847   7.658  22.701  1.00  0.00     0.167 HD
ENDBRANCH  34  36
ENDBRANCH  33  34
ENDBRANCH  32  33
BRANCH  32  38
HETATM   38  C18 UNL     1       3.964  11.767  20.566  1.00  0.00     0.014 C 
HETATM   39  C19 UNL     1       3.351  13.146  20.887  1.00  0.00     0.033 C 
HETATM   40  C20 UNL     1       4.291  14.050  21.681  1.00  0.00     0.169 C 
HETATM   41  O6  UNL     1       5.639  13.828  21.289  1.00  0.00    -0.381 OA
HETATM   42  C21 UNL     1       6.143  12.533  21.650  1.00  0.00     0.054 C 
HETATM   43  C22 UNL     1       7.239  12.210  20.625  1.00  0.00     0.045 C 
HETATM   44  C23 UNL     1       6.780  12.617  23.042  1.00  0.00     0.045 C 
HETATM   45  C24 UNL     1       5.041  11.448  21.620  1.00  0.00     0.044 C 
ENDBRANCH  32  38
ENDBRANCH  30  32
ENDBRANCH  27  28
ENDBRANCH  26  27
ENDBRANCH  13  26
TORSDOF 9
ENDMDL
MODEL 3
REMARK minimizedAffinity -7.45081997
REMARK CNNscore 0.335614622
REMARK CNNaffinity 6.5881896
REMARK  9 active torsions:
REMARK  status: ('A' for Active; 'I' for Inactive)
REMARK    1  A    between atoms: C3_3  and  O1_4 
REMARK    2  A    between atoms: N1_14  and  O2_16 
REMARK    3  A    between atoms: O2_16  and  C13_17 
REMARK    4  A    between atoms: C13_17  and  C14_18 
REMARK       I    between atoms: C14_18  and  N2_20 
REMARK    5  A    between atoms: N2_20  and  C15_21 
REMARK    6  A    between atoms: C15_21  and  C16_22 
REMARK    7  A    between atoms: C15_21  and  C18_26 
REMARK    8  A    between atoms: C16_22  and  C17_23 
REMARK    9  A    between atoms: C17_23  and  O5_25 
ROOT
HETATM    1  C1  UNL     1     -12.322   3.707  29.301  1.00  0.00     0.015 C 
HETATM    2  C2  UNL     1     -12.810   3.088  28.393  1.00  0.00    -0.078 C 
HETATM    3  C3  UNL     1     -13.390   2.311  27.288  1.00  0.00     0.128 C 
HETATM    4  C4  UNL     1     -12.497   2.360  26.051  1.00  0.00     0.052 C 
HETATM    5  C5  UNL     1     -13.414   1.900  24.929  1.00  0.00     0.010 C 
HETATM    6  C6  UNL     1     -14.816   2.464  25.255  1.00  0.00     0.002 C 
HETATM    7  C7  UNL     1     -15.164   3.644  24.313  1.00  0.00    -0.004 C 
HETATM    8  C8  UNL     1     -16.683   3.949  24.279  1.00  0.00     0.010 C 
HETATM    9  C9  UNL     1     -17.010   5.410  23.964  1.00  0.00     0.035 C 
HETATM   10  C10 UNL     1     -16.001   5.961  22.994  1.00  0.00    -0.069 C 
HETATM   11  C11 UNL     1     -16.350   6.250  21.729  1.00  0.00     0.030 C 
HETATM   12  C12 UNL     1     -15.349   6.674  20.717  1.00  0.00     0.032 C 
HETATM   13  N1  UNL     1     -15.789   7.017  19.538  1.00  0.00    -0.271 N 
ATOM     14  H1  UNL     1     -16.769   6.980  19.259  1.00  0.00     0.194 HD
HETATM   15  C25 UNL     1     -13.883   6.687  21.110  1.00  0.00     0.060 C 
HETATM   16  C26 UNL     1     -13.606   5.798  22.320  1.00  0.00     0.020 C 
HETATM   17  C27 UNL     1     -14.570   6.041  23.519  1.00  0.00    -0.016 C 
HETATM   18  C28 UNL     1     -14.311   7.459  24.075  1.00  0.00     0.020 C 
HETATM   19  C29 UNL     1     -14.307   4.903  24.597  1.00  0.00     0.002 C 
HETATM   20  C30 UNL     1     -14.380   5.314  26.084  1.00  0.00     0.007 C 
HETATM   21  C31 UNL     1     -15.073   4.322  27.016  1.00  0.00     0.014 C 
HETATM   22  C32 UNL     1     -14.797   2.812  26.786  1.00  0.00     0.003 C 
HETATM   23  C33 UNL     1     -15.933   2.047  27.512  1.00  0.00     0.020 C 
ENDROOT
BRANCH   3  24
HETATM   24  O1  UNL     1     -13.439   0.947  27.724  1.00  0.00    -0.377 OA
HETATM   25  H2  UNL     1     -13.826   0.409  27.020  1.00  0.00     0.211 HD
ENDBRANCH   3  24
BRANCH  13  26
HETATM   26  O2  UNL     1     -14.746   7.444  18.703  1.00  0.00    -0.271 OA
BRANCH  26  27
HETATM   27  C13 UNL     1     -15.136   7.273  17.344  1.00  0.00     0.303 C 
BRANCH  27  28
HETATM   28  C14 UNL     1     -14.274   8.137  16.432  1.00  0.00     0.244 C 
HETATM   29  O3  UNL     1     -14.307   9.364  16.460  1.00  0.00    -0.271 OA
HETATM   30  N2  UNL     1     -13.406   7.422  15.634  1.00  0.00    -0.354 N 
HETATM   31  H16 UNL     1     -13.460   6.405  15.676  1.00  0.00     0.162 HD
BRANCH  30  32
HETATM   32  C15 UNL     1     -12.440   8.031  14.723  1.00  0.00     0.098 C 
BRANCH  32  33
HETATM   33  C16 UNL     1     -13.014   8.038  13.297  1.00  0.00     0.135 C 
BRANCH  33  34
HETATM   34  C17 UNL     1     -13.403   9.405  12.810  1.00  0.00     0.141 C 
HETATM   35  O4  UNL     1     -13.178   9.861  11.702  1.00  0.00    -0.650 OA
BRANCH  34  36
HETATM   36  O5  UNL     1     -14.030  10.148  13.742  1.00  0.00    -0.776 OA
HETATM   37  H20 UNL     1     -14.191  11.004  13.288  1.00  0.00     0.167 HD
ENDBRANCH  34  36
ENDBRANCH  33  34
ENDBRANCH  32  33
BRANCH  32  38
HETATM   38  C18 UNL     1     -11.046   7.360  14.850  1.00  0.00     0.014 C 
HETATM   39  C19 UNL     1     -10.665   6.566  13.582  1.00  0.00     0.033 C 
HETATM   40  C20 UNL     1      -9.160   6.513  13.337  1.00  0.00     0.169 C 
HETATM   41  O6  UNL     1      -8.459   6.460  14.573  1.00  0.00    -0.381 OA
HETATM   42  C21 UNL     1      -8.562   7.663  15.350  1.00  0.00     0.054 C 
HETATM   43  C22 UNL     1      -8.391   7.231  16.813  1.00  0.00     0.045 C 
HETATM   44  C23 UNL     1      -7.408   8.599  14.975  1.00  0.00     0.045 C 
HETATM   45  C24 UNL     1      -9.924   8.370  15.154  1.00  0.00     0.044 C 
ENDBRANCH  32  38
ENDBRANCH  30  32
ENDBRANCH  27  28
ENDBRANCH  26  27
ENDBRANCH  13  26
TORSDOF 9
ENDMDL
MODEL 4
REMARK minimizedAffinity -8.84114742
REMARK CNNscore 0.334650338
REMARK CNNaffinity 6.96401215
REMARK  9 active torsions:
REMARK  status: ('A' for Active; 'I' for Inactive)
REMARK    1  A    between atoms: C3_3  and  O1_4 
REMARK    2  A    between atoms: N1_14  and  O2_16 
REMARK    3  A    between atoms: O2_16  and  C13_17 
REMARK    4  A    between atoms: C13_17  and  C14_18 
REMARK       I    between atoms: C14_18  and  N2_20 
REMARK    5  A    between atoms: N2_20  and  C15_21 
REMARK    6  A    between atoms: C15_21  and  C16_22 
REMARK    7  A    between atoms: C15_21  and  C18_26 
REMARK    8  A    between atoms: C16_22  and  C17_23 
REMARK    9  A    between atoms: C17_23  and  O5_25 
ROOT
HETATM    1  C1  UNL     1       0.091   7.829  16.281  1.00  0.00     0.015 C 
HETATM    2  C2  UNL     1      -0.471   7.859  15.218  1.00  0.00    -0.078 C 
HETATM    3  C3  UNL     1      -1.141   7.914  13.911  1.00  0.00     0.128 C 
HETATM    4  C4  UNL     1      -2.147   9.060  13.856  1.00  0.00     0.052 C 
HETATM    5  C5  UNL     1      -3.019   8.713  12.660  1.00  0.00     0.010 C 
HETATM    6  C6  UNL     1      -3.156   7.174  12.654  1.00  0.00     0.002 C 
HETATM    7  C7  UNL     1      -4.573   6.747  13.113  1.00  0.00    -0.004 C 
HETATM    8  C8  UNL     1      -4.917   5.293  12.707  1.00  0.00     0.010 C 
HETATM    9  C9  UNL     1      -5.914   4.610  13.647  1.00  0.00     0.035 C 
HETATM   10  C10 UNL     1      -6.907   5.619  14.155  1.00  0.00    -0.069 C 
HETATM   11  C11 UNL     1      -8.191   5.579  13.759  1.00  0.00     0.030 C 
HETATM   12  C12 UNL     1      -9.163   6.634  14.144  1.00  0.00     0.032 C 
HETATM   13  N1  UNL     1     -10.407   6.469  13.788  1.00  0.00    -0.271 N 
ATOM     14  H1  UNL     1     -10.746   5.681  13.235  1.00  0.00     0.194 HD
HETATM   15  C25 UNL     1      -8.660   7.832  14.926  1.00  0.00     0.060 C 
HETATM   16  C26 UNL     1      -7.151   8.021  14.778  1.00  0.00     0.020 C 
HETATM   17  C27 UNL     1      -6.323   6.726  15.028  1.00  0.00    -0.016 C 
HETATM   18  C28 UNL     1      -6.469   6.331  16.515  1.00  0.00     0.020 C 
HETATM   19  C29 UNL     1      -4.816   7.022  14.619  1.00  0.00     0.002 C 
HETATM   20  C30 UNL     1      -3.713   6.388  15.495  1.00  0.00     0.007 C 
HETATM   21  C31 UNL     1      -2.510   5.821  14.744  1.00  0.00     0.014 C 
HETATM   22  C32 UNL     1      -1.975   6.631  13.534  1.00  0.00     0.003 C 
HETATM   23  C33 UNL     1      -1.108   5.650  12.702  1.00  0.00     0.020 C 
ENDROOT
BRANCH   3  24
HETATM   24  O1  UNL     1      -0.127   8.191  12.938  1.00  0.00    -0.377 OA
HETATM   25  H2  UNL     1      -0.536   8.225  12.062  1.00  0.00     0.211 HD
ENDBRANCH   3  24
BRANCH  13  26
HETATM   26  O2  UNL     1     -11.221   7.508  14.260  1.00  0.00    -0.271 OA
BRANCH  26  27
HETATM   27  C13 UNL     1     -12.037   7.985  13.194  1.00  0.00     0.303 C 
BRANCH  27  28
HETATM   28  C14 UNL     1     -13.511   7.840  13.550  1.00  0.00     0.244 C 
HETATM   29  O3  UNL     1     -14.077   8.588  14.343  1.00  0.00    -0.271 OA
HETATM   30  N2  UNL     1     -14.165   6.849  12.850  1.00  0.00    -0.354 N 
HETATM   31  H16 UNL     1     -13.606   6.273  12.219  1.00  0.00     0.162 HD
BRANCH  30  32
HETATM   32  C15 UNL     1     -15.592   6.561  12.975  1.00  0.00     0.098 C 
BRANCH  32  33
HETATM   33  C16 UNL     1     -16.385   7.877  12.949  1.00  0.00     0.135 C 
BRANCH  33  34
HETATM   34  C17 UNL     1     -16.596   8.427  11.567  1.00  0.00     0.141 C 
HETATM   35  O4  UNL     1     -15.743   8.938  10.861  1.00  0.00    -0.650 OA
BRANCH  34  36
HETATM   36  O5  UNL     1     -17.872   8.338  11.143  1.00  0.00    -0.776 OA
HETATM   37  H20 UNL     1     -17.852   8.755  10.254  1.00  0.00     0.167 HD
ENDBRANCH  34  36
ENDBRANCH  33  34
ENDBRANCH  32  33
BRANCH  32  38
HETATM   38  C18 UNL     1     -15.879   5.663  14.209  1.00  0.00     0.014 C 
HETATM   39  C19 UNL     1     -16.549   6.449  15.356  1.00  0.00     0.033 C 
HETATM   40  C20 UNL     1     -17.465   5.586  16.219  1.00  0.00     0.169 C 
HETATM   41  O6  UNL     1     -16.943   4.269  16.331  1.00  0.00    -0.381 OA
HETATM   42  C21 UNL     1     -16.962   3.532  15.099  1.00  0.00     0.054 C 
HETATM   43  C22 UNL     1     -15.819   2.512  15.203  1.00  0.00     0.045 C 
HETATM   44  C23 UNL     1     -18.290   2.772  14.993  1.00  0.00     0.045 C 
HETATM   45  C24 UNL     1     -16.758   4.445  13.867  1.00  0.00     0.044 C 
ENDBRANCH  32  38
ENDBRANCH  30  32
ENDBRANCH  27  28
ENDBRANCH  26  27
ENDBRANCH  13  26
TORSDOF 9
ENDMDL
MODEL 5
REMARK minimizedAffinity -7.85408354
REMARK CNNscore 0.286366224
REMARK CNNaffinity 6.15029716
REMARK  9 active torsions:
REMARK  status: ('A' for Active; 'I' for Inactive)
REMARK    1  A    between atoms: C3_3  and  O1_4 
REMARK    2  A    between atoms: N1_14  and  O2_16 
REMARK    3  A    between atoms: O2_16  and  C13_17 
REMARK    4  A    between atoms: C13_17  and  C14_18 
REMARK       I    between atoms: C14_18  and  N2_20 
REMARK    5  A    between atoms: N2_20  and  C15_21 
REMARK    6  A    between atoms: C15_21  and  C16_22 
REMARK    7  A    between atoms: C15_21  and  C18_26 
REMARK    8  A    between atoms: C16_22  and  C17_23 
REMARK    9  A    between atoms: C17_23  and  O5_25 
ROOT
HETATM    1  C1  UNL     1       0.497   8.556   8.382  1.00  0.00     0.015 C 
HETATM    2  C2  UNL     1       0.792   8.120   9.463  1.00  0.00    -0.078 C 
HETATM    3  C3  UNL     1       1.127   7.589  10.792  1.00  0.00     0.128 C 
HETATM    4  C4  UNL     1       1.296   8.715  11.809  1.00  0.00     0.052 C 
HETATM    5  C5  UNL     1       2.037   8.050  12.958  1.00  0.00     0.010 C 
HETATM    6  C6  UNL     1       3.013   7.037  12.319  1.00  0.00     0.002 C 
HETATM    7  C7  UNL     1       4.472   7.553  12.401  1.00  0.00    -0.004 C 
HETATM    8  C8  UNL     1       5.513   6.425  12.201  1.00  0.00     0.010 C 
HETATM    9  C9  UNL     1       6.840   6.909  11.610  1.00  0.00     0.035 C 
HETATM   10  C10 UNL     1       7.153   8.288  12.125  1.00  0.00    -0.069 C 
HETATM   11  C11 UNL     1       8.168   8.486  12.983  1.00  0.00     0.030 C 
HETATM   12  C12 UNL     1       8.421   9.811  13.604  1.00  0.00     0.032 C 
HETATM   13  N1  UNL     1       9.479   9.934  14.357  1.00  0.00    -0.271 N 
ATOM     14  H1  UNL     1      10.122   9.171  14.572  1.00  0.00     0.194 HD
HETATM   15  C25 UNL     1       7.445  10.939  13.327  1.00  0.00     0.060 C 
HETATM   16  C26 UNL     1       6.088  10.420  12.855  1.00  0.00     0.020 C 
HETATM   17  C27 UNL     1       6.175   9.380  11.700  1.00  0.00    -0.016 C 
HETATM   18  C28 UNL     1       6.721  10.090  10.441  1.00  0.00     0.020 C 
HETATM   19  C29 UNL     1       4.723   8.772  11.478  1.00  0.00     0.002 C 
HETATM   20  C30 UNL     1       4.300   8.476  10.022  1.00  0.00     0.007 C 
HETATM   21  C31 UNL     1       3.535   7.172   9.803  1.00  0.00     0.014 C 
HETATM   22  C32 UNL     1       2.476   6.777  10.866  1.00  0.00     0.003 C 
HETATM   23  C33 UNL     1       2.206   5.263  10.670  1.00  0.00     0.020 C 
ENDROOT
BRANCH   3  24
HETATM   24  O1  UNL     1       0.010   6.798  11.215  1.00  0.00    -0.377 OA
HETATM   25  H2  UNL     1       0.204   6.425  12.086  1.00  0.00     0.211 HD
ENDBRANCH   3  24
BRANCH  13  26
HETATM   26  O2  UNL     1       9.624  11.245  14.833  1.00  0.00    -0.271 OA
BRANCH  26  27
HETATM   27  C13 UNL     1      11.005  11.596  14.826  1.00  0.00     0.303 C 
BRANCH  27  28
HETATM   28  C14 UNL     1      11.457  11.998  16.224  1.00  0.00     0.244 C 
HETATM   29  O3  UNL     1      10.697  12.508  17.043  1.00  0.00    -0.271 OA
HETATM   30  N2  UNL     1      12.765  11.672  16.508  1.00  0.00    -0.354 N 
HETATM   31  H16 UNL     1      13.320  11.259  15.758  1.00  0.00     0.162 HD
BRANCH  30  32
HETATM   32  C15 UNL     1      13.406  11.903  17.801  1.00  0.00     0.098 C 
BRANCH  32  33
HETATM   33  C16 UNL     1      12.428  12.633  18.735  1.00  0.00     0.135 C 
BRANCH  33  34
HETATM   34  C17 UNL     1      12.234  11.950  20.059  1.00  0.00     0.141 C 
HETATM   35  O4  UNL     1      11.204  11.433  20.454  1.00  0.00    -0.650 OA
BRANCH  34  36
HETATM   36  O5  UNL     1      13.333  11.971  20.839  1.00  0.00    -0.776 OA
HETATM   37  H20 UNL     1      13.043  11.519  21.661  1.00  0.00     0.167 HD
ENDBRANCH  34  36
ENDBRANCH  33  34
ENDBRANCH  32  33
BRANCH  32  38
HETATM   38  C18 UNL     1      14.778  12.610  17.630  1.00  0.00     0.014 C 
HETATM   39  C19 UNL     1      14.649  14.147  17.664  1.00  0.00     0.033 C 
HETATM   40  C20 UNL     1      15.892  14.842  18.213  1.00  0.00     0.169 C 
HETATM   41  O6  UNL     1      17.063  14.131  17.835  1.00  0.00    -0.381 OA
HETATM   42  C21 UNL     1      17.183  12.840  18.452  1.00  0.00     0.054 C 
HETATM   43  C22 UNL     1      18.022  11.991  17.487  1.00  0.00     0.045 C 
HETATM   44  C23 UNL     1      17.950  12.988  19.771  1.00  0.00     0.045 C 
HETATM   45  C24 UNL     1      15.806  12.178  18.694  1.00  0.00     0.044 C 
ENDBRANCH  32  38
ENDBRANCH  30  32
ENDBRANCH  27  28
ENDBRANCH  26  27
ENDBRANCH  13  26
TORSDOF 9
ENDMDL
MODEL 6
REMARK minimizedAffinity -9.28512669
REMARK CNNscore 0.27406624
REMARK CNNaffinity 6.86587143
REMARK  9 active torsions:
REMARK  status: ('A' for Active; 'I' for Inactive)
REMARK    1  A    between atoms: C3_3  and  O1_4 
REMARK    2  A    between atoms: N1_14  and  O2_16 
REMARK    3  A    between atoms: O2_16  and  C13_17 
REMARK    4  A    between atoms: C13_17  and  C14_18 
REMARK       I    between atoms: C14_18  and  N2_20 
REMARK    5  A    between atoms: N2_20  and  C15_21 
REMARK    6  A    between atoms: C15_21  and  C16_22 
REMARK    7  A    between atoms: C15_21  and  C18_26 
REMARK    8  A    between atoms: C16_22  and  C17_23 
REMARK    9  A    between atoms: C17_23  and  O5_25 
ROOT
HETATM    1  C1  UNL     1      -9.689   9.294  14.765  1.00  0.00     0.015 C 
HETATM    2  C2  UNL     1      -9.130   8.266  15.042  1.00  0.00    -0.078 C 
HETATM    3  C3  UNL     1      -8.465   7.004  15.398  1.00  0.00     0.128 C 
HETATM    4  C4  UNL     1      -7.667   7.147  16.691  1.00  0.00     0.052 C 
HETATM    5  C5  UNL     1      -6.737   5.944  16.672  1.00  0.00     0.010 C 
HETATM    6  C6  UNL     1      -6.342   5.724  15.194  1.00  0.00     0.002 C 
HETATM    7  C7  UNL     1      -4.878   6.167  14.946  1.00  0.00    -0.004 C 
HETATM    8  C8  UNL     1      -4.288   5.569  13.644  1.00  0.00     0.010 C 
HETATM    9  C9  UNL     1      -3.200   6.436  13.006  1.00  0.00     0.035 C 
HETATM   10  C10 UNL     1      -2.397   7.117  14.081  1.00  0.00    -0.069 C 
HETATM   11  C11 UNL     1      -1.121   6.763  14.312  1.00  0.00     0.030 C 
HETATM   12  C12 UNL     1      -0.345   7.327  15.447  1.00  0.00     0.032 C 
HETATM   13  N1  UNL     1       0.912   6.995  15.544  1.00  0.00    -0.271 N 
ATOM     14  H1  UNL     1       1.385   6.347  14.913  1.00  0.00     0.194 HD
HETATM   15  C25 UNL     1      -1.052   8.255  16.417  1.00  0.00     0.060 C 
HETATM   16  C26 UNL     1      -2.569   8.083  16.373  1.00  0.00     0.020 C 
HETATM   17  C27 UNL     1      -3.169   8.118  14.936  1.00  0.00    -0.016 C 
HETATM   18  C28 UNL     1      -2.973   9.537  14.359  1.00  0.00     0.020 C 
HETATM   19  C29 UNL     1      -4.700   7.703  15.034  1.00  0.00     0.002 C 
HETATM   20  C30 UNL     1      -5.688   8.442  14.105  1.00  0.00     0.007 C 
HETATM   21  C31 UNL     1      -6.770   7.577  13.462  1.00  0.00     0.014 C 
HETATM   22  C32 UNL     1      -7.422   6.476  14.340  1.00  0.00     0.003 C 
HETATM   23  C33 UNL     1      -8.102   5.484  13.361  1.00  0.00     0.020 C 
ENDROOT
BRANCH   3  24
HETATM   24  O1  UNL     1      -9.502   6.046  15.641  1.00  0.00    -0.377 OA
HETATM   25  H2  UNL     1      -9.096   5.198  15.870  1.00  0.00     0.211 HD
ENDBRANCH   3  24
BRANCH  13  26
HETATM   26  O2  UNL     1       1.534   7.638  16.624  1.00  0.00    -0.271 OA
BRANCH  26  27
HETATM   27  C13 UNL     1       2.294   8.741  16.138  1.00  0.00     0.303 C 
BRANCH  27  28
HETATM   28  C14 UNL     1       2.475   9.784  17.233  1.00  0.00     0.244 C 
HETATM   29  O3  UNL     1       3.494  10.460  17.341  1.00  0.00    -0.271 OA
HETATM   30  N2  UNL     1       1.369   9.951  18.039  1.00  0.00    -0.354 N 
HETATM   31  H16 UNL     1       0.572   9.336  17.877  1.00  0.00     0.162 HD
BRANCH  30  32
HETATM   32  C15 UNL     1       1.282  10.933  19.118  1.00  0.00     0.098 C 
BRANCH  32  33
HETATM   33  C16 UNL     1       1.851  10.327  20.411  1.00  0.00     0.135 C 
BRANCH  33  34
HETATM   34  C17 UNL     1       3.156  10.937  20.839  1.00  0.00     0.141 C 
HETATM   35  O4  UNL     1       3.325  12.092  21.191  1.00  0.00    -0.650 OA
BRANCH  34  36
HETATM   36  O5  UNL     1       4.193  10.081  20.778  1.00  0.00    -0.776 OA
HETATM   37  H20 UNL     1       4.962  10.625  21.056  1.00  0.00     0.167 HD
ENDBRANCH  34  36
ENDBRANCH  33  34
ENDBRANCH  32  33
BRANCH  32  38
HETATM   38  C18 UNL     1      -0.160  11.494  19.253  1.00  0.00     0.014 C 
HETATM   39  C19 UNL     1      -0.170  12.986  19.646  1.00  0.00     0.033 C 
HETATM   40  C20 UNL     1      -1.386  13.739  19.114  1.00  0.00     0.169 C 
HETATM   41  O6  UNL     1      -2.527  12.891  19.105  1.00  0.00    -0.381 OA
HETATM   42  C21 UNL     1      -2.442  11.815  18.158  1.00  0.00     0.054 C 
HETATM   43  C22 UNL     1      -3.322  10.691  18.723  1.00  0.00     0.045 C 
HETATM   44  C23 UNL     1      -3.034  12.278  16.822  1.00  0.00     0.045 C 
HETATM   45  C24 UNL     1      -0.990  11.317  17.968  1.00  0.00     0.044 C 
ENDBRANCH  32  38
ENDBRANCH  30  32
ENDBRANCH  27  28
ENDBRANCH  26  27
ENDBRANCH  13  26
TORSDOF 9
ENDMDL
MODEL 7
REMARK minimizedAffinity -8.54017544
REMARK CNNscore 0.269615978
REMARK CNNaffinity 6.11349154
REMARK  9 active torsions:
REMARK  status: ('A' for Active; 'I' for Inactive)
REMARK    1  A    between atoms: C3_3  and  O1_4 
REMARK    2  A    between atoms: N1_14  and  O2_16 
REMARK    3  A    between atoms: O2_16  and  C13_17 
REMARK    4  A    between atoms: C13_17  and  C14_18 
REMARK       I    between atoms: C14_18  and  N2_20 
REMARK    5  A    between atoms: N2_20  and  C15_21 
REMARK    6  A    between atoms: C15_21  and  C16_22 
REMARK    7  A    between atoms: C15_21  and  C18_26 
REMARK    8  A    between atoms: C16_22  and  C17_23 
REMARK    9  A    between atoms: C17_23  and  O5_25 
ROOT
HETATM    1  C1  UNL     1       1.277   8.456   8.087  1.00  0.00     0.015 C 
HETATM    2  C2  UNL     1       1.528   7.812   9.071  1.00  0.00    -0.078 C 
HETATM    3  C3  UNL     1       1.808   7.016  10.274  1.00  0.00     0.128 C 
HETATM    4  C4  UNL     1       1.370   7.753  11.537  1.00  0.00     0.052 C 
HETATM    5  C5  UNL     1       2.101   7.019  12.651  1.00  0.00     0.010 C 
HETATM    6  C6  UNL     1       3.477   6.617  12.075  1.00  0.00     0.002 C 
HETATM    7  C7  UNL     1       4.601   7.503  12.670  1.00  0.00    -0.004 C 
HETATM    8  C8  UNL     1       6.007   6.877  12.495  1.00  0.00     0.010 C 
HETATM    9  C9  UNL     1       7.135   7.909  12.417  1.00  0.00     0.035 C 
HETATM   10  C10 UNL     1       6.818   9.077  13.311  1.00  0.00    -0.069 C 
HETATM   11  C11 UNL     1       7.525   9.294  14.433  1.00  0.00     0.030 C 
HETATM   12  C12 UNL     1       7.156  10.362  15.398  1.00  0.00     0.032 C 
HETATM   13  N1  UNL     1       7.948  10.559  16.415  1.00  0.00    -0.271 N 
ATOM     14  H1  UNL     1       8.783  10.005  16.607  1.00  0.00     0.194 HD
HETATM   15  C25 UNL     1       5.890  11.160  15.145  1.00  0.00     0.060 C 
HETATM   16  C26 UNL     1       4.927  10.427  14.215  1.00  0.00     0.020 C 
HETATM   17  C27 UNL     1       5.589   9.889  12.912  1.00  0.00    -0.016 C 
HETATM   18  C28 UNL     1       6.033  11.095  12.055  1.00  0.00     0.020 C 
HETATM   19  C29 UNL     1       4.529   8.967  12.168  1.00  0.00     0.002 C 
HETATM   20  C30 UNL     1       4.500   9.035  10.625  1.00  0.00     0.007 C 
HETATM   21  C31 UNL     1       4.327   7.701   9.902  1.00  0.00     0.014 C 
HETATM   22  C32 UNL     1       3.330   6.681  10.514  1.00  0.00     0.003 C 
HETATM   23  C33 UNL     1       3.682   5.304   9.896  1.00  0.00     0.020 C 
ENDROOT
BRANCH   3  24
HETATM   24  O1  UNL     1       1.014   5.828  10.178  1.00  0.00    -0.377 OA
HETATM   25  H2  UNL     1       1.184   5.276  10.954  1.00  0.00     0.211 HD
ENDBRANCH   3  24
BRANCH  13  26
HETATM   26  O2  UNL     1       7.510  11.626  17.212  1.00  0.00    -0.271 OA
BRANCH  26  27
HETATM   27  C13 UNL     1       7.576  11.245  18.583  1.00  0.00     0.303 C 
BRANCH  27  28
HETATM   28  C14 UNL     1       7.047  12.364  19.470  1.00  0.00     0.244 C 
HETATM   29  O3  UNL     1       6.537  13.384  19.015  1.00  0.00    -0.271 OA
HETATM   30  N2  UNL     1       7.124  12.096  20.820  1.00  0.00    -0.354 N 
HETATM   31  H16 UNL     1       7.573  11.224  21.101  1.00  0.00     0.162 HD
BRANCH  30  32
HETATM   32  C15 UNL     1       6.626  12.990  21.864  1.00  0.00     0.098 C 
BRANCH  32  33
HETATM   33  C16 UNL     1       7.771  13.342  22.826  1.00  0.00     0.135 C 
BRANCH  33  34
HETATM   34  C17 UNL     1       8.978  12.460  22.676  1.00  0.00     0.141 C 
HETATM   35  O4  UNL     1       9.995  12.736  22.063  1.00  0.00    -0.650 OA
BRANCH  34  36
HETATM   36  O5  UNL     1       8.844  11.262  23.276  1.00  0.00    -0.776 OA
HETATM   37  H20 UNL     1       9.687  10.802  23.069  1.00  0.00     0.167 HD
ENDBRANCH  34  36
ENDBRANCH  33  34
ENDBRANCH  32  33
BRANCH  32  38
HETATM   38  C18 UNL     1       5.365  12.401  22.554  1.00  0.00     0.014 C 
HETATM   39  C19 UNL     1       4.393  13.503  23.024  1.00  0.00     0.033 C 
HETATM   40  C20 UNL     1       2.934  13.054  23.026  1.00  0.00     0.169 C 
HETATM   41  O6  UNL     1       2.839  11.680  23.376  1.00  0.00    -0.381 OA
HETATM   42  C21 UNL     1       3.392  10.792  22.394  1.00  0.00     0.054 C 
HETATM   43  C22 UNL     1       3.832   9.538  23.163  1.00  0.00     0.045 C 
HETATM   44  C23 UNL     1       2.292  10.399  21.401  1.00  0.00     0.045 C 
HETATM   45  C24 UNL     1       4.597  11.417  21.652  1.00  0.00     0.044 C 
ENDBRANCH  32  38
ENDBRANCH  30  32
ENDBRANCH  27  28
ENDBRANCH  26  27
ENDBRANCH  13  26
TORSDOF 9
ENDMDL
MODEL 8
REMARK minimizedAffinity -8.61328697
REMARK CNNscore 0.241115645
REMARK CNNaffinity 6.12813568
REMARK  9 active torsions:
REMARK  status: ('A' for Active; 'I' for Inactive)
REMARK    1  A    between atoms: C3_3  and  O1_4 
REMARK    2  A    between atoms: N1_14  and  O2_16 
REMARK    3  A    between atoms: O2_16  and  C13_17 
REMARK    4  A    between atoms: C13_17  and  C14_18 
REMARK       I    between atoms: C14_18  and  N2_20 
REMARK    5  A    between atoms: N2_20  and  C15_21 
REMARK    6  A    between atoms: C15_21  and  C16_22 
REMARK    7  A    between atoms: C15_21  and  C18_26 
REMARK    8  A    between atoms: C16_22  and  C17_23 
REMARK    9  A    between atoms: C17_23  and  O5_25 
ROOT
HETATM    1  C1  UNL     1       3.411   4.097   9.644  1.00  0.00     0.015 C 
HETATM    2  C2  UNL     1       3.299   5.279   9.835  1.00  0.00    -0.078 C 
HETATM    3  C3  UNL     1       3.188   6.727  10.064  1.00  0.00     0.128 C 
HETATM    4  C4  UNL     1       3.641   7.098  11.473  1.00  0.00     0.052 C 
HETATM    5  C5  UNL     1       3.071   8.493  11.676  1.00  0.00     0.010 C 
HETATM    6  C6  UNL     1       1.703   8.512  10.956  1.00  0.00     0.002 C 
HETATM    7  C7  UNL     1       0.543   8.486  11.982  1.00  0.00    -0.004 C 
HETATM    8  C8  UNL     1      -0.802   8.950  11.370  1.00  0.00     0.010 C 
HETATM    9  C9  UNL     1      -2.031   8.336  12.046  1.00  0.00     0.035 C 
HETATM   10  C10 UNL     1      -1.769   8.164  13.518  1.00  0.00    -0.069 C 
HETATM   11  C11 UNL     1      -2.411   8.922  14.423  1.00  0.00     0.030 C 
HETATM   12  C12 UNL     1      -2.082   8.862  15.870  1.00  0.00     0.032 C 
HETATM   13  N1  UNL     1      -2.814   9.567  16.687  1.00  0.00    -0.271 N 
ATOM     14  H1  UNL     1      -3.572  10.182  16.392  1.00  0.00     0.194 HD
HETATM   15  C25 UNL     1      -0.925   7.986  16.314  1.00  0.00     0.060 C 
HETATM   16  C26 UNL     1       0.038   7.684  15.167  1.00  0.00     0.020 C 
HETATM   17  C27 UNL     1      -0.660   7.176  13.871  1.00  0.00    -0.016 C 
HETATM   18  C28 UNL     1      -1.285   5.793  14.161  1.00  0.00     0.020 C 
HETATM   19  C29 UNL     1       0.430   7.125  12.715  1.00  0.00     0.002 C 
HETATM   20  C30 UNL     1       0.340   5.950  11.716  1.00  0.00     0.007 C 
HETATM   21  C31 UNL     1       0.594   6.300  10.251  1.00  0.00     0.014 C 
HETATM   22  C32 UNL     1       1.730   7.312   9.945  1.00  0.00     0.003 C 
HETATM   23  C33 UNL     1       1.473   7.831   8.506  1.00  0.00     0.020 C 
ENDROOT
BRANCH   3  24
HETATM   24  O1  UNL     1       4.089   7.359   9.147  1.00  0.00    -0.377 OA
HETATM   25  H2  UNL     1       4.033   8.318   9.266  1.00  0.00     0.211 HD
ENDBRANCH   3  24
BRANCH  13  26
HETATM   26  O2  UNL     1      -2.428   9.376  18.021  1.00  0.00    -0.271 OA
BRANCH  26  27
HETATM   27  C13 UNL     1      -2.260  10.645  18.646  1.00  0.00     0.303 C 
BRANCH  27  28
HETATM   28  C14 UNL     1      -0.915  11.250  18.266  1.00  0.00     0.244 C 
HETATM   29  O3  UNL     1      -0.782  12.027  17.324  1.00  0.00    -0.271 OA
HETATM   30  N2  UNL     1       0.116  10.908  19.114  1.00  0.00    -0.354 N 
HETATM   31  H16 UNL     1      -0.092  10.248  19.864  1.00  0.00     0.162 HD
BRANCH  30  32
HETATM   32  C15 UNL     1       1.482  11.411  18.989  1.00  0.00     0.098 C 
BRANCH  32  33
HETATM   33  C16 UNL     1       1.894  11.415  17.509  1.00  0.00     0.135 C 
BRANCH  33  34
HETATM   34  C17 UNL     1       2.205  10.049  16.966  1.00  0.00     0.141 C 
HETATM   35  O4  UNL     1       2.092   8.996  17.569  1.00  0.00    -0.650 OA
BRANCH  34  36
HETATM   36  O5  UNL     1       2.669  10.068  15.701  1.00  0.00    -0.776 OA
HETATM   37  H20 UNL     1       2.847   9.122  15.504  1.00  0.00     0.167 HD
ENDBRANCH  34  36
ENDBRANCH  33  34
ENDBRANCH  32  33
BRANCH  32  38
HETATM   38  C18 UNL     1       2.454  10.639  19.923  1.00  0.00     0.014 C 
HETATM   39  C19 UNL     1       3.905  11.150  19.802  1.00  0.00     0.033 C 
HETATM   40  C20 UNL     1       4.706  10.993  21.092  1.00  0.00     0.169 C 
HETATM   41  O6  UNL     1       4.312   9.812  21.778  1.00  0.00    -0.381 OA
HETATM   42  C21 UNL     1       2.975   9.862  22.297  1.00  0.00     0.054 C 
HETATM   43  C22 UNL     1       2.495   8.405  22.357  1.00  0.00     0.045 C 
HETATM   44  C23 UNL     1       3.013  10.426  23.721  1.00  0.00     0.045 C 
HETATM   45  C24 UNL     1       2.031  10.701  21.403  1.00  0.00     0.044 C 
ENDBRANCH  32  38
ENDBRANCH  30  32
ENDBRANCH  27  28
ENDBRANCH  26  27
ENDBRANCH  13  26
TORSDOF 9
ENDMDL
MODEL 9
REMARK minimizedAffinity -8.15225506
REMARK CNNscore 0.225359753
REMARK CNNaffinity 6.83703995
REMARK  9 active torsions:
REMARK  status: ('A' for Active; 'I' for Inactive)
REMARK    1  A    between atoms: C3_3  and  O1_4 
REMARK    2  A    between atoms: N1_14  and  O2_16 
REMARK    3  A    between atoms: O2_16  and  C13_17 
REMARK    4  A    between atoms: C13_17  and  C14_18 
REMARK       I    between atoms: C14_18  and  N2_20 
REMARK    5  A    between atoms: N2_20  and  C15_21 
REMARK    6  A    between atoms: C15_21  and  C16_22 
REMARK    7  A    between atoms: C15_21  and  C18_26 
REMARK    8  A    between atoms: C16_22  and  C17_23 
REMARK    9  A    between atoms: C17_23  and  O5_25 
ROOT
HETATM    1  C1  UNL     1       0.214   8.070  16.275  1.00  0.00     0.015 C 
HETATM    2  C2  UNL     1      -0.316   8.042  15.196  1.00  0.00    -0.078 C 
HETATM    3  C3  UNL     1      -0.948   8.027  13.869  1.00  0.00     0.128 C 
HETATM    4  C4  UNL     1      -2.017   9.110  13.755  1.00  0.00     0.052 C 
HETATM    5  C5  UNL     1      -2.830   8.684  12.543  1.00  0.00     0.010 C 
HETATM    6  C6  UNL     1      -2.875   7.139  12.570  1.00  0.00     0.002 C 
HETATM    7  C7  UNL     1      -4.278   6.640  12.998  1.00  0.00    -0.004 C 
HETATM    8  C8  UNL     1      -4.523   5.159  12.618  1.00  0.00     0.010 C 
HETATM    9  C9  UNL     1      -5.507   4.439  13.544  1.00  0.00     0.035 C 
HETATM   10  C10 UNL     1      -6.573   5.399  13.997  1.00  0.00    -0.069 C 
HETATM   11  C11 UNL     1      -7.839   5.272  13.565  1.00  0.00     0.030 C 
HETATM   12  C12 UNL     1      -8.884   6.276  13.894  1.00  0.00     0.032 C 
HETATM   13  N1  UNL     1     -10.104   6.029  13.506  1.00  0.00    -0.271 N 
ATOM     14  H1  UNL     1     -10.378   5.210  12.962  1.00  0.00     0.194 HD
HETATM   15  C25 UNL     1      -8.476   7.520  14.662  1.00  0.00     0.060 C 
HETATM   16  C26 UNL     1      -6.978   7.795  14.554  1.00  0.00     0.020 C 
HETATM   17  C27 UNL     1      -6.082   6.558  14.860  1.00  0.00    -0.016 C 
HETATM   18  C28 UNL     1      -6.251   6.189  16.351  1.00  0.00     0.020 C 
HETATM   19  C29 UNL     1      -4.583   6.934  14.488  1.00  0.00     0.002 C 
HETATM   20  C30 UNL     1      -3.473   6.387  15.412  1.00  0.00     0.007 C 
HETATM   21  C31 UNL     1      -2.216   5.875  14.712  1.00  0.00     0.014 C 
HETATM   22  C32 UNL     1      -1.692   6.688  13.498  1.00  0.00     0.003 C 
HETATM   23  C33 UNL     1      -0.744   5.742  12.717  1.00  0.00     0.020 C 
ENDROOT
BRANCH   3  24
HETATM   24  O1  UNL     1       0.079   8.342  12.920  1.00  0.00    -0.377 OA
HETATM   25  H2  UNL     1      -0.305   8.331  12.031  1.00  0.00     0.211 HD
ENDBRANCH   3  24
BRANCH  13  26
HETATM   26  O2  UNL     1     -10.992   7.029  13.928  1.00  0.00    -0.271 OA
BRANCH  26  27
HETATM   27  C13 UNL     1     -12.092   7.089  13.026  1.00  0.00     0.303 C 
BRANCH  27  28
HETATM   28  C14 UNL     1     -12.619   8.514  12.926  1.00  0.00     0.244 C 
HETATM   29  O3  UNL     1     -12.230   9.305  12.071  1.00  0.00    -0.271 OA
HETATM   30  N2  UNL     1     -13.620   8.809  13.827  1.00  0.00    -0.354 N 
HETATM   31  H16 UNL     1     -13.869   8.088  14.504  1.00  0.00     0.162 HD
BRANCH  30  32
HETATM   32  C15 UNL     1     -14.321  10.090  13.884  1.00  0.00     0.098 C 
BRANCH  32  33
HETATM   33  C16 UNL     1     -14.614  10.578  12.456  1.00  0.00     0.135 C 
BRANCH  33  34
HETATM   34  C17 UNL     1     -15.737   9.841  11.785  1.00  0.00     0.141 C 
HETATM   35  O4  UNL     1     -15.684   8.707  11.340  1.00  0.00    -0.650 OA
BRANCH  34  36
HETATM   36  O5  UNL     1     -16.866  10.567  11.676  1.00  0.00    -0.776 OA
HETATM   37  H20 UNL     1     -17.484   9.969  11.202  1.00  0.00     0.167 HD
ENDBRANCH  34  36
ENDBRANCH  33  34
ENDBRANCH  32  33
BRANCH  32  38
HETATM   38  C18 UNL     1     -13.555  11.112  14.767  1.00  0.00     0.014 C 
HETATM   39  C19 UNL     1     -14.117  11.177  16.202  1.00  0.00     0.033 C 
HETATM   40  C20 UNL     1     -13.064  11.546  17.243  1.00  0.00     0.169 C 
HETATM   41  O6  UNL     1     -12.126  12.461  16.694  1.00  0.00    -0.381 OA
HETATM   42  C21 UNL     1     -11.299  11.897  15.665  1.00  0.00     0.054 C 
HETATM   43  C22 UNL     1     -10.893  13.071  14.763  1.00  0.00     0.045 C 
HETATM   44  C23 UNL     1     -10.037  11.309  16.305  1.00  0.00     0.045 C 
HETATM   45  C24 UNL     1     -12.045  10.820  14.842  1.00  0.00     0.044 C 
ENDBRANCH  32  38
ENDBRANCH  30  32
ENDBRANCH  27  28
ENDBRANCH  26  27
ENDBRANCH  13  26
TORSDOF 9
ENDMDL
