MODEL 1
REMARK minimizedAffinity -7.96457529
REMARK CNNscore 0.667985737
REMARK CNNaffinity 6.28828478
REMARK  6 active torsions:
REMARK  status: ('A' for Active; 'I' for Inactive)
REMARK    1  A    between atoms: C2_2  and  C3_3 
REMARK    2  A    between atoms: C2_2  and  C4_5 
REMARK    3  A    between atoms: C3_3  and  O1_4 
REMARK    4  A    between atoms: C4_5  and  C6_7 
REMARK    5  A    between atoms: C7_8  and  C8_9 
REMARK    6  A    between atoms: C8_9  and  C10_11 
ROOT
HETATM    1  C10 UNL     1       2.920  56.741  -8.435  1.00  0.00     0.002 C 
HETATM    2  C11 UNL     1       3.977  56.276  -9.471  1.00  0.00     0.007 C 
HETATM    3  C12 UNL     1       3.241  55.366 -10.468  1.00  0.00     0.010 C 
HETATM    4  C13 UNL     1       1.764  55.505 -10.093  1.00  0.00     0.023 C 
HETATM    5  C14 UNL     1       0.740  54.514 -10.586  1.00  0.00    -0.070 C 
HETATM    6  C15 UNL     1       0.985  53.612 -11.548  1.00  0.00     0.004 C 
HETATM    7  C16 UNL     1      -0.068  52.849 -12.165  1.00  0.00     0.004 C 
HETATM    8  C17 UNL     1      -1.314  52.794 -11.664  1.00  0.00    -0.071 C 
HETATM    9  C18 UNL     1      -2.372  51.944 -12.329  1.00  0.00     0.035 C 
HETATM   10  C19 UNL     1      -3.713  52.661 -12.429  1.00  0.00     0.004 C 
HETATM   11  C20 UNL     1      -4.159  53.189 -11.071  1.00  0.00     0.001 C 
HETATM   12  C21 UNL     1      -3.113  54.140 -10.491  1.00  0.00     0.014 C 
HETATM   13  C22 UNL     1      -1.687  53.527 -10.366  1.00  0.00    -0.013 C 
HETATM   14  C23 UNL     1      -1.683  52.452  -9.250  1.00  0.00     0.021 C 
HETATM   15  C24 UNL     1      -0.677  54.722 -10.043  1.00  0.00     0.027 C 
HETATM   16  C25 UNL     1      -0.699  55.140  -8.545  1.00  0.00     0.011 C 
HETATM   17  C26 UNL     1       0.387  56.147  -8.136  1.00  0.00     0.011 C 
HETATM   18  C27 UNL     1       1.792  55.669  -8.553  1.00  0.00    -0.032 C 
HETATM   19  C28 UNL     1       2.145  54.350  -7.831  1.00  0.00     0.016 C 
ENDROOT
BRANCH   1  20
HETATM   20  C8  UNL     1       3.518  57.168  -7.064  1.00  0.00     0.008 C 
HETATM   21  C9  UNL     1       2.952  58.445  -6.430  1.00  0.00     0.014 C 
BRANCH  20  22
HETATM   22  C7  UNL     1       5.036  57.105  -7.087  1.00  0.00    -0.026 C 
HETATM   23  C6  UNL     1       5.873  57.144  -6.035  1.00  0.00    -0.026 C 
BRANCH  23  24
HETATM   24  C4  UNL     1       7.393  57.077  -6.067  1.00  0.00     0.009 C 
HETATM   25  C5  UNL     1       7.927  55.636  -6.129  1.00  0.00     0.014 C 
BRANCH  24  26
HETATM   26  C2  UNL     1       8.015  57.882  -4.884  1.00  0.00     0.012 C 
HETATM   27  C1  UNL     1       7.538  59.345  -4.879  1.00  0.00     0.012 C 
BRANCH  26  28
HETATM   28  C3  UNL     1       9.554  57.850  -4.873  1.00  0.00     0.168 C 
BRANCH  28  29
HETATM   29  O1  UNL     1      10.112  59.061  -5.362  1.00  0.00    -0.400 OA
HETATM   30  H7  UNL     1       9.918  59.760  -4.716  1.00  0.00     0.209 HD
ENDBRANCH  28  29
ENDBRANCH  26  28
ENDBRANCH  24  26
ENDBRANCH  23  24
ENDBRANCH  20  22
ENDBRANCH   1  20
TORSDOF 6
ENDMDL
MODEL 2
REMARK minimizedAffinity -7.43151855
REMARK CNNscore 0.323159724
REMARK CNNaffinity 5.89535713
REMARK  6 active torsions:
REMARK  status: ('A' for Active; 'I' for Inactive)
REMARK    1  A    between atoms: C2_2  and  C3_3 
REMARK    2  A    between atoms: C2_2  and  C4_5 
REMARK    3  A    between atoms: C3_3  and  O1_4 
REMARK    4  A    between atoms: C4_5  and  C6_7 
REMARK    5  A    between atoms: C7_8  and  C8_9 
REMARK    6  A    between atoms: C8_9  and  C10_11 
ROOT
HETATM    1  C10 UNL     1       3.375  56.657  -9.032  1.00  0.00     0.002 C 
HETATM    2  C11 UNL     1       4.319  55.968 -10.053  1.00  0.00     0.007 C 
HETATM    3  C12 UNL     1       3.446  55.013 -10.881  1.00  0.00     0.010 C 
HETATM    4  C13 UNL     1       2.014  55.335 -10.452  1.00  0.00     0.023 C 
HETATM    5  C14 UNL     1       0.879  54.389 -10.755  1.00  0.00    -0.070 C 
HETATM    6  C15 UNL     1       0.984  53.354 -11.602  1.00  0.00     0.004 C 
HETATM    7  C16 UNL     1      -0.168  52.621 -12.057  1.00  0.00     0.004 C 
HETATM    8  C17 UNL     1      -1.379  52.746 -11.489  1.00  0.00    -0.071 C 
HETATM    9  C18 UNL     1      -2.546  51.921 -11.980  1.00  0.00     0.035 C 
HETATM   10  C19 UNL     1      -3.825  52.742 -12.103  1.00  0.00     0.004 C 
HETATM   11  C20 UNL     1      -4.137  53.476 -10.805  1.00  0.00     0.001 C 
HETATM   12  C21 UNL     1      -2.978  54.391 -10.411  1.00  0.00     0.014 C 
HETATM   13  C22 UNL     1      -1.604  53.669 -10.281  1.00  0.00    -0.013 C 
HETATM   14  C23 UNL     1      -1.622  52.747  -9.035  1.00  0.00     0.021 C 
HETATM   15  C24 UNL     1      -0.477  54.795 -10.171  1.00  0.00     0.027 C 
HETATM   16  C25 UNL     1      -0.368  55.399  -8.742  1.00  0.00     0.011 C 
HETATM   17  C26 UNL     1       0.825  56.344  -8.526  1.00  0.00     0.011 C 
HETATM   18  C27 UNL     1       2.154  55.688  -8.949  1.00  0.00    -0.032 C 
HETATM   19  C28 UNL     1       2.438  54.444  -8.080  1.00  0.00     0.016 C 
ENDROOT
BRANCH   1  20
HETATM   20  C8  UNL     1       4.094  57.196  -7.763  1.00  0.00     0.008 C 
HETATM   21  C9  UNL     1       5.180  56.303  -7.151  1.00  0.00     0.014 C 
BRANCH  20  22
HETATM   22  C7  UNL     1       3.092  57.736  -6.756  1.00  0.00    -0.026 C 
HETATM   23  C6  UNL     1       2.869  57.295  -5.506  1.00  0.00    -0.026 C 
BRANCH  23  24
HETATM   24  C4  UNL     1       1.865  57.844  -4.502  1.00  0.00     0.009 C 
HETATM   25  C5  UNL     1       2.526  58.660  -3.380  1.00  0.00     0.014 C 
BRANCH  24  26
HETATM   26  C2  UNL     1       0.954  56.707  -3.943  1.00  0.00     0.012 C 
HETATM   27  C1  UNL     1       1.317  55.338  -4.543  1.00  0.00     0.012 C 
BRANCH  26  28
HETATM   28  C3  UNL     1      -0.547  56.974  -4.158  1.00  0.00     0.168 C 
BRANCH  28  29
HETATM   29  O1  UNL     1      -0.814  57.469  -5.462  1.00  0.00    -0.400 OA
HETATM   30  H7  UNL     1      -0.642  56.749  -6.093  1.00  0.00     0.209 HD
ENDBRANCH  28  29
ENDBRANCH  26  28
ENDBRANCH  24  26
ENDBRANCH  23  24
ENDBRANCH  20  22
ENDBRANCH   1  20
TORSDOF 6
ENDMDL
MODEL 3
REMARK minimizedAffinity -8.04096317
REMARK CNNscore 0.318928748
REMARK CNNaffinity 6.31970835
REMARK  6 active torsions:
REMARK  status: ('A' for Active; 'I' for Inactive)
REMARK    1  A    between atoms: C2_2  and  C3_3 
REMARK    2  A    between atoms: C2_2  and  C4_5 
REMARK    3  A    between atoms: C3_3  and  O1_4 
REMARK    4  A    between atoms: C4_5  and  C6_7 
REMARK    5  A    between atoms: C7_8  and  C8_9 
REMARK    6  A    between atoms: C8_9  and  C10_11 
ROOT
HETATM    1  C10 UNL     1      -2.737  52.467 -12.416  1.00  0.00     0.002 C 
HETATM    2  C11 UNL     1      -3.862  53.032 -11.509  1.00  0.00     0.007 C 
HETATM    3  C12 UNL     1      -3.180  53.974 -10.503  1.00  0.00     0.010 C 
HETATM    4  C13 UNL     1      -1.735  54.075 -10.994  1.00  0.00     0.023 C 
HETATM    5  C14 UNL     1      -0.646  54.610 -10.099  1.00  0.00    -0.070 C 
HETATM    6  C15 UNL     1      -0.883  55.242  -8.939  1.00  0.00     0.004 C 
HETATM    7  C16 UNL     1       0.150  55.952  -8.232  1.00  0.00     0.004 C 
HETATM    8  C17 UNL     1       1.454  55.827  -8.534  1.00  0.00    -0.071 C 
HETATM    9  C18 UNL     1       2.502  56.564  -7.731  1.00  0.00     0.035 C 
HETATM   10  C19 UNL     1       3.571  57.195  -8.615  1.00  0.00     0.004 C 
HETATM   11  C20 UNL     1       4.179  56.170  -9.564  1.00  0.00     0.001 C 
HETATM   12  C21 UNL     1       3.099  55.538 -10.441  1.00  0.00     0.014 C 
HETATM   13  C22 UNL     1       1.930  54.882  -9.647  1.00  0.00    -0.013 C 
HETATM   14  C23 UNL     1       2.444  53.605  -8.936  1.00  0.00     0.021 C 
HETATM   15  C24 UNL     1       0.766  54.553 -10.690  1.00  0.00     0.027 C 
HETATM   16  C25 UNL     1       1.034  53.252 -11.500  1.00  0.00     0.011 C 
HETATM   17  C26 UNL     1      -0.138  52.780 -12.376  1.00  0.00     0.011 C 
HETATM   18  C27 UNL     1      -1.443  52.665 -11.566  1.00  0.00    -0.032 C 
HETATM   19  C28 UNL     1      -1.293  51.603 -10.455  1.00  0.00     0.016 C 
ENDROOT
BRANCH   1  20
HETATM   20  C8  UNL     1      -3.086  51.110 -13.092  1.00  0.00     0.008 C 
HETATM   21  C9  UNL     1      -2.781  49.839 -12.290  1.00  0.00     0.014 C 
BRANCH  20  22
HETATM   22  C7  UNL     1      -2.593  51.073 -14.529  1.00  0.00    -0.026 C 
HETATM   23  C6  UNL     1      -1.346  50.813 -14.959  1.00  0.00    -0.026 C 
BRANCH  23  24
HETATM   24  C4  UNL     1      -0.861  50.775 -16.402  1.00  0.00     0.009 C 
HETATM   25  C5  UNL     1      -1.367  49.544 -17.171  1.00  0.00     0.014 C 
BRANCH  24  26
HETATM   26  C2  UNL     1       0.692  50.916 -16.474  1.00  0.00     0.012 C 
HETATM   27  C1  UNL     1       1.346  50.724 -15.095  1.00  0.00     0.012 C 
BRANCH  26  28
HETATM   28  C3  UNL     1       1.150  52.259 -17.072  1.00  0.00     0.168 C 
BRANCH  28  29
HETATM   29  O1  UNL     1       1.471  53.204 -16.062  1.00  0.00    -0.400 OA
HETATM   30  H7  UNL     1       2.276  52.896 -15.612  1.00  0.00     0.209 HD
ENDBRANCH  28  29
ENDBRANCH  26  28
ENDBRANCH  24  26
ENDBRANCH  23  24
ENDBRANCH  20  22
ENDBRANCH   1  20
TORSDOF 6
ENDMDL
MODEL 4
REMARK minimizedAffinity -8.08016491
REMARK CNNscore 0.286790818
REMARK CNNaffinity 6.5785079
REMARK  6 active torsions:
REMARK  status: ('A' for Active; 'I' for Inactive)
REMARK    1  A    between atoms: C2_2  and  C3_3 
REMARK    2  A    between atoms: C2_2  and  C4_5 
REMARK    3  A    between atoms: C3_3  and  O1_4 
REMARK    4  A    between atoms: C4_5  and  C6_7 
REMARK    5  A    between atoms: C7_8  and  C8_9 
REMARK    6  A    between atoms: C8_9  and  C10_11 
ROOT
HETATM    1  C10 UNL     1      -1.739  49.880 -23.751  1.00  0.00     0.002 C 
HETATM    2  C11 UNL     1      -1.003  51.184 -23.344  1.00  0.00     0.007 C 
HETATM    3  C12 UNL     1      -0.929  51.184 -21.809  1.00  0.00     0.010 C 
HETATM    4  C13 UNL     1      -1.435  49.799 -21.402  1.00  0.00     0.023 C 
HETATM    5  C14 UNL     1      -1.859  49.511 -19.985  1.00  0.00    -0.070 C 
HETATM    6  C15 UNL     1      -1.609  50.334 -18.955  1.00  0.00     0.004 C 
HETATM    7  C16 UNL     1      -1.805  49.927 -17.588  1.00  0.00     0.004 C 
HETATM    8  C17 UNL     1      -2.478  48.814 -17.251  1.00  0.00    -0.071 C 
HETATM    9  C18 UNL     1      -2.691  48.455 -15.799  1.00  0.00     0.035 C 
HETATM   10  C19 UNL     1      -2.455  46.974 -15.527  1.00  0.00     0.004 C 
HETATM   11  C20 UNL     1      -3.278  46.102 -16.468  1.00  0.00     0.001 C 
HETATM   12  C21 UNL     1      -2.941  46.414 -17.925  1.00  0.00     0.014 C 
HETATM   13  C22 UNL     1      -3.116  47.911 -18.319  1.00  0.00    -0.013 C 
HETATM   14  C23 UNL     1      -4.624  48.267 -18.336  1.00  0.00     0.021 C 
HETATM   15  C24 UNL     1      -2.442  48.114 -19.752  1.00  0.00     0.027 C 
HETATM   16  C25 UNL     1      -3.352  47.633 -20.918  1.00  0.00     0.011 C 
HETATM   17  C26 UNL     1      -2.842  47.980 -22.325  1.00  0.00     0.011 C 
HETATM   18  C27 UNL     1      -2.522  49.481 -22.461  1.00  0.00    -0.032 C 
HETATM   19  C28 UNL     1      -3.801  50.322 -22.257  1.00  0.00     0.016 C 
ENDROOT
BRANCH   1  20
HETATM   20  C8  UNL     1      -2.419  49.942 -25.148  1.00  0.00     0.008 C 
HETATM   21  C9  UNL     1      -2.882  48.610 -25.752  1.00  0.00     0.014 C 
BRANCH  20  22
HETATM   22  C7  UNL     1      -1.625  50.816 -26.104  1.00  0.00    -0.026 C 
HETATM   23  C6  UNL     1      -0.315  50.727 -26.398  1.00  0.00    -0.026 C 
BRANCH  23  24
HETATM   24  C4  UNL     1       0.473  51.605 -27.359  1.00  0.00     0.009 C 
HETATM   25  C5  UNL     1       1.990  51.543 -27.119  1.00  0.00     0.014 C 
BRANCH  24  26
HETATM   26  C2  UNL     1      -0.064  53.071 -27.347  1.00  0.00     0.012 C 
HETATM   27  C1  UNL     1       0.139  53.741 -25.977  1.00  0.00     0.012 C 
BRANCH  26  28
HETATM   28  C3  UNL     1      -1.547  53.175 -27.749  1.00  0.00     0.168 C 
BRANCH  28  29
HETATM   29  O1  UNL     1      -1.819  54.376 -28.456  1.00  0.00    -0.400 OA
HETATM   30  H7  UNL     1      -1.378  54.318 -29.320  1.00  0.00     0.209 HD
ENDBRANCH  28  29
ENDBRANCH  26  28
ENDBRANCH  24  26
ENDBRANCH  23  24
ENDBRANCH  20  22
ENDBRANCH   1  20
TORSDOF 6
ENDMDL
MODEL 5
REMARK minimizedAffinity -9.52596664
REMARK CNNscore 0.249463841
REMARK CNNaffinity 6.38676882
REMARK  6 active torsions:
REMARK  status: ('A' for Active; 'I' for Inactive)
REMARK    1  A    between atoms: C2_2  and  C3_3 
REMARK    2  A    between atoms: C2_2  and  C4_5 
REMARK    3  A    between atoms: C3_3  and  O1_4 
REMARK    4  A    between atoms: C4_5  and  C6_7 
REMARK    5  A    between atoms: C7_8  and  C8_9 
REMARK    6  A    between atoms: C8_9  and  C10_11 
ROOT
HETATM    1  C10 UNL     1      -0.078  51.118 -19.882  1.00  0.00     0.002 C 
HETATM    2  C11 UNL     1      -0.586  49.866 -19.119  1.00  0.00     0.007 C 
HETATM    3  C12 UNL     1      -1.419  49.052 -20.120  1.00  0.00     0.010 C 
HETATM    4  C13 UNL     1      -1.193  49.749 -21.462  1.00  0.00     0.023 C 
HETATM    5  C14 UNL     1      -2.102  49.490 -22.637  1.00  0.00    -0.070 C 
HETATM    6  C15 UNL     1      -2.994  48.488 -22.677  1.00  0.00     0.004 C 
HETATM    7  C16 UNL     1      -3.670  48.116 -23.891  1.00  0.00     0.004 C 
HETATM    8  C17 UNL     1      -3.655  48.884 -24.995  1.00  0.00    -0.071 C 
HETATM    9  C18 UNL     1      -4.417  48.465 -26.231  1.00  0.00     0.035 C 
HETATM   10  C19 UNL     1      -3.611  48.676 -27.508  1.00  0.00     0.004 C 
HETATM   11  C20 UNL     1      -3.089  50.104 -27.602  1.00  0.00     0.001 C 
HETATM   12  C21 UNL     1      -2.224  50.444 -26.389  1.00  0.00     0.014 C 
HETATM   13  C22 UNL     1      -2.932  50.239 -25.017  1.00  0.00    -0.013 C 
HETATM   14  C23 UNL     1      -4.032  51.315 -24.839  1.00  0.00     0.021 C 
HETATM   15  C24 UNL     1      -1.815  50.338 -23.879  1.00  0.00     0.027 C 
HETATM   16  C25 UNL     1      -1.434  51.807 -23.537  1.00  0.00     0.011 C 
HETATM   17  C26 UNL     1      -0.511  51.972 -22.320  1.00  0.00     0.011 C 
HETATM   18  C27 UNL     1      -1.070  51.246 -21.080  1.00  0.00    -0.032 C 
HETATM   19  C28 UNL     1      -2.427  51.857 -20.667  1.00  0.00     0.016 C 
ENDROOT
BRANCH   1  20
HETATM   20  C8  UNL     1       0.275  52.324 -18.965  1.00  0.00     0.008 C 
HETATM   21  C9  UNL     1       1.351  53.290 -19.475  1.00  0.00     0.014 C 
BRANCH  20  22
HETATM   22  C7  UNL     1       0.472  51.876 -17.526  1.00  0.00    -0.026 C 
HETATM   23  C6  UNL     1       1.597  51.946 -16.794  1.00  0.00    -0.026 C 
BRANCH  23  24
HETATM   24  C4  UNL     1       1.785  51.497 -15.352  1.00  0.00     0.009 C 
HETATM   25  C5  UNL     1       0.703  52.047 -14.409  1.00  0.00     0.014 C 
BRANCH  24  26
HETATM   26  C2  UNL     1       3.225  51.824 -14.847  1.00  0.00     0.012 C 
HETATM   27  C1  UNL     1       4.115  52.371 -15.977  1.00  0.00     0.012 C 
BRANCH  26  28
HETATM   28  C3  UNL     1       3.923  50.620 -14.189  1.00  0.00     0.168 C 
BRANCH  28  29
HETATM   29  O1  UNL     1       3.596  50.507 -12.811  1.00  0.00    -0.400 OA
HETATM   30  H7  UNL     1       2.658  50.259 -12.748  1.00  0.00     0.209 HD
ENDBRANCH  28  29
ENDBRANCH  26  28
ENDBRANCH  24  26
ENDBRANCH  23  24
ENDBRANCH  20  22
ENDBRANCH   1  20
TORSDOF 6
ENDMDL
MODEL 6
REMARK minimizedAffinity -8.01412106
REMARK CNNscore 0.236222535
REMARK CNNaffinity 6.68178749
REMARK  6 active torsions:
REMARK  status: ('A' for Active; 'I' for Inactive)
REMARK    1  A    between atoms: C2_2  and  C3_3 
REMARK    2  A    between atoms: C2_2  and  C4_5 
REMARK    3  A    between atoms: C3_3  and  O1_4 
REMARK    4  A    between atoms: C4_5  and  C6_7 
REMARK    5  A    between atoms: C7_8  and  C8_9 
REMARK    6  A    between atoms: C8_9  and  C10_11 
ROOT
HETATM    1  C10 UNL     1      -0.675  50.673 -22.011  1.00  0.00     0.002 C 
HETATM    2  C11 UNL     1       0.286  51.865 -21.764  1.00  0.00     0.007 C 
HETATM    3  C12 UNL     1       0.558  51.902 -20.253  1.00  0.00     0.010 C 
HETATM    4  C13 UNL     1      -0.083  50.621 -19.718  1.00  0.00     0.023 C 
HETATM    5  C14 UNL     1      -0.355  50.443 -18.245  1.00  0.00    -0.070 C 
HETATM    6  C15 UNL     1       0.142  51.251 -17.297  1.00  0.00     0.004 C 
HETATM    7  C16 UNL     1       0.070  50.921 -15.898  1.00  0.00     0.004 C 
HETATM    8  C17 UNL     1      -0.706  49.931 -15.425  1.00  0.00    -0.071 C 
HETATM    9  C18 UNL     1      -0.777  49.653 -13.941  1.00  0.00     0.035 C 
HETATM   10  C19 UNL     1      -0.721  48.162 -13.627  1.00  0.00     0.004 C 
HETATM   11  C20 UNL     1      -1.776  47.393 -14.414  1.00  0.00     0.001 C 
HETATM   12  C21 UNL     1      -1.591  47.606 -15.916  1.00  0.00     0.014 C 
HETATM   13  C22 UNL     1      -1.600  49.099 -16.358  1.00  0.00    -0.013 C 
HETATM   14  C23 UNL     1      -3.031  49.674 -16.206  1.00  0.00     0.021 C 
HETATM   15  C24 UNL     1      -1.096  49.155 -17.873  1.00  0.00     0.027 C 
HETATM   16  C25 UNL     1      -2.210  48.779 -18.891  1.00  0.00     0.011 C 
HETATM   17  C26 UNL     1      -1.843  49.002 -20.367  1.00  0.00     0.011 C 
HETATM   18  C27 UNL     1      -1.332  50.435 -20.615  1.00  0.00    -0.032 C 
HETATM   19  C28 UNL     1      -2.440  51.462 -20.296  1.00  0.00     0.016 C 
ENDROOT
BRANCH   1  20
HETATM   20  C8  UNL     1      -1.516  50.792 -23.314  1.00  0.00     0.008 C 
HETATM   21  C9  UNL     1      -2.456  49.624 -23.640  1.00  0.00     0.014 C 
BRANCH  20  22
HETATM   22  C7  UNL     1      -0.653  51.241 -24.481  1.00  0.00    -0.026 C 
HETATM   23  C6  UNL     1      -0.290  52.497 -24.794  1.00  0.00    -0.026 C 
BRANCH  23  24
HETATM   24  C4  UNL     1       0.579  52.938 -25.964  1.00  0.00     0.009 C 
HETATM   25  C5  UNL     1      -0.048  54.084 -26.775  1.00  0.00     0.014 C 
BRANCH  24  26
HETATM   26  C2  UNL     1       0.964  51.723 -26.865  1.00  0.00     0.012 C 
HETATM   27  C1  UNL     1       2.490  51.574 -26.997  1.00  0.00     0.012 C 
BRANCH  26  28
HETATM   28  C3  UNL     1       0.337  51.789 -28.269  1.00  0.00     0.168 C 
BRANCH  28  29
HETATM   29  O1  UNL     1      -1.052  51.494 -28.241  1.00  0.00    -0.400 OA
HETATM   30  H7  UNL     1      -1.502  52.224 -27.783  1.00  0.00     0.209 HD
ENDBRANCH  28  29
ENDBRANCH  26  28
ENDBRANCH  24  26
ENDBRANCH  23  24
ENDBRANCH  20  22
ENDBRANCH   1  20
TORSDOF 6
ENDMDL
MODEL 7
REMARK minimizedAffinity -7.37812424
REMARK CNNscore 0.225374237
REMARK CNNaffinity 5.93063593
REMARK  6 active torsions:
REMARK  status: ('A' for Active; 'I' for Inactive)
REMARK    1  A    between atoms: C2_2  and  C3_3 
REMARK    2  A    between atoms: C2_2  and  C4_5 
REMARK    3  A    between atoms: C3_3  and  O1_4 
REMARK    4  A    between atoms: C4_5  and  C6_7 
REMARK    5  A    between atoms: C7_8  and  C8_9 
REMARK    6  A    between atoms: C8_9  and  C10_11 
ROOT
HETATM    1  C10 UNL     1       0.970  51.824 -12.905  1.00  0.00     0.002 C 
HETATM    2  C11 UNL     1      -0.570  51.943 -12.756  1.00  0.00     0.007 C 
HETATM    3  C12 UNL     1      -0.823  53.023 -11.693  1.00  0.00     0.010 C 
HETATM    4  C13 UNL     1       0.557  53.624 -11.422  1.00  0.00     0.023 C 
HETATM    5  C14 UNL     1       0.813  54.464 -10.197  1.00  0.00    -0.070 C 
HETATM    6  C15 UNL     1      -0.162  54.937  -9.405  1.00  0.00     0.004 C 
HETATM    7  C16 UNL     1       0.091  55.929  -8.393  1.00  0.00     0.004 C 
HETATM    8  C17 UNL     1       1.331  56.263  -7.997  1.00  0.00    -0.071 C 
HETATM    9  C18 UNL     1       1.538  57.282  -6.901  1.00  0.00     0.035 C 
HETATM   10  C19 UNL     1       2.652  58.269  -7.229  1.00  0.00     0.004 C 
HETATM   11  C20 UNL     1       3.940  57.544  -7.601  1.00  0.00     0.001 C 
HETATM   12  C21 UNL     1       3.712  56.615  -8.793  1.00  0.00     0.014 C 
HETATM   13  C22 UNL     1       2.571  55.575  -8.587  1.00  0.00    -0.013 C 
HETATM   14  C23 UNL     1       3.016  54.522  -7.541  1.00  0.00     0.021 C 
HETATM   15  C24 UNL     1       2.266  54.909 -10.007  1.00  0.00     0.027 C 
HETATM   16  C25 UNL     1       3.294  53.805 -10.386  1.00  0.00     0.011 C 
HETATM   17  C26 UNL     1       2.943  52.996 -11.645  1.00  0.00     0.011 C 
HETATM   18  C27 UNL     1       1.517  52.417 -11.570  1.00  0.00    -0.032 C 
HETATM   19  C28 UNL     1       1.401  51.430 -10.388  1.00  0.00     0.016 C 
ENDROOT
BRANCH   1  20
HETATM   20  C8  UNL     1       1.451  50.453 -13.463  1.00  0.00     0.008 C 
HETATM   21  C9  UNL     1       2.731  49.869 -12.852  1.00  0.00     0.014 C 
BRANCH  20  22
HETATM   22  C7  UNL     1       1.425  50.443 -14.982  1.00  0.00    -0.026 C 
HETATM   23  C6  UNL     1       0.644  51.180 -15.792  1.00  0.00    -0.026 C 
BRANCH  23  24
HETATM   24  C4  UNL     1       0.627  51.166 -17.314  1.00  0.00     0.009 C 
HETATM   25  C5  UNL     1       0.759  52.569 -17.927  1.00  0.00     0.014 C 
BRANCH  24  26
HETATM   26  C2  UNL     1      -0.624  50.405 -17.854  1.00  0.00     0.012 C 
HETATM   27  C1  UNL     1      -0.640  50.352 -19.391  1.00  0.00     0.012 C 
BRANCH  26  28
HETATM   28  C3  UNL     1      -1.954  50.996 -17.352  1.00  0.00     0.168 C 
BRANCH  28  29
HETATM   29  O1  UNL     1      -2.619  51.737 -18.365  1.00  0.00    -0.400 OA
HETATM   30  H7  UNL     1      -2.918  51.109 -19.044  1.00  0.00     0.209 HD
ENDBRANCH  28  29
ENDBRANCH  26  28
ENDBRANCH  24  26
ENDBRANCH  23  24
ENDBRANCH  20  22
ENDBRANCH   1  20
TORSDOF 6
ENDMDL
MODEL 8
REMARK minimizedAffinity -9.06158924
REMARK CNNscore 0.196900949
REMARK CNNaffinity 6.17888021
REMARK  6 active torsions:
REMARK  status: ('A' for Active; 'I' for Inactive)
REMARK    1  A    between atoms: C2_2  and  C3_3 
REMARK    2  A    between atoms: C2_2  and  C4_5 
REMARK    3  A    between atoms: C3_3  and  O1_4 
REMARK    4  A    between atoms: C4_5  and  C6_7 
REMARK    5  A    between atoms: C7_8  and  C8_9 
REMARK    6  A    between atoms: C8_9  and  C10_11 
ROOT
HETATM    1  C10 UNL     1      -1.348  50.429 -22.197  1.00  0.00     0.002 C 
HETATM    2  C11 UNL     1      -0.747  51.823 -22.514  1.00  0.00     0.007 C 
HETATM    3  C12 UNL     1      -0.054  52.302 -21.228  1.00  0.00     0.010 C 
HETATM    4  C13 UNL     1      -0.103  51.092 -20.294  1.00  0.00     0.023 C 
HETATM    5  C14 UNL     1       0.146  51.240 -18.815  1.00  0.00    -0.070 C 
HETATM    6  C15 UNL     1       0.650  52.351 -18.256  1.00  0.00     0.004 C 
HETATM    7  C16 UNL     1       1.103  52.380 -16.890  1.00  0.00     0.004 C 
HETATM    8  C17 UNL     1       0.828  51.400 -16.013  1.00  0.00    -0.071 C 
HETATM    9  C18 UNL     1       1.293  51.500 -14.579  1.00  0.00     0.035 C 
HETATM   10  C19 UNL     1       1.870  50.187 -14.063  1.00  0.00     0.004 C 
HETATM   11  C20 UNL     1       0.899  49.034 -14.280  1.00  0.00     0.001 C 
HETATM   12  C21 UNL     1       0.551  48.892 -15.761  1.00  0.00     0.014 C 
HETATM   13  C22 UNL     1      -0.024  50.185 -16.412  1.00  0.00    -0.013 C 
HETATM   14  C23 UNL     1      -1.444  50.455 -15.854  1.00  0.00     0.021 C 
HETATM   15  C24 UNL     1      -0.040  49.961 -17.994  1.00  0.00     0.027 C 
HETATM   16  C25 UNL     1      -1.250  49.105 -18.467  1.00  0.00     0.011 C 
HETATM   17  C26 UNL     1      -1.427  49.020 -19.991  1.00  0.00     0.011 C 
HETATM   18  C27 UNL     1      -1.454  50.417 -20.640  1.00  0.00    -0.032 C 
HETATM   19  C28 UNL     1      -2.662  51.227 -20.120  1.00  0.00     0.016 C 
ENDROOT
BRANCH   1  20
HETATM   20  C8  UNL     1      -2.540  50.027 -23.113  1.00  0.00     0.008 C 
HETATM   21  C9  UNL     1      -2.789  48.526 -23.306  1.00  0.00     0.014 C 
BRANCH  20  22
HETATM   22  C7  UNL     1      -2.530  50.827 -24.404  1.00  0.00    -0.026 C 
HETATM   23  C6  UNL     1      -1.984  50.475 -25.582  1.00  0.00    -0.026 C 
BRANCH  23  24
HETATM   24  C4  UNL     1      -1.982  51.282 -26.872  1.00  0.00     0.009 C 
HETATM   25  C5  UNL     1      -2.927  50.707 -27.939  1.00  0.00     0.014 C 
BRANCH  24  26
HETATM   26  C2  UNL     1      -0.530  51.469 -27.413  1.00  0.00     0.012 C 
HETATM   27  C1  UNL     1       0.512  50.823 -26.483  1.00  0.00     0.012 C 
BRANCH  26  28
HETATM   28  C3  UNL     1      -0.157  52.944 -27.647  1.00  0.00     0.168 C 
BRANCH  28  29
HETATM   29  O1  UNL     1       0.652  53.457 -26.598  1.00  0.00    -0.400 OA
HETATM   30  H7  UNL     1       1.517  53.017 -26.648  1.00  0.00     0.209 HD
ENDBRANCH  28  29
ENDBRANCH  26  28
ENDBRANCH  24  26
ENDBRANCH  23  24
ENDBRANCH  20  22
ENDBRANCH   1  20
TORSDOF 6
ENDMDL
MODEL 9
REMARK minimizedAffinity -8.14058399
REMARK CNNscore 0.192820042
REMARK CNNaffinity 6.0868926
REMARK  6 active torsions:
REMARK  status: ('A' for Active; 'I' for Inactive)
REMARK    1  A    between atoms: C2_2  and  C3_3 
REMARK    2  A    between atoms: C2_2  and  C4_5 
REMARK    3  A    between atoms: C3_3  and  O1_4 
REMARK    4  A    between atoms: C4_5  and  C6_7 
REMARK    5  A    between atoms: C7_8  and  C8_9 
REMARK    6  A    between atoms: C8_9  and  C10_11 
ROOT
HETATM    1  C10 UNL     1      -4.282  49.764 -22.058  1.00  0.00     0.002 C 
HETATM    2  C11 UNL     1      -5.416  49.509 -23.086  1.00  0.00     0.007 C 
HETATM    3  C12 UNL     1      -4.821  49.794 -24.473  1.00  0.00     0.010 C 
HETATM    4  C13 UNL     1      -3.328  50.000 -24.214  1.00  0.00     0.023 C 
HETATM    5  C14 UNL     1      -2.441  50.649 -25.246  1.00  0.00    -0.070 C 
HETATM    6  C15 UNL     1      -2.818  50.867 -26.515  1.00  0.00     0.004 C 
HETATM    7  C16 UNL     1      -1.879  51.259 -27.533  1.00  0.00     0.004 C 
HETATM    8  C17 UNL     1      -0.634  51.677 -27.250  1.00  0.00    -0.071 C 
HETATM    9  C18 UNL     1       0.298  52.118 -28.355  1.00  0.00     0.035 C 
HETATM   10  C19 UNL     1       1.710  51.573 -28.175  1.00  0.00     0.004 C 
HETATM   11  C20 UNL     1       2.255  51.899 -26.789  1.00  0.00     0.001 C 
HETATM   12  C21 UNL     1       1.344  51.329 -25.703  1.00  0.00     0.014 C 
HETATM   13  C22 UNL     1      -0.139  51.793 -25.800  1.00  0.00    -0.013 C 
HETATM   14  C23 UNL     1      -0.234  53.296 -25.433  1.00  0.00     0.021 C 
HETATM   15  C24 UNL     1      -0.994  50.883 -24.803  1.00  0.00     0.027 C 
HETATM   16  C25 UNL     1      -0.878  51.342 -23.321  1.00  0.00     0.011 C 
HETATM   17  C26 UNL     1      -1.828  50.630 -22.345  1.00  0.00     0.011 C 
HETATM   18  C27 UNL     1      -3.290  50.691 -22.827  1.00  0.00    -0.032 C 
HETATM   19  C28 UNL     1      -3.773  52.157 -22.891  1.00  0.00     0.016 C 
ENDROOT
BRANCH   1  20
HETATM   20  C8  UNL     1      -4.785  50.096 -20.624  1.00  0.00     0.008 C 
HETATM   21  C9  UNL     1      -3.861  50.948 -19.747  1.00  0.00     0.014 C 
BRANCH  20  22
HETATM   22  C7  UNL     1      -5.328  48.855 -19.935  1.00  0.00    -0.026 C 
HETATM   23  C6  UNL     1      -5.613  48.702 -18.630  1.00  0.00    -0.026 C 
BRANCH  23  24
HETATM   24  C4  UNL     1      -6.159  47.455 -17.949  1.00  0.00     0.009 C 
HETATM   25  C5  UNL     1      -5.604  46.153 -18.548  1.00  0.00     0.014 C 
BRANCH  24  26
HETATM   26  C2  UNL     1      -7.720  47.470 -17.921  1.00  0.00     0.012 C 
HETATM   27  C1  UNL     1      -8.276  48.904 -17.970  1.00  0.00     0.012 C 
BRANCH  26  28
HETATM   28  C3  UNL     1      -8.310  46.737 -16.704  1.00  0.00     0.168 C 
BRANCH  28  29
HETATM   29  O1  UNL     1      -7.556  46.978 -15.525  1.00  0.00    -0.400 OA
HETATM   30  H7  UNL     1      -7.678  47.911 -15.280  1.00  0.00     0.209 HD
ENDBRANCH  28  29
ENDBRANCH  26  28
ENDBRANCH  24  26
ENDBRANCH  23  24
ENDBRANCH  20  22
ENDBRANCH   1  20
TORSDOF 6
ENDMDL
