MODEL 1
REMARK minimizedAffinity -6.79211187
REMARK CNNscore 0.323091567
REMARK CNNaffinity 5.78549623
REMARK  11 active torsions:
REMARK  status: ('A' for Active; 'I' for Inactive)
REMARK    1  A    between atoms: C2_2  and  C3_3 
REMARK    2  A    between atoms: C2_2  and  C4_5 
REMARK    3  A    between atoms: C3_3  and  O1_4 
REMARK    4  A    between atoms: C13_14  and  C14_15 
REMARK    5  A    between atoms: C14_15  and  C16_17 
REMARK    6  A    between atoms: C16_17  and  C17_18 
REMARK    7  A    between atoms: C17_18  and  C18_20 
REMARK    8  A    between atoms: C27_29  and  C28_30 
REMARK    9  A    between atoms: C28_30  and  C29_31 
REMARK   10  A    between atoms: C29_31  and  C30_32 
REMARK   11  A    between atoms: C30_32  and  O4_34 
ROOT
HETATM    1  C4  UNL     1     -16.006  45.001 -26.902  1.00  0.00     0.025 C 
HETATM    2  C5  UNL     1     -15.437  44.714 -28.302  1.00  0.00     0.010 C 
HETATM    3  C6  UNL     1     -14.424  45.782 -28.699  1.00  0.00     0.007 C 
HETATM    4  C7  UNL     1     -13.157  45.653 -27.844  1.00  0.00     0.004 C 
HETATM    5  C8  UNL     1     -13.476  45.713 -26.327  1.00  0.00    -0.027 A 
HETATM    6  C9  UNL     1     -12.668  46.708 -25.476  1.00  0.00     0.011 C 
HETATM    7  C10 UNL     1     -11.221  47.026 -25.902  1.00  0.00     0.011 C 
HETATM    8  C11 UNL     1     -10.821  46.446 -27.261  1.00  0.00    -0.032 C 
HETATM    9  C12 UNL     1     -10.399  44.968 -27.028  1.00  0.00     0.016 C 
HETATM   10  C13 UNL     1      -9.682  47.218 -28.000  1.00  0.00    -0.002 C 
HETATM   11  C22 UNL     1      -9.918  46.876 -29.492  1.00  0.00     0.006 C 
HETATM   12  C23 UNL     1     -11.346  46.307 -29.601  1.00  0.00     0.011 C 
HETATM   13  C24 UNL     1     -12.022  46.627 -28.251  1.00  0.00    -0.032 C 
HETATM   14  C25 UNL     1     -12.571  48.083 -28.362  1.00  0.00     0.016 C 
HETATM   15  C26 UNL     1     -13.752  44.364 -25.688  1.00  0.00     0.022 A 
HETATM   16  C27 UNL     1     -14.912  45.316 -25.849  1.00  0.00    -0.024 A 
ENDROOT
BRANCH  10  17
HETATM   17  C14 UNL     1      -8.225  47.070 -27.476  1.00  0.00    -0.007 C 
HETATM   18  C15 UNL     1      -7.544  45.886 -28.188  1.00  0.00     0.011 C 
BRANCH  17  19
HETATM   19  C16 UNL     1      -8.080  46.863 -25.954  1.00  0.00     0.087 C 
BRANCH  19  20
HETATM   20  C17 UNL     1      -7.177  47.906 -25.308  1.00  0.00     0.149 C 
HETATM   21  O2  UNL     1      -7.533  48.547 -24.323  1.00  0.00    -0.293 OA
BRANCH  20  22
HETATM   22  C18 UNL     1      -5.822  48.083 -25.923  1.00  0.00     0.052 C 
HETATM   23  C19 UNL     1      -4.678  48.333 -25.256  1.00  0.00    -0.084 C 
HETATM   24  C20 UNL     1      -4.567  48.434 -23.758  1.00  0.00     0.043 C 
HETATM   25  C21 UNL     1      -3.385  48.531 -26.002  1.00  0.00     0.043 C 
ENDBRANCH  20  22
ENDBRANCH  19  20
ENDBRANCH  17  19
ENDBRANCH  10  17
BRANCH  16  26
HETATM   26  C28 UNL     1     -15.474  45.900 -24.543  1.00  0.00     0.021 C 
BRANCH  26  27
HETATM   27  C29 UNL     1     -16.347  47.137 -24.752  1.00  0.00     0.111 C 
BRANCH  27  28
HETATM   28  C30 UNL     1     -17.788  46.850 -24.433  1.00  0.00     0.139 C 
HETATM   29  O3  UNL     1     -18.774  47.429 -24.856  1.00  0.00    -0.650 OA
BRANCH  28  30
HETATM   30  O4  UNL     1     -17.913  45.836 -23.554  1.00  0.00    -0.776 OA
HETATM   31  H46 UNL     1     -18.882  45.757 -23.417  1.00  0.00     0.167 HD
ENDBRANCH  28  30
ENDBRANCH  27  28
ENDBRANCH  26  27
ENDBRANCH  16  26
BRANCH   1  32
HETATM   32  C2  UNL     1     -17.044  43.931 -26.537  1.00  0.00    -0.061 C 
HETATM   33  C1  UNL     1     -16.781  42.884 -25.732  1.00  0.00     0.017 C 
BRANCH  32  34
HETATM   34  C3  UNL     1     -18.406  44.149 -27.166  1.00  0.00     0.198 C 
BRANCH  34  35
HETATM   35  O1  UNL     1     -18.740  45.526 -27.261  1.00  0.00    -0.397 OA
HETATM   36  H5  UNL     1     -18.045  45.939 -27.803  1.00  0.00     0.209 HD
ENDBRANCH  34  35
ENDBRANCH  32  34
ENDBRANCH   1  32
TORSDOF 11
ENDMDL
MODEL 2
REMARK minimizedAffinity -8.30334091
REMARK CNNscore 0.295415789
REMARK CNNaffinity 6.40567636
REMARK  11 active torsions:
REMARK  status: ('A' for Active; 'I' for Inactive)
REMARK    1  A    between atoms: C2_2  and  C3_3 
REMARK    2  A    between atoms: C2_2  and  C4_5 
REMARK    3  A    between atoms: C3_3  and  O1_4 
REMARK    4  A    between atoms: C13_14  and  C14_15 
REMARK    5  A    between atoms: C14_15  and  C16_17 
REMARK    6  A    between atoms: C16_17  and  C17_18 
REMARK    7  A    between atoms: C17_18  and  C18_20 
REMARK    8  A    between atoms: C27_29  and  C28_30 
REMARK    9  A    between atoms: C28_30  and  C29_31 
REMARK   10  A    between atoms: C29_31  and  C30_32 
REMARK   11  A    between atoms: C30_32  and  O4_34 
ROOT
HETATM    1  C4  UNL     1      -5.712  47.752 -23.972  1.00  0.00     0.025 C 
HETATM    2  C5  UNL     1      -5.966  47.087 -22.608  1.00  0.00     0.010 C 
HETATM    3  C6  UNL     1      -4.663  46.947 -21.828  1.00  0.00     0.007 C 
HETATM    4  C7  UNL     1      -4.161  48.326 -21.384  1.00  0.00     0.004 C 
HETATM    5  C8  UNL     1      -4.000  49.295 -22.585  1.00  0.00    -0.027 A 
HETATM    6  C9  UNL     1      -2.653  50.027 -22.724  1.00  0.00     0.011 C 
HETATM    7  C10 UNL     1      -1.870  50.364 -21.440  1.00  0.00     0.011 C 
HETATM    8  C11 UNL     1      -2.449  49.744 -20.166  1.00  0.00    -0.032 C 
HETATM    9  C12 UNL     1      -3.596  50.674 -19.678  1.00  0.00     0.016 C 
HETATM   10  C13 UNL     1      -1.419  49.514 -19.015  1.00  0.00    -0.002 C 
HETATM   11  C22 UNL     1      -2.047  48.367 -18.185  1.00  0.00     0.006 C 
HETATM   12  C23 UNL     1      -3.133  47.720 -19.068  1.00  0.00     0.011 C 
HETATM   13  C24 UNL     1      -2.898  48.278 -20.487  1.00  0.00    -0.032 C 
HETATM   14  C25 UNL     1      -1.802  47.381 -21.142  1.00  0.00     0.016 C 
HETATM   15  C26 UNL     1      -5.237  50.117 -22.902  1.00  0.00     0.022 A 
HETATM   16  C27 UNL     1      -4.842  49.033 -23.877  1.00  0.00    -0.024 A 
ENDROOT
BRANCH  10  17
HETATM   17  C14 UNL     1      -0.911  50.750 -18.217  1.00  0.00    -0.007 C 
HETATM   18  C15 UNL     1      -1.756  50.915 -16.939  1.00  0.00     0.011 C 
BRANCH  17  19
HETATM   19  C16 UNL     1      -0.927  52.091 -18.980  1.00  0.00     0.087 C 
BRANCH  19  20
HETATM   20  C17 UNL     1       0.394  52.840 -18.866  1.00  0.00     0.149 C 
HETATM   21  O2  UNL     1       1.178  52.631 -17.944  1.00  0.00    -0.293 OA
BRANCH  20  22
HETATM   22  C18 UNL     1       0.697  53.823 -19.956  1.00  0.00     0.052 C 
HETATM   23  C19 UNL     1       1.090  53.518 -21.208  1.00  0.00    -0.084 C 
HETATM   24  C20 UNL     1       1.250  52.117 -21.736  1.00  0.00     0.043 C 
HETATM   25  C21 UNL     1       1.403  54.607 -22.199  1.00  0.00     0.043 C 
ENDBRANCH  20  22
ENDBRANCH  19  20
ENDBRANCH  17  19
ENDBRANCH  10  17
BRANCH  16  26
HETATM   26  C28 UNL     1      -4.330  49.524 -25.241  1.00  0.00     0.021 C 
BRANCH  26  27
HETATM   27  C29 UNL     1      -3.718  48.417 -26.098  1.00  0.00     0.111 C 
BRANCH  27  28
HETATM   28  C30 UNL     1      -3.847  48.726 -27.564  1.00  0.00     0.139 C 
HETATM   29  O3  UNL     1      -3.871  47.938 -28.492  1.00  0.00    -0.650 OA
BRANCH  28  30
HETATM   30  O4  UNL     1      -3.917  50.054 -27.791  1.00  0.00    -0.776 OA
HETATM   31  H46 UNL     1      -3.982  50.126 -28.767  1.00  0.00     0.167 HD
ENDBRANCH  28  30
ENDBRANCH  27  28
ENDBRANCH  26  27
ENDBRANCH  16  26
BRANCH   1  32
HETATM   32  C2  UNL     1      -7.031  47.855 -24.750  1.00  0.00    -0.061 C 
HETATM   33  C1  UNL     1      -7.210  47.336 -25.980  1.00  0.00     0.017 C 
BRANCH  32  34
HETATM   34  C3  UNL     1      -8.127  48.601 -24.015  1.00  0.00     0.198 C 
BRANCH  34  35
HETATM   35  O1  UNL     1      -8.417  49.857 -24.613  1.00  0.00    -0.397 OA
HETATM   36  H5  UNL     1      -8.689  49.667 -25.528  1.00  0.00     0.209 HD
ENDBRANCH  34  35
ENDBRANCH  32  34
ENDBRANCH   1  32
TORSDOF 11
ENDMDL
MODEL 3
REMARK minimizedAffinity -8.79999447
REMARK CNNscore 0.280816704
REMARK CNNaffinity 6.97042322
REMARK  11 active torsions:
REMARK  status: ('A' for Active; 'I' for Inactive)
REMARK    1  A    between atoms: C2_2  and  C3_3 
REMARK    2  A    between atoms: C2_2  and  C4_5 
REMARK    3  A    between atoms: C3_3  and  O1_4 
REMARK    4  A    between atoms: C13_14  and  C14_15 
REMARK    5  A    between atoms: C14_15  and  C16_17 
REMARK    6  A    between atoms: C16_17  and  C17_18 
REMARK    7  A    between atoms: C17_18  and  C18_20 
REMARK    8  A    between atoms: C27_29  and  C28_30 
REMARK    9  A    between atoms: C28_30  and  C29_31 
REMARK   10  A    between atoms: C29_31  and  C30_32 
REMARK   11  A    between atoms: C30_32  and  O4_34 
ROOT
HETATM    1  C4  UNL     1      -1.984  50.721 -18.619  1.00  0.00     0.025 C 
HETATM    2  C5  UNL     1      -3.460  50.352 -18.843  1.00  0.00     0.010 C 
HETATM    3  C6  UNL     1      -3.974  50.962 -20.143  1.00  0.00     0.007 C 
HETATM    4  C7  UNL     1      -3.321  50.272 -21.346  1.00  0.00     0.004 C 
HETATM    5  C8  UNL     1      -1.773  50.324 -21.271  1.00  0.00    -0.027 A 
HETATM    6  C9  UNL     1      -1.024  50.843 -22.512  1.00  0.00     0.011 C 
HETATM    7  C10 UNL     1      -1.652  50.598 -23.899  1.00  0.00     0.011 C 
HETATM    8  C11 UNL     1      -3.071  50.025 -23.857  1.00  0.00    -0.032 C 
HETATM    9  C12 UNL     1      -2.944  48.487 -23.673  1.00  0.00     0.016 C 
HETATM   10  C13 UNL     1      -3.950  50.344 -25.107  1.00  0.00    -0.002 C 
HETATM   11  C22 UNL     1      -5.399  50.251 -24.569  1.00  0.00     0.006 C 
HETATM   12  C23 UNL     1      -5.309  50.304 -23.031  1.00  0.00     0.011 C 
HETATM   13  C24 UNL     1      -3.866  50.749 -22.717  1.00  0.00    -0.032 C 
HETATM   14  C25 UNL     1      -3.854  52.307 -22.793  1.00  0.00     0.016 C 
HETATM   15  C26 UNL     1      -1.136  49.145 -20.558  1.00  0.00     0.022 A 
HETATM   16  C27 UNL     1      -1.096  50.488 -19.870  1.00  0.00    -0.024 A 
ENDROOT
BRANCH  10  17
HETATM   17  C14 UNL     1      -3.653  49.589 -26.435  1.00  0.00    -0.007 C 
HETATM   18  C15 UNL     1      -2.484  48.609 -26.215  1.00  0.00     0.011 C 
BRANCH  17  19
HETATM   19  C16 UNL     1      -3.311  50.480 -27.648  1.00  0.00     0.087 C 
BRANCH  19  20
HETATM   20  C17 UNL     1      -2.377  51.626 -27.282  1.00  0.00     0.149 C 
HETATM   21  O2  UNL     1      -2.802  52.688 -26.833  1.00  0.00    -0.293 OA
BRANCH  20  22
HETATM   22  C18 UNL     1      -0.912  51.375 -27.470  1.00  0.00     0.052 C 
HETATM   23  C19 UNL     1       0.089  52.047 -26.868  1.00  0.00    -0.084 C 
HETATM   24  C20 UNL     1      -0.107  53.147 -25.859  1.00  0.00     0.043 C 
HETATM   25  C21 UNL     1       1.526  51.720 -27.177  1.00  0.00     0.043 C 
ENDBRANCH  20  22
ENDBRANCH  19  20
ENDBRANCH  17  19
ENDBRANCH  10  17
BRANCH  16  26
HETATM   26  C28 UNL     1       0.294  51.134 -19.759  1.00  0.00     0.021 C 
BRANCH  26  27
HETATM   27  C29 UNL     1       0.486  52.334 -20.685  1.00  0.00     0.111 C 
BRANCH  27  28
HETATM   28  C30 UNL     1       1.234  53.442 -19.996  1.00  0.00     0.139 C 
HETATM   29  O3  UNL     1       1.622  54.492 -20.478  1.00  0.00    -0.650 OA
BRANCH  28  30
HETATM   30  O4  UNL     1       1.482  53.149 -18.703  1.00  0.00    -0.776 OA
HETATM   31  H46 UNL     1       1.980  53.928 -18.373  1.00  0.00     0.167 HD
ENDBRANCH  28  30
ENDBRANCH  27  28
ENDBRANCH  26  27
ENDBRANCH  16  26
BRANCH   1  32
HETATM   32  C2  UNL     1      -1.497  50.122 -17.292  1.00  0.00    -0.061 C 
HETATM   33  C1  UNL     1      -0.695  49.042 -17.214  1.00  0.00     0.017 C 
BRANCH  32  34
HETATM   34  C3  UNL     1      -2.001  50.850 -16.062  1.00  0.00     0.198 C 
BRANCH  34  35
HETATM   35  O1  UNL     1      -3.192  50.274 -15.546  1.00  0.00    -0.397 OA
HETATM   36  H5  UNL     1      -2.977  49.350 -15.330  1.00  0.00     0.209 HD
ENDBRANCH  34  35
ENDBRANCH  32  34
ENDBRANCH   1  32
TORSDOF 11
ENDMDL
MODEL 4
REMARK minimizedAffinity -8.30107117
REMARK CNNscore 0.263892889
REMARK CNNaffinity 6.34974146
REMARK  11 active torsions:
REMARK  status: ('A' for Active; 'I' for Inactive)
REMARK    1  A    between atoms: C2_2  and  C3_3 
REMARK    2  A    between atoms: C2_2  and  C4_5 
REMARK    3  A    between atoms: C3_3  and  O1_4 
REMARK    4  A    between atoms: C13_14  and  C14_15 
REMARK    5  A    between atoms: C14_15  and  C16_17 
REMARK    6  A    between atoms: C16_17  and  C17_18 
REMARK    7  A    between atoms: C17_18  and  C18_20 
REMARK    8  A    between atoms: C27_29  and  C28_30 
REMARK    9  A    between atoms: C28_30  and  C29_31 
REMARK   10  A    between atoms: C29_31  and  C30_32 
REMARK   11  A    between atoms: C30_32  and  O4_34 
ROOT
HETATM    1  C4  UNL     1      -3.486  50.168 -25.107  1.00  0.00     0.025 C 
HETATM    2  C5  UNL     1      -2.152  50.891 -24.850  1.00  0.00     0.010 C 
HETATM    3  C6  UNL     1      -2.096  51.419 -23.420  1.00  0.00     0.007 C 
HETATM    4  C7  UNL     1      -1.985  50.254 -22.429  1.00  0.00     0.004 C 
HETATM    5  C8  UNL     1      -3.139  49.232 -22.609  1.00  0.00    -0.027 A 
HETATM    6  C9  UNL     1      -3.930  48.834 -21.351  1.00  0.00     0.011 C 
HETATM    7  C10 UNL     1      -3.193  48.830 -19.996  1.00  0.00     0.011 C 
HETATM    8  C11 UNL     1      -1.782  49.423 -20.043  1.00  0.00    -0.032 C 
HETATM    9  C12 UNL     1      -0.825  48.301 -20.537  1.00  0.00     0.016 C 
HETATM   10  C13 UNL     1      -1.267  50.010 -18.692  1.00  0.00    -0.002 C 
HETATM   11  C22 UNL     1      -0.208  51.053 -19.127  1.00  0.00     0.006 C 
HETATM   12  C23 UNL     1      -0.439  51.326 -20.626  1.00  0.00     0.011 C 
HETATM   13  C24 UNL     1      -1.808  50.697 -20.954  1.00  0.00    -0.032 C 
HETATM   14  C25 UNL     1      -2.888  51.757 -20.574  1.00  0.00     0.016 C 
HETATM   15  C26 UNL     1      -2.840  48.110 -23.587  1.00  0.00     0.022 A 
HETATM   16  C27 UNL     1      -3.856  49.150 -23.997  1.00  0.00    -0.024 A 
ENDROOT
BRANCH  10  17
HETATM   17  C14 UNL     1      -0.846  49.022 -17.565  1.00  0.00    -0.007 C 
HETATM   18  C15 UNL     1      -2.024  48.824 -16.594  1.00  0.00     0.011 C 
BRANCH  17  19
HETATM   19  C16 UNL     1       0.392  49.438 -16.742  1.00  0.00     0.087 C 
BRANCH  19  20
HETATM   20  C17 UNL     1       0.268  50.847 -16.178  1.00  0.00     0.149 C 
HETATM   21  O2  UNL     1      -0.699  51.189 -15.500  1.00  0.00    -0.293 OA
BRANCH  20  22
HETATM   22  C18 UNL     1       1.402  51.781 -16.469  1.00  0.00     0.052 C 
HETATM   23  C19 UNL     1       2.528  51.908 -15.740  1.00  0.00    -0.084 C 
HETATM   24  C20 UNL     1       2.854  51.088 -14.520  1.00  0.00     0.043 C 
HETATM   25  C21 UNL     1       3.577  52.919 -16.120  1.00  0.00     0.043 C 
ENDBRANCH  20  22
ENDBRANCH  19  20
ENDBRANCH  17  19
ENDBRANCH  10  17
BRANCH  16  26
HETATM   26  C28 UNL     1      -5.309  48.657 -24.083  1.00  0.00     0.021 C 
BRANCH  26  27
HETATM   27  C29 UNL     1      -6.341  49.781 -24.005  1.00  0.00     0.111 C 
BRANCH  27  28
HETATM   28  C30 UNL     1      -7.737  49.234 -23.883  1.00  0.00     0.139 C 
HETATM   29  O3  UNL     1      -8.137  48.378 -23.114  1.00  0.00    -0.650 OA
BRANCH  28  30
HETATM   30  O4  UNL     1      -8.573  49.795 -24.781  1.00  0.00    -0.776 OA
HETATM   31  H46 UNL     1      -9.433  49.352 -24.615  1.00  0.00     0.167 HD
ENDBRANCH  28  30
ENDBRANCH  27  28
ENDBRANCH  26  27
ENDBRANCH  16  26
BRANCH   1  32
HETATM   32  C2  UNL     1      -3.532  49.672 -26.559  1.00  0.00    -0.061 C 
HETATM   33  C1  UNL     1      -3.932  48.434 -26.908  1.00  0.00     0.017 C 
BRANCH  32  34
HETATM   34  C3  UNL     1      -3.083  50.699 -27.580  1.00  0.00     0.198 C 
BRANCH  34  35
HETATM   35  O1  UNL     1      -3.512  50.374 -28.894  1.00  0.00    -0.397 OA
HETATM   36  H5  UNL     1      -4.483  50.330 -28.861  1.00  0.00     0.209 HD
ENDBRANCH  34  35
ENDBRANCH  32  34
ENDBRANCH   1  32
TORSDOF 11
ENDMDL
MODEL 5
REMARK minimizedAffinity -8.01058483
REMARK CNNscore 0.234532461
REMARK CNNaffinity 6.43382692
REMARK  11 active torsions:
REMARK  status: ('A' for Active; 'I' for Inactive)
REMARK    1  A    between atoms: C2_2  and  C3_3 
REMARK    2  A    between atoms: C2_2  and  C4_5 
REMARK    3  A    between atoms: C3_3  and  O1_4 
REMARK    4  A    between atoms: C13_14  and  C14_15 
REMARK    5  A    between atoms: C14_15  and  C16_17 
REMARK    6  A    between atoms: C16_17  and  C17_18 
REMARK    7  A    between atoms: C17_18  and  C18_20 
REMARK    8  A    between atoms: C27_29  and  C28_30 
REMARK    9  A    between atoms: C28_30  and  C29_31 
REMARK   10  A    between atoms: C29_31  and  C30_32 
REMARK   11  A    between atoms: C30_32  and  O4_34 
ROOT
HETATM    1  C4  UNL     1      -0.612  52.657 -23.521  1.00  0.00     0.025 C 
HETATM    2  C5  UNL     1       0.302  52.177 -22.381  1.00  0.00     0.010 C 
HETATM    3  C6  UNL     1      -0.527  51.701 -21.192  1.00  0.00     0.007 C 
HETATM    4  C7  UNL     1      -1.254  50.398 -21.543  1.00  0.00     0.004 C 
HETATM    5  C8  UNL     1      -2.127  50.548 -22.816  1.00  0.00    -0.027 A 
HETATM    6  C9  UNL     1      -3.595  50.097 -22.722  1.00  0.00     0.011 C 
HETATM    7  C10 UNL     1      -3.943  48.938 -21.766  1.00  0.00     0.011 C 
HETATM    8  C11 UNL     1      -2.788  48.497 -20.863  1.00  0.00    -0.032 C 
HETATM    9  C12 UNL     1      -1.905  47.517 -21.687  1.00  0.00     0.016 C 
HETATM   10  C13 UNL     1      -3.218  47.830 -19.519  1.00  0.00    -0.002 C 
HETATM   11  C22 UNL     1      -2.006  48.076 -18.585  1.00  0.00     0.006 C 
HETATM   12  C23 UNL     1      -1.153  49.180 -19.241  1.00  0.00     0.011 C 
HETATM   13  C24 UNL     1      -2.036  49.775 -20.357  1.00  0.00    -0.032 C 
HETATM   14  C25 UNL     1      -2.943  50.850 -19.683  1.00  0.00     0.016 C 
HETATM   15  C26 UNL     1      -1.413  50.213 -24.113  1.00  0.00     0.022 A 
HETATM   16  C27 UNL     1      -1.754  51.661 -23.852  1.00  0.00    -0.024 A 
ENDROOT
BRANCH  10  17
HETATM   17  C14 UNL     1      -3.780  46.379 -19.556  1.00  0.00    -0.007 C 
HETATM   18  C15 UNL     1      -3.904  45.918 -21.021  1.00  0.00     0.011 C 
BRANCH  17  19
HETATM   19  C16 UNL     1      -5.148  46.176 -18.871  1.00  0.00     0.087 C 
BRANCH  19  20
HETATM   20  C17 UNL     1      -6.294  46.783 -19.669  1.00  0.00     0.149 C 
HETATM   21  O2  UNL     1      -6.382  46.638 -20.886  1.00  0.00    -0.293 OA
BRANCH  20  22
HETATM   22  C18 UNL     1      -7.321  47.541 -18.885  1.00  0.00     0.052 C 
HETATM   23  C19 UNL     1      -7.614  48.849 -19.022  1.00  0.00    -0.084 C 
HETATM   24  C20 UNL     1      -6.976  49.766 -20.031  1.00  0.00     0.043 C 
HETATM   25  C21 UNL     1      -8.645  49.500 -18.138  1.00  0.00     0.043 C 
ENDBRANCH  20  22
ENDBRANCH  19  20
ENDBRANCH  17  19
ENDBRANCH  10  17
BRANCH  16  26
HETATM   26  C28 UNL     1      -2.840  52.258 -24.761  1.00  0.00     0.021 C 
BRANCH  26  27
HETATM   27  C29 UNL     1      -3.059  51.469 -26.051  1.00  0.00     0.111 C 
BRANCH  27  28
HETATM   28  C30 UNL     1      -2.426  52.159 -27.228  1.00  0.00     0.139 C 
HETATM   29  O3  UNL     1      -2.159  53.342 -27.343  1.00  0.00    -0.650 OA
BRANCH  28  30
HETATM   30  O4  UNL     1      -2.179  51.300 -28.237  1.00  0.00    -0.776 OA
HETATM   31  H46 UNL     1      -1.788  51.862 -28.940  1.00  0.00     0.167 HD
ENDBRANCH  28  30
ENDBRANCH  27  28
ENDBRANCH  26  27
ENDBRANCH  16  26
BRANCH   1  32
HETATM   32  C2  UNL     1       0.243  53.158 -24.693  1.00  0.00    -0.061 C 
HETATM   33  C1  UNL     1       0.888  52.339 -25.546  1.00  0.00     0.017 C 
BRANCH  32  34
HETATM   34  C3  UNL     1       0.306  54.669 -24.812  1.00  0.00     0.198 C 
BRANCH  34  35
HETATM   35  O1  UNL     1       1.387  55.221 -24.076  1.00  0.00    -0.397 OA
HETATM   36  H5  UNL     1       2.197  54.817 -24.435  1.00  0.00     0.209 HD
ENDBRANCH  34  35
ENDBRANCH  32  34
ENDBRANCH   1  32
TORSDOF 11
ENDMDL
MODEL 6
REMARK minimizedAffinity -9.28493118
REMARK CNNscore 0.230493322
REMARK CNNaffinity 6.52976179
REMARK  11 active torsions:
REMARK  status: ('A' for Active; 'I' for Inactive)
REMARK    1  A    between atoms: C2_2  and  C3_3 
REMARK    2  A    between atoms: C2_2  and  C4_5 
REMARK    3  A    between atoms: C3_3  and  O1_4 
REMARK    4  A    between atoms: C13_14  and  C14_15 
REMARK    5  A    between atoms: C14_15  and  C16_17 
REMARK    6  A    between atoms: C16_17  and  C17_18 
REMARK    7  A    between atoms: C17_18  and  C18_20 
REMARK    8  A    between atoms: C27_29  and  C28_30 
REMARK    9  A    between atoms: C28_30  and  C29_31 
REMARK   10  A    between atoms: C29_31  and  C30_32 
REMARK   11  A    between atoms: C30_32  and  O4_34 
ROOT
HETATM    1  C4  UNL     1      -2.234  50.146 -25.060  1.00  0.00     0.025 C 
HETATM    2  C5  UNL     1      -3.326  49.340 -24.337  1.00  0.00     0.010 C 
HETATM    3  C6  UNL     1      -2.747  48.619 -23.124  1.00  0.00     0.007 C 
HETATM    4  C7  UNL     1      -2.373  49.631 -22.036  1.00  0.00     0.004 C 
HETATM    5  C8  UNL     1      -1.399  50.716 -22.567  1.00  0.00    -0.027 A 
HETATM    6  C9  UNL     1      -0.118  50.971 -21.754  1.00  0.00     0.011 C 
HETATM    7  C10 UNL     1      -0.167  50.759 -20.227  1.00  0.00     0.011 C 
HETATM    8  C11 UNL     1      -1.463  50.119 -19.721  1.00  0.00    -0.032 C 
HETATM    9  C12 UNL     1      -2.512  51.256 -19.569  1.00  0.00     0.016 C 
HETATM   10  C13 UNL     1      -1.330  49.331 -18.380  1.00  0.00    -0.002 C 
HETATM   11  C22 UNL     1      -2.496  48.313 -18.437  1.00  0.00     0.006 C 
HETATM   12  C23 UNL     1      -2.970  48.258 -19.903  1.00  0.00     0.011 C 
HETATM   13  C24 UNL     1      -1.879  48.984 -20.717  1.00  0.00    -0.032 C 
HETATM   14  C25 UNL     1      -0.769  47.928 -21.014  1.00  0.00     0.016 C 
HETATM   15  C26 UNL     1      -2.078  51.948 -23.138  1.00  0.00     0.022 A 
HETATM   16  C27 UNL     1      -1.381  51.018 -24.102  1.00  0.00    -0.024 A 
ENDROOT
BRANCH  10  17
HETATM   17  C14 UNL     1      -1.177  50.136 -17.057  1.00  0.00    -0.007 C 
HETATM   18  C15 UNL     1      -2.573  50.484 -16.506  1.00  0.00     0.011 C 
BRANCH  17  19
HETATM   19  C16 UNL     1      -0.363  51.443 -17.162  1.00  0.00     0.087 C 
BRANCH  19  20
HETATM   20  C17 UNL     1       0.644  51.593 -16.029  1.00  0.00     0.149 C 
HETATM   21  O2  UNL     1       0.356  51.315 -14.868  1.00  0.00    -0.293 OA
BRANCH  20  22
HETATM   22  C18 UNL     1       2.011  52.069 -16.414  1.00  0.00     0.052 C 
HETATM   23  C19 UNL     1       3.128  51.951 -15.670  1.00  0.00    -0.084 C 
HETATM   24  C20 UNL     1       3.193  51.273 -14.327  1.00  0.00     0.043 C 
HETATM   25  C21 UNL     1       4.438  52.512 -16.158  1.00  0.00     0.043 C 
ENDBRANCH  20  22
ENDBRANCH  19  20
ENDBRANCH  17  19
ENDBRANCH  10  17
BRANCH  16  26
HETATM   26  C28 UNL     1      -0.109  51.579 -24.758  1.00  0.00     0.021 C 
BRANCH  26  27
HETATM   27  C29 UNL     1      -0.042  53.106 -24.754  1.00  0.00     0.111 C 
BRANCH  27  28
HETATM   28  C30 UNL     1       0.136  53.650 -26.145  1.00  0.00     0.139 C 
HETATM   29  O3  UNL     1       0.269  53.020 -27.179  1.00  0.00    -0.650 OA
BRANCH  28  30
HETATM   30  O4  UNL     1       0.162  54.998 -26.155  1.00  0.00    -0.776 OA
HETATM   31  H46 UNL     1       0.296  55.227 -27.099  1.00  0.00     0.167 HD
ENDBRANCH  28  30
ENDBRANCH  27  28
ENDBRANCH  26  27
ENDBRANCH  16  26
BRANCH   1  32
HETATM   32  C2  UNL     1      -2.833  50.838 -26.292  1.00  0.00    -0.061 C 
HETATM   33  C1  UNL     1      -3.201  52.134 -26.312  1.00  0.00     0.017 C 
BRANCH  32  34
HETATM   34  C3  UNL     1      -2.982  49.933 -27.499  1.00  0.00     0.198 C 
BRANCH  34  35
HETATM   35  O1  UNL     1      -3.365  50.649 -28.664  1.00  0.00    -0.397 OA
HETATM   36  H5  UNL     1      -2.669  51.311 -28.820  1.00  0.00     0.209 HD
ENDBRANCH  34  35
ENDBRANCH  32  34
ENDBRANCH   1  32
TORSDOF 11
ENDMDL
MODEL 7
REMARK minimizedAffinity -7.05843401
REMARK CNNscore 0.22082974
REMARK CNNaffinity 5.84931564
REMARK  11 active torsions:
REMARK  status: ('A' for Active; 'I' for Inactive)
REMARK    1  A    between atoms: C2_2  and  C3_3 
REMARK    2  A    between atoms: C2_2  and  C4_5 
REMARK    3  A    between atoms: C3_3  and  O1_4 
REMARK    4  A    between atoms: C13_14  and  C14_15 
REMARK    5  A    between atoms: C14_15  and  C16_17 
REMARK    6  A    between atoms: C16_17  and  C17_18 
REMARK    7  A    between atoms: C17_18  and  C18_20 
REMARK    8  A    between atoms: C27_29  and  C28_30 
REMARK    9  A    between atoms: C28_30  and  C29_31 
REMARK   10  A    between atoms: C29_31  and  C30_32 
REMARK   11  A    between atoms: C30_32  and  O4_34 
ROOT
HETATM    1  C4  UNL     1      -4.349  49.147 -25.257  1.00  0.00     0.025 C 
HETATM    2  C5  UNL     1      -2.845  48.880 -25.082  1.00  0.00     0.010 C 
HETATM    3  C6  UNL     1      -2.297  49.652 -23.886  1.00  0.00     0.007 C 
HETATM    4  C7  UNL     1      -2.845  49.063 -22.581  1.00  0.00     0.004 C 
HETATM    5  C8  UNL     1      -4.396  49.028 -22.570  1.00  0.00    -0.027 A 
HETATM    6  C9  UNL     1      -5.106  49.639 -21.349  1.00  0.00     0.011 C 
HETATM    7  C10 UNL     1      -4.392  49.578 -19.983  1.00  0.00     0.011 C 
HETATM    8  C11 UNL     1      -2.947  49.076 -20.048  1.00  0.00    -0.032 C 
HETATM    9  C12 UNL     1      -2.996  47.522 -20.062  1.00  0.00     0.016 C 
HETATM   10  C13 UNL     1      -2.023  49.573 -18.892  1.00  0.00    -0.002 C 
HETATM   11  C22 UNL     1      -0.601  49.496 -19.502  1.00  0.00     0.006 C 
HETATM   12  C23 UNL     1      -0.776  49.378 -21.029  1.00  0.00     0.011 C 
HETATM   13  C24 UNL     1      -2.256  49.713 -21.302  1.00  0.00    -0.032 C 
HETATM   14  C25 UNL     1      -2.353  51.267 -21.390  1.00  0.00     0.016 C 
HETATM   15  C26 UNL     1      -5.001  47.748 -23.116  1.00  0.00     0.022 A 
HETATM   16  C27 UNL     1      -5.154  49.006 -23.938  1.00  0.00    -0.024 A 
ENDROOT
BRANCH  10  17
HETATM   17  C14 UNL     1      -2.205  48.951 -17.477  1.00  0.00    -0.007 C 
HETATM   18  C15 UNL     1      -3.708  48.812 -17.170  1.00  0.00     0.011 C 
BRANCH  17  19
HETATM   19  C16 UNL     1      -1.547  49.727 -16.317  1.00  0.00     0.087 C 
BRANCH  19  20
HETATM   20  C17 UNL     1      -2.572  50.414 -15.423  1.00  0.00     0.149 C 
HETATM   21  O2  UNL     1      -3.154  51.437 -15.775  1.00  0.00    -0.293 OA
BRANCH  20  22
HETATM   22  C18 UNL     1      -2.852  49.756 -14.107  1.00  0.00     0.052 C 
HETATM   23  C19 UNL     1      -2.878  50.368 -12.906  1.00  0.00    -0.084 C 
HETATM   24  C20 UNL     1      -2.669  51.844 -12.695  1.00  0.00     0.043 C 
HETATM   25  C21 UNL     1      -3.133  49.579 -11.649  1.00  0.00     0.043 C 
ENDBRANCH  20  22
ENDBRANCH  19  20
ENDBRANCH  17  19
ENDBRANCH  10  17
BRANCH  16  26
HETATM   26  C28 UNL     1      -6.583  49.564 -24.034  1.00  0.00     0.021 C 
BRANCH  26  27
HETATM   27  C29 UNL     1      -7.655  48.582 -23.564  1.00  0.00     0.111 C 
BRANCH  27  28
HETATM   28  C30 UNL     1      -8.817  48.542 -24.519  1.00  0.00     0.139 C 
HETATM   29  O3  UNL     1      -9.564  47.606 -24.744  1.00  0.00    -0.650 OA
BRANCH  28  30
HETATM   30  O4  UNL     1      -8.963  49.710 -25.176  1.00  0.00    -0.776 OA
HETATM   31  H46 UNL     1      -9.729  49.556 -25.769  1.00  0.00     0.167 HD
ENDBRANCH  28  30
ENDBRANCH  27  28
ENDBRANCH  26  27
ENDBRANCH  16  26
BRANCH   1  32
HETATM   32  C2  UNL     1      -4.871  48.384 -26.482  1.00  0.00    -0.061 C 
HETATM   33  C1  UNL     1      -6.054  47.741 -26.509  1.00  0.00     0.017 C 
BRANCH  32  34
HETATM   34  C3  UNL     1      -3.933  48.409 -27.673  1.00  0.00     0.198 C 
BRANCH  34  35
HETATM   35  O1  UNL     1      -4.433  49.210 -28.734  1.00  0.00    -0.397 OA
HETATM   36  H5  UNL     1      -4.545  50.106 -28.371  1.00  0.00     0.209 HD
ENDBRANCH  34  35
ENDBRANCH  32  34
ENDBRANCH   1  32
TORSDOF 11
ENDMDL
MODEL 8
REMARK minimizedAffinity -7.95257854
REMARK CNNscore 0.211797982
REMARK CNNaffinity 6.1108079
REMARK  11 active torsions:
REMARK  status: ('A' for Active; 'I' for Inactive)
REMARK    1  A    between atoms: C2_2  and  C3_3 
REMARK    2  A    between atoms: C2_2  and  C4_5 
REMARK    3  A    between atoms: C3_3  and  O1_4 
REMARK    4  A    between atoms: C13_14  and  C14_15 
REMARK    5  A    between atoms: C14_15  and  C16_17 
REMARK    6  A    between atoms: C16_17  and  C17_18 
REMARK    7  A    between atoms: C17_18  and  C18_20 
REMARK    8  A    between atoms: C27_29  and  C28_30 
REMARK    9  A    between atoms: C28_30  and  C29_31 
REMARK   10  A    between atoms: C29_31  and  C30_32 
REMARK   11  A    between atoms: C30_32  and  O4_34 
ROOT
HETATM    1  C4  UNL     1      -0.308  52.722 -23.280  1.00  0.00     0.025 C 
HETATM    2  C5  UNL     1       0.742  52.188 -22.291  1.00  0.00     0.010 C 
HETATM    3  C6  UNL     1       0.127  51.995 -20.908  1.00  0.00     0.007 C 
HETATM    4  C7  UNL     1      -0.865  50.826 -20.929  1.00  0.00     0.004 C 
HETATM    5  C8  UNL     1      -1.959  51.017 -22.013  1.00  0.00    -0.027 A 
HETATM    6  C9  UNL     1      -3.424  50.864 -21.569  1.00  0.00     0.011 C 
HETATM    7  C10 UNL     1      -3.740  49.889 -20.416  1.00  0.00     0.011 C 
HETATM    8  C11 UNL     1      -2.504  49.325 -19.710  1.00  0.00    -0.032 C 
HETATM    9  C12 UNL     1      -1.999  48.121 -20.554  1.00  0.00     0.016 C 
HETATM   10  C13 UNL     1      -2.733  48.883 -18.230  1.00  0.00    -0.002 C 
HETATM   11  C22 UNL     1      -1.322  48.984 -17.597  1.00  0.00     0.006 C 
HETATM   12  C23 UNL     1      -0.464  49.837 -18.552  1.00  0.00     0.011 C 
HETATM   13  C24 UNL     1      -1.459  50.479 -19.540  1.00  0.00    -0.032 C 
HETATM   14  C25 UNL     1      -2.005  51.766 -18.848  1.00  0.00     0.016 C 
HETATM   15  C26 UNL     1      -1.612  50.429 -23.369  1.00  0.00     0.022 A 
HETATM   16  C27 UNL     1      -1.644  51.934 -23.241  1.00  0.00    -0.024 A 
ENDROOT
BRANCH  10  17
HETATM   17  C14 UNL     1      -3.522  47.570 -17.961  1.00  0.00    -0.007 C 
HETATM   18  C15 UNL     1      -3.525  47.277 -16.448  1.00  0.00     0.011 C 
BRANCH  17  19
HETATM   19  C16 UNL     1      -2.999  46.315 -18.692  1.00  0.00     0.087 C 
BRANCH  19  20
HETATM   20  C17 UNL     1      -4.125  45.472 -19.276  1.00  0.00     0.149 C 
HETATM   21  O2  UNL     1      -4.643  44.556 -18.641  1.00  0.00    -0.293 OA
BRANCH  20  22
HETATM   22  C18 UNL     1      -4.586  45.840 -20.653  1.00  0.00     0.052 C 
HETATM   23  C19 UNL     1      -5.618  46.655 -20.950  1.00  0.00    -0.084 C 
HETATM   24  C20 UNL     1      -6.460  47.373 -19.929  1.00  0.00     0.043 C 
HETATM   25  C21 UNL     1      -6.004  46.912 -22.382  1.00  0.00     0.043 C 
ENDBRANCH  20  22
ENDBRANCH  19  20
ENDBRANCH  17  19
ENDBRANCH  10  17
BRANCH  16  26
HETATM   26  C28 UNL     1      -2.789  52.637 -23.987  1.00  0.00     0.021 C 
BRANCH  26  27
HETATM   27  C29 UNL     1      -3.446  51.767 -25.058  1.00  0.00     0.111 C 
BRANCH  27  28
HETATM   28  C30 UNL     1      -2.919  52.094 -26.428  1.00  0.00     0.139 C 
HETATM   29  O3  UNL     1      -2.437  53.145 -26.809  1.00  0.00    -0.650 OA
BRANCH  28  30
HETATM   30  O4  UNL     1      -3.056  51.055 -27.277  1.00  0.00    -0.776 OA
HETATM   31  H46 UNL     1      -2.698  51.392 -28.126  1.00  0.00     0.167 HD
ENDBRANCH  28  30
ENDBRANCH  27  28
ENDBRANCH  26  27
ENDBRANCH  16  26
BRANCH   1  32
HETATM   32  C2  UNL     1       0.339  52.937 -24.655  1.00  0.00    -0.061 C 
HETATM   33  C1  UNL     1       0.842  51.937 -25.404  1.00  0.00     0.017 C 
BRANCH  32  34
HETATM   34  C3  UNL     1       0.371  54.385 -25.104  1.00  0.00     0.198 C 
BRANCH  34  35
HETATM   35  O1  UNL     1       0.145  54.519 -26.500  1.00  0.00    -0.397 OA
HETATM   36  H5  UNL     1      -0.729  54.129 -26.674  1.00  0.00     0.209 HD
ENDBRANCH  34  35
ENDBRANCH  32  34
ENDBRANCH   1  32
TORSDOF 11
ENDMDL
MODEL 9
REMARK minimizedAffinity -8.1242609
REMARK CNNscore 0.208286688
REMARK CNNaffinity 5.99851751
REMARK  11 active torsions:
REMARK  status: ('A' for Active; 'I' for Inactive)
REMARK    1  A    between atoms: C2_2  and  C3_3 
REMARK    2  A    between atoms: C2_2  and  C4_5 
REMARK    3  A    between atoms: C3_3  and  O1_4 
REMARK    4  A    between atoms: C13_14  and  C14_15 
REMARK    5  A    between atoms: C14_15  and  C16_17 
REMARK    6  A    between atoms: C16_17  and  C17_18 
REMARK    7  A    between atoms: C17_18  and  C18_20 
REMARK    8  A    between atoms: C27_29  and  C28_30 
REMARK    9  A    between atoms: C28_30  and  C29_31 
REMARK   10  A    between atoms: C29_31  and  C30_32 
REMARK   11  A    between atoms: C30_32  and  O4_34 
ROOT
HETATM    1  C4  UNL     1      -5.171  48.732 -23.549  1.00  0.00     0.025 C 
HETATM    2  C5  UNL     1      -5.029  47.703 -22.415  1.00  0.00     0.010 C 
HETATM    3  C6  UNL     1      -3.624  47.746 -21.824  1.00  0.00     0.007 C 
HETATM    4  C7  UNL     1      -3.415  49.053 -21.050  1.00  0.00     0.004 C 
HETATM    5  C8  UNL     1      -3.695  50.298 -21.934  1.00  0.00    -0.027 A 
HETATM    6  C9  UNL     1      -2.613  51.391 -21.975  1.00  0.00     0.011 C 
HETATM    7  C10 UNL     1      -1.741  51.602 -20.721  1.00  0.00     0.011 C 
HETATM    8  C11 UNL     1      -1.935  50.544 -19.632  1.00  0.00    -0.032 C 
HETATM    9  C12 UNL     1      -3.182  50.958 -18.801  1.00  0.00     0.016 C 
HETATM   10  C13 UNL     1      -0.708  50.334 -18.688  1.00  0.00    -0.002 C 
HETATM   11  C22 UNL     1      -0.890  48.886 -18.169  1.00  0.00     0.006 C 
HETATM   12  C23 UNL     1      -1.909  48.202 -19.102  1.00  0.00     0.011 C 
HETATM   13  C24 UNL     1      -2.052  49.140 -20.317  1.00  0.00    -0.032 C 
HETATM   14  C25 UNL     1      -0.888  48.785 -21.294  1.00  0.00     0.016 C 
HETATM   15  C26 UNL     1      -5.132  50.788 -21.895  1.00  0.00     0.022 A 
HETATM   16  C27 UNL     1      -4.643  50.141 -23.169  1.00  0.00    -0.024 A 
ENDROOT
BRANCH  10  17
HETATM   17  C14 UNL     1      -0.401  51.421 -17.618  1.00  0.00    -0.007 C 
HETATM   18  C15 UNL     1       0.564  52.465 -18.213  1.00  0.00     0.011 C 
BRANCH  17  19
HETATM   19  C16 UNL     1       0.206  50.904 -16.297  1.00  0.00     0.087 C 
BRANCH  19  20
HETATM   20  C17 UNL     1       0.932  51.998 -15.524  1.00  0.00     0.149 C 
HETATM   21  O2  UNL     1       0.447  52.510 -14.519  1.00  0.00    -0.293 OA
BRANCH  20  22
HETATM   22  C18 UNL     1       2.283  52.390 -16.041  1.00  0.00     0.052 C 
HETATM   23  C19 UNL     1       3.468  51.960 -15.563  1.00  0.00    -0.084 C 
HETATM   24  C20 UNL     1       3.628  50.967 -14.443  1.00  0.00     0.043 C 
HETATM   25  C21 UNL     1       4.759  52.466 -16.149  1.00  0.00     0.043 C 
ENDBRANCH  20  22
ENDBRANCH  19  20
ENDBRANCH  17  19
ENDBRANCH  10  17
BRANCH  16  26
HETATM   26  C28 UNL     1      -4.496  51.082 -24.374  1.00  0.00     0.021 C 
BRANCH  26  27
HETATM   27  C29 UNL     1      -3.171  50.920 -25.118  1.00  0.00     0.111 C 
BRANCH  27  28
HETATM   28  C30 UNL     1      -2.730  52.217 -25.740  1.00  0.00     0.139 C 
HETATM   29  O3  UNL     1      -2.993  52.636 -26.853  1.00  0.00    -0.650 OA
BRANCH  28  30
HETATM   30  O4  UNL     1      -1.938  52.925 -24.909  1.00  0.00    -0.776 OA
HETATM   31  H46 UNL     1      -1.708  53.727 -25.425  1.00  0.00     0.167 HD
ENDBRANCH  28  30
ENDBRANCH  27  28
ENDBRANCH  26  27
ENDBRANCH  16  26
BRANCH   1  32
HETATM   32  C2  UNL     1      -6.582  48.650 -24.148  1.00  0.00    -0.061 C 
HETATM   33  C1  UNL     1      -7.653  49.269 -23.614  1.00  0.00     0.017 C 
BRANCH  32  34
HETATM   34  C3  UNL     1      -6.675  47.802 -25.401  1.00  0.00     0.198 C 
BRANCH  34  35
HETATM   35  O1  UNL     1      -7.573  48.349 -26.355  1.00  0.00    -0.397 OA
HETATM   36  H5  UNL     1      -7.237  49.237 -26.569  1.00  0.00     0.209 HD
ENDBRANCH  34  35
ENDBRANCH  32  34
ENDBRANCH   1  32
TORSDOF 11
ENDMDL
