MODEL 1
REMARK minimizedAffinity -8.11779404
REMARK  7 active torsions:
REMARK  status: ('A' for Active; 'I' for Inactive)
REMARK    1  A    between atoms: C2_2  and  C3_3 
REMARK    2  A    between atoms: C3_3  and  N1_4 
REMARK       I    between atoms: N1_4  and  C4_5 
REMARK       I    between atoms: C4_5  and  N2_7 
REMARK    3  A    between atoms: N2_7  and  C5_8 
REMARK    4  A    between atoms: C8_11  and  O2_12 
REMARK    5  A    between atoms: O2_12  and  C9_13 
REMARK    6  A    between atoms: C13_21  and  O3_22 
REMARK    7  A    between atoms: C15_24  and  O4_25 
ROOT
HETATM    1  O2  UNL     1      -4.474   4.812  13.075  1.00  0.00    -0.293 OA
ENDROOT
BRANCH   1   2
HETATM    2  C8  UNL     1      -5.715   5.204  13.511  1.00  0.00     0.079 A 
HETATM    3  C7  UNL     1      -6.814   4.902  12.710  1.00  0.00     0.039 A 
HETATM    4  C6  UNL     1      -8.104   5.236  13.134  1.00  0.00     0.034 A 
HETATM    5  C5  UNL     1      -8.306   5.864  14.367  1.00  0.00     0.058 A 
HETATM    6  C20 UNL     1      -7.183   6.135  15.175  1.00  0.00     0.063 A 
HETATM    7  C19 UNL     1      -5.894   5.801  14.757  1.00  0.00     0.063 A 
HETATM    8 CL1  UNL     1      -7.364   6.889  16.726  1.00  0.00    -0.082 Cl
BRANCH   5   9
HETATM    9  N2  UNL     1      -9.586   6.220  14.852  1.00  0.00    -0.307 N 
HETATM   10  C4  UNL     1     -10.593   6.882  14.188  1.00  0.00     0.320 C 
HETATM   11  N1  UNL     1     -11.716   6.981  14.989  1.00  0.00    -0.343 N 
HETATM   12  O1  UNL     1     -10.544   7.343  13.056  1.00  0.00    -0.247 OA
HETATM   13  H8  UNL     1     -11.845   6.217  15.635  1.00  0.00     0.164 HD
HETATM   14  H9  UNL     1      -9.719   6.102  15.847  1.00  0.00     0.170 HD
BRANCH  11  15
HETATM   15  C3  UNL     1     -12.926   7.603  14.485  1.00  0.00     0.124 C 
BRANCH  15  16
HETATM   16  C2  UNL     1     -13.913   6.576  13.938  1.00  0.00     0.015 C 
HETATM   17  C1  UNL     1     -14.632   7.098  12.706  1.00  0.00     0.006 C 
ENDBRANCH  15  16
ENDBRANCH  11  15
ENDBRANCH   5   9
ENDBRANCH   1   2
BRANCH   1  18
HETATM   18  C9  UNL     1      -3.503   5.805  12.932  1.00  0.00     0.161 A 
HETATM   19  N3  UNL     1      -3.831   7.082  13.210  1.00  0.00    -0.332 N 
HETATM   20  C10 UNL     1      -2.859   7.973  13.024  1.00  0.00     0.182 A 
ATOM     21  H3  UNL     1      -4.759   7.347  13.540  1.00  0.00     0.168 HD
HETATM   22  N4  UNL     1      -1.617   7.709  12.594  1.00  0.00    -0.351 N 
HETATM   23  C11 UNL     1      -1.323   6.432  12.317  1.00  0.00     0.050 A 
ATOM     24  H4  UNL     1      -0.925   8.450  12.483  1.00  0.00     0.166 HD
HETATM   25  C12 UNL     1      -0.047   6.119  11.863  1.00  0.00     0.070 A 
HETATM   26  C18 UNL     1      -2.250   5.398  12.466  1.00  0.00     0.045 A 
HETATM   27  C13 UNL     1       0.329   4.806  11.553  1.00  0.00     0.103 A 
HETATM   28  C15 UNL     1      -0.603   3.765  11.701  1.00  0.00     0.102 A 
HETATM   29  C17 UNL     1      -1.887   4.064  12.156  1.00  0.00     0.057 A 
BRANCH  27  30
HETATM   30  O3  UNL     1       1.573   4.442  11.103  1.00  0.00    -0.353 OA
HETATM   31  C14 UNL     1       2.328   5.410  10.387  1.00  0.00     0.210 C 
ENDBRANCH  27  30
BRANCH  28  32
HETATM   32  O4  UNL     1      -0.165   2.506  11.379  1.00  0.00    -0.353 OA
HETATM   33  C16 UNL     1      -1.134   1.546  10.983  1.00  0.00     0.210 C 
ENDBRANCH  28  32
ENDBRANCH   1  18
TORSDOF 7
ENDMDL
MODEL 2
REMARK minimizedAffinity -8.1055851
REMARK  7 active torsions:
REMARK  status: ('A' for Active; 'I' for Inactive)
REMARK    1  A    between atoms: C2_2  and  C3_3 
REMARK    2  A    between atoms: C3_3  and  N1_4 
REMARK       I    between atoms: N1_4  and  C4_5 
REMARK       I    between atoms: C4_5  and  N2_7 
REMARK    3  A    between atoms: N2_7  and  C5_8 
REMARK    4  A    between atoms: C8_11  and  O2_12 
REMARK    5  A    between atoms: O2_12  and  C9_13 
REMARK    6  A    between atoms: C13_21  and  O3_22 
REMARK    7  A    between atoms: C15_24  and  O4_25 
ROOT
HETATM    1  O2  UNL     1      -3.090   6.349  15.453  1.00  0.00    -0.293 OA
ENDROOT
BRANCH   1   2
HETATM    2  C8  UNL     1      -2.047   6.549  14.583  1.00  0.00     0.079 A 
HETATM    3  C7  UNL     1      -0.963   5.677  14.651  1.00  0.00     0.039 A 
HETATM    4  C6  UNL     1       0.101   5.809  13.754  1.00  0.00     0.034 A 
HETATM    5  C5  UNL     1       0.084   6.806  12.773  1.00  0.00     0.058 A 
HETATM    6  C20 UNL     1      -1.036   7.659  12.702  1.00  0.00     0.063 A 
HETATM    7  C19 UNL     1      -2.102   7.530  13.594  1.00  0.00     0.063 A 
HETATM    8 CL1  UNL     1      -1.134   8.899  11.495  1.00  0.00    -0.082 Cl
BRANCH   5   9
HETATM    9  N2  UNL     1       1.126   6.984  11.834  1.00  0.00    -0.307 N 
HETATM   10  C4  UNL     1       1.457   6.179  10.768  1.00  0.00     0.320 C 
HETATM   11  N1  UNL     1       2.500   6.734  10.050  1.00  0.00    -0.343 N 
HETATM   12  O1  UNL     1       0.939   5.112  10.468  1.00  0.00    -0.247 OA
HETATM   13  H8  UNL     1       2.527   7.742  10.051  1.00  0.00     0.164 HD
HETATM   14  H9  UNL     1       1.792   7.710  12.061  1.00  0.00     0.170 HD
BRANCH  11  15
HETATM   15  C3  UNL     1       2.995   6.083   8.851  1.00  0.00     0.124 C 
BRANCH  15  16
HETATM   16  C2  UNL     1       2.416   6.703   7.582  1.00  0.00     0.015 C 
HETATM   17  C1  UNL     1       2.424   8.221   7.653  1.00  0.00     0.006 C 
ENDBRANCH  15  16
ENDBRANCH  11  15
ENDBRANCH   5   9
ENDBRANCH   1   2
BRANCH   1  18
HETATM   18  C9  UNL     1      -4.375   6.292  14.908  1.00  0.00     0.161 A 
HETATM   19  N3  UNL     1      -5.312   7.148  15.361  1.00  0.00    -0.332 N 
HETATM   20  C10 UNL     1      -6.519   7.013  14.811  1.00  0.00     0.182 A 
ATOM     21  H3  UNL     1      -5.112   7.849  16.073  1.00  0.00     0.168 HD
HETATM   22  N4  UNL     1      -6.863   6.120  13.872  1.00  0.00    -0.351 N 
HETATM   23  C11 UNL     1      -5.912   5.277  13.450  1.00  0.00     0.050 A 
ATOM     24  H4  UNL     1      -7.810   6.084  13.496  1.00  0.00     0.166 HD
HETATM   25  C12 UNL     1      -6.234   4.332  12.482  1.00  0.00     0.070 A 
HETATM   26  C18 UNL     1      -4.607   5.308  13.944  1.00  0.00     0.045 A 
HETATM   27  C13 UNL     1      -5.290   3.419  11.995  1.00  0.00     0.103 A 
HETATM   28  C15 UNL     1      -3.976   3.448  12.492  1.00  0.00     0.102 A 
HETATM   29  C17 UNL     1      -3.640   4.390  13.463  1.00  0.00     0.057 A 
BRANCH  27  30
HETATM   30  O3  UNL     1      -5.552   2.467  11.041  1.00  0.00    -0.353 OA
HETATM   31  C14 UNL     1      -6.228   1.287  11.452  1.00  0.00     0.210 C 
ENDBRANCH  27  30
BRANCH  28  32
HETATM   32  O4  UNL     1      -3.108   2.524  11.970  1.00  0.00    -0.353 OA
HETATM   33  C16 UNL     1      -2.011   3.002  11.205  1.00  0.00     0.210 C 
ENDBRANCH  28  32
ENDBRANCH   1  18
TORSDOF 7
ENDMDL
MODEL 3
REMARK minimizedAffinity -7.91679144
REMARK  7 active torsions:
REMARK  status: ('A' for Active; 'I' for Inactive)
REMARK    1  A    between atoms: C2_2  and  C3_3 
REMARK    2  A    between atoms: C3_3  and  N1_4 
REMARK       I    between atoms: N1_4  and  C4_5 
REMARK       I    between atoms: C4_5  and  N2_7 
REMARK    3  A    between atoms: N2_7  and  C5_8 
REMARK    4  A    between atoms: C8_11  and  O2_12 
REMARK    5  A    between atoms: O2_12  and  C9_13 
REMARK    6  A    between atoms: C13_21  and  O3_22 
REMARK    7  A    between atoms: C15_24  and  O4_25 
ROOT
HETATM    1  O2  UNL     1      -3.760   4.929  14.009  1.00  0.00    -0.293 OA
ENDROOT
BRANCH   1   2
HETATM    2  C8  UNL     1      -2.719   5.514  13.331  1.00  0.00     0.079 A 
HETATM    3  C7  UNL     1      -1.716   4.685  12.833  1.00  0.00     0.039 A 
HETATM    4  C6  UNL     1      -0.661   5.227  12.094  1.00  0.00     0.034 A 
HETATM    5  C5  UNL     1      -0.606   6.600  11.835  1.00  0.00     0.058 A 
HETATM    6  C20 UNL     1      -1.646   7.417  12.323  1.00  0.00     0.063 A 
HETATM    7  C19 UNL     1      -2.703   6.880  13.060  1.00  0.00     0.063 A 
HETATM    8 CL1  UNL     1      -1.653   9.124  12.018  1.00  0.00    -0.082 Cl
BRANCH   5   9
HETATM    9  N2  UNL     1       0.431   7.205  11.089  1.00  0.00    -0.307 N 
HETATM   10  C4  UNL     1       1.339   6.601  10.250  1.00  0.00     0.320 C 
HETATM   11  N1  UNL     1       2.152   7.548   9.655  1.00  0.00    -0.343 N 
HETATM   12  O1  UNL     1       1.455   5.401  10.038  1.00  0.00    -0.247 OA
HETATM   13  H8  UNL     1       1.714   8.442   9.495  1.00  0.00     0.164 HD
HETATM   14  H9  UNL     1       0.616   8.174  11.312  1.00  0.00     0.170 HD
BRANCH  11  15
HETATM   15  C3  UNL     1       3.162   7.150   8.691  1.00  0.00     0.124 C 
BRANCH  15  16
HETATM   16  C2  UNL     1       2.563   6.372   7.523  1.00  0.00     0.015 C 
HETATM   17  C1  UNL     1       1.783   7.285   6.590  1.00  0.00     0.006 C 
ENDBRANCH  15  16
ENDBRANCH  11  15
ENDBRANCH   5   9
ENDBRANCH   1   2
BRANCH   1  18
HETATM   18  C9  UNL     1      -4.803   4.401  13.245  1.00  0.00     0.161 A 
HETATM   19  N3  UNL     1      -4.537   3.406  12.377  1.00  0.00    -0.332 N 
HETATM   20  C10 UNL     1      -5.579   2.976  11.666  1.00  0.00     0.182 A 
ATOM     21  H3  UNL     1      -3.603   3.010  12.271  1.00  0.00     0.168 HD
HETATM   22  N4  UNL     1      -6.833   3.442  11.744  1.00  0.00    -0.351 N 
HETATM   23  C11 UNL     1      -7.066   4.438  12.609  1.00  0.00     0.050 A 
ATOM     24  H4  UNL     1      -7.580   3.053  11.168  1.00  0.00     0.166 HD
HETATM   25  C12 UNL     1      -8.353   4.951  12.712  1.00  0.00     0.070 A 
HETATM   26  C18 UNL     1      -6.063   4.983  13.413  1.00  0.00     0.045 A 
HETATM   27  C13 UNL     1      -8.667   5.993  13.594  1.00  0.00     0.103 A 
HETATM   28  C15 UNL     1      -7.659   6.544  14.403  1.00  0.00     0.102 A 
HETATM   29  C17 UNL     1      -6.363   6.038  14.310  1.00  0.00     0.057 A 
BRANCH  27  30
HETATM   30  O3  UNL     1      -9.919   6.537  13.738  1.00  0.00    -0.353 OA
HETATM   31  C14 UNL     1     -10.565   7.028  12.571  1.00  0.00     0.210 C 
ENDBRANCH  27  30
BRANCH  28  32
HETATM   32  O4  UNL     1      -8.040   7.560  15.241  1.00  0.00    -0.353 OA
HETATM   33  C16 UNL     1      -7.294   8.768  15.203  1.00  0.00     0.210 C 
ENDBRANCH  28  32
ENDBRANCH   1  18
TORSDOF 7
ENDMDL
MODEL 4
REMARK minimizedAffinity -7.88190699
REMARK  7 active torsions:
REMARK  status: ('A' for Active; 'I' for Inactive)
REMARK    1  A    between atoms: C2_2  and  C3_3 
REMARK    2  A    between atoms: C3_3  and  N1_4 
REMARK       I    between atoms: N1_4  and  C4_5 
REMARK       I    between atoms: C4_5  and  N2_7 
REMARK    3  A    between atoms: N2_7  and  C5_8 
REMARK    4  A    between atoms: C8_11  and  O2_12 
REMARK    5  A    between atoms: O2_12  and  C9_13 
REMARK    6  A    between atoms: C13_21  and  O3_22 
REMARK    7  A    between atoms: C15_24  and  O4_25 
ROOT
HETATM    1  O2  UNL     1      -3.873   3.801  10.706  1.00  0.00    -0.293 OA
ENDROOT
BRANCH   1   2
HETATM    2  C8  UNL     1      -2.835   4.149  11.533  1.00  0.00     0.079 A 
HETATM    3  C7  UNL     1      -1.567   3.655  11.233  1.00  0.00     0.039 A 
HETATM    4  C6  UNL     1      -0.468   4.021  12.016  1.00  0.00     0.034 A 
HETATM    5  C5  UNL     1      -0.625   4.892  13.098  1.00  0.00     0.058 A 
HETATM    6  C20 UNL     1      -1.911   5.403  13.368  1.00  0.00     0.063 A 
HETATM    7  C19 UNL     1      -3.011   5.043  12.587  1.00  0.00     0.063 A 
HETATM    8 CL1  UNL     1      -2.172   6.508  14.679  1.00  0.00    -0.082 Cl
BRANCH   5   9
HETATM    9  N2  UNL     1       0.449   5.303  13.922  1.00  0.00    -0.307 N 
HETATM   10  C4  UNL     1       1.205   6.447  13.824  1.00  0.00     0.320 C 
HETATM   11  N1  UNL     1       2.118   6.513  14.860  1.00  0.00    -0.343 N 
HETATM   12  O1  UNL     1       1.126   7.306  12.956  1.00  0.00    -0.247 OA
HETATM   13  H8  UNL     1       1.813   6.087  15.722  1.00  0.00     0.164 HD
HETATM   14  H9  UNL     1       0.790   4.603  14.567  1.00  0.00     0.170 HD
BRANCH  11  15
HETATM   15  C3  UNL     1       3.000   7.658  14.992  1.00  0.00     0.124 C 
BRANCH  15  16
HETATM   16  C2  UNL     1       2.629   8.533  16.186  1.00  0.00     0.015 C 
HETATM   17  C1  UNL     1       1.172   8.964  16.126  1.00  0.00     0.006 C 
ENDBRANCH  15  16
ENDBRANCH  11  15
ENDBRANCH   5   9
ENDBRANCH   1   2
BRANCH   1  18
HETATM   18  C9  UNL     1      -4.940   3.105  11.278  1.00  0.00     0.161 A 
HETATM   19  N3  UNL     1      -5.120   1.810  10.955  1.00  0.00    -0.332 N 
HETATM   20  C10 UNL     1      -6.175   1.223  11.520  1.00  0.00     0.182 A 
ATOM     21  H3  UNL     1      -4.493   1.313  10.323  1.00  0.00     0.168 HD
HETATM   22  N4  UNL     1      -7.045   1.803  12.359  1.00  0.00    -0.351 N 
HETATM   23  C11 UNL     1      -6.846   3.095  12.653  1.00  0.00     0.050 A 
ATOM     24  H4  UNL     1      -7.827   1.282  12.756  1.00  0.00     0.166 HD
HETATM   25  C12 UNL     1      -7.731   3.732  13.514  1.00  0.00     0.070 A 
HETATM   26  C18 UNL     1      -5.780   3.829  12.128  1.00  0.00     0.045 A 
HETATM   27  C13 UNL     1      -7.584   5.080  13.865  1.00  0.00     0.103 A 
HETATM   28  C15 UNL     1      -6.514   5.821  13.336  1.00  0.00     0.102 A 
HETATM   29  C17 UNL     1      -5.617   5.194  12.471  1.00  0.00     0.057 A 
BRANCH  27  30
HETATM   30  O3  UNL     1      -8.427   5.758  14.710  1.00  0.00    -0.353 OA
HETATM   31  C14 UNL     1      -9.538   6.433  14.135  1.00  0.00     0.210 C 
ENDBRANCH  27  30
BRANCH  28  32
HETATM   32  O4  UNL     1      -6.434   7.134  13.723  1.00  0.00    -0.353 OA
HETATM   33  C16 UNL     1      -5.296   7.879  13.313  1.00  0.00     0.210 C 
ENDBRANCH  28  32
ENDBRANCH   1  18
TORSDOF 7
ENDMDL
MODEL 5
REMARK minimizedAffinity -7.86450386
REMARK  7 active torsions:
REMARK  status: ('A' for Active; 'I' for Inactive)
REMARK    1  A    between atoms: C2_2  and  C3_3 
REMARK    2  A    between atoms: C3_3  and  N1_4 
REMARK       I    between atoms: N1_4  and  C4_5 
REMARK       I    between atoms: C4_5  and  N2_7 
REMARK    3  A    between atoms: N2_7  and  C5_8 
REMARK    4  A    between atoms: C8_11  and  O2_12 
REMARK    5  A    between atoms: O2_12  and  C9_13 
REMARK    6  A    between atoms: C13_21  and  O3_22 
REMARK    7  A    between atoms: C15_24  and  O4_25 
ROOT
HETATM    1  O2  UNL     1      -6.581   4.642  13.954  1.00  0.00    -0.293 OA
ENDROOT
BRANCH   1   2
HETATM    2  C8  UNL     1      -7.687   5.393  13.644  1.00  0.00     0.079 A 
HETATM    3  C7  UNL     1      -8.232   5.259  12.369  1.00  0.00     0.039 A 
HETATM    4  C6  UNL     1      -9.388   5.964  12.022  1.00  0.00     0.034 A 
HETATM    5  C5  UNL     1     -10.015   6.801  12.950  1.00  0.00     0.058 A 
HETATM    6  C20 UNL     1      -9.464   6.901  14.244  1.00  0.00     0.063 A 
HETATM    7  C19 UNL     1      -8.312   6.197  14.596  1.00  0.00     0.063 A 
HETATM    8 CL1  UNL     1     -10.206   7.901  15.451  1.00  0.00    -0.082 Cl
BRANCH   5   9
HETATM    9  N2  UNL     1     -11.189   7.534  12.660  1.00  0.00    -0.307 N 
HETATM   10  C4  UNL     1     -12.471   7.297  13.101  1.00  0.00     0.320 C 
HETATM   11  N1  UNL     1     -13.328   8.281  12.646  1.00  0.00    -0.343 N 
HETATM   12  O1  UNL     1     -12.846   6.357  13.789  1.00  0.00    -0.247 OA
HETATM   13  H8  UNL     1     -12.908   9.191  12.535  1.00  0.00     0.164 HD
HETATM   14  H9  UNL     1     -11.097   8.226  11.929  1.00  0.00     0.170 HD
BRANCH  11  15
HETATM   15  C3  UNL     1     -14.730   8.266  13.022  1.00  0.00     0.124 C 
BRANCH  15  16
HETATM   16  C2  UNL     1     -15.601   7.606  11.956  1.00  0.00     0.015 C 
HETATM   17  C1  UNL     1     -16.395   6.444  12.531  1.00  0.00     0.006 C 
ENDBRANCH  15  16
ENDBRANCH  11  15
ENDBRANCH   5   9
ENDBRANCH   1   2
BRANCH   1  18
HETATM   18  C9  UNL     1      -6.111   3.763  12.976  1.00  0.00     0.161 A 
HETATM   19  N3  UNL     1      -6.914   2.764  12.559  1.00  0.00    -0.332 N 
HETATM   20  C10 UNL     1      -6.384   1.952  11.645  1.00  0.00     0.182 A 
ATOM     21  H3  UNL     1      -7.860   2.638  12.918  1.00  0.00     0.168 HD
HETATM   22  N4  UNL     1      -5.152   2.047  11.123  1.00  0.00    -0.351 N 
HETATM   23  C11 UNL     1      -4.375   3.044  11.565  1.00  0.00     0.050 A 
ATOM     24  H4  UNL     1      -4.822   1.387  10.420  1.00  0.00     0.166 HD
HETATM   25  C12 UNL     1      -3.089   3.171  11.052  1.00  0.00     0.070 A 
HETATM   26  C18 UNL     1      -4.805   3.965  12.522  1.00  0.00     0.045 A 
HETATM   27  C13 UNL     1      -2.222   4.189  11.468  1.00  0.00     0.103 A 
HETATM   28  C15 UNL     1      -2.652   5.115  12.433  1.00  0.00     0.102 A 
HETATM   29  C17 UNL     1      -3.940   5.000  12.956  1.00  0.00     0.057 A 
BRANCH  27  30
HETATM   30  O3  UNL     1      -0.944   4.361  10.995  1.00  0.00    -0.353 OA
HETATM   31  C14 UNL     1       0.083   3.555  11.557  1.00  0.00     0.210 C 
ENDBRANCH  27  30
BRANCH  28  32
HETATM   32  O4  UNL     1      -1.750   6.082  12.792  1.00  0.00    -0.353 OA
HETATM   33  C16 UNL     1      -2.223   7.414  12.932  1.00  0.00     0.210 C 
ENDBRANCH  28  32
ENDBRANCH   1  18
TORSDOF 7
ENDMDL
MODEL 6
REMARK minimizedAffinity -7.77509308
REMARK  7 active torsions:
REMARK  status: ('A' for Active; 'I' for Inactive)
REMARK    1  A    between atoms: C2_2  and  C3_3 
REMARK    2  A    between atoms: C3_3  and  N1_4 
REMARK       I    between atoms: N1_4  and  C4_5 
REMARK       I    between atoms: C4_5  and  N2_7 
REMARK    3  A    between atoms: N2_7  and  C5_8 
REMARK    4  A    between atoms: C8_11  and  O2_12 
REMARK    5  A    between atoms: O2_12  and  C9_13 
REMARK    6  A    between atoms: C13_21  and  O3_22 
REMARK    7  A    between atoms: C15_24  and  O4_25 
ROOT
HETATM    1  O2  UNL     1      -3.316   5.974  15.216  1.00  0.00    -0.293 OA
ENDROOT
BRANCH   1   2
HETATM    2  C8  UNL     1      -2.425   5.928  14.173  1.00  0.00     0.079 A 
HETATM    3  C7  UNL     1      -1.235   6.642  14.298  1.00  0.00     0.039 A 
HETATM    4  C6  UNL     1      -0.274   6.586  13.284  1.00  0.00     0.034 A 
HETATM    5  C5  UNL     1      -0.489   5.809  12.143  1.00  0.00     0.058 A 
HETATM    6  C20 UNL     1      -1.687   5.072  12.048  1.00  0.00     0.063 A 
HETATM    7  C19 UNL     1      -2.649   5.121  13.059  1.00  0.00     0.063 A 
HETATM    8 CL1  UNL     1      -2.007   4.067  10.672  1.00  0.00    -0.082 Cl
BRANCH   5   9
HETATM    9  N2  UNL     1       0.448   5.708  11.088  1.00  0.00    -0.307 N 
HETATM   10  C4  UNL     1       1.155   6.719  10.480  1.00  0.00     0.320 C 
HETATM   11  N1  UNL     1       2.020   6.202   9.533  1.00  0.00    -0.343 N 
HETATM   12  O1  UNL     1       1.057   7.918  10.703  1.00  0.00    -0.247 OA
HETATM   13  H8  UNL     1       2.379   5.284   9.743  1.00  0.00     0.164 HD
HETATM   14  H9  UNL     1       0.493   4.805  10.635  1.00  0.00     0.170 HD
BRANCH  11  15
HETATM   15  C3  UNL     1       2.906   7.079   8.789  1.00  0.00     0.124 C 
BRANCH  15  16
HETATM   16  C2  UNL     1       2.165   7.853   7.703  1.00  0.00     0.015 C 
HETATM   17  C1  UNL     1       1.857   6.971   6.504  1.00  0.00     0.006 C 
ENDBRANCH  15  16
ENDBRANCH  11  15
ENDBRANCH   5   9
ENDBRANCH   1   2
BRANCH   1  18
HETATM   18  C9  UNL     1      -4.212   7.045  15.245  1.00  0.00     0.161 A 
HETATM   19  N3  UNL     1      -3.782   8.241  15.690  1.00  0.00    -0.332 N 
HETATM   20  C10 UNL     1      -4.702   9.205  15.713  1.00  0.00     0.182 A 
ATOM     21  H3  UNL     1      -2.819   8.399  15.988  1.00  0.00     0.168 HD
HETATM   22  N4  UNL     1      -5.984   9.081  15.340  1.00  0.00    -0.351 N 
HETATM   23  C11 UNL     1      -6.384   7.877  14.911  1.00  0.00     0.050 A 
ATOM     24  H4  UNL     1      -6.627   9.871  15.381  1.00  0.00     0.166 HD
HETATM   25  C12 UNL     1      -7.708   7.708  14.522  1.00  0.00     0.070 A 
HETATM   26  C18 UNL     1      -5.522   6.780  14.839  1.00  0.00     0.045 A 
HETATM   27  C13 UNL     1      -8.195   6.477  14.065  1.00  0.00     0.103 A 
HETATM   28  C15 UNL     1      -7.330   5.372  13.994  1.00  0.00     0.102 A 
HETATM   29  C17 UNL     1      -5.999   5.527  14.381  1.00  0.00     0.057 A 
BRANCH  27  30
HETATM   30  O3  UNL     1      -9.490   6.254  13.668  1.00  0.00    -0.353 OA
HETATM   31  C14 UNL     1     -10.502   7.089  14.215  1.00  0.00     0.210 C 
ENDBRANCH  27  30
BRANCH  28  32
HETATM   32  O4  UNL     1      -7.876   4.200  13.538  1.00  0.00    -0.353 OA
HETATM   33  C16 UNL     1      -7.095   3.397  12.665  1.00  0.00     0.210 C 
ENDBRANCH  28  32
ENDBRANCH   1  18
TORSDOF 7
ENDMDL
MODEL 7
REMARK minimizedAffinity -7.7571249
REMARK  7 active torsions:
REMARK  status: ('A' for Active; 'I' for Inactive)
REMARK    1  A    between atoms: C2_2  and  C3_3 
REMARK    2  A    between atoms: C3_3  and  N1_4 
REMARK       I    between atoms: N1_4  and  C4_5 
REMARK       I    between atoms: C4_5  and  N2_7 
REMARK    3  A    between atoms: N2_7  and  C5_8 
REMARK    4  A    between atoms: C8_11  and  O2_12 
REMARK    5  A    between atoms: O2_12  and  C9_13 
REMARK    6  A    between atoms: C13_21  and  O3_22 
REMARK    7  A    between atoms: C15_24  and  O4_25 
ROOT
HETATM    1  O2  UNL     1      -2.375   6.387  14.679  1.00  0.00    -0.293 OA
ENDROOT
BRANCH   1   2
HETATM    2  C8  UNL     1      -3.733   6.196  14.618  1.00  0.00     0.079 A 
HETATM    3  C7  UNL     1      -4.535   6.927  15.492  1.00  0.00     0.039 A 
HETATM    4  C6  UNL     1      -5.927   6.805  15.434  1.00  0.00     0.034 A 
HETATM    5  C5  UNL     1      -6.528   5.961  14.496  1.00  0.00     0.058 A 
HETATM    6  C20 UNL     1      -5.700   5.252  13.603  1.00  0.00     0.063 A 
HETATM    7  C19 UNL     1      -4.310   5.372  13.654  1.00  0.00     0.063 A 
HETATM    8 CL1  UNL     1      -6.380   4.207  12.397  1.00  0.00    -0.082 Cl
BRANCH   5   9
HETATM    9  N2  UNL     1      -7.929   5.801  14.386  1.00  0.00    -0.307 N 
HETATM   10  C4  UNL     1      -8.906   6.762  14.504  1.00  0.00     0.320 C 
HETATM   11  N1  UNL     1     -10.153   6.216  14.264  1.00  0.00    -0.343 N 
HETATM   12  O1  UNL     1      -8.743   7.941  14.790  1.00  0.00    -0.247 OA
HETATM   13  H8  UNL     1     -10.162   5.452  13.605  1.00  0.00     0.164 HD
HETATM   14  H9  UNL     1      -8.254   4.844  14.361  1.00  0.00     0.170 HD
BRANCH  11  15
HETATM   15  C3  UNL     1     -11.339   7.051  14.289  1.00  0.00     0.124 C 
BRANCH  15  16
HETATM   16  C2  UNL     1     -11.797   7.438  12.886  1.00  0.00     0.015 C 
HETATM   17  C1  UNL     1     -11.741   8.943  12.679  1.00  0.00     0.006 C 
ENDBRANCH  15  16
ENDBRANCH  11  15
ENDBRANCH   5   9
ENDBRANCH   1   2
BRANCH   1  18
HETATM   18  C9  UNL     1      -1.823   7.333  13.813  1.00  0.00     0.161 A 
HETATM   19  N3  UNL     1      -2.141   8.631  13.978  1.00  0.00    -0.332 N 
HETATM   20  C10 UNL     1      -1.597   9.468  13.096  1.00  0.00     0.182 A 
ATOM     21  H3  UNL     1      -2.756   8.951  14.727  1.00  0.00     0.168 HD
HETATM   22  N4  UNL     1      -0.782   9.130  12.086  1.00  0.00    -0.351 N 
HETATM   23  C11 UNL     1      -0.492   7.831  11.941  1.00  0.00     0.050 A 
ATOM     24  H4  UNL     1      -0.399   9.834  11.455  1.00  0.00     0.166 HD
HETATM   25  C12 UNL     1       0.345   7.441  10.902  1.00  0.00     0.070 A 
HETATM   26  C18 UNL     1      -0.997   6.848  12.795  1.00  0.00     0.045 A 
HETATM   27  C13 UNL     1       0.689   6.100  10.690  1.00  0.00     0.103 A 
HETATM   28  C15 UNL     1       0.180   5.110  11.547  1.00  0.00     0.102 A 
HETATM   29  C17 UNL     1      -0.660   5.487  12.595  1.00  0.00     0.057 A 
BRANCH  27  30
HETATM   30  O3  UNL     1       1.510   5.660   9.682  1.00  0.00    -0.353 OA
HETATM   31  C14 UNL     1       2.855   6.118   9.676  1.00  0.00     0.210 C 
ENDBRANCH  27  30
BRANCH  28  32
HETATM   32  O4  UNL     1       0.560   3.820  11.279  1.00  0.00    -0.353 OA
HETATM   33  C16 UNL     1      -0.370   2.782  11.556  1.00  0.00     0.210 C 
ENDBRANCH  28  32
ENDBRANCH   1  18
TORSDOF 7
ENDMDL
MODEL 8
REMARK minimizedAffinity -7.6677475
REMARK  7 active torsions:
REMARK  status: ('A' for Active; 'I' for Inactive)
REMARK    1  A    between atoms: C2_2  and  C3_3 
REMARK    2  A    between atoms: C3_3  and  N1_4 
REMARK       I    between atoms: N1_4  and  C4_5 
REMARK       I    between atoms: C4_5  and  N2_7 
REMARK    3  A    between atoms: N2_7  and  C5_8 
REMARK    4  A    between atoms: C8_11  and  O2_12 
REMARK    5  A    between atoms: O2_12  and  C9_13 
REMARK    6  A    between atoms: C13_21  and  O3_22 
REMARK    7  A    between atoms: C15_24  and  O4_25 
ROOT
HETATM    1  O2  UNL     1      -1.720   4.309  12.525  1.00  0.00    -0.293 OA
ENDROOT
BRANCH   1   2
HETATM    2  C8  UNL     1      -3.073   4.473  12.688  1.00  0.00     0.079 A 
HETATM    3  C7  UNL     1      -3.540   5.742  13.026  1.00  0.00     0.039 A 
HETATM    4  C6  UNL     1      -4.913   5.972  13.155  1.00  0.00     0.034 A 
HETATM    5  C5  UNL     1      -5.830   4.940  12.935  1.00  0.00     0.058 A 
HETATM    6  C20 UNL     1      -5.339   3.671  12.566  1.00  0.00     0.063 A 
HETATM    7  C19 UNL     1      -3.969   3.437  12.434  1.00  0.00     0.063 A 
HETATM    8 CL1  UNL     1      -6.421   2.353  12.254  1.00  0.00    -0.082 Cl
BRANCH   5   9
HETATM    9  N2  UNL     1      -7.230   5.113  13.044  1.00  0.00    -0.307 N 
HETATM   10  C4  UNL     1      -7.915   6.129  13.670  1.00  0.00     0.320 C 
HETATM   11  N1  UNL     1      -9.277   5.971  13.496  1.00  0.00    -0.343 N 
HETATM   12  O1  UNL     1      -7.431   7.052  14.310  1.00  0.00    -0.247 OA
HETATM   13  H8  UNL     1      -9.547   5.534  12.629  1.00  0.00     0.164 HD
HETATM   14  H9  UNL     1      -7.787   4.322  12.751  1.00  0.00     0.170 HD
BRANCH  11  15
HETATM   15  C3  UNL     1     -10.205   6.950  14.033  1.00  0.00     0.124 C 
BRANCH  15  16
HETATM   16  C2  UNL     1     -11.308   7.298  13.038  1.00  0.00     0.015 C 
HETATM   17  C1  UNL     1     -11.600   8.790  13.033  1.00  0.00     0.006 C 
ENDBRANCH  15  16
ENDBRANCH  11  15
ENDBRANCH   5   9
ENDBRANCH   1   2
BRANCH   1  18
HETATM   18  C9  UNL     1      -0.880   5.146  13.262  1.00  0.00     0.161 A 
HETATM   19  N3  UNL     1      -1.260   5.526  14.497  1.00  0.00    -0.332 N 
HETATM   20  C10 UNL     1      -0.419   6.346  15.125  1.00  0.00     0.182 A 
ATOM     21  H3  UNL     1      -2.131   5.207  14.923  1.00  0.00     0.168 HD
HETATM   22  N4  UNL     1       0.741   6.811  14.639  1.00  0.00    -0.351 N 
HETATM   23  C11 UNL     1       1.087   6.424  13.404  1.00  0.00     0.050 A 
ATOM     24  H4  UNL     1       1.335   7.433  15.187  1.00  0.00     0.166 HD
HETATM   25  C12 UNL     1       2.279   6.891  12.863  1.00  0.00     0.070 A 
HETATM   26  C18 UNL     1       0.296   5.568  12.635  1.00  0.00     0.045 A 
HETATM   27  C13 UNL     1       2.703   6.529  11.578  1.00  0.00     0.103 A 
HETATM   28  C15 UNL     1       1.907   5.669  10.803  1.00  0.00     0.102 A 
HETATM   29  C17 UNL     1       0.708   5.193  11.333  1.00  0.00     0.057 A 
BRANCH  27  30
HETATM   30  O3  UNL     1       3.869   6.958  10.996  1.00  0.00    -0.353 OA
HETATM   31  C14 UNL     1       3.849   8.206  10.317  1.00  0.00     0.210 C 
ENDBRANCH  27  30
BRANCH  28  32
HETATM   32  O4  UNL     1       2.384   5.358   9.555  1.00  0.00    -0.353 OA
HETATM   33  C16 UNL     1       3.380   4.350   9.457  1.00  0.00     0.210 C 
ENDBRANCH  28  32
ENDBRANCH   1  18
TORSDOF 7
ENDMDL
MODEL 9
REMARK minimizedAffinity -7.66521168
REMARK  7 active torsions:
REMARK  status: ('A' for Active; 'I' for Inactive)
REMARK    1  A    between atoms: C2_2  and  C3_3 
REMARK    2  A    between atoms: C3_3  and  N1_4 
REMARK       I    between atoms: N1_4  and  C4_5 
REMARK       I    between atoms: C4_5  and  N2_7 
REMARK    3  A    between atoms: N2_7  and  C5_8 
REMARK    4  A    between atoms: C8_11  and  O2_12 
REMARK    5  A    between atoms: O2_12  and  C9_13 
REMARK    6  A    between atoms: C13_21  and  O3_22 
REMARK    7  A    between atoms: C15_24  and  O4_25 
ROOT
HETATM    1  O2  UNL     1      -7.007   5.464  14.406  1.00  0.00    -0.293 OA
ENDROOT
BRANCH   1   2
HETATM    2  C8  UNL     1      -8.163   6.200  14.321  1.00  0.00     0.079 A 
HETATM    3  C7  UNL     1      -8.975   6.012  13.205  1.00  0.00     0.039 A 
HETATM    4  C6  UNL     1     -10.187   6.701  13.096  1.00  0.00     0.034 A 
HETATM    5  C5  UNL     1     -10.602   7.573  14.107  1.00  0.00     0.058 A 
HETATM    6  C20 UNL     1      -9.780   7.726  15.241  1.00  0.00     0.063 A 
HETATM    7  C19 UNL     1      -8.570   7.039  15.356  1.00  0.00     0.063 A 
HETATM    8 CL1  UNL     1     -10.246   8.772  16.544  1.00  0.00    -0.082 Cl
BRANCH   5   9
HETATM    9  N2  UNL     1     -11.819   8.291  14.057  1.00  0.00    -0.307 N 
HETATM   10  C4  UNL     1     -12.337   9.015  13.007  1.00  0.00     0.320 C 
HETATM   11  N1  UNL     1     -13.583   9.515  13.334  1.00  0.00    -0.343 N 
HETATM   12  O1  UNL     1     -11.802   9.221  11.926  1.00  0.00    -0.247 OA
HETATM   13  H8  UNL     1     -14.119   8.941  13.967  1.00  0.00     0.164 HD
HETATM   14  H9  UNL     1     -12.292   8.403  14.944  1.00  0.00     0.170 HD
BRANCH  11  15
HETATM   15  C3  UNL     1     -14.347  10.278  12.363  1.00  0.00     0.124 C 
BRANCH  15  16
HETATM   16  C2  UNL     1     -14.793  11.627  12.918  1.00  0.00     0.015 C 
HETATM   17  C1  UNL     1     -13.929  12.759  12.386  1.00  0.00     0.006 C 
ENDBRANCH  15  16
ENDBRANCH  11  15
ENDBRANCH   5   9
ENDBRANCH   1   2
BRANCH   1  18
HETATM   18  C9  UNL     1      -6.911   4.328  13.600  1.00  0.00     0.161 A 
HETATM   19  N3  UNL     1      -7.951   3.473  13.553  1.00  0.00    -0.332 N 
HETATM   20  C10 UNL     1      -7.772   2.400  12.783  1.00  0.00     0.182 A 
ATOM     21  H3  UNL     1      -8.815   3.635  14.071  1.00  0.00     0.168 HD
HETATM   22  N4  UNL     1      -6.672   2.113  12.072  1.00  0.00    -0.351 N 
HETATM   23  C11 UNL     1      -5.652   2.977  12.146  1.00  0.00     0.050 A 
ATOM     24  H4  UNL     1      -6.616   1.271  11.499  1.00  0.00     0.166 HD
HETATM   25  C12 UNL     1      -4.492   2.710  11.429  1.00  0.00     0.070 A 
HETATM   26  C18 UNL     1      -5.706   4.140  12.918  1.00  0.00     0.045 A 
HETATM   27  C13 UNL     1      -3.386   3.568  11.461  1.00  0.00     0.103 A 
HETATM   28  C15 UNL     1      -3.438   4.738  12.238  1.00  0.00     0.102 A 
HETATM   29  C17 UNL     1      -4.596   5.019  12.963  1.00  0.00     0.057 A 
BRANCH  27  30
HETATM   30  O3  UNL     1      -2.217   3.354  10.772  1.00  0.00    -0.353 OA
HETATM   31  C14 UNL     1      -1.472   2.185  11.082  1.00  0.00     0.210 C 
ENDBRANCH  27  30
BRANCH  28  32
HETATM   32  O4  UNL     1      -2.318   5.529  12.221  1.00  0.00    -0.353 OA
HETATM   33  C16 UNL     1      -1.572   5.650  13.424  1.00  0.00     0.210 C 
ENDBRANCH  28  32
ENDBRANCH   1  18
TORSDOF 7
ENDMDL
