MODEL 1
REMARK minimizedAffinity -9.58116913
REMARK CNNscore 0.672157168
REMARK CNNaffinity 7.82593393
REMARK  12 active torsions:
REMARK  status: ('A' for Active; 'I' for Inactive)
REMARK    1  A    between atoms: C19_21  and  O3_22 
REMARK    2  A    between atoms: C19_21  and  C20_23 
REMARK    3  A    between atoms: C20_23  and  C21_25 
REMARK    4  A    between atoms: C21_25  and  O5_26 
REMARK    5  A    between atoms: O5_26  and  C22_27 
REMARK    6  A    between atoms: C22_27  and  C23_29 
REMARK    7  A    between atoms: C23_29  and  C24_30 
REMARK    8  A    between atoms: C24_30  and  C25_31 
REMARK       I    between atoms: C25_31  and  N1_33 
REMARK    9  A    between atoms: N1_33  and  C26_34 
REMARK   10  A    between atoms: C26_34  and  C27_35 
REMARK   11  A    between atoms: C27_35  and  C28_36 
REMARK   12  A    between atoms: C31_39  and  O8_40 
ROOT
HETATM    1  C1  UNL     1       0.196   7.340   9.949  1.00  0.00     0.021 C 
HETATM    2  C2  UNL     1       1.039   6.863  11.154  1.00  0.00    -0.009 C 
HETATM    3  C3  UNL     1       2.393   7.638  11.188  1.00  0.00     0.022 C 
HETATM    4  C4  UNL     1       3.372   7.214  10.103  1.00  0.00     0.084 C 
HETATM    5  C5  UNL     1       3.624   5.733  10.176  1.00  0.00     0.149 C 
HETATM    6  O1  UNL     1       4.699   5.229   9.863  1.00  0.00    -0.293 OA
HETATM    7  C6  UNL     1       2.493   4.858  10.561  1.00  0.00     0.053 C 
HETATM    8  C7  UNL     1       1.311   5.359  10.962  1.00  0.00    -0.067 C 
HETATM    9  C8  UNL     1       0.156   4.418  11.215  1.00  0.00     0.035 C 
HETATM   10  C9  UNL     1      -0.496   4.670  12.569  1.00  0.00     0.010 C 
HETATM   11  C10 UNL     1      -0.928   6.135  12.712  1.00  0.00     0.003 C 
HETATM   12  C11 UNL     1       0.302   7.075  12.526  1.00  0.00     0.072 C 
HETATM   13  C12 UNL     1      -0.095   8.530  12.851  1.00  0.00     0.133 C 
HETATM   14  O2  UNL     1       0.184   9.487  12.132  1.00  0.00    -0.297 OA
HETATM   15  C13 UNL     1      -0.807   8.764  14.177  1.00  0.00     0.091 C 
HETATM   16  C14 UNL     1      -2.041   7.858  14.266  1.00  0.00     0.005 C 
HETATM   17  C15 UNL     1      -3.072   8.303  13.195  1.00  0.00     0.019 C 
HETATM   18  C16 UNL     1      -1.559   6.396  14.087  1.00  0.00     0.002 C 
HETATM   19  C17 UNL     1      -2.772   5.566  14.497  1.00  0.00     0.009 C 
HETATM   20  C18 UNL     1      -3.459   6.395  15.603  1.00  0.00     0.047 C 
HETATM   21  C19 UNL     1      -2.709   7.744  15.666  1.00  0.00     0.128 C 
ENDROOT
BRANCH  21  22
HETATM   22  O3  UNL     1      -1.683   7.599  16.668  1.00  0.00    -0.381 OA
HETATM   23  H25 UNL     1      -1.437   8.504  16.954  1.00  0.00     0.211 HD
ENDBRANCH  21  22
BRANCH  21  24
HETATM   24  C20 UNL     1      -3.520   8.985  16.081  1.00  0.00     0.185 C 
HETATM   25  O4  UNL     1      -3.098   9.684  17.012  1.00  0.00    -0.292 OA
BRANCH  24  26
HETATM   26  C21 UNL     1      -4.804   9.328  15.329  1.00  0.00     0.260 C 
BRANCH  26  27
HETATM   27  O5  UNL     1      -5.930   8.594  15.816  1.00  0.00    -0.314 OA
BRANCH  27  28
HETATM   28  C22 UNL     1      -6.729   8.087  14.834  1.00  0.00     0.259 C 
HETATM   29  O6  UNL     1      -6.323   7.482  13.852  1.00  0.00    -0.265 OA
BRANCH  28  30
HETATM   30  C23 UNL     1      -8.169   8.406  15.127  1.00  0.00     0.120 C 
BRANCH  30  31
HETATM   31  C24 UNL     1      -8.940   7.138  15.473  1.00  0.00     0.112 C 
BRANCH  31  32
HETATM   32  C25 UNL     1      -9.022   6.190  14.299  1.00  0.00     0.218 C 
HETATM   33  O7  UNL     1      -9.730   6.383  13.318  1.00  0.00    -0.274 OA
HETATM   34  N1  UNL     1      -8.203   5.093  14.445  1.00  0.00    -0.361 N 
HETATM   35  H32 UNL     1      -7.601   5.028  15.255  1.00  0.00     0.162 HD
BRANCH  34  36
HETATM   36  C26 UNL     1      -8.089   4.077  13.416  1.00  0.00     0.127 C 
BRANCH  36  37
HETATM   37  C27 UNL     1      -7.160   4.509  12.279  1.00  0.00     0.058 C 
BRANCH  37  38
HETATM   38  C28 UNL     1      -6.057   3.505  12.049  1.00  0.00    -0.057 A 
HETATM   39  C29 UNL     1      -6.359   2.199  11.636  1.00  0.00     0.010 A 
HETATM   40  C30 UNL     1      -5.336   1.277  11.395  1.00  0.00     0.037 A 
HETATM   41  C31 UNL     1      -4.011   1.664  11.567  1.00  0.00     0.065 A 
HETATM   42  C32 UNL     1      -3.694   2.954  11.973  1.00  0.00     0.037 A 
HETATM   43  C33 UNL     1      -4.715   3.876  12.213  1.00  0.00     0.010 A 
BRANCH  41  44
HETATM   44  O8  UNL     1      -2.983   0.798  11.340  1.00  0.00    -0.361 OA
HETATM   45  H39 UNL     1      -3.353  -0.055  11.061  1.00  0.00     0.217 HD
ENDBRANCH  41  44
ENDBRANCH  37  38
ENDBRANCH  36  37
ENDBRANCH  34  36
ENDBRANCH  31  32
ENDBRANCH  30  31
ENDBRANCH  28  30
ENDBRANCH  27  28
ENDBRANCH  26  27
ENDBRANCH  24  26
ENDBRANCH  21  24
TORSDOF 12
ENDMDL
MODEL 2
REMARK minimizedAffinity -8.7426405
REMARK CNNscore 0.498013198
REMARK CNNaffinity 7.32841921
REMARK  12 active torsions:
REMARK  status: ('A' for Active; 'I' for Inactive)
REMARK    1  A    between atoms: C19_21  and  O3_22 
REMARK    2  A    between atoms: C19_21  and  C20_23 
REMARK    3  A    between atoms: C20_23  and  C21_25 
REMARK    4  A    between atoms: C21_25  and  O5_26 
REMARK    5  A    between atoms: O5_26  and  C22_27 
REMARK    6  A    between atoms: C22_27  and  C23_29 
REMARK    7  A    between atoms: C23_29  and  C24_30 
REMARK    8  A    between atoms: C24_30  and  C25_31 
REMARK       I    between atoms: C25_31  and  N1_33 
REMARK    9  A    between atoms: N1_33  and  C26_34 
REMARK   10  A    between atoms: C26_34  and  C27_35 
REMARK   11  A    between atoms: C27_35  and  C28_36 
REMARK   12  A    between atoms: C31_39  and  O8_40 
ROOT
HETATM    1  C1  UNL     1     -11.321   9.806  13.463  1.00  0.00     0.021 C 
HETATM    2  C2  UNL     1     -11.837   8.656  14.358  1.00  0.00    -0.009 C 
HETATM    3  C3  UNL     1     -13.119   8.032  13.724  1.00  0.00     0.022 C 
HETATM    4  C4  UNL     1     -14.354   8.915  13.837  1.00  0.00     0.084 C 
HETATM    5  C5  UNL     1     -14.610   9.273  15.275  1.00  0.00     0.149 C 
HETATM    6  O1  UNL     1     -15.740   9.457  15.720  1.00  0.00    -0.293 OA
HETATM    7  C6  UNL     1     -13.438   9.492  16.153  1.00  0.00     0.053 C 
HETATM    8  C7  UNL     1     -12.182   9.258  15.733  1.00  0.00    -0.067 C 
HETATM    9  C8  UNL     1     -11.021   9.624  16.628  1.00  0.00     0.035 C 
HETATM   10  C9  UNL     1     -10.038   8.470  16.786  1.00  0.00     0.010 C 
HETATM   11  C10 UNL     1      -9.553   7.966  15.421  1.00  0.00     0.003 C 
HETATM   12  C11 UNL     1     -10.768   7.519  14.554  1.00  0.00     0.072 C 
HETATM   13  C12 UNL     1     -10.270   6.844  13.259  1.00  0.00     0.133 C 
HETATM   14  O2  UNL     1     -10.703   7.115  12.141  1.00  0.00    -0.297 OA
HETATM   15  C13 UNL     1      -9.237   5.736  13.420  1.00  0.00     0.091 C 
HETATM   16  C14 UNL     1      -8.041   6.260  14.225  1.00  0.00     0.005 C 
HETATM   17  C15 UNL     1      -7.310   7.347  13.392  1.00  0.00     0.019 C 
HETATM   18  C16 UNL     1      -8.584   6.785  15.578  1.00  0.00     0.002 C 
HETATM   19  C17 UNL     1      -7.325   6.987  16.416  1.00  0.00     0.009 C 
HETATM   20  C18 UNL     1      -6.359   5.878  15.946  1.00  0.00     0.047 C 
HETATM   21  C19 UNL     1      -7.039   5.190  14.741  1.00  0.00     0.128 C 
ENDROOT
BRANCH  21  22
HETATM   22  O3  UNL     1      -7.777   4.069  15.269  1.00  0.00    -0.381 OA
HETATM   23  H25 UNL     1      -7.921   3.449  14.523  1.00  0.00     0.211 HD
ENDBRANCH  21  22
BRANCH  21  24
HETATM   24  C20 UNL     1      -6.122   4.606  13.651  1.00  0.00     0.185 C 
HETATM   25  O4  UNL     1      -6.637   3.959  12.729  1.00  0.00    -0.292 OA
BRANCH  24  26
HETATM   26  C21 UNL     1      -4.617   4.851  13.727  1.00  0.00     0.260 C 
BRANCH  26  27
HETATM   27  O5  UNL     1      -4.074   5.279  12.476  1.00  0.00    -0.314 OA
BRANCH  27  28
HETATM   28  C22 UNL     1      -3.276   4.355  11.871  1.00  0.00     0.259 C 
HETATM   29  O6  UNL     1      -3.673   3.496  11.096  1.00  0.00    -0.265 OA
BRANCH  28  30
HETATM   30  C23 UNL     1      -1.851   4.532  12.317  1.00  0.00     0.120 C 
BRANCH  30  31
HETATM   31  C24 UNL     1      -0.900   4.427  11.131  1.00  0.00     0.112 C 
BRANCH  31  32
HETATM   32  C25 UNL     1       0.456   5.017  11.443  1.00  0.00     0.218 C 
HETATM   33  O7  UNL     1       1.514   4.530  11.061  1.00  0.00    -0.274 OA
HETATM   34  N1  UNL     1       0.374   6.171  12.190  1.00  0.00    -0.361 N 
HETATM   35  H32 UNL     1      -0.536   6.548  12.420  1.00  0.00     0.162 HD
BRANCH  34  36
HETATM   36  C26 UNL     1       1.552   6.930  12.565  1.00  0.00     0.127 C 
BRANCH  36  37
HETATM   37  C27 UNL     1       1.663   8.244  11.787  1.00  0.00     0.058 C 
BRANCH  37  38
HETATM   38  C28 UNL     1       1.700   8.008  10.298  1.00  0.00    -0.057 A 
HETATM   39  C29 UNL     1       2.842   7.463   9.692  1.00  0.00     0.010 A 
HETATM   40  C30 UNL     1       2.866   7.218   8.316  1.00  0.00     0.037 A 
HETATM   41  C31 UNL     1       1.746   7.517   7.548  1.00  0.00     0.065 A 
HETATM   42  C32 UNL     1       0.605   8.054   8.132  1.00  0.00     0.037 A 
HETATM   43  C33 UNL     1       0.581   8.299   9.506  1.00  0.00     0.010 A 
BRANCH  41  44
HETATM   44  O8  UNL     1       1.725   7.290   6.203  1.00  0.00    -0.361 OA
HETATM   45  H39 UNL     1       2.581   6.913   5.941  1.00  0.00     0.217 HD
ENDBRANCH  41  44
ENDBRANCH  37  38
ENDBRANCH  36  37
ENDBRANCH  34  36
ENDBRANCH  31  32
ENDBRANCH  30  31
ENDBRANCH  28  30
ENDBRANCH  27  28
ENDBRANCH  26  27
ENDBRANCH  24  26
ENDBRANCH  21  24
TORSDOF 12
ENDMDL
MODEL 3
REMARK minimizedAffinity -8.50999832
REMARK CNNscore 0.427635491
REMARK CNNaffinity 6.74667788
REMARK  12 active torsions:
REMARK  status: ('A' for Active; 'I' for Inactive)
REMARK    1  A    between atoms: C19_21  and  O3_22 
REMARK    2  A    between atoms: C19_21  and  C20_23 
REMARK    3  A    between atoms: C20_23  and  C21_25 
REMARK    4  A    between atoms: C21_25  and  O5_26 
REMARK    5  A    between atoms: O5_26  and  C22_27 
REMARK    6  A    between atoms: C22_27  and  C23_29 
REMARK    7  A    between atoms: C23_29  and  C24_30 
REMARK    8  A    between atoms: C24_30  and  C25_31 
REMARK       I    between atoms: C25_31  and  N1_33 
REMARK    9  A    between atoms: N1_33  and  C26_34 
REMARK   10  A    between atoms: C26_34  and  C27_35 
REMARK   11  A    between atoms: C27_35  and  C28_36 
REMARK   12  A    between atoms: C31_39  and  O8_40 
ROOT
HETATM    1  C1  UNL     1      -2.048   4.728  10.264  1.00  0.00     0.021 C 
HETATM    2  C2  UNL     1      -1.960   3.967  11.607  1.00  0.00    -0.009 C 
HETATM    3  C3  UNL     1      -0.531   3.362  11.775  1.00  0.00     0.022 C 
HETATM    4  C4  UNL     1      -0.257   2.168  10.872  1.00  0.00     0.084 C 
HETATM    5  C5  UNL     1      -1.297   1.102  11.087  1.00  0.00     0.149 C 
HETATM    6  O1  UNL     1      -1.052  -0.095  10.965  1.00  0.00    -0.293 OA
HETATM    7  C6  UNL     1      -2.683   1.536  11.371  1.00  0.00     0.053 C 
HETATM    8  C7  UNL     1      -2.998   2.830  11.564  1.00  0.00    -0.067 C 
HETATM    9  C8  UNL     1      -4.449   3.224  11.720  1.00  0.00     0.035 C 
HETATM   10  C9  UNL     1      -4.672   4.099  12.947  1.00  0.00     0.010 C 
HETATM   11  C10 UNL     1      -3.758   5.331  12.921  1.00  0.00     0.003 C 
HETATM   12  C11 UNL     1      -2.266   4.888  12.843  1.00  0.00     0.072 C 
HETATM   13  C12 UNL     1      -1.345   6.115  13.003  1.00  0.00     0.133 C 
HETATM   14  O2  UNL     1      -0.392   6.350  12.263  1.00  0.00    -0.297 OA
HETATM   15  C13 UNL     1      -1.616   7.023  14.195  1.00  0.00     0.091 C 
HETATM   16  C14 UNL     1      -3.082   7.475  14.175  1.00  0.00     0.005 C 
HETATM   17  C15 UNL     1      -3.312   8.386  12.940  1.00  0.00     0.019 C 
HETATM   18  C16 UNL     1      -3.962   6.199  14.171  1.00  0.00     0.002 C 
HETATM   19  C17 UNL     1      -5.362   6.728  14.465  1.00  0.00     0.009 C 
HETATM   20  C18 UNL     1      -5.137   7.936  15.401  1.00  0.00     0.047 C 
HETATM   21  C19 UNL     1      -3.609   8.153  15.471  1.00  0.00     0.128 C 
ENDROOT
BRANCH  21  22
HETATM   22  O3  UNL     1      -3.139   7.413  16.616  1.00  0.00    -0.381 OA
HETATM   23  H25 UNL     1      -2.275   7.800  16.868  1.00  0.00     0.211 HD
ENDBRANCH  21  22
BRANCH  21  24
HETATM   24  C20 UNL     1      -3.109   9.594  15.677  1.00  0.00     0.185 C 
HETATM   25  O4  UNL     1      -3.857  10.531  15.366  1.00  0.00    -0.292 OA
BRANCH  24  26
HETATM   26  C21 UNL     1      -1.721   9.829  16.269  1.00  0.00     0.260 C 
BRANCH  26  27
HETATM   27  O5  UNL     1      -1.744   9.889  17.697  1.00  0.00    -0.314 OA
BRANCH  27  28
HETATM   28  C22 UNL     1      -1.325  11.080  18.210  1.00  0.00     0.259 C 
HETATM   29  O6  UNL     1      -1.649  12.176  17.774  1.00  0.00    -0.265 OA
BRANCH  28  30
HETATM   30  C23 UNL     1      -0.393  10.844  19.366  1.00  0.00     0.120 C 
BRANCH  30  31
HETATM   31  C24 UNL     1       0.293  12.142  19.776  1.00  0.00     0.112 C 
BRANCH  31  32
HETATM   32  C25 UNL     1       1.751  11.926  20.111  1.00  0.00     0.218 C 
HETATM   33  O7  UNL     1       2.669  12.534  19.573  1.00  0.00    -0.274 OA
HETATM   34  N1  UNL     1       1.935  10.983  21.098  1.00  0.00    -0.361 N 
HETATM   35  H32 UNL     1       1.128  10.563  21.539  1.00  0.00     0.162 HD
BRANCH  34  36
HETATM   36  C26 UNL     1       3.253  10.652  21.608  1.00  0.00     0.127 C 
BRANCH  36  37
HETATM   37  C27 UNL     1       3.514  11.278  22.980  1.00  0.00     0.058 C 
BRANCH  37  38
HETATM   38  C28 UNL     1       4.761  12.127  22.976  1.00  0.00    -0.057 A 
HETATM   39  C29 UNL     1       4.668  13.526  22.925  1.00  0.00     0.010 A 
HETATM   40  C30 UNL     1       5.822  14.314  22.951  1.00  0.00     0.037 A 
HETATM   41  C31 UNL     1       7.068  13.702  23.029  1.00  0.00     0.065 A 
HETATM   42  C32 UNL     1       7.178  12.318  23.084  1.00  0.00     0.037 A 
HETATM   43  C33 UNL     1       6.026  11.530  23.058  1.00  0.00     0.010 A 
BRANCH  41  44
HETATM   44  O8  UNL     1       8.219  14.433  23.060  1.00  0.00    -0.361 OA
HETATM   45  H39 UNL     1       7.987  15.375  23.020  1.00  0.00     0.217 HD
ENDBRANCH  41  44
ENDBRANCH  37  38
ENDBRANCH  36  37
ENDBRANCH  34  36
ENDBRANCH  31  32
ENDBRANCH  30  31
ENDBRANCH  28  30
ENDBRANCH  27  28
ENDBRANCH  26  27
ENDBRANCH  24  26
ENDBRANCH  21  24
TORSDOF 12
ENDMDL
MODEL 4
REMARK minimizedAffinity -8.37924576
REMARK CNNscore 0.368102044
REMARK CNNaffinity 6.53467607
REMARK  12 active torsions:
REMARK  status: ('A' for Active; 'I' for Inactive)
REMARK    1  A    between atoms: C19_21  and  O3_22 
REMARK    2  A    between atoms: C19_21  and  C20_23 
REMARK    3  A    between atoms: C20_23  and  C21_25 
REMARK    4  A    between atoms: C21_25  and  O5_26 
REMARK    5  A    between atoms: O5_26  and  C22_27 
REMARK    6  A    between atoms: C22_27  and  C23_29 
REMARK    7  A    between atoms: C23_29  and  C24_30 
REMARK    8  A    between atoms: C24_30  and  C25_31 
REMARK       I    between atoms: C25_31  and  N1_33 
REMARK    9  A    between atoms: N1_33  and  C26_34 
REMARK   10  A    between atoms: C26_34  and  C27_35 
REMARK   11  A    between atoms: C27_35  and  C28_36 
REMARK   12  A    between atoms: C31_39  and  O8_40 
ROOT
HETATM    1  C1  UNL     1      -0.099   7.583   9.922  1.00  0.00     0.021 C 
HETATM    2  C2  UNL     1       0.664   7.147  11.195  1.00  0.00    -0.009 C 
HETATM    3  C3  UNL     1       1.915   8.058  11.394  1.00  0.00     0.022 C 
HETATM    4  C4  UNL     1       3.040   7.783  10.407  1.00  0.00     0.084 C 
HETATM    5  C5  UNL     1       3.442   6.334  10.463  1.00  0.00     0.149 C 
HETATM    6  O1  UNL     1       4.591   5.958  10.250  1.00  0.00    -0.293 OA
HETATM    7  C6  UNL     1       2.379   5.331  10.701  1.00  0.00     0.053 C 
HETATM    8  C7  UNL     1       1.115   5.689  10.989  1.00  0.00    -0.067 C 
HETATM    9  C8  UNL     1       0.049   4.624  11.092  1.00  0.00     0.035 C 
HETATM   10  C9  UNL     1      -0.761   4.751  12.376  1.00  0.00     0.010 C 
HETATM   11  C10 UNL     1      -1.361   6.157  12.515  1.00  0.00     0.003 C 
HETATM   12  C11 UNL     1      -0.227   7.226  12.487  1.00  0.00     0.072 C 
HETATM   13  C12 UNL     1      -0.810   8.618  12.811  1.00  0.00     0.133 C 
HETATM   14  O2  UNL     1      -0.564   9.626  12.153  1.00  0.00    -0.297 OA
HETATM   15  C13 UNL     1      -1.674   8.723  14.060  1.00  0.00     0.091 C 
HETATM   16  C14 UNL     1      -2.806   7.691  13.993  1.00  0.00     0.005 C 
HETATM   17  C15 UNL     1      -3.765   8.068  12.832  1.00  0.00     0.019 C 
HETATM   18  C16 UNL     1      -2.153   6.295  13.823  1.00  0.00     0.002 C 
HETATM   19  C17 UNL     1      -3.304   5.327  14.078  1.00  0.00     0.009 C 
HETATM   20  C18 UNL     1      -4.186   6.035  15.129  1.00  0.00     0.047 C 
HETATM   21  C19 UNL     1      -3.597   7.451  15.310  1.00  0.00     0.128 C 
ENDROOT
BRANCH  21  22
HETATM   22  O3  UNL     1      -2.668   7.374  16.411  1.00  0.00    -0.381 OA
HETATM   23  H25 UNL     1      -2.552   8.287  16.747  1.00  0.00     0.211 HD
ENDBRANCH  21  22
BRANCH  21  24
HETATM   24  C20 UNL     1      -4.575   8.583  15.673  1.00  0.00     0.185 C 
HETATM   25  O4  UNL     1      -4.182   9.488  16.422  1.00  0.00    -0.292 OA
BRANCH  24  26
HETATM   26  C21 UNL     1      -5.986   8.570  15.092  1.00  0.00     0.260 C 
BRANCH  26  27
HETATM   27  O5  UNL     1      -6.954   8.092  16.029  1.00  0.00    -0.314 OA
BRANCH  27  28
HETATM   28  C22 UNL     1      -8.144   7.738  15.466  1.00  0.00     0.259 C 
HETATM   29  O6  UNL     1      -8.462   6.593  15.178  1.00  0.00    -0.265 OA
BRANCH  28  30
HETATM   30  C23 UNL     1      -8.988   8.961  15.233  1.00  0.00     0.120 C 
BRANCH  30  31
HETATM   31  C24 UNL     1     -10.349   8.810  15.902  1.00  0.00     0.112 C 
BRANCH  31  32
HETATM   32  C25 UNL     1     -11.399   8.310  14.937  1.00  0.00     0.218 C 
HETATM   33  O7  UNL     1     -12.053   9.043  14.204  1.00  0.00    -0.274 OA
HETATM   34  N1  UNL     1     -11.531   6.939  14.959  1.00  0.00    -0.361 N 
HETATM   35  H32 UNL     1     -10.916   6.392  15.548  1.00  0.00     0.162 HD
BRANCH  34  36
HETATM   36  C26 UNL     1     -12.449   6.241  14.080  1.00  0.00     0.127 C 
BRANCH  36  37
HETATM   37  C27 UNL     1     -13.851   6.128  14.683  1.00  0.00     0.058 C 
BRANCH  37  38
HETATM   38  C28 UNL     1     -14.907   6.652  13.741  1.00  0.00    -0.057 A 
HETATM   39  C29 UNL     1     -16.111   5.955  13.563  1.00  0.00     0.010 A 
HETATM   40  C30 UNL     1     -17.100   6.455  12.712  1.00  0.00     0.037 A 
HETATM   41  C31 UNL     1     -16.885   7.655  12.042  1.00  0.00     0.065 A 
HETATM   42  C32 UNL     1     -15.699   8.360  12.209  1.00  0.00     0.037 A 
HETATM   43  C33 UNL     1     -14.710   7.861  13.059  1.00  0.00     0.010 A 
BRANCH  41  44
HETATM   44  O8  UNL     1     -17.825   8.181  11.206  1.00  0.00    -0.361 OA
HETATM   45  H39 UNL     1     -18.593   7.587  11.192  1.00  0.00     0.217 HD
ENDBRANCH  41  44
ENDBRANCH  37  38
ENDBRANCH  36  37
ENDBRANCH  34  36
ENDBRANCH  31  32
ENDBRANCH  30  31
ENDBRANCH  28  30
ENDBRANCH  27  28
ENDBRANCH  26  27
ENDBRANCH  24  26
ENDBRANCH  21  24
TORSDOF 12
ENDMDL
MODEL 5
REMARK minimizedAffinity -7.97992849
REMARK CNNscore 0.351361781
REMARK CNNaffinity 6.89594126
REMARK  12 active torsions:
REMARK  status: ('A' for Active; 'I' for Inactive)
REMARK    1  A    between atoms: C19_21  and  O3_22 
REMARK    2  A    between atoms: C19_21  and  C20_23 
REMARK    3  A    between atoms: C20_23  and  C21_25 
REMARK    4  A    between atoms: C21_25  and  O5_26 
REMARK    5  A    between atoms: O5_26  and  C22_27 
REMARK    6  A    between atoms: C22_27  and  C23_29 
REMARK    7  A    between atoms: C23_29  and  C24_30 
REMARK    8  A    between atoms: C24_30  and  C25_31 
REMARK       I    between atoms: C25_31  and  N1_33 
REMARK    9  A    between atoms: N1_33  and  C26_34 
REMARK   10  A    between atoms: C26_34  and  C27_35 
REMARK   11  A    between atoms: C27_35  and  C28_36 
REMARK   12  A    between atoms: C31_39  and  O8_40 
ROOT
HETATM    1  C1  UNL     1      -2.078   4.612  10.264  1.00  0.00     0.021 C 
HETATM    2  C2  UNL     1      -1.956   3.854  11.606  1.00  0.00    -0.009 C 
HETATM    3  C3  UNL     1      -0.516   3.270  11.750  1.00  0.00     0.022 C 
HETATM    4  C4  UNL     1      -0.241   2.078  10.845  1.00  0.00     0.084 C 
HETATM    5  C5  UNL     1      -1.261   0.998  11.079  1.00  0.00     0.149 C 
HETATM    6  O1  UNL     1      -1.001  -0.195  10.954  1.00  0.00    -0.293 OA
HETATM    7  C6  UNL     1      -2.649   1.413  11.386  1.00  0.00     0.053 C 
HETATM    8  C7  UNL     1      -2.979   2.702  11.583  1.00  0.00    -0.067 C 
HETATM    9  C8  UNL     1      -4.432   3.076  11.763  1.00  0.00     0.035 C 
HETATM   10  C9  UNL     1      -4.646   3.950  12.993  1.00  0.00     0.010 C 
HETATM   11  C10 UNL     1      -3.751   5.195  12.949  1.00  0.00     0.003 C 
HETATM   12  C11 UNL     1      -2.254   4.773  12.846  1.00  0.00     0.072 C 
HETATM   13  C12 UNL     1      -1.347   6.014  12.988  1.00  0.00     0.133 C 
HETATM   14  O2  UNL     1      -0.411   6.261  12.231  1.00  0.00    -0.297 OA
HETATM   15  C13 UNL     1      -1.611   6.920  14.184  1.00  0.00     0.091 C 
HETATM   16  C14 UNL     1      -3.083   7.350  14.189  1.00  0.00     0.005 C 
HETATM   17  C15 UNL     1      -3.348   8.256  12.956  1.00  0.00     0.019 C 
HETATM   18  C16 UNL     1      -3.945   6.062  14.202  1.00  0.00     0.002 C 
HETATM   19  C17 UNL     1      -5.348   6.572  14.519  1.00  0.00     0.009 C 
HETATM   20  C18 UNL     1      -5.123   7.784  15.449  1.00  0.00     0.047 C 
HETATM   21  C19 UNL     1      -3.597   8.023  15.493  1.00  0.00     0.128 C 
ENDROOT
BRANCH  21  22
HETATM   22  O3  UNL     1      -3.097   7.291  16.630  1.00  0.00    -0.381 OA
HETATM   23  H25 UNL     1      -2.234   7.691  16.866  1.00  0.00     0.211 HD
ENDBRANCH  21  22
BRANCH  21  24
HETATM   24  C20 UNL     1      -3.114   9.472  15.688  1.00  0.00     0.185 C 
HETATM   25  O4  UNL     1      -3.847  10.396  15.311  1.00  0.00    -0.292 OA
BRANCH  24  26
HETATM   26  C21 UNL     1      -1.763   9.729  16.350  1.00  0.00     0.260 C 
BRANCH  26  27
HETATM   27  O5  UNL     1      -1.865   9.826  17.772  1.00  0.00    -0.314 OA
BRANCH  27  28
HETATM   28  C22 UNL     1      -2.575  10.906  18.205  1.00  0.00     0.259 C 
HETATM   29  O6  UNL     1      -3.603  10.842  18.866  1.00  0.00    -0.265 OA
BRANCH  28  30
HETATM   30  C23 UNL     1      -1.924  12.175  17.730  1.00  0.00     0.120 C 
BRANCH  30  31
HETATM   31  C24 UNL     1      -2.021  13.260  18.796  1.00  0.00     0.112 C 
BRANCH  31  32
HETATM   32  C25 UNL     1      -0.670  13.859  19.115  1.00  0.00     0.218 C 
HETATM   33  O7  UNL     1      -0.490  15.050  19.334  1.00  0.00    -0.274 OA
HETATM   34  N1  UNL     1       0.333  12.916  19.148  1.00  0.00    -0.361 N 
HETATM   35  H32 UNL     1       0.101  11.940  19.015  1.00  0.00     0.162 HD
BRANCH  34  36
HETATM   36  C26 UNL     1       1.702  13.262  19.481  1.00  0.00     0.127 C 
BRANCH  36  37
HETATM   37  C27 UNL     1       1.927  13.335  20.993  1.00  0.00     0.058 C 
BRANCH  37  38
HETATM   38  C28 UNL     1       2.260  11.983  21.573  1.00  0.00    -0.057 A 
HETATM   39  C29 UNL     1       1.679  10.820  21.046  1.00  0.00     0.010 A 
HETATM   40  C30 UNL     1       2.009   9.565  21.563  1.00  0.00     0.037 A 
HETATM   41  C31 UNL     1       2.922   9.474  22.608  1.00  0.00     0.065 A 
HETATM   42  C32 UNL     1       3.510  10.614  23.140  1.00  0.00     0.037 A 
HETATM   43  C33 UNL     1       3.181  11.869  22.623  1.00  0.00     0.010 A 
BRANCH  41  44
HETATM   44  O8  UNL     1       3.276   8.269  23.140  1.00  0.00    -0.361 OA
HETATM   45  H39 UNL     1       2.793   7.570  22.670  1.00  0.00     0.217 HD
ENDBRANCH  41  44
ENDBRANCH  37  38
ENDBRANCH  36  37
ENDBRANCH  34  36
ENDBRANCH  31  32
ENDBRANCH  30  31
ENDBRANCH  28  30
ENDBRANCH  27  28
ENDBRANCH  26  27
ENDBRANCH  24  26
ENDBRANCH  21  24
TORSDOF 12
ENDMDL
MODEL 6
REMARK minimizedAffinity -8.10678387
REMARK CNNscore 0.331207991
REMARK CNNaffinity 7.06735039
REMARK  12 active torsions:
REMARK  status: ('A' for Active; 'I' for Inactive)
REMARK    1  A    between atoms: C19_21  and  O3_22 
REMARK    2  A    between atoms: C19_21  and  C20_23 
REMARK    3  A    between atoms: C20_23  and  C21_25 
REMARK    4  A    between atoms: C21_25  and  O5_26 
REMARK    5  A    between atoms: O5_26  and  C22_27 
REMARK    6  A    between atoms: C22_27  and  C23_29 
REMARK    7  A    between atoms: C23_29  and  C24_30 
REMARK    8  A    between atoms: C24_30  and  C25_31 
REMARK       I    between atoms: C25_31  and  N1_33 
REMARK    9  A    between atoms: N1_33  and  C26_34 
REMARK   10  A    between atoms: C26_34  and  C27_35 
REMARK   11  A    between atoms: C27_35  and  C28_36 
REMARK   12  A    between atoms: C31_39  and  O8_40 
ROOT
HETATM    1  C1  UNL     1     -11.317   9.540  13.194  1.00  0.00     0.021 C 
HETATM    2  C2  UNL     1     -11.804   8.345  14.045  1.00  0.00    -0.009 C 
HETATM    3  C3  UNL     1     -13.004   7.647  13.333  1.00  0.00     0.022 C 
HETATM    4  C4  UNL     1     -14.299   8.444  13.385  1.00  0.00     0.084 C 
HETATM    5  C5  UNL     1     -14.660   8.763  14.810  1.00  0.00     0.149 C 
HETATM    6  O1  UNL     1     -15.823   8.865  15.191  1.00  0.00    -0.293 OA
HETATM    7  C6  UNL     1     -13.556   9.046  15.755  1.00  0.00     0.053 C 
HETATM    8  C7  UNL     1     -12.265   8.902  15.405  1.00  0.00    -0.067 C 
HETATM    9  C8  UNL     1     -11.184   9.332  16.369  1.00  0.00     0.035 C 
HETATM   10  C9  UNL     1     -10.137   8.244  16.571  1.00  0.00     0.010 C 
HETATM   11  C10 UNL     1      -9.542   7.793  15.230  1.00  0.00     0.003 C 
HETATM   12  C11 UNL     1     -10.674   7.280  14.289  1.00  0.00     0.072 C 
HETATM   13  C12 UNL     1     -10.059   6.658  13.018  1.00  0.00     0.133 C 
HETATM   14  O2  UNL     1     -10.447   6.916  11.880  1.00  0.00    -0.297 OA
HETATM   15  C13 UNL     1      -8.965   5.619  13.226  1.00  0.00     0.091 C 
HETATM   16  C14 UNL     1      -7.854   6.210  14.103  1.00  0.00     0.005 C 
HETATM   17  C15 UNL     1      -7.152   7.355  13.325  1.00  0.00     0.019 C 
HETATM   18  C16 UNL     1      -8.507   6.677  15.429  1.00  0.00     0.002 C 
HETATM   19  C17 UNL     1      -7.313   6.950  16.340  1.00  0.00     0.009 C 
HETATM   20  C18 UNL     1      -6.250   5.914  15.913  1.00  0.00     0.047 C 
HETATM   21  C19 UNL     1      -6.813   5.201  14.664  1.00  0.00     0.128 C 
ENDROOT
BRANCH  21  22
HETATM   22  O3  UNL     1      -7.502   4.025  15.136  1.00  0.00    -0.381 OA
HETATM   23  H25 UNL     1      -7.562   3.409  14.377  1.00  0.00     0.211 HD
ENDBRANCH  21  22
BRANCH  21  24
HETATM   24  C20 UNL     1      -5.799   4.695  13.622  1.00  0.00     0.185 C 
HETATM   25  O4  UNL     1      -6.201   3.949  12.718  1.00  0.00    -0.292 OA
BRANCH  24  26
HETATM   26  C21 UNL     1      -4.341   5.136  13.719  1.00  0.00     0.260 C 
BRANCH  26  27
HETATM   27  O5  UNL     1      -3.661   5.043  12.466  1.00  0.00    -0.314 OA
BRANCH  27  28
HETATM   28  C22 UNL     1      -2.736   4.043  12.409  1.00  0.00     0.259 C 
HETATM   29  O6  UNL     1      -3.002   2.850  12.408  1.00  0.00    -0.265 OA
BRANCH  28  30
HETATM   30  C23 UNL     1      -1.350   4.625  12.373  1.00  0.00     0.120 C 
BRANCH  30  31
HETATM   31  C24 UNL     1      -1.173   5.520  11.153  1.00  0.00     0.112 C 
BRANCH  31  32
HETATM   32  C25 UNL     1       0.053   6.395  11.268  1.00  0.00     0.218 C 
HETATM   33  O7  UNL     1       0.503   6.797  12.334  1.00  0.00    -0.274 OA
HETATM   34  N1  UNL     1       0.619   6.680  10.045  1.00  0.00    -0.361 N 
HETATM   35  H32 UNL     1       0.227   6.265   9.210  1.00  0.00     0.162 HD
BRANCH  34  36
HETATM   36  C26 UNL     1       1.832   7.467   9.924  1.00  0.00     0.127 C 
BRANCH  36  37
HETATM   37  C27 UNL     1       3.055   6.598   9.622  1.00  0.00     0.058 C 
BRANCH  37  38
HETATM   38  C28 UNL     1       4.306   7.160  10.250  1.00  0.00    -0.057 A 
HETATM   39  C29 UNL     1       4.583   8.533  10.180  1.00  0.00     0.010 A 
HETATM   40  C30 UNL     1       5.727   9.058  10.786  1.00  0.00     0.037 A 
HETATM   41  C31 UNL     1       6.593   8.208  11.466  1.00  0.00     0.065 A 
HETATM   42  C32 UNL     1       6.333   6.846  11.549  1.00  0.00     0.037 A 
HETATM   43  C33 UNL     1       5.190   6.321  10.943  1.00  0.00     0.010 A 
BRANCH  41  44
HETATM   44  O8  UNL     1       7.718   8.679  12.075  1.00  0.00    -0.361 OA
HETATM   45  H39 UNL     1       7.765   9.639  11.938  1.00  0.00     0.217 HD
ENDBRANCH  41  44
ENDBRANCH  37  38
ENDBRANCH  36  37
ENDBRANCH  34  36
ENDBRANCH  31  32
ENDBRANCH  30  31
ENDBRANCH  28  30
ENDBRANCH  27  28
ENDBRANCH  26  27
ENDBRANCH  24  26
ENDBRANCH  21  24
TORSDOF 12
ENDMDL
MODEL 7
REMARK minimizedAffinity -7.89298439
REMARK CNNscore 0.310737908
REMARK CNNaffinity 5.82957315
REMARK  12 active torsions:
REMARK  status: ('A' for Active; 'I' for Inactive)
REMARK    1  A    between atoms: C19_21  and  O3_22 
REMARK    2  A    between atoms: C19_21  and  C20_23 
REMARK    3  A    between atoms: C20_23  and  C21_25 
REMARK    4  A    between atoms: C21_25  and  O5_26 
REMARK    5  A    between atoms: O5_26  and  C22_27 
REMARK    6  A    between atoms: C22_27  and  C23_29 
REMARK    7  A    between atoms: C23_29  and  C24_30 
REMARK    8  A    between atoms: C24_30  and  C25_31 
REMARK       I    between atoms: C25_31  and  N1_33 
REMARK    9  A    between atoms: N1_33  and  C26_34 
REMARK   10  A    between atoms: C26_34  and  C27_35 
REMARK   11  A    between atoms: C27_35  and  C28_36 
REMARK   12  A    between atoms: C31_39  and  O8_40 
ROOT
HETATM    1  C1  UNL     1     -17.430  -1.373  14.799  1.00  0.00     0.021 C 
HETATM    2  C2  UNL     1     -15.945  -0.961  14.681  1.00  0.00    -0.009 C 
HETATM    3  C3  UNL     1     -15.471  -0.318  16.022  1.00  0.00     0.022 C 
HETATM    4  C4  UNL     1     -16.027   1.078  16.266  1.00  0.00     0.084 C 
HETATM    5  C5  UNL     1     -15.691   1.983  15.113  1.00  0.00     0.149 C 
HETATM    6  O1  UNL     1     -15.497   3.187  15.252  1.00  0.00    -0.293 OA
HETATM    7  C6  UNL     1     -15.684   1.396  13.754  1.00  0.00     0.053 C 
HETATM    8  C7  UNL     1     -15.841   0.076  13.548  1.00  0.00    -0.067 C 
HETATM    9  C8  UNL     1     -15.955  -0.444  12.134  1.00  0.00     0.035 C 
HETATM   10  C9  UNL     1     -15.005  -1.607  11.877  1.00  0.00     0.010 C 
HETATM   11  C10 UNL     1     -15.213  -2.728  12.903  1.00  0.00     0.003 C 
HETATM   12  C11 UNL     1     -15.006  -2.176  14.346  1.00  0.00     0.072 C 
HETATM   13  C12 UNL     1     -15.033  -3.338  15.361  1.00  0.00     0.133 C 
HETATM   14  O2  UNL     1     -15.689  -3.317  16.400  1.00  0.00    -0.297 OA
HETATM   15  C13 UNL     1     -14.130  -4.527  15.063  1.00  0.00     0.091 C 
HETATM   16  C14 UNL     1     -14.429  -5.061  13.657  1.00  0.00     0.005 C 
HETATM   17  C15 UNL     1     -15.863  -5.656  13.638  1.00  0.00     0.019 C 
HETATM   18  C16 UNL     1     -14.236  -3.888  12.662  1.00  0.00     0.002 C 
HETATM   19  C17 UNL     1     -14.243  -4.570  11.298  1.00  0.00     0.009 C 
HETATM   20  C18 UNL     1     -13.599  -5.951  11.546  1.00  0.00     0.047 C 
HETATM   21  C19 UNL     1     -13.402  -6.072  13.073  1.00  0.00     0.128 C 
ENDROOT
BRANCH  21  22
HETATM   22  O3  UNL     1     -12.067  -5.604  13.355  1.00  0.00    -0.381 OA
HETATM   23  H25 UNL     1     -11.813  -5.980  14.224  1.00  0.00     0.211 HD
ENDBRANCH  21  22
BRANCH  21  24
HETATM   24  C20 UNL     1     -13.484  -7.481  13.688  1.00  0.00     0.185 C 
HETATM   25  O4  UNL     1     -13.616  -8.451  12.929  1.00  0.00    -0.292 OA
BRANCH  24  26
HETATM   26  C21 UNL     1     -13.385  -7.646  15.202  1.00  0.00     0.260 C 
BRANCH  26  27
HETATM   27  O5  UNL     1     -12.053  -7.456  15.683  1.00  0.00    -0.314 OA
BRANCH  27  28
HETATM   28  C22 UNL     1     -11.286  -8.583  15.653  1.00  0.00     0.259 C 
HETATM   29  O6  UNL     1     -10.444  -8.828  14.801  1.00  0.00    -0.265 OA
BRANCH  28  30
HETATM   30  C23 UNL     1     -11.648  -9.482  16.803  1.00  0.00     0.120 C 
BRANCH  30  31
HETATM   31  C24 UNL     1     -10.430 -10.268  17.274  1.00  0.00     0.112 C 
BRANCH  31  32
HETATM   32  C25 UNL     1      -9.857  -9.706  18.554  1.00  0.00     0.218 C 
HETATM   33  O7  UNL     1      -9.298  -8.618  18.629  1.00  0.00    -0.274 OA
HETATM   34  N1  UNL     1     -10.046 -10.542  19.632  1.00  0.00    -0.361 N 
HETATM   35  H32 UNL     1     -10.569 -11.399  19.509  1.00  0.00     0.162 HD
BRANCH  34  36
HETATM   36  C26 UNL     1      -9.616 -10.181  20.970  1.00  0.00     0.127 C 
BRANCH  36  37
HETATM   37  C27 UNL     1     -10.327 -11.004  22.046  1.00  0.00     0.058 C 
BRANCH  37  38
HETATM   38  C28 UNL     1      -9.397 -12.007  22.684  1.00  0.00    -0.057 A 
HETATM   39  C29 UNL     1      -9.547 -13.378  22.430  1.00  0.00     0.010 A 
HETATM   40  C30 UNL     1      -8.668 -14.305  22.998  1.00  0.00     0.037 A 
HETATM   41  C31 UNL     1      -7.639 -13.858  23.819  1.00  0.00     0.065 A 
HETATM   42  C32 UNL     1      -7.474 -12.503  24.079  1.00  0.00     0.037 A 
HETATM   43  C33 UNL     1      -8.351 -11.577  23.512  1.00  0.00     0.010 A 
BRANCH  41  44
HETATM   44  O8  UNL     1      -6.757 -14.728  24.391  1.00  0.00    -0.361 OA
HETATM   45  H39 UNL     1      -6.993 -15.629  24.118  1.00  0.00     0.217 HD
ENDBRANCH  41  44
ENDBRANCH  37  38
ENDBRANCH  36  37
ENDBRANCH  34  36
ENDBRANCH  31  32
ENDBRANCH  30  31
ENDBRANCH  28  30
ENDBRANCH  27  28
ENDBRANCH  26  27
ENDBRANCH  24  26
ENDBRANCH  21  24
TORSDOF 12
ENDMDL
MODEL 8
REMARK minimizedAffinity -8.07017326
REMARK CNNscore 0.304486096
REMARK CNNaffinity 6.06305456
REMARK  12 active torsions:
REMARK  status: ('A' for Active; 'I' for Inactive)
REMARK    1  A    between atoms: C19_21  and  O3_22 
REMARK    2  A    between atoms: C19_21  and  C20_23 
REMARK    3  A    between atoms: C20_23  and  C21_25 
REMARK    4  A    between atoms: C21_25  and  O5_26 
REMARK    5  A    between atoms: O5_26  and  C22_27 
REMARK    6  A    between atoms: C22_27  and  C23_29 
REMARK    7  A    between atoms: C23_29  and  C24_30 
REMARK    8  A    between atoms: C24_30  and  C25_31 
REMARK       I    between atoms: C25_31  and  N1_33 
REMARK    9  A    between atoms: N1_33  and  C26_34 
REMARK   10  A    between atoms: C26_34  and  C27_35 
REMARK   11  A    between atoms: C27_35  and  C28_36 
REMARK   12  A    between atoms: C31_39  and  O8_40 
ROOT
HETATM    1  C1  UNL     1      -3.323   8.319  12.622  1.00  0.00     0.021 C 
HETATM    2  C2  UNL     1      -3.597   7.463  13.880  1.00  0.00    -0.009 C 
HETATM    3  C3  UNL     1      -2.890   6.080  13.738  1.00  0.00     0.022 C 
HETATM    4  C4  UNL     1      -3.557   5.147  12.737  1.00  0.00     0.084 C 
HETATM    5  C5  UNL     1      -5.006   4.952  13.090  1.00  0.00     0.149 C 
HETATM    6  O1  UNL     1      -5.608   3.907  12.859  1.00  0.00    -0.293 OA
HETATM    7  C6  UNL     1      -5.740   6.105  13.658  1.00  0.00     0.053 C 
HETATM    8  C7  UNL     1      -5.120   7.256  13.976  1.00  0.00    -0.067 C 
HETATM    9  C8  UNL     1      -5.943   8.440  14.429  1.00  0.00     0.035 C 
HETATM   10  C9  UNL     1      -5.408   9.044  15.721  1.00  0.00     0.010 C 
HETATM   11  C10 UNL     1      -3.925   9.414  15.587  1.00  0.00     0.003 C 
HETATM   12  C11 UNL     1      -3.094   8.153  15.200  1.00  0.00     0.072 C 
HETATM   13  C12 UNL     1      -1.587   8.484  15.245  1.00  0.00     0.133 C 
HETATM   14  O2  UNL     1      -0.799   8.187  14.349  1.00  0.00    -0.297 OA
HETATM   15  C13 UNL     1      -1.071   9.149  16.514  1.00  0.00     0.091 C 
HETATM   16  C14 UNL     1      -1.888  10.415  16.800  1.00  0.00     0.005 C 
HETATM   17  C15 UNL     1      -1.613  11.457  15.683  1.00  0.00     0.019 C 
HETATM   18  C16 UNL     1      -3.377   9.996  16.897  1.00  0.00     0.002 C 
HETATM   19  C17 UNL     1      -4.059  11.229  17.483  1.00  0.00     0.009 C 
HETATM   20  C18 UNL     1      -3.004  11.853  18.421  1.00  0.00     0.047 C 
HETATM   21  C19 UNL     1      -1.702  11.049  18.208  1.00  0.00     0.128 C 
ENDROOT
BRANCH  21  22
HETATM   22  O3  UNL     1      -1.696  10.002  19.200  1.00  0.00    -0.381 OA
HETATM   23  H25 UNL     1      -0.766   9.713  19.301  1.00  0.00     0.211 HD
ENDBRANCH  21  22
BRANCH  21  24
HETATM   24  C20 UNL     1      -0.370  11.799  18.391  1.00  0.00     0.185 C 
HETATM   25  O4  UNL     1      -0.382  13.037  18.387  1.00  0.00    -0.292 OA
BRANCH  24  26
HETATM   26  C21 UNL     1       0.918  11.003  18.587  1.00  0.00     0.260 C 
BRANCH  26  27
HETATM   27  O5  UNL     1       1.222  10.795  19.968  1.00  0.00    -0.314 OA
BRANCH  27  28
HETATM   28  C22 UNL     1       2.459  10.268  20.191  1.00  0.00     0.259 C 
HETATM   29  O6  UNL     1       3.400  10.351  19.414  1.00  0.00    -0.265 OA
BRANCH  28  30
HETATM   30  C23 UNL     1       2.484   9.552  21.514  1.00  0.00     0.120 C 
BRANCH  30  31
HETATM   31  C24 UNL     1       3.711   9.957  22.321  1.00  0.00     0.112 C 
BRANCH  31  32
HETATM   32  C25 UNL     1       3.671  11.415  22.714  1.00  0.00     0.218 C 
HETATM   33  O7  UNL     1       3.056  11.841  23.685  1.00  0.00    -0.274 OA
HETATM   34  N1  UNL     1       4.413  12.212  21.871  1.00  0.00    -0.361 N 
HETATM   35  H32 UNL     1       4.943  11.785  21.123  1.00  0.00     0.162 HD
BRANCH  34  36
HETATM   36  C26 UNL     1       4.552  13.640  22.089  1.00  0.00     0.127 C 
BRANCH  36  37
HETATM   37  C27 UNL     1       5.729  13.971  23.010  1.00  0.00     0.058 C 
BRANCH  37  38
HETATM   38  C28 UNL     1       7.023  13.396  22.490  1.00  0.00    -0.057 A 
HETATM   39  C29 UNL     1       7.576  13.862  21.288  1.00  0.00     0.010 A 
HETATM   40  C30 UNL     1       8.789  13.349  20.820  1.00  0.00     0.037 A 
HETATM   41  C31 UNL     1       9.449  12.372  21.557  1.00  0.00     0.065 A 
HETATM   42  C32 UNL     1       8.918  11.901  22.752  1.00  0.00     0.037 A 
HETATM   43  C33 UNL     1       7.706  12.413  23.219  1.00  0.00     0.010 A 
BRANCH  41  44
HETATM   44  O8  UNL     1      10.637  11.847  21.140  1.00  0.00    -0.361 OA
HETATM   45  H39 UNL     1      10.884  12.271  20.302  1.00  0.00     0.217 HD
ENDBRANCH  41  44
ENDBRANCH  37  38
ENDBRANCH  36  37
ENDBRANCH  34  36
ENDBRANCH  31  32
ENDBRANCH  30  31
ENDBRANCH  28  30
ENDBRANCH  27  28
ENDBRANCH  26  27
ENDBRANCH  24  26
ENDBRANCH  21  24
TORSDOF 12
ENDMDL
MODEL 9
REMARK minimizedAffinity -9.67050552
REMARK CNNscore 0.294908494
REMARK CNNaffinity 7.13747644
REMARK  12 active torsions:
REMARK  status: ('A' for Active; 'I' for Inactive)
REMARK    1  A    between atoms: C19_21  and  O3_22 
REMARK    2  A    between atoms: C19_21  and  C20_23 
REMARK    3  A    between atoms: C20_23  and  C21_25 
REMARK    4  A    between atoms: C21_25  and  O5_26 
REMARK    5  A    between atoms: O5_26  and  C22_27 
REMARK    6  A    between atoms: C22_27  and  C23_29 
REMARK    7  A    between atoms: C23_29  and  C24_30 
REMARK    8  A    between atoms: C24_30  and  C25_31 
REMARK       I    between atoms: C25_31  and  N1_33 
REMARK    9  A    between atoms: N1_33  and  C26_34 
REMARK   10  A    between atoms: C26_34  and  C27_35 
REMARK   11  A    between atoms: C27_35  and  C28_36 
REMARK   12  A    between atoms: C31_39  and  O8_40 
ROOT
HETATM    1  C1  UNL     1      -7.129   5.384  15.709  1.00  0.00     0.021 C 
HETATM    2  C2  UNL     1      -7.128   6.168  14.377  1.00  0.00    -0.009 C 
HETATM    3  C3  UNL     1      -7.912   7.506  14.556  1.00  0.00     0.022 C 
HETATM    4  C4  UNL     1      -9.420   7.328  14.660  1.00  0.00     0.084 C 
HETATM    5  C5  UNL     1      -9.941   6.581  13.463  1.00  0.00     0.149 C 
HETATM    6  O1  UNL     1     -11.062   6.774  12.999  1.00  0.00    -0.293 OA
HETATM    7  C6  UNL     1      -9.089   5.515  12.889  1.00  0.00     0.053 C 
HETATM    8  C7  UNL     1      -7.835   5.295  13.325  1.00  0.00    -0.067 C 
HETATM    9  C8  UNL     1      -7.063   4.110  12.791  1.00  0.00     0.035 C 
HETATM   10  C9  UNL     1      -5.676   4.508  12.304  1.00  0.00     0.010 C 
HETATM   11  C10 UNL     1      -4.891   5.237  13.403  1.00  0.00     0.003 C 
HETATM   12  C11 UNL     1      -5.677   6.499  13.873  1.00  0.00     0.072 C 
HETATM   13  C12 UNL     1      -4.807   7.328  14.841  1.00  0.00     0.133 C 
HETATM   14  O2  UNL     1      -5.215   7.764  15.915  1.00  0.00    -0.297 OA
HETATM   15  C13 UNL     1      -3.398   7.665  14.375  1.00  0.00     0.091 C 
HETATM   16  C14 UNL     1      -2.660   6.377  13.991  1.00  0.00     0.005 C 
HETATM   17  C15 UNL     1      -2.446   5.519  15.266  1.00  0.00     0.019 C 
HETATM   18  C16 UNL     1      -3.503   5.664  12.904  1.00  0.00     0.002 C 
HETATM   19  C17 UNL     1      -2.563   4.588  12.368  1.00  0.00     0.009 C 
HETATM   20  C18 UNL     1      -1.155   5.212  12.469  1.00  0.00     0.047 C 
HETATM   21  C19 UNL     1      -1.326   6.556  13.212  1.00  0.00     0.128 C 
ENDROOT
BRANCH  21  22
HETATM   22  O3  UNL     1      -1.502   7.568  12.201  1.00  0.00    -0.381 OA
HETATM   23  H25 UNL     1      -1.274   8.426  12.616  1.00  0.00     0.211 HD
ENDBRANCH  21  22
BRANCH  21  24
HETATM   24  C20 UNL     1      -0.149   7.038  14.080  1.00  0.00     0.185 C 
HETATM   25  O4  UNL     1      -0.355   7.932  14.912  1.00  0.00    -0.292 OA
BRANCH  24  26
HETATM   26  C21 UNL     1       1.225   6.397  13.903  1.00  0.00     0.260 C 
BRANCH  26  27
HETATM   27  O5  UNL     1       2.198   7.323  13.417  1.00  0.00    -0.314 OA
BRANCH  27  28
HETATM   28  C22 UNL     1       3.058   7.779  14.371  1.00  0.00     0.259 C 
HETATM   29  O6  UNL     1       2.936   7.573  15.571  1.00  0.00    -0.265 OA
BRANCH  28  30
HETATM   30  C23 UNL     1       4.154   8.587  13.734  1.00  0.00     0.120 C 
BRANCH  30  31
HETATM   31  C24 UNL     1       5.417   7.750  13.577  1.00  0.00     0.112 C 
BRANCH  31  32
HETATM   32  C25 UNL     1       5.675   7.385  12.134  1.00  0.00     0.218 C 
HETATM   33  O7  UNL     1       6.578   7.869  11.461  1.00  0.00    -0.274 OA
HETATM   34  N1  UNL     1       4.795   6.436  11.661  1.00  0.00    -0.361 N 
HETATM   35  H32 UNL     1       4.112   6.038  12.291  1.00  0.00     0.162 HD
BRANCH  34  36
HETATM   36  C26 UNL     1       4.889   5.905  10.315  1.00  0.00     0.127 C 
BRANCH  36  37
HETATM   37  C27 UNL     1       3.579   5.258   9.858  1.00  0.00     0.058 C 
BRANCH  37  38
HETATM   38  C28 UNL     1       2.547   6.293   9.483  1.00  0.00    -0.057 A 
HETATM   39  C29 UNL     1       1.340   6.383  10.191  1.00  0.00     0.010 A 
HETATM   40  C30 UNL     1       0.397   7.361   9.862  1.00  0.00     0.037 A 
HETATM   41  C31 UNL     1       0.664   8.249   8.827  1.00  0.00     0.065 A 
HETATM   42  C32 UNL     1       1.857   8.177   8.118  1.00  0.00     0.037 A 
HETATM   43  C33 UNL     1       2.799   7.201   8.445  1.00  0.00     0.010 A 
BRANCH  41  44
HETATM   44  O8  UNL     1      -0.227   9.221   8.476  1.00  0.00    -0.361 OA
HETATM   45  H39 UNL     1      -1.003   9.152   9.055  1.00  0.00     0.217 HD
ENDBRANCH  41  44
ENDBRANCH  37  38
ENDBRANCH  36  37
ENDBRANCH  34  36
ENDBRANCH  31  32
ENDBRANCH  30  31
ENDBRANCH  28  30
ENDBRANCH  27  28
ENDBRANCH  26  27
ENDBRANCH  24  26
ENDBRANCH  21  24
TORSDOF 12
ENDMDL
