MODEL 1
REMARK minimizedAffinity -8.64968109
REMARK  10 active torsions:
REMARK  status: ('A' for Active; 'I' for Inactive)
REMARK    1  A    between atoms: C12_14  and  C13_15 
REMARK    2  A    between atoms: C13_15  and  C15_17 
REMARK    3  A    between atoms: C15_17  and  C16_18 
REMARK    4  A    between atoms: C16_18  and  C17_19 
REMARK    5  A    between atoms: C18_20  and  C20_22 
REMARK    6  A    between atoms: C20_22  and  O3_23 
REMARK    7  A    between atoms: C26_29  and  C27_30 
REMARK    8  A    between atoms: C27_30  and  C28_31 
REMARK    9  A    between atoms: C28_31  and  C29_32 
REMARK   10  A    between atoms: C29_32  and  O5_34 
ROOT
HETATM    1  C1  UNL     1       1.735   7.321  14.081  1.00  0.00     0.025 C 
HETATM    2  C2  UNL     1       0.666   8.127  14.044  1.00  0.00     0.015 C 
HETATM    3  C3  UNL     1       0.679   9.451  14.702  1.00  0.00     0.289 C 
HETATM    4  O1  UNL     1       1.639   9.997  15.212  1.00  0.00    -0.260 OA
HETATM    5  O2  UNL     1      -0.575   9.968  14.622  1.00  0.00    -0.311 OA
HETATM    6  C4  UNL     1      -1.501   8.982  14.127  1.00  0.00     0.142 C 
HETATM    7  C5  UNL     1      -2.333   8.487  15.302  1.00  0.00     0.039 C 
HETATM    8  C6  UNL     1      -3.245   7.286  15.012  1.00  0.00     0.006 C 
HETATM    9  C7  UNL     1      -2.553   6.178  14.184  1.00  0.00    -0.027 A 
HETATM   10  C8  UNL     1      -3.468   4.995  13.810  1.00  0.00     0.011 C 
HETATM   11  C9  UNL     1      -4.895   5.365  13.375  1.00  0.00     0.011 C 
HETATM   12  C10 UNL     1      -5.551   6.335  14.370  1.00  0.00    -0.032 C 
HETATM   13  C11 UNL     1      -5.701   5.624  15.752  1.00  0.00     0.016 C 
HETATM   14  C12 UNL     1      -6.942   6.934  13.975  1.00  0.00    -0.002 C 
HETATM   15  C21 UNL     1      -6.957   8.283  14.762  1.00  0.00     0.006 C 
HETATM   16  C22 UNL     1      -5.520   8.576  15.229  1.00  0.00     0.011 C 
HETATM   17  C23 UNL     1      -4.640   7.631  14.400  1.00  0.00    -0.032 C 
HETATM   18  C24 UNL     1      -4.457   8.299  13.000  1.00  0.00     0.016 C 
HETATM   19  C25 UNL     1      -1.198   5.716  14.662  1.00  0.00     0.022 A 
HETATM   20  C26 UNL     1      -1.263   6.515  13.371  1.00  0.00    -0.021 A 
HETATM   21  C31 UNL     1      -0.670   7.932  13.405  1.00  0.00     0.063 C 
ENDROOT
BRANCH  14  22
HETATM   22  C13 UNL     1      -8.251   6.114  14.205  1.00  0.00    -0.014 C 
HETATM   23  C14 UNL     1      -8.457   5.040  13.129  1.00  0.00     0.010 C 
BRANCH  22  24
HETATM   24  C15 UNL     1      -9.480   7.065  14.245  1.00  0.00     0.008 C 
BRANCH  24  25
HETATM   25  C16 UNL     1     -10.478   6.842  13.101  1.00  0.00     0.028 C 
BRANCH  25  26
HETATM   26  C17 UNL     1     -11.287   8.085  12.843  1.00  0.00    -0.022 C 
HETATM   27  C18 UNL     1     -12.624   8.234  12.948  1.00  0.00    -0.064 C 
HETATM   28  C19 UNL     1     -13.569   7.160  13.416  1.00  0.00     0.045 C 
BRANCH  27  29
HETATM   29  C20 UNL     1     -13.281   9.549  12.620  1.00  0.00     0.197 C 
BRANCH  29  30
HETATM   30  O3  UNL     1     -12.574  10.158  11.550  1.00  0.00    -0.397 OA
HETATM   31  H29 UNL     1     -13.013  11.007  11.376  1.00  0.00     0.209 HD
ENDBRANCH  29  30
ENDBRANCH  27  29
ENDBRANCH  25  26
ENDBRANCH  24  25
ENDBRANCH  22  24
ENDBRANCH  14  22
BRANCH  20  32
HETATM   32  C27 UNL     1      -1.071   5.830  12.006  1.00  0.00     0.021 C 
BRANCH  32  33
HETATM   33  C28 UNL     1      -0.244   4.546  12.025  1.00  0.00     0.112 C 
BRANCH  33  34
HETATM   34  C29 UNL     1      -0.962   3.421  11.318  1.00  0.00     0.258 C 
HETATM   35  O4  UNL     1      -2.090   3.484  10.850  1.00  0.00    -0.265 OA
BRANCH  34  36
HETATM   36  O5  UNL     1      -0.167   2.313  11.303  1.00  0.00    -0.326 OA
HETATM   37  C30 UNL     1      -0.812   1.141  10.805  1.00  0.00     0.213 C 
ENDBRANCH  34  36
ENDBRANCH  33  34
ENDBRANCH  32  33
ENDBRANCH  20  32
TORSDOF 10
ENDMDL
MODEL 2
REMARK minimizedAffinity -8.56741047
REMARK  10 active torsions:
REMARK  status: ('A' for Active; 'I' for Inactive)
REMARK    1  A    between atoms: C12_14  and  C13_15 
REMARK    2  A    between atoms: C13_15  and  C15_17 
REMARK    3  A    between atoms: C15_17  and  C16_18 
REMARK    4  A    between atoms: C16_18  and  C17_19 
REMARK    5  A    between atoms: C18_20  and  C20_22 
REMARK    6  A    between atoms: C20_22  and  O3_23 
REMARK    7  A    between atoms: C26_29  and  C27_30 
REMARK    8  A    between atoms: C27_30  and  C28_31 
REMARK    9  A    between atoms: C28_31  and  C29_32 
REMARK   10  A    between atoms: C29_32  and  O5_34 
ROOT
HETATM    1  C1  UNL     1       4.153   7.540   9.916  1.00  0.00     0.025 C 
HETATM    2  C2  UNL     1       3.351   6.581  10.396  1.00  0.00     0.015 C 
HETATM    3  C3  UNL     1       3.125   5.324   9.650  1.00  0.00     0.289 C 
HETATM    4  O1  UNL     1       3.703   4.967   8.641  1.00  0.00    -0.260 OA
HETATM    5  O2  UNL     1       2.166   4.619  10.304  1.00  0.00    -0.311 OA
HETATM    6  C4  UNL     1       1.569   5.416  11.345  1.00  0.00     0.142 C 
HETATM    7  C5  UNL     1       0.195   5.861  10.867  1.00  0.00     0.039 C 
HETATM    8  C6  UNL     1      -0.520   6.887  11.759  1.00  0.00     0.006 C 
HETATM    9  C7  UNL     1       0.406   8.025  12.246  1.00  0.00    -0.027 A 
HETATM   10  C8  UNL     1      -0.264   9.026  13.208  1.00  0.00     0.011 C 
HETATM   11  C9  UNL     1      -1.190   8.415  14.271  1.00  0.00     0.011 C 
HETATM   12  C10 UNL     1      -2.189   7.430  13.644  1.00  0.00    -0.032 C 
HETATM   13  C11 UNL     1      -3.124   8.206  12.664  1.00  0.00     0.016 C 
HETATM   14  C12 UNL     1      -3.087   6.601  14.623  1.00  0.00    -0.002 C 
HETATM   15  C21 UNL     1      -3.403   5.324  13.781  1.00  0.00     0.006 C 
HETATM   16  C22 UNL     1      -2.426   5.286  12.591  1.00  0.00     0.011 C 
HETATM   17  C23 UNL     1      -1.327   6.292  12.957  1.00  0.00    -0.032 C 
HETATM   18  C24 UNL     1      -0.358   5.562  13.942  1.00  0.00     0.016 C 
HETATM   19  C25 UNL     1       1.241   8.720  11.198  1.00  0.00     0.022 A 
HETATM   20  C26 UNL     1       1.955   7.831  12.202  1.00  0.00    -0.021 A 
HETATM   21  C31 UNL     1       2.560   6.526  11.662  1.00  0.00     0.063 C 
ENDROOT
BRANCH  14  22
HETATM   22  C13 UNL     1      -4.380   7.227  15.234  1.00  0.00    -0.014 C 
HETATM   23  C14 UNL     1      -5.251   6.182  15.941  1.00  0.00     0.010 C 
BRANCH  22  24
HETATM   24  C15 UNL     1      -5.205   7.943  14.127  1.00  0.00     0.008 C 
BRANCH  24  25
HETATM   25  C16 UNL     1      -6.658   7.464  14.026  1.00  0.00     0.028 C 
BRANCH  25  26
HETATM   26  C17 UNL     1      -6.722   6.022  13.598  1.00  0.00    -0.022 C 
HETATM   27  C18 UNL     1      -7.798   5.343  13.148  1.00  0.00    -0.064 C 
HETATM   28  C19 UNL     1      -9.161   5.946  12.935  1.00  0.00     0.045 C 
BRANCH  27  29
HETATM   29  C20 UNL     1      -7.693   3.885  12.787  1.00  0.00     0.197 C 
BRANCH  29  30
HETATM   30  O3  UNL     1      -8.971   3.285  12.932  1.00  0.00    -0.397 OA
HETATM   31  H29 UNL     1      -8.864   2.347  12.708  1.00  0.00     0.209 HD
ENDBRANCH  29  30
ENDBRANCH  27  29
ENDBRANCH  25  26
ENDBRANCH  24  25
ENDBRANCH  22  24
ENDBRANCH  14  22
BRANCH  20  32
HETATM   32  C27 UNL     1       2.791   8.438  13.343  1.00  0.00     0.021 C 
BRANCH  32  33
HETATM   33  C28 UNL     1       4.201   7.871  13.499  1.00  0.00     0.112 C 
BRANCH  33  34
HETATM   34  C29 UNL     1       4.844   8.348  14.779  1.00  0.00     0.258 C 
HETATM   35  O4  UNL     1       4.348   8.270  15.894  1.00  0.00    -0.265 OA
BRANCH  34  36
HETATM   36  O5  UNL     1       6.057   8.905  14.497  1.00  0.00    -0.326 OA
HETATM   37  C30 UNL     1       7.169   8.164  15.001  1.00  0.00     0.213 C 
ENDBRANCH  34  36
ENDBRANCH  33  34
ENDBRANCH  32  33
ENDBRANCH  20  32
TORSDOF 10
ENDMDL
MODEL 3
REMARK minimizedAffinity -8.53850365
REMARK  10 active torsions:
REMARK  status: ('A' for Active; 'I' for Inactive)
REMARK    1  A    between atoms: C12_14  and  C13_15 
REMARK    2  A    between atoms: C13_15  and  C15_17 
REMARK    3  A    between atoms: C15_17  and  C16_18 
REMARK    4  A    between atoms: C16_18  and  C17_19 
REMARK    5  A    between atoms: C18_20  and  C20_22 
REMARK    6  A    between atoms: C20_22  and  O3_23 
REMARK    7  A    between atoms: C26_29  and  C27_30 
REMARK    8  A    between atoms: C27_30  and  C28_31 
REMARK    9  A    between atoms: C28_31  and  C29_32 
REMARK   10  A    between atoms: C29_32  and  O5_34 
ROOT
HETATM    1  C1  UNL     1       3.592   7.342  12.515  1.00  0.00     0.025 C 
HETATM    2  C2  UNL     1       2.618   8.210  12.815  1.00  0.00     0.015 C 
HETATM    3  C3  UNL     1       2.874   9.385  13.677  1.00  0.00     0.289 C 
HETATM    4  O1  UNL     1       3.956   9.760  14.086  1.00  0.00    -0.260 OA
HETATM    5  O2  UNL     1       1.682   9.990  13.920  1.00  0.00    -0.311 OA
HETATM    6  C4  UNL     1       0.592   9.178  13.443  1.00  0.00     0.142 C 
HETATM    7  C5  UNL     1      -0.073   8.529  14.648  1.00  0.00     0.039 C 
HETATM    8  C6  UNL     1      -1.136   7.468  14.330  1.00  0.00     0.006 C 
HETATM    9  C7  UNL     1      -0.708   6.489  13.211  1.00  0.00    -0.027 A 
HETATM   10  C8  UNL     1      -1.786   5.462  12.816  1.00  0.00     0.011 C 
HETATM   11  C9  UNL     1      -3.223   6.001  12.722  1.00  0.00     0.011 C 
HETATM   12  C10 UNL     1      -3.600   6.810  13.973  1.00  0.00    -0.032 C 
HETATM   13  C11 UNL     1      -3.583   5.865  15.216  1.00  0.00     0.016 C 
HETATM   14  C12 UNL     1      -4.972   7.564  13.951  1.00  0.00    -0.002 C 
HETATM   15  C21 UNL     1      -4.719   8.741  14.946  1.00  0.00     0.006 C 
HETATM   16  C22 UNL     1      -3.201   8.844  15.183  1.00  0.00     0.011 C 
HETATM   17  C23 UNL     1      -2.574   8.013  14.056  1.00  0.00    -0.032 C 
HETATM   18  C24 UNL     1      -2.566   8.917  12.781  1.00  0.00     0.016 C 
HETATM   19  C25 UNL     1       0.655   5.856  13.344  1.00  0.00     0.022 A 
HETATM   20  C26 UNL     1       0.452   6.885  12.244  1.00  0.00    -0.021 A 
HETATM   21  C31 UNL     1       1.180   8.228  12.410  1.00  0.00     0.063 C 
ENDROOT
BRANCH  14  22
HETATM   22  C13 UNL     1      -6.298   6.805  14.274  1.00  0.00    -0.014 C 
HETATM   23  C14 UNL     1      -6.751   7.023  15.723  1.00  0.00     0.010 C 
BRANCH  22  24
HETATM   24  C15 UNL     1      -6.127   5.285  13.995  1.00  0.00     0.008 C 
BRANCH  24  25
HETATM   25  C16 UNL     1      -6.665   4.838  12.630  1.00  0.00     0.028 C 
BRANCH  25  26
HETATM   26  C17 UNL     1      -6.427   3.368  12.412  1.00  0.00    -0.022 C 
HETATM   27  C18 UNL     1      -5.580   2.792  11.534  1.00  0.00    -0.064 C 
HETATM   28  C19 UNL     1      -4.648   3.548  10.625  1.00  0.00     0.045 C 
BRANCH  27  29
HETATM   29  C20 UNL     1      -5.486   1.293  11.424  1.00  0.00     0.197 C 
BRANCH  29  30
HETATM   30  O3  UNL     1      -6.766   0.778  11.091  1.00  0.00    -0.397 OA
HETATM   31  H29 UNL     1      -6.673  -0.188  11.044  1.00  0.00     0.209 HD
ENDBRANCH  29  30
ENDBRANCH  27  29
ENDBRANCH  25  26
ENDBRANCH  24  25
ENDBRANCH  22  24
ENDBRANCH  14  22
BRANCH  20  32
HETATM   32  C27 UNL     1       0.340   6.456  10.770  1.00  0.00     0.021 C 
BRANCH  32  33
HETATM   33  C28 UNL     1       1.372   7.070   9.826  1.00  0.00     0.112 C 
BRANCH  33  34
HETATM   34  C29 UNL     1       0.750   8.131   8.950  1.00  0.00     0.258 C 
HETATM   35  O4  UNL     1      -0.182   8.856   9.269  1.00  0.00    -0.265 OA
BRANCH  34  36
HETATM   36  O5  UNL     1       1.371   8.139   7.736  1.00  0.00    -0.326 OA
HETATM   37  C30 UNL     1       2.758   8.473   7.795  1.00  0.00     0.213 C 
ENDBRANCH  34  36
ENDBRANCH  33  34
ENDBRANCH  32  33
ENDBRANCH  20  32
TORSDOF 10
ENDMDL
MODEL 4
REMARK minimizedAffinity -8.47972393
REMARK  10 active torsions:
REMARK  status: ('A' for Active; 'I' for Inactive)
REMARK    1  A    between atoms: C12_14  and  C13_15 
REMARK    2  A    between atoms: C13_15  and  C15_17 
REMARK    3  A    between atoms: C15_17  and  C16_18 
REMARK    4  A    between atoms: C16_18  and  C17_19 
REMARK    5  A    between atoms: C18_20  and  C20_22 
REMARK    6  A    between atoms: C20_22  and  O3_23 
REMARK    7  A    between atoms: C26_29  and  C27_30 
REMARK    8  A    between atoms: C27_30  and  C28_31 
REMARK    9  A    between atoms: C28_31  and  C29_32 
REMARK   10  A    between atoms: C29_32  and  O5_34 
ROOT
HETATM    1  C1  UNL     1       2.220   7.560  13.654  1.00  0.00     0.025 C 
HETATM    2  C2  UNL     1       1.148   8.363  13.679  1.00  0.00     0.015 C 
HETATM    3  C3  UNL     1       1.198   9.692  14.325  1.00  0.00     0.289 C 
HETATM    4  O1  UNL     1       2.187  10.245  14.770  1.00  0.00    -0.260 OA
HETATM    5  O2  UNL     1      -0.059  10.206  14.321  1.00  0.00    -0.311 OA
HETATM    6  C4  UNL     1      -1.012   9.213  13.892  1.00  0.00     0.142 C 
HETATM    7  C5  UNL     1      -1.766   8.724  15.120  1.00  0.00     0.039 C 
HETATM    8  C6  UNL     1      -2.691   7.519  14.897  1.00  0.00     0.006 C 
HETATM    9  C7  UNL     1      -2.049   6.407  14.035  1.00  0.00    -0.027 A 
HETATM   10  C8  UNL     1      -2.982   5.219  13.728  1.00  0.00     0.011 C 
HETATM   11  C9  UNL     1      -4.435   5.582  13.381  1.00  0.00     0.011 C 
HETATM   12  C10 UNL     1      -5.030   6.557  14.408  1.00  0.00    -0.032 C 
HETATM   13  C11 UNL     1      -5.090   5.857  15.802  1.00  0.00     0.016 C 
HETATM   14  C12 UNL     1      -6.445   7.150  14.098  1.00  0.00    -0.002 C 
HETATM   15  C21 UNL     1      -6.415   8.505  14.874  1.00  0.00     0.006 C 
HETATM   16  C22 UNL     1      -4.952   8.805  15.248  1.00  0.00     0.011 C 
HETATM   17  C23 UNL     1      -4.124   7.856  14.372  1.00  0.00    -0.032 C 
HETATM   18  C24 UNL     1      -4.031   8.514  12.958  1.00  0.00     0.016 C 
HETATM   19  C25 UNL     1      -0.666   5.952  14.430  1.00  0.00     0.022 A 
HETATM   20  C26 UNL     1      -0.814   6.741  13.140  1.00  0.00    -0.021 A 
HETATM   21  C31 UNL     1      -0.225   8.160  13.126  1.00  0.00     0.063 C 
ENDROOT
BRANCH  14  22
HETATM   22  C13 UNL     1      -7.735   6.328  14.415  1.00  0.00    -0.014 C 
HETATM   23  C14 UNL     1      -7.506   5.302  15.531  1.00  0.00     0.010 C 
BRANCH  22  24
HETATM   24  C15 UNL     1      -8.243   5.611  13.132  1.00  0.00     0.008 C 
BRANCH  24  25
HETATM   25  C16 UNL     1      -7.843   4.133  13.045  1.00  0.00     0.028 C 
BRANCH  25  26
HETATM   26  C17 UNL     1      -6.685   3.943  12.102  1.00  0.00    -0.022 C 
HETATM   27  C18 UNL     1      -6.156   2.780  11.671  1.00  0.00    -0.064 C 
HETATM   28  C19 UNL     1      -6.687   1.416  12.026  1.00  0.00     0.045 C 
BRANCH  27  29
HETATM   29  C20 UNL     1      -4.968   2.769  10.744  1.00  0.00     0.197 C 
BRANCH  29  30
HETATM   30  O3  UNL     1      -5.424   2.967   9.415  1.00  0.00    -0.397 OA
HETATM   31  H29 UNL     1      -4.638   2.939   8.845  1.00  0.00     0.209 HD
ENDBRANCH  29  30
ENDBRANCH  27  29
ENDBRANCH  25  26
ENDBRANCH  24  25
ENDBRANCH  22  24
ENDBRANCH  14  22
BRANCH  20  32
HETATM   32  C27 UNL     1      -0.707   6.047  11.771  1.00  0.00     0.021 C 
BRANCH  32  33
HETATM   33  C28 UNL     1      -0.088   6.886  10.655  1.00  0.00     0.112 C 
BRANCH  33  34
HETATM   34  C29 UNL     1       1.177   6.252  10.129  1.00  0.00     0.258 C 
HETATM   35  O4  UNL     1       1.606   5.154  10.452  1.00  0.00    -0.265 OA
BRANCH  34  36
HETATM   36  O5  UNL     1       1.783   7.105   9.253  1.00  0.00    -0.326 OA
HETATM   37  C30 UNL     1       0.981   8.227   8.885  1.00  0.00     0.213 C 
ENDBRANCH  34  36
ENDBRANCH  33  34
ENDBRANCH  32  33
ENDBRANCH  20  32
TORSDOF 10
ENDMDL
MODEL 5
REMARK minimizedAffinity -8.36653137
REMARK  10 active torsions:
REMARK  status: ('A' for Active; 'I' for Inactive)
REMARK    1  A    between atoms: C12_14  and  C13_15 
REMARK    2  A    between atoms: C13_15  and  C15_17 
REMARK    3  A    between atoms: C15_17  and  C16_18 
REMARK    4  A    between atoms: C16_18  and  C17_19 
REMARK    5  A    between atoms: C18_20  and  C20_22 
REMARK    6  A    between atoms: C20_22  and  O3_23 
REMARK    7  A    between atoms: C26_29  and  C27_30 
REMARK    8  A    between atoms: C27_30  and  C28_31 
REMARK    9  A    between atoms: C28_31  and  C29_32 
REMARK   10  A    between atoms: C29_32  and  O5_34 
ROOT
HETATM    1  C1  UNL     1       1.910   7.264  13.789  1.00  0.00     0.025 C 
HETATM    2  C2  UNL     1       0.858   8.093  13.808  1.00  0.00     0.015 C 
HETATM    3  C3  UNL     1       0.924   9.401  14.494  1.00  0.00     0.289 C 
HETATM    4  O1  UNL     1       1.914   9.915  14.980  1.00  0.00    -0.260 OA
HETATM    5  O2  UNL     1      -0.320   9.946  14.471  1.00  0.00    -0.311 OA
HETATM    6  C4  UNL     1      -1.285   8.991  13.989  1.00  0.00     0.142 C 
HETATM    7  C5  UNL     1      -2.085   8.487  15.182  1.00  0.00     0.039 C 
HETATM    8  C6  UNL     1      -3.033   7.313  14.899  1.00  0.00     0.006 C 
HETATM    9  C7  UNL     1      -2.395   6.209  14.023  1.00  0.00    -0.027 A 
HETATM   10  C8  UNL     1      -3.349   5.055  13.657  1.00  0.00     0.011 C 
HETATM   11  C9  UNL     1      -4.782   5.464  13.283  1.00  0.00     0.011 C 
HETATM   12  C10 UNL     1      -5.380   6.425  14.321  1.00  0.00    -0.032 C 
HETATM   13  C11 UNL     1      -5.496   5.687  15.692  1.00  0.00     0.016 C 
HETATM   14  C12 UNL     1      -6.772   7.062  13.991  1.00  0.00    -0.002 C 
HETATM   15  C21 UNL     1      -6.729   8.393  14.806  1.00  0.00     0.006 C 
HETATM   16  C22 UNL     1      -5.270   8.645  15.227  1.00  0.00     0.011 C 
HETATM   17  C23 UNL     1      -4.441   7.701  14.347  1.00  0.00    -0.032 C 
HETATM   18  C24 UNL     1      -4.294   8.396  12.955  1.00  0.00     0.016 C 
HETATM   19  C25 UNL     1      -1.035   5.708  14.441  1.00  0.00     0.022 A 
HETATM   20  C26 UNL     1      -1.128   6.537  13.171  1.00  0.00    -0.021 A 
HETATM   21  C31 UNL     1      -0.504   7.940  13.214  1.00  0.00     0.063 C 
ENDROOT
BRANCH  14  22
HETATM   22  C13 UNL     1      -8.089   6.264  14.250  1.00  0.00    -0.014 C 
HETATM   23  C14 UNL     1      -8.338   5.196  13.179  1.00  0.00     0.010 C 
BRANCH  22  24
HETATM   24  C15 UNL     1      -9.300   7.237  14.320  1.00  0.00     0.008 C 
BRANCH  24  25
HETATM   25  C16 UNL     1     -10.570   6.701  13.647  1.00  0.00     0.028 C 
BRANCH  25  26
HETATM   26  C17 UNL     1     -11.335   7.811  12.978  1.00  0.00    -0.022 C 
HETATM   27  C18 UNL     1     -12.013   8.816  13.569  1.00  0.00    -0.064 C 
HETATM   28  C19 UNL     1     -12.079   9.044  15.056  1.00  0.00     0.045 C 
BRANCH  27  29
HETATM   29  C20 UNL     1     -12.756   9.834  12.744  1.00  0.00     0.197 C 
BRANCH  29  30
HETATM   30  O3  UNL     1     -12.170   9.892  11.453  1.00  0.00    -0.397 OA
HETATM   31  H29 UNL     1     -12.660  10.566  10.956  1.00  0.00     0.209 HD
ENDBRANCH  29  30
ENDBRANCH  27  29
ENDBRANCH  25  26
ENDBRANCH  24  25
ENDBRANCH  22  24
ENDBRANCH  14  22
BRANCH  20  32
HETATM   32  C27 UNL     1      -1.001   5.879  11.785  1.00  0.00     0.021 C 
BRANCH  32  33
HETATM   33  C28 UNL     1       0.394   5.373  11.424  1.00  0.00     0.112 C 
BRANCH  33  34
HETATM   34  C29 UNL     1       0.954   6.114  10.233  1.00  0.00     0.258 C 
HETATM   35  O4  UNL     1       1.930   5.772   9.581  1.00  0.00    -0.265 OA
BRANCH  34  36
HETATM   36  O5  UNL     1       0.217   7.240  10.011  1.00  0.00    -0.326 OA
HETATM   37  C30 UNL     1       0.729   8.074   8.971  1.00  0.00     0.213 C 
ENDBRANCH  34  36
ENDBRANCH  33  34
ENDBRANCH  32  33
ENDBRANCH  20  32
TORSDOF 10
ENDMDL
MODEL 6
REMARK minimizedAffinity -8.34711456
REMARK  10 active torsions:
REMARK  status: ('A' for Active; 'I' for Inactive)
REMARK    1  A    between atoms: C12_14  and  C13_15 
REMARK    2  A    between atoms: C13_15  and  C15_17 
REMARK    3  A    between atoms: C15_17  and  C16_18 
REMARK    4  A    between atoms: C16_18  and  C17_19 
REMARK    5  A    between atoms: C18_20  and  C20_22 
REMARK    6  A    between atoms: C20_22  and  O3_23 
REMARK    7  A    between atoms: C26_29  and  C27_30 
REMARK    8  A    between atoms: C27_30  and  C28_31 
REMARK    9  A    between atoms: C28_31  and  C29_32 
REMARK   10  A    between atoms: C29_32  and  O5_34 
ROOT
HETATM    1  C1  UNL     1       4.355   7.335  10.154  1.00  0.00     0.025 C 
HETATM    2  C2  UNL     1       3.469   6.417  10.558  1.00  0.00     0.015 C 
HETATM    3  C3  UNL     1       3.236   5.179   9.782  1.00  0.00     0.289 C 
HETATM    4  O1  UNL     1       3.872   4.801   8.816  1.00  0.00    -0.260 OA
HETATM    5  O2  UNL     1       2.193   4.521  10.350  1.00  0.00    -0.311 OA
HETATM    6  C4  UNL     1       1.559   5.340  11.351  1.00  0.00     0.142 C 
HETATM    7  C5  UNL     1       0.251   5.863  10.773  1.00  0.00     0.039 C 
HETATM    8  C6  UNL     1      -0.476   6.917  11.620  1.00  0.00     0.006 C 
HETATM    9  C7  UNL     1       0.468   8.001  12.191  1.00  0.00    -0.027 A 
HETATM   10  C8  UNL     1      -0.222   9.028  13.110  1.00  0.00     0.011 C 
HETATM   11  C9  UNL     1      -1.260   8.458  14.090  1.00  0.00     0.011 C 
HETATM   12  C10 UNL     1      -2.257   7.533  13.376  1.00  0.00    -0.032 C 
HETATM   13  C11 UNL     1      -3.070   8.366  12.335  1.00  0.00     0.016 C 
HETATM   14  C12 UNL     1      -3.271   6.745  14.271  1.00  0.00    -0.002 C 
HETATM   15  C21 UNL     1      -3.587   5.494  13.391  1.00  0.00     0.006 C 
HETATM   16  C22 UNL     1      -2.523   5.414  12.281  1.00  0.00     0.011 C 
HETATM   17  C23 UNL     1      -1.405   6.357  12.744  1.00  0.00    -0.032 C 
HETATM   18  C24 UNL     1      -0.555   5.568  13.792  1.00  0.00     0.016 C 
HETATM   19  C25 UNL     1       1.417   8.659  11.220  1.00  0.00     0.022 A 
HETATM   20  C26 UNL     1       2.003   7.725  12.266  1.00  0.00    -0.021 A 
HETATM   21  C31 UNL     1       2.579   6.394  11.758  1.00  0.00     0.063 C 
ENDROOT
BRANCH  14  22
HETATM   22  C13 UNL     1      -4.573   7.435  14.788  1.00  0.00    -0.014 C 
HETATM   23  C14 UNL     1      -5.063   6.830  16.108  1.00  0.00     0.010 C 
BRANCH  22  24
HETATM   24  C15 UNL     1      -5.693   7.340  13.713  1.00  0.00     0.008 C 
BRANCH  24  25
HETATM   25  C16 UNL     1      -6.986   6.687  14.218  1.00  0.00     0.028 C 
BRANCH  25  26
HETATM   26  C17 UNL     1      -6.923   5.189  14.077  1.00  0.00    -0.022 C 
HETATM   27  C18 UNL     1      -7.537   4.423  13.152  1.00  0.00    -0.064 C 
HETATM   28  C19 UNL     1      -8.378   4.956  12.023  1.00  0.00     0.045 C 
BRANCH  27  29
HETATM   29  C20 UNL     1      -7.391   2.924  13.173  1.00  0.00     0.197 C 
BRANCH  29  30
HETATM   30  O3  UNL     1      -8.518   2.346  12.531  1.00  0.00    -0.397 OA
HETATM   31  H29 UNL     1      -8.399   1.383  12.577  1.00  0.00     0.209 HD
ENDBRANCH  29  30
ENDBRANCH  27  29
ENDBRANCH  25  26
ENDBRANCH  24  25
ENDBRANCH  22  24
ENDBRANCH  14  22
BRANCH  20  32
HETATM   32  C27 UNL     1       2.777   8.277  13.475  1.00  0.00     0.021 C 
BRANCH  32  33
HETATM   33  C28 UNL     1       2.580   7.517  14.785  1.00  0.00     0.112 C 
BRANCH  33  34
HETATM   34  C29 UNL     1       2.732   8.431  15.977  1.00  0.00     0.258 C 
HETATM   35  O4  UNL     1       3.770   8.981  16.320  1.00  0.00    -0.265 OA
BRANCH  34  36
HETATM   36  O5  UNL     1       1.539   8.531  16.630  1.00  0.00    -0.326 OA
HETATM   37  C30 UNL     1       1.005   9.855  16.667  1.00  0.00     0.213 C 
ENDBRANCH  34  36
ENDBRANCH  33  34
ENDBRANCH  32  33
ENDBRANCH  20  32
TORSDOF 10
ENDMDL
MODEL 7
REMARK minimizedAffinity -8.29681969
REMARK  10 active torsions:
REMARK  status: ('A' for Active; 'I' for Inactive)
REMARK    1  A    between atoms: C12_14  and  C13_15 
REMARK    2  A    between atoms: C13_15  and  C15_17 
REMARK    3  A    between atoms: C15_17  and  C16_18 
REMARK    4  A    between atoms: C16_18  and  C17_19 
REMARK    5  A    between atoms: C18_20  and  C20_22 
REMARK    6  A    between atoms: C20_22  and  O3_23 
REMARK    7  A    between atoms: C26_29  and  C27_30 
REMARK    8  A    between atoms: C27_30  and  C28_31 
REMARK    9  A    between atoms: C28_31  and  C29_32 
REMARK   10  A    between atoms: C29_32  and  O5_34 
ROOT
HETATM    1  C1  UNL     1       5.008   6.892  11.299  1.00  0.00     0.025 C 
HETATM    2  C2  UNL     1       4.388   7.601  12.251  1.00  0.00     0.015 C 
HETATM    3  C3  UNL     1       5.086   7.993  13.495  1.00  0.00     0.289 C 
HETATM    4  O1  UNL     1       6.270   7.849  13.737  1.00  0.00    -0.260 OA
HETATM    5  O2  UNL     1       4.174   8.567  14.321  1.00  0.00    -0.311 OA
HETATM    6  C4  UNL     1       2.841   8.403  13.799  1.00  0.00     0.142 C 
HETATM    7  C5  UNL     1       2.144   7.325  14.616  1.00  0.00     0.039 C 
HETATM    8  C6  UNL     1       0.778   6.866  14.086  1.00  0.00     0.006 C 
HETATM    9  C7  UNL     1       0.758   6.645  12.556  1.00  0.00    -0.027 A 
HETATM   10  C8  UNL     1      -0.620   6.261  11.984  1.00  0.00     0.011 C 
HETATM   11  C9  UNL     1      -1.822   7.022  12.567  1.00  0.00     0.011 C 
HETATM   12  C10 UNL     1      -1.793   7.023  14.103  1.00  0.00    -0.032 C 
HETATM   13  C11 UNL     1      -1.931   5.555  14.618  1.00  0.00     0.016 C 
HETATM   14  C12 UNL     1      -2.859   7.901  14.839  1.00  0.00    -0.002 C 
HETATM   15  C21 UNL     1      -2.149   8.220  16.193  1.00  0.00     0.006 C 
HETATM   16  C22 UNL     1      -0.657   7.873  16.039  1.00  0.00     0.011 C 
HETATM   17  C23 UNL     1      -0.443   7.736  14.526  1.00  0.00    -0.032 C 
HETATM   18  C24 UNL     1      -0.296   9.184  13.958  1.00  0.00     0.016 C 
HETATM   19  C25 UNL     1       1.866   5.801  11.975  1.00  0.00     0.022 A 
HETATM   20  C26 UNL     1       1.871   7.290  11.669  1.00  0.00    -0.021 A 
HETATM   21  C31 UNL     1       2.990   8.124  12.311  1.00  0.00     0.063 C 
ENDROOT
BRANCH  14  22
HETATM   22  C13 UNL     1      -4.311   7.367  15.057  1.00  0.00    -0.014 C 
HETATM   23  C14 UNL     1      -4.355   6.203  16.053  1.00  0.00     0.010 C 
BRANCH  22  24
HETATM   24  C15 UNL     1      -4.930   6.928  13.700  1.00  0.00     0.008 C 
BRANCH  24  25
HETATM   25  C16 UNL     1      -4.920   5.411  13.474  1.00  0.00     0.028 C 
BRANCH  25  26
HETATM   26  C17 UNL     1      -6.321   4.860  13.461  1.00  0.00    -0.022 C 
HETATM   27  C18 UNL     1      -6.839   3.948  12.612  1.00  0.00    -0.064 C 
HETATM   28  C19 UNL     1      -6.063   3.255  11.524  1.00  0.00     0.045 C 
BRANCH  27  29
HETATM   29  C20 UNL     1      -8.281   3.526  12.721  1.00  0.00     0.197 C 
BRANCH  29  30
HETATM   30  O3  UNL     1      -8.349   2.110  12.650  1.00  0.00    -0.397 OA
HETATM   31  H29 UNL     1      -9.289   1.874  12.708  1.00  0.00     0.209 HD
ENDBRANCH  29  30
ENDBRANCH  27  29
ENDBRANCH  25  26
ENDBRANCH  24  25
ENDBRANCH  22  24
ENDBRANCH  14  22
BRANCH  20  32
HETATM   32  C27 UNL     1       1.471   7.814  10.278  1.00  0.00     0.021 C 
BRANCH  32  33
HETATM   33  C28 UNL     1       1.272   6.744   9.206  1.00  0.00     0.112 C 
BRANCH  33  34
HETATM   34  C29 UNL     1       2.500   6.602   8.339  1.00  0.00     0.258 C 
HETATM   35  O4  UNL     1       3.366   5.749   8.471  1.00  0.00    -0.265 OA
BRANCH  34  36
HETATM   36  O5  UNL     1       2.508   7.589   7.397  1.00  0.00    -0.326 OA
HETATM   37  C30 UNL     1       3.167   8.786   7.814  1.00  0.00     0.213 C 
ENDBRANCH  34  36
ENDBRANCH  33  34
ENDBRANCH  32  33
ENDBRANCH  20  32
TORSDOF 10
ENDMDL
MODEL 8
REMARK minimizedAffinity -8.18051434
REMARK  10 active torsions:
REMARK  status: ('A' for Active; 'I' for Inactive)
REMARK    1  A    between atoms: C12_14  and  C13_15 
REMARK    2  A    between atoms: C13_15  and  C15_17 
REMARK    3  A    between atoms: C15_17  and  C16_18 
REMARK    4  A    between atoms: C16_18  and  C17_19 
REMARK    5  A    between atoms: C18_20  and  C20_22 
REMARK    6  A    between atoms: C20_22  and  O3_23 
REMARK    7  A    between atoms: C26_29  and  C27_30 
REMARK    8  A    between atoms: C27_30  and  C28_31 
REMARK    9  A    between atoms: C28_31  and  C29_32 
REMARK   10  A    between atoms: C29_32  and  O5_34 
ROOT
HETATM    1  C1  UNL     1       2.033   7.234  13.935  1.00  0.00     0.025 C 
HETATM    2  C2  UNL     1       0.971   8.041  13.820  1.00  0.00     0.015 C 
HETATM    3  C3  UNL     1       1.009   9.436  14.311  1.00  0.00     0.289 C 
HETATM    4  O1  UNL     1       1.985  10.029  14.732  1.00  0.00    -0.260 OA
HETATM    5  O2  UNL     1      -0.241   9.954  14.193  1.00  0.00    -0.311 OA
HETATM    6  C4  UNL     1      -1.186   8.925  13.841  1.00  0.00     0.142 C 
HETATM    7  C5  UNL     1      -1.998   8.586  15.083  1.00  0.00     0.039 C 
HETATM    8  C6  UNL     1      -2.926   7.369  14.959  1.00  0.00     0.006 C 
HETATM    9  C7  UNL     1      -2.261   6.161  14.260  1.00  0.00    -0.027 A 
HETATM   10  C8  UNL     1      -3.194   4.952  14.051  1.00  0.00     0.011 C 
HETATM   11  C9  UNL     1      -4.627   5.282  13.602  1.00  0.00     0.011 C 
HETATM   12  C10 UNL     1      -5.253   6.373  14.483  1.00  0.00    -0.032 C 
HETATM   13  C11 UNL     1      -5.381   5.838  15.945  1.00  0.00     0.016 C 
HETATM   14  C12 UNL     1      -6.647   6.935  14.045  1.00  0.00    -0.002 C 
HETATM   15  C21 UNL     1      -6.634   8.371  14.661  1.00  0.00     0.006 C 
HETATM   16  C22 UNL     1      -5.185   8.702  15.062  1.00  0.00     0.011 C 
HETATM   17  C23 UNL     1      -4.331   7.653  14.338  1.00  0.00    -0.032 C 
HETATM   18  C24 UNL     1      -4.171   8.143  12.862  1.00  0.00     0.016 C 
HETATM   19  C25 UNL     1      -0.901   5.745  14.764  1.00  0.00     0.022 A 
HETATM   20  C26 UNL     1      -0.985   6.381  13.387  1.00  0.00    -0.021 A 
HETATM   21  C31 UNL     1      -0.380   7.785  13.236  1.00  0.00     0.063 C 
ENDROOT
BRANCH  14  22
HETATM   22  C13 UNL     1      -7.958   6.164  14.399  1.00  0.00    -0.014 C 
HETATM   23  C14 UNL     1      -8.415   6.430  15.838  1.00  0.00     0.010 C 
BRANCH  22  24
HETATM   24  C15 UNL     1      -7.758   4.638  14.179  1.00  0.00     0.008 C 
BRANCH  24  25
HETATM   25  C16 UNL     1      -7.763   4.216  12.704  1.00  0.00     0.028 C 
BRANCH  25  26
HETATM   26  C17 UNL     1      -7.084   2.885  12.523  1.00  0.00    -0.022 C 
HETATM   27  C18 UNL     1      -6.146   2.556  11.611  1.00  0.00    -0.064 C 
HETATM   28  C19 UNL     1      -5.552   3.514  10.613  1.00  0.00     0.045 C 
BRANCH  27  29
HETATM   29  C20 UNL     1      -5.589   1.158  11.548  1.00  0.00     0.197 C 
BRANCH  29  30
HETATM   30  O3  UNL     1      -4.207   1.231  11.233  1.00  0.00    -0.397 OA
HETATM   31  H29 UNL     1      -3.884   0.316  11.185  1.00  0.00     0.209 HD
ENDBRANCH  29  30
ENDBRANCH  27  29
ENDBRANCH  25  26
ENDBRANCH  24  25
ENDBRANCH  22  24
ENDBRANCH  14  22
BRANCH  20  32
HETATM   32  C27 UNL     1      -0.828   5.533  12.113  1.00  0.00     0.021 C 
BRANCH  32  33
HETATM   33  C28 UNL     1      -2.100   4.845  11.620  1.00  0.00     0.112 C 
BRANCH  33  34
HETATM   34  C29 UNL     1      -1.777   3.612  10.810  1.00  0.00     0.258 C 
HETATM   35  O4  UNL     1      -2.370   3.251   9.803  1.00  0.00    -0.265 OA
BRANCH  34  36
HETATM   36  O5  UNL     1      -0.736   2.948  11.389  1.00  0.00    -0.326 OA
HETATM   37  C30 UNL     1      -0.632   1.578  11.000  1.00  0.00     0.213 C 
ENDBRANCH  34  36
ENDBRANCH  33  34
ENDBRANCH  32  33
ENDBRANCH  20  32
TORSDOF 10
ENDMDL
MODEL 9
REMARK minimizedAffinity -8.14896679
REMARK  10 active torsions:
REMARK  status: ('A' for Active; 'I' for Inactive)
REMARK    1  A    between atoms: C12_14  and  C13_15 
REMARK    2  A    between atoms: C13_15  and  C15_17 
REMARK    3  A    between atoms: C15_17  and  C16_18 
REMARK    4  A    between atoms: C16_18  and  C17_19 
REMARK    5  A    between atoms: C18_20  and  C20_22 
REMARK    6  A    between atoms: C20_22  and  O3_23 
REMARK    7  A    between atoms: C26_29  and  C27_30 
REMARK    8  A    between atoms: C27_30  and  C28_31 
REMARK    9  A    between atoms: C28_31  and  C29_32 
REMARK   10  A    between atoms: C29_32  and  O5_34 
ROOT
HETATM    1  C1  UNL     1       4.210   7.496  10.847  1.00  0.00     0.025 C 
HETATM    2  C2  UNL     1       3.281   6.539  10.966  1.00  0.00     0.015 C 
HETATM    3  C3  UNL     1       3.098   5.510   9.919  1.00  0.00     0.289 C 
HETATM    4  O1  UNL     1       3.808   5.333   8.947  1.00  0.00    -0.260 OA
HETATM    5  O2  UNL     1       2.002   4.776  10.243  1.00  0.00    -0.311 OA
HETATM    6  C4  UNL     1       1.297   5.375  11.348  1.00  0.00     0.142 C 
HETATM    7  C5  UNL     1       0.050   6.052  10.798  1.00  0.00     0.039 C 
HETATM    8  C6  UNL     1      -0.732   6.917  11.796  1.00  0.00     0.006 C 
HETATM    9  C7  UNL     1       0.174   7.819  12.666  1.00  0.00    -0.027 A 
HETATM   10  C8  UNL     1      -0.577   8.641  13.732  1.00  0.00     0.011 C 
HETATM   11  C9  UNL     1      -1.701   7.902  14.476  1.00  0.00     0.011 C 
HETATM   12  C10 UNL     1      -2.646   7.188  13.499  1.00  0.00    -0.032 C 
HETATM   13  C11 UNL     1      -3.359   8.254  12.607  1.00  0.00     0.016 C 
HETATM   14  C12 UNL     1      -3.742   6.255  14.114  1.00  0.00    -0.002 C 
HETATM   15  C21 UNL     1      -3.999   5.238  12.957  1.00  0.00     0.006 C 
HETATM   16  C22 UNL     1      -2.847   5.370  11.945  1.00  0.00     0.011 C 
HETATM   17  C23 UNL     1      -1.760   6.153  12.692  1.00  0.00    -0.032 C 
HETATM   18  C24 UNL     1      -1.011   5.127  13.603  1.00  0.00     0.016 C 
HETATM   19  C25 UNL     1       1.210   8.644  11.943  1.00  0.00     0.022 A 
HETATM   20  C26 UNL     1       1.694   7.485  12.799  1.00  0.00    -0.021 A 
HETATM   21  C31 UNL     1       2.293   6.281  12.057  1.00  0.00     0.063 C 
ENDROOT
BRANCH  14  22
HETATM   22  C13 UNL     1      -5.074   6.855  14.666  1.00  0.00    -0.014 C 
HETATM   23  C14 UNL     1      -5.428   6.300  16.051  1.00  0.00     0.010 C 
BRANCH  22  24
HETATM   24  C15 UNL     1      -6.238   6.580  13.672  1.00  0.00     0.008 C 
BRANCH  24  25
HETATM   25  C16 UNL     1      -7.315   5.636  14.221  1.00  0.00     0.028 C 
BRANCH  25  26
HETATM   26  C17 UNL     1      -8.685   6.243  14.082  1.00  0.00    -0.022 C 
HETATM   27  C18 UNL     1      -9.351   6.991  14.987  1.00  0.00    -0.064 C 
HETATM   28  C19 UNL     1      -8.795   7.413  16.321  1.00  0.00     0.045 C 
BRANCH  27  29
HETATM   29  C20 UNL     1     -10.738   7.499  14.696  1.00  0.00     0.197 C 
BRANCH  29  30
HETATM   30  O3  UNL     1     -11.640   6.403  14.722  1.00  0.00    -0.397 OA
HETATM   31  H29 UNL     1     -12.519   6.762  14.516  1.00  0.00     0.209 HD
ENDBRANCH  29  30
ENDBRANCH  27  29
ENDBRANCH  25  26
ENDBRANCH  24  25
ENDBRANCH  22  24
ENDBRANCH  14  22
BRANCH  20  32
HETATM   32  C27 UNL     1       2.371   7.735  14.158  1.00  0.00     0.021 C 
BRANCH  32  33
HETATM   33  C28 UNL     1       3.518   8.744  14.146  1.00  0.00     0.112 C 
BRANCH  33  34
HETATM   34  C29 UNL     1       4.799   8.123  14.649  1.00  0.00     0.258 C 
HETATM   35  O4  UNL     1       4.907   7.440  15.658  1.00  0.00    -0.265 OA
BRANCH  34  36
HETATM   36  O5  UNL     1       5.825   8.462  13.817  1.00  0.00    -0.326 OA
HETATM   37  C30 UNL     1       7.048   7.778  14.093  1.00  0.00     0.213 C 
ENDBRANCH  34  36
ENDBRANCH  33  34
ENDBRANCH  32  33
ENDBRANCH  20  32
TORSDOF 10
ENDMDL
