MODEL 1
REMARK minimizedAffinity -9.51466179
REMARK  4 active torsions:
REMARK  status: ('A' for Active; 'I' for Inactive)
REMARK    1  A    between atoms: C3_8  and  C4_9 
REMARK       I    between atoms: N4_17  and  C11_18 
REMARK    2  A    between atoms: C11_18  and  C12_20 
REMARK    3  A    between atoms: C12_20  and  O3_21 
REMARK    4  A    between atoms: O3_21  and  C13_22 
ROOT
HETATM    1  C4  UNL     1      -7.646   6.449  13.803  1.00  0.00     0.011 A 
HETATM    2  C5  UNL     1      -7.137   5.151  13.601  1.00  0.00     0.018 A 
HETATM    3  C6  UNL     1      -5.810   4.945  13.210  1.00  0.00     0.039 A 
HETATM    4  C7  UNL     1      -4.984   6.043  13.027  1.00  0.00     0.090 A 
HETATM    5  O1  UNL     1      -3.662   5.842  12.714  1.00  0.00    -0.347 OA
HETATM    6  C8  UNL     1      -2.801   6.161  13.832  1.00  0.00     0.213 C 
HETATM    7  C9  UNL     1      -1.614   7.061  13.388  1.00  0.00     0.265 C 
HETATM    8  C10 UNL     1      -0.818   6.274  12.303  1.00  0.00     0.163 C 
HETATM    9  N4  UNL     1       0.370   7.016  11.889  1.00  0.00    -0.346 N 
HETATM   10  C11 UNL     1       1.567   6.754  12.561  1.00  0.00     0.244 C 
HETATM   11  O2  UNL     1       1.632   5.897  13.443  1.00  0.00    -0.271 OA
HETATM   12  C19 UNL     1       0.036   8.325  11.337  1.00  0.00     0.156 C 
HETATM   13  C20 UNL     1      -0.751   9.141  12.383  1.00  0.00     0.293 C 
HETATM   14  N5  UNL     1      -1.975   8.446  12.878  1.00  0.00     0.106 N 
HETATM   15  C21 UNL     1      -2.599   9.316  13.930  1.00  0.00     0.369 C 
HETATM   16  C22 UNL     1      -4.119   9.117  14.009  1.00  0.00     0.230 C 
HETATM   17  O4  UNL     1      -4.790   9.520  14.955  1.00  0.00    -0.278 OA
HETATM   18  N6  UNL     1      -4.611   8.415  12.917  1.00  0.00    -0.225 NA
HETATM   19  C23 UNL     1      -5.486   7.341  13.185  1.00  0.00     0.049 A 
HETATM   20  C24 UNL     1      -6.797   7.548  13.610  1.00  0.00     0.042 A 
HETATM   21  H25 UNL     1      -3.816   8.124  12.340  1.00  0.00     0.136 HD
ENDROOT
BRANCH  10  22
HETATM   22  C12 UNL     1       2.795   7.571  12.123  1.00  0.00     0.278 C 
BRANCH  22  23
HETATM   23  O3  UNL     1       3.642   6.949  11.168  1.00  0.00    -0.342 OA
BRANCH  23  24
HETATM   24  C13 UNL     1       3.241   6.955   9.860  1.00  0.00     0.069 A 
HETATM   25  C14 UNL     1       2.992   5.834   9.067  1.00  0.00     0.037 A 
HETATM   26  C15 UNL     1       2.588   5.989   7.736  1.00  0.00     0.003 A 
HETATM   27  C16 UNL     1       2.436   7.263   7.191  1.00  0.00     0.000 A 
HETATM   28  C17 UNL     1       2.692   8.385   7.974  1.00  0.00     0.003 A 
HETATM   29  C18 UNL     1       3.097   8.229   9.302  1.00  0.00     0.037 A 
ENDBRANCH  23  24
ENDBRANCH  22  23
ENDBRANCH  10  22
BRANCH   1  30
HETATM   30  C3  UNL     1      -9.036   6.599  14.240  1.00  0.00     0.133 A 
HETATM   31  N1  UNL     1      -9.477   7.047  15.465  1.00  0.00    -0.280 N 
HETATM   32  C1  UNL     1      -8.716   7.541  16.584  1.00  0.00     0.179 C 
HETATM   33  N2  UNL     1     -10.824   7.060  15.530  1.00  0.00    -0.293 N 
HETATM   34  C2  UNL     1     -11.151   6.640  14.309  1.00  0.00     0.199 A 
ATOM     35  H2  UNL     1     -11.431   7.323  16.306  1.00  0.00     0.188 HD
HETATM   36  N3  UNL     1     -10.098   6.371  13.487  1.00  0.00    -0.336 N 
ATOM     37  H3  UNL     1     -10.124   6.064  12.515  1.00  0.00     0.168 HD
ENDBRANCH   1  30
TORSDOF 4
ENDMDL
MODEL 2
REMARK minimizedAffinity -9.48848629
REMARK  4 active torsions:
REMARK  status: ('A' for Active; 'I' for Inactive)
REMARK    1  A    between atoms: C3_8  and  C4_9 
REMARK       I    between atoms: N4_17  and  C11_18 
REMARK    2  A    between atoms: C11_18  and  C12_20 
REMARK    3  A    between atoms: C12_20  and  O3_21 
REMARK    4  A    between atoms: O3_21  and  C13_22 
ROOT
HETATM    1  C4  UNL     1      -4.327   3.962  12.037  1.00  0.00     0.011 A 
HETATM    2  C5  UNL     1      -3.829   3.388  10.851  1.00  0.00     0.018 A 
HETATM    3  C6  UNL     1      -2.588   3.767  10.326  1.00  0.00     0.039 A 
HETATM    4  C7  UNL     1      -1.837   4.720  10.997  1.00  0.00     0.090 A 
HETATM    5  O1  UNL     1      -0.588   5.041  10.526  1.00  0.00    -0.347 OA
HETATM    6  C8  UNL     1       0.450   4.517  11.386  1.00  0.00     0.213 C 
HETATM    7  C9  UNL     1       1.515   5.603  11.707  1.00  0.00     0.265 C 
HETATM    8  C10 UNL     1       2.124   6.069  10.350  1.00  0.00     0.163 C 
HETATM    9  N4  UNL     1       3.198   7.035  10.567  1.00  0.00    -0.346 N 
HETATM   10  C11 UNL     1       4.503   6.543  10.666  1.00  0.00     0.244 C 
HETATM   11  O2  UNL     1       4.748   5.344  10.533  1.00  0.00    -0.271 OA
HETATM   12  C19 UNL     1       2.737   8.221  11.281  1.00  0.00     0.156 C 
HETATM   13  C20 UNL     1       2.129   7.803  12.636  1.00  0.00     0.293 C 
HETATM   14  N5  UNL     1       1.033   6.800  12.510  1.00  0.00     0.106 N 
HETATM   15  C21 UNL     1       0.584   6.437  13.896  1.00  0.00     0.369 C 
HETATM   16  C22 UNL     1      -0.891   6.015  13.928  1.00  0.00     0.230 C 
HETATM   17  O4  UNL     1      -1.391   5.436  14.887  1.00  0.00    -0.278 OA
HETATM   18  N6  UNL     1      -1.553   6.339  12.751  1.00  0.00    -0.225 NA
HETATM   19  C23 UNL     1      -2.337   5.329  12.156  1.00  0.00     0.049 A 
HETATM   20  C24 UNL     1      -3.555   4.927  12.700  1.00  0.00     0.042 A 
HETATM   21  H25 UNL     1      -0.866   6.724  12.095  1.00  0.00     0.136 HD
ENDROOT
BRANCH  10  22
HETATM   22  C12 UNL     1       5.611   7.579  10.922  1.00  0.00     0.278 C 
BRANCH  22  23
HETATM   23  O3  UNL     1       6.777   7.091  11.568  1.00  0.00    -0.342 OA
BRANCH  23  24
HETATM   24  C13 UNL     1       7.023   7.511  12.846  1.00  0.00     0.069 A 
HETATM   25  C14 UNL     1       8.277   7.675  13.436  1.00  0.00     0.037 A 
HETATM   26  C15 UNL     1       8.381   8.112  14.761  1.00  0.00     0.003 A 
HETATM   27  C16 UNL     1       7.232   8.382  15.504  1.00  0.00     0.000 A 
HETATM   28  C17 UNL     1       5.978   8.211  14.925  1.00  0.00     0.003 A 
HETATM   29  C18 UNL     1       5.877   7.773  13.602  1.00  0.00     0.037 A 
ENDBRANCH  23  24
ENDBRANCH  22  23
ENDBRANCH  10  22
BRANCH   1  30
HETATM   30  C3  UNL     1      -5.619   3.502  12.551  1.00  0.00     0.133 A 
HETATM   31  N1  UNL     1      -6.317   2.381  12.160  1.00  0.00    -0.280 N 
HETATM   32  C1  UNL     1      -5.943   1.354  11.223  1.00  0.00     0.179 C 
HETATM   33  N2  UNL     1      -7.474   2.258  12.842  1.00  0.00    -0.293 N 
HETATM   34  C2  UNL     1      -7.416   3.313  13.654  1.00  0.00     0.199 A 
ATOM     35  H2  UNL     1      -8.201   1.547  12.759  1.00  0.00     0.188 HD
HETATM   36  N3  UNL     1      -6.298   4.081  13.527  1.00  0.00    -0.336 N 
ATOM     37  H3  UNL     1      -6.043   4.911  14.062  1.00  0.00     0.168 HD
ENDBRANCH   1  30
TORSDOF 4
ENDMDL
MODEL 3
REMARK minimizedAffinity -9.32574272
REMARK  4 active torsions:
REMARK  status: ('A' for Active; 'I' for Inactive)
REMARK    1  A    between atoms: C3_8  and  C4_9 
REMARK       I    between atoms: N4_17  and  C11_18 
REMARK    2  A    between atoms: C11_18  and  C12_20 
REMARK    3  A    between atoms: C12_20  and  O3_21 
REMARK    4  A    between atoms: O3_21  and  C13_22 
ROOT
HETATM    1  C4  UNL     1      -6.284   6.655  14.464  1.00  0.00     0.011 A 
HETATM    2  C5  UNL     1      -5.988   5.318  14.131  1.00  0.00     0.018 A 
HETATM    3  C6  UNL     1      -4.872   4.993  13.352  1.00  0.00     0.039 A 
HETATM    4  C7  UNL     1      -4.041   6.012  12.910  1.00  0.00     0.090 A 
HETATM    5  O1  UNL     1      -2.906   5.692  12.208  1.00  0.00    -0.347 OA
HETATM    6  C8  UNL     1      -1.716   5.908  13.002  1.00  0.00     0.213 C 
HETATM    7  C9  UNL     1      -0.643   6.699  12.202  1.00  0.00     0.265 C 
HETATM    8  C10 UNL     1      -0.300   5.860  10.935  1.00  0.00     0.163 C 
HETATM    9  N4  UNL     1       0.768   6.494  10.165  1.00  0.00    -0.346 N 
HETATM   10  C11 UNL     1       2.083   6.107  10.439  1.00  0.00     0.244 C 
HETATM   11  O2  UNL     1       2.335   5.232  11.268  1.00  0.00    -0.271 OA
HETATM   12  C19 UNL     1       0.408   7.837   9.727  1.00  0.00     0.156 C 
HETATM   13  C20 UNL     1       0.063   8.705  10.955  1.00  0.00     0.293 C 
HETATM   14  N5  UNL     1      -1.009   8.122  11.812  1.00  0.00     0.106 N 
HETATM   15  C21 UNL     1      -1.193   9.027  12.994  1.00  0.00     0.369 C 
HETATM   16  C22 UNL     1      -2.627   8.972  13.540  1.00  0.00     0.230 C 
HETATM   17  O4  UNL     1      -2.931   9.419  14.642  1.00  0.00    -0.278 OA
HETATM   18  N6  UNL     1      -3.496   8.340  12.662  1.00  0.00    -0.225 NA
HETATM   19  C23 UNL     1      -4.344   7.349  13.199  1.00  0.00     0.049 A 
HETATM   20  C24 UNL     1      -5.434   7.671  14.005  1.00  0.00     0.042 A 
HETATM   21  H25 UNL     1      -2.949   7.985  11.871  1.00  0.00     0.136 HD
ENDROOT
BRANCH  10  22
HETATM   22  C12 UNL     1       3.189   6.811   9.633  1.00  0.00     0.278 C 
BRANCH  22  23
HETATM   23  O3  UNL     1       4.520   6.427   9.944  1.00  0.00    -0.342 OA
BRANCH  23  24
HETATM   24  C13 UNL     1       5.285   7.301  10.666  1.00  0.00     0.069 A 
HETATM   25  C14 UNL     1       5.328   8.687  10.509  1.00  0.00     0.037 A 
HETATM   26  C15 UNL     1       6.163   9.462  11.321  1.00  0.00     0.003 A 
HETATM   27  C16 UNL     1       6.962   8.856  12.290  1.00  0.00     0.000 A 
HETATM   28  C17 UNL     1       6.931   7.473  12.445  1.00  0.00     0.003 A 
HETATM   29  C18 UNL     1       6.098   6.701  11.633  1.00  0.00     0.037 A 
ENDBRANCH  23  24
ENDBRANCH  22  23
ENDBRANCH  10  22
BRANCH   1  30
HETATM   30  C3  UNL     1      -7.450   6.927  15.307  1.00  0.00     0.133 A 
HETATM   31  N1  UNL     1      -8.774   6.875  14.934  1.00  0.00    -0.280 N 
HETATM   32  C1  UNL     1      -9.353   6.481  13.675  1.00  0.00     0.179 C 
HETATM   33  N2  UNL     1      -9.589   7.185  15.963  1.00  0.00    -0.293 N 
HETATM   34  C2  UNL     1      -8.711   7.388  16.944  1.00  0.00     0.199 A 
ATOM     35  H2  UNL     1     -10.607   7.247  15.985  1.00  0.00     0.188 HD
HETATM   36  N3  UNL     1      -7.405   7.220  16.595  1.00  0.00    -0.336 N 
ATOM     37  H3  UNL     1      -6.581   7.301  17.192  1.00  0.00     0.168 HD
ENDBRANCH   1  30
TORSDOF 4
ENDMDL
MODEL 4
REMARK minimizedAffinity -9.18548298
REMARK  4 active torsions:
REMARK  status: ('A' for Active; 'I' for Inactive)
REMARK    1  A    between atoms: C3_8  and  C4_9 
REMARK       I    between atoms: N4_17  and  C11_18 
REMARK    2  A    between atoms: C11_18  and  C12_20 
REMARK    3  A    between atoms: C12_20  and  O3_21 
REMARK    4  A    between atoms: O3_21  and  C13_22 
ROOT
HETATM    1  C4  UNL     1      -9.459   7.404  14.851  1.00  0.00     0.011 A 
HETATM    2  C5  UNL     1      -8.958   8.698  15.098  1.00  0.00     0.018 A 
HETATM    3  C6  UNL     1      -7.583   8.953  15.123  1.00  0.00     0.039 A 
HETATM    4  C7  UNL     1      -6.702   7.908  14.890  1.00  0.00     0.090 A 
HETATM    5  O1  UNL     1      -5.354   8.167  14.842  1.00  0.00    -0.347 OA
HETATM    6  C8  UNL     1      -4.848   8.074  13.490  1.00  0.00     0.213 C 
HETATM    7  C9  UNL     1      -3.552   7.218  13.433  1.00  0.00     0.265 C 
HETATM    8  C10 UNL     1      -2.501   7.908  14.355  1.00  0.00     0.163 C 
HETATM    9  N4  UNL     1      -1.219   7.211  14.294  1.00  0.00    -0.346 N 
HETATM   10  C11 UNL     1      -0.282   7.657  13.358  1.00  0.00     0.244 C 
HETATM   11  O2  UNL     1      -0.507   8.630  12.638  1.00  0.00    -0.271 OA
HETATM   12  C19 UNL     1      -1.330   5.817  14.708  1.00  0.00     0.156 C 
HETATM   13  C20 UNL     1      -2.360   5.094  13.816  1.00  0.00     0.293 C 
HETATM   14  N5  UNL     1      -3.699   5.751  13.803  1.00  0.00     0.106 N 
HETATM   15  C21 UNL     1      -4.573   4.989  12.850  1.00  0.00     0.369 C 
HETATM   16  C22 UNL     1      -6.055   5.077  13.239  1.00  0.00     0.230 C 
HETATM   17  O4  UNL     1      -6.959   4.757  12.473  1.00  0.00    -0.278 OA
HETATM   18  N6  UNL     1      -6.230   5.580  14.521  1.00  0.00    -0.225 NA
HETATM   19  C23 UNL     1      -7.182   6.608  14.683  1.00  0.00     0.049 A 
HETATM   20  C24 UNL     1      -8.552   6.359  14.621  1.00  0.00     0.042 A 
HETATM   21  H25 UNL     1      -5.312   5.850  14.886  1.00  0.00     0.136 HD
ENDROOT
BRANCH  10  22
HETATM   22  C12 UNL     1       1.049   6.887  13.297  1.00  0.00     0.278 C 
BRANCH  22  23
HETATM   23  O3  UNL     1       1.172   5.947  12.239  1.00  0.00    -0.342 OA
BRANCH  23  24
HETATM   24  C13 UNL     1       1.697   6.385  11.054  1.00  0.00     0.069 A 
HETATM   25  C14 UNL     1       0.976   6.817   9.941  1.00  0.00     0.037 A 
HETATM   26  C15 UNL     1       1.647   7.237   8.787  1.00  0.00     0.003 A 
HETATM   27  C16 UNL     1       3.040   7.223   8.740  1.00  0.00     0.000 A 
HETATM   28  C17 UNL     1       3.765   6.783   9.844  1.00  0.00     0.003 A 
HETATM   29  C18 UNL     1       3.094   6.363  10.994  1.00  0.00     0.037 A 
ENDBRANCH  23  24
ENDBRANCH  22  23
ENDBRANCH  10  22
BRANCH   1  30
HETATM   30  C3  UNL     1     -10.909   7.208  14.809  1.00  0.00     0.133 A 
HETATM   31  N1  UNL     1     -11.875   8.041  15.328  1.00  0.00    -0.280 N 
HETATM   32  C1  UNL     1     -11.727   9.323  15.966  1.00  0.00     0.179 C 
HETATM   33  N2  UNL     1     -13.114   7.554  15.110  1.00  0.00    -0.293 N 
HETATM   34  C2  UNL     1     -12.846   6.440  14.431  1.00  0.00     0.199 A 
ATOM     35  H2  UNL     1     -14.017   7.937  15.391  1.00  0.00     0.188 HD
HETATM   36  N3  UNL     1     -11.523   6.204  14.206  1.00  0.00    -0.336 N 
ATOM     37  H3  UNL     1     -11.103   5.430  13.691  1.00  0.00     0.168 HD
ENDBRANCH   1  30
TORSDOF 4
ENDMDL
MODEL 5
REMARK minimizedAffinity -9.16143608
REMARK  4 active torsions:
REMARK  status: ('A' for Active; 'I' for Inactive)
REMARK    1  A    between atoms: C3_8  and  C4_9 
REMARK       I    between atoms: N4_17  and  C11_18 
REMARK    2  A    between atoms: C11_18  and  C12_20 
REMARK    3  A    between atoms: C12_20  and  O3_21 
REMARK    4  A    between atoms: O3_21  and  C13_22 
ROOT
HETATM    1  C4  UNL     1      -3.913   3.835  12.324  1.00  0.00     0.011 A 
HETATM    2  C5  UNL     1      -2.576   3.541  11.989  1.00  0.00     0.018 A 
HETATM    3  C6  UNL     1      -1.532   4.398  12.352  1.00  0.00     0.039 A 
HETATM    4  C7  UNL     1      -1.824   5.552  13.063  1.00  0.00     0.090 A 
HETATM    5  O1  UNL     1      -0.795   6.357  13.485  1.00  0.00    -0.347 OA
HETATM    6  C8  UNL     1      -0.607   6.266  14.916  1.00  0.00     0.213 C 
HETATM    7  C9  UNL     1      -0.491   7.677  15.558  1.00  0.00     0.265 C 
HETATM    8  C10 UNL     1       0.731   8.385  14.899  1.00  0.00     0.163 C 
HETATM    9  N4  UNL     1       0.965   9.693  15.507  1.00  0.00    -0.346 N 
HETATM   10  C11 UNL     1       1.858   9.758  16.581  1.00  0.00     0.244 C 
HETATM   11  O2  UNL     1       2.462   8.760  16.975  1.00  0.00    -0.271 OA
HETATM   12  C19 UNL     1      -0.189  10.576  15.375  1.00  0.00     0.156 C 
HETATM   13  C20 UNL     1      -1.423   9.912  16.021  1.00  0.00     0.293 C 
HETATM   14  N5  UNL     1      -1.725   8.559  15.470  1.00  0.00     0.106 N 
HETATM   15  C21 UNL     1      -2.897   8.008  16.230  1.00  0.00     0.369 C 
HETATM   16  C22 UNL     1      -3.722   7.033  15.379  1.00  0.00     0.230 C 
HETATM   17  O4  UNL     1      -4.556   6.276  15.866  1.00  0.00    -0.278 OA
HETATM   18  N6  UNL     1      -3.386   7.100  14.034  1.00  0.00    -0.225 NA
HETATM   19  C23 UNL     1      -3.152   5.878  13.369  1.00  0.00     0.049 A 
HETATM   20  C24 UNL     1      -4.190   5.009  13.040  1.00  0.00     0.042 A 
HETATM   21  H25 UNL     1      -2.597   7.745  13.934  1.00  0.00     0.136 HD
ENDROOT
BRANCH  10  22
HETATM   22  C12 UNL     1       2.063  11.143  17.220  1.00  0.00     0.278 C 
BRANCH  22  23
HETATM   23  O3  UNL     1       1.536  11.304  18.529  1.00  0.00    -0.342 OA
BRANCH  23  24
HETATM   24  C13 UNL     1       2.353  11.013  19.587  1.00  0.00     0.069 A 
HETATM   25  C14 UNL     1       3.717  11.293  19.679  1.00  0.00     0.037 A 
HETATM   26  C15 UNL     1       4.434  10.935  20.826  1.00  0.00     0.003 A 
HETATM   27  C16 UNL     1       3.792  10.292  21.883  1.00  0.00     0.000 A 
HETATM   28  C17 UNL     1       2.433  10.001  21.794  1.00  0.00     0.003 A 
HETATM   29  C18 UNL     1       1.720  10.358  20.647  1.00  0.00     0.037 A 
ENDBRANCH  23  24
ENDBRANCH  22  23
ENDBRANCH  10  22
BRANCH   1  30
HETATM   30  C3  UNL     1      -4.959   2.885  11.940  1.00  0.00     0.133 A 
HETATM   31  N1  UNL     1      -6.270   2.878  12.361  1.00  0.00    -0.280 N 
HETATM   32  C1  UNL     1      -6.961   3.816  13.208  1.00  0.00     0.179 C 
HETATM   33  N2  UNL     1      -6.960   1.859  11.809  1.00  0.00    -0.293 N 
HETATM   34  C2  UNL     1      -6.030   1.296  11.039  1.00  0.00     0.199 A 
ATOM     35  H2  UNL     1      -7.935   1.591  11.944  1.00  0.00     0.188 HD
HETATM   36  N3  UNL     1      -4.809   1.900  11.071  1.00  0.00    -0.336 N 
ATOM     37  H3  UNL     1      -3.972   1.649  10.545  1.00  0.00     0.168 HD
ENDBRANCH   1  30
TORSDOF 4
ENDMDL
MODEL 6
REMARK minimizedAffinity -9.06016541
REMARK  4 active torsions:
REMARK  status: ('A' for Active; 'I' for Inactive)
REMARK    1  A    between atoms: C3_8  and  C4_9 
REMARK       I    between atoms: N4_17  and  C11_18 
REMARK    2  A    between atoms: C11_18  and  C12_20 
REMARK    3  A    between atoms: C12_20  and  O3_21 
REMARK    4  A    between atoms: O3_21  and  C13_22 
ROOT
HETATM    1  C4  UNL     1      -7.151   7.056  14.588  1.00  0.00     0.011 A 
HETATM    2  C5  UNL     1      -6.878   5.691  14.365  1.00  0.00     0.018 A 
HETATM    3  C6  UNL     1      -5.728   5.283  13.681  1.00  0.00     0.039 A 
HETATM    4  C7  UNL     1      -4.840   6.246  13.225  1.00  0.00     0.090 A 
HETATM    5  O1  UNL     1      -3.674   5.847  12.618  1.00  0.00    -0.347 OA
HETATM    6  C8  UNL     1      -2.529   6.085  13.469  1.00  0.00     0.213 C 
HETATM    7  C9  UNL     1      -1.385   6.789  12.686  1.00  0.00     0.265 C 
HETATM    8  C10 UNL     1      -0.992   5.855  11.502  1.00  0.00     0.163 C 
HETATM    9  N4  UNL     1       0.140   6.404  10.760  1.00  0.00    -0.346 N 
HETATM   10  C11 UNL     1       1.423   6.002  11.142  1.00  0.00     0.244 C 
HETATM   11  O2  UNL     1       1.597   5.180  12.042  1.00  0.00    -0.271 OA
HETATM   12  C19 UNL     1      -0.150   7.724  10.211  1.00  0.00     0.156 C 
HETATM   13  C20 UNL     1      -0.542   8.684  11.353  1.00  0.00     0.293 C 
HETATM   14  N5  UNL     1      -1.682   8.190  12.178  1.00  0.00     0.106 N 
HETATM   15  C21 UNL     1      -1.908   9.181  13.283  1.00  0.00     0.369 C 
HETATM   16  C22 UNL     1      -3.373   9.202  13.741  1.00  0.00     0.230 C 
HETATM   17  O4  UNL     1      -3.730   9.734  14.788  1.00  0.00    -0.278 OA
HETATM   18  N6  UNL     1      -4.207   8.535  12.855  1.00  0.00    -0.225 NA
HETATM   19  C23 UNL     1      -5.117   7.607  13.403  1.00  0.00     0.049 A 
HETATM   20  C24 UNL     1      -6.243   8.015  14.115  1.00  0.00     0.042 A 
HETATM   21  H25 UNL     1      -3.624   8.111  12.125  1.00  0.00     0.136 HD
ENDROOT
BRANCH  10  22
HETATM   22  C12 UNL     1       2.598   6.618  10.361  1.00  0.00     0.278 C 
BRANCH  22  23
HETATM   23  O3  UNL     1       2.573   6.428   8.955  1.00  0.00    -0.342 OA
BRANCH  23  24
HETATM   24  C13 UNL     1       3.205   5.325   8.448  1.00  0.00     0.069 A 
HETATM   25  C14 UNL     1       4.012   4.436   9.159  1.00  0.00     0.037 A 
HETATM   26  C15 UNL     1       4.600   3.345   8.509  1.00  0.00     0.003 A 
HETATM   27  C16 UNL     1       4.389   3.142   7.146  1.00  0.00     0.000 A 
HETATM   28  C17 UNL     1       3.593   4.031   6.429  1.00  0.00     0.003 A 
HETATM   29  C18 UNL     1       3.008   5.119   7.079  1.00  0.00     0.037 A 
ENDBRANCH  23  24
ENDBRANCH  22  23
ENDBRANCH  10  22
BRANCH   1  30
HETATM   30  C3  UNL     1      -8.357   7.418  15.335  1.00  0.00     0.133 A 
HETATM   31  N1  UNL     1      -9.657   7.376  14.884  1.00  0.00    -0.280 N 
HETATM   32  C1  UNL     1     -10.170   6.910  13.622  1.00  0.00     0.179 C 
HETATM   33  N2  UNL     1     -10.523   7.779  15.837  1.00  0.00    -0.293 N 
HETATM   34  C2  UNL     1      -9.700   8.026  16.855  1.00  0.00     0.199 A 
ATOM     35  H2  UNL     1     -11.538   7.869  15.790  1.00  0.00     0.188 HD
HETATM   36  N3  UNL     1      -8.381   7.799  16.601  1.00  0.00    -0.336 N 
ATOM     37  H3  UNL     1      -7.593   7.898  17.241  1.00  0.00     0.168 HD
ENDBRANCH   1  30
TORSDOF 4
ENDMDL
MODEL 7
REMARK minimizedAffinity -9.05521488
REMARK  4 active torsions:
REMARK  status: ('A' for Active; 'I' for Inactive)
REMARK    1  A    between atoms: C3_8  and  C4_9 
REMARK       I    between atoms: N4_17  and  C11_18 
REMARK    2  A    between atoms: C11_18  and  C12_20 
REMARK    3  A    between atoms: C12_20  and  O3_21 
REMARK    4  A    between atoms: O3_21  and  C13_22 
ROOT
HETATM    1  C4  UNL     1      -3.624   2.697  11.871  1.00  0.00     0.011 A 
HETATM    2  C5  UNL     1      -4.797   2.099  11.367  1.00  0.00     0.018 A 
HETATM    3  C6  UNL     1      -6.064   2.584  11.709  1.00  0.00     0.039 A 
HETATM    4  C7  UNL     1      -6.159   3.680  12.554  1.00  0.00     0.090 A 
HETATM    5  O1  UNL     1      -7.397   4.204  12.833  1.00  0.00    -0.347 OA
HETATM    6  C8  UNL     1      -7.591   5.477  12.175  1.00  0.00     0.213 C 
HETATM    7  C9  UNL     1      -8.152   6.540  13.162  1.00  0.00     0.265 C 
HETATM    8  C10 UNL     1      -9.511   5.999  13.700  1.00  0.00     0.163 C 
HETATM    9  N4  UNL     1     -10.151   6.978  14.574  1.00  0.00    -0.346 N 
HETATM   10  C11 UNL     1     -11.053   7.874  13.994  1.00  0.00     0.244 C 
HETATM   11  O2  UNL     1     -11.335   7.816  12.797  1.00  0.00    -0.271 OA
HETATM   12  C19 UNL     1      -9.319   7.317  15.723  1.00  0.00     0.156 C 
HETATM   13  C20 UNL     1      -7.961   7.862  15.234  1.00  0.00     0.293 C 
HETATM   14  N5  UNL     1      -7.244   6.931  14.316  1.00  0.00     0.106 N 
HETATM   15  C21 UNL     1      -5.983   7.611  13.868  1.00  0.00     0.369 C 
HETATM   16  C22 UNL     1      -4.874   6.602  13.540  1.00  0.00     0.230 C 
HETATM   17  O4  UNL     1      -3.864   6.911  12.916  1.00  0.00    -0.278 OA
HETATM   18  N6  UNL     1      -5.174   5.328  14.001  1.00  0.00    -0.225 NA
HETATM   19  C23 UNL     1      -5.004   4.260  13.095  1.00  0.00     0.049 A 
HETATM   20  C24 UNL     1      -3.740   3.801  12.727  1.00  0.00     0.042 A 
HETATM   21  H25 UNL     1      -6.120   5.345  14.395  1.00  0.00     0.136 HD
ENDROOT
BRANCH  10  22
HETATM   22  C12 UNL     1     -11.691   8.913  14.933  1.00  0.00     0.278 C 
BRANCH  22  23
HETATM   23  O3  UNL     1     -12.881   8.504  15.591  1.00  0.00    -0.342 OA
BRANCH  23  24
HETATM   24  C13 UNL     1     -13.855   7.910  14.836  1.00  0.00     0.069 A 
HETATM   25  C14 UNL     1     -14.692   8.545  13.918  1.00  0.00     0.037 A 
HETATM   26  C15 UNL     1     -15.652   7.810  13.214  1.00  0.00     0.003 A 
HETATM   27  C16 UNL     1     -15.783   6.439  13.428  1.00  0.00     0.000 A 
HETATM   28  C17 UNL     1     -14.958   5.800  14.350  1.00  0.00     0.003 A 
HETATM   29  C18 UNL     1     -14.001   6.536  15.053  1.00  0.00     0.037 A 
ENDBRANCH  23  24
ENDBRANCH  22  23
ENDBRANCH  10  22
BRANCH   1  30
HETATM   30  C3  UNL     1      -2.327   2.161  11.453  1.00  0.00     0.133 A 
HETATM   31  N1  UNL     1      -1.111   2.806  11.492  1.00  0.00    -0.280 N 
HETATM   32  C1  UNL     1      -0.787   4.112  12.003  1.00  0.00     0.179 C 
HETATM   33  N2  UNL     1      -0.120   2.016  11.031  1.00  0.00    -0.293 N 
HETATM   34  C2  UNL     1      -0.782   0.894  10.754  1.00  0.00     0.199 A 
ATOM     35  H2  UNL     1       0.873   2.223  10.923  1.00  0.00     0.188 HD
HETATM   36  N3  UNL     1      -2.118   0.930  11.017  1.00  0.00    -0.336 N 
ATOM     37  H3  UNL     1      -2.800   0.181  10.903  1.00  0.00     0.168 HD
ENDBRANCH   1  30
TORSDOF 4
ENDMDL
MODEL 8
REMARK minimizedAffinity -8.98624897
REMARK  4 active torsions:
REMARK  status: ('A' for Active; 'I' for Inactive)
REMARK    1  A    between atoms: C3_8  and  C4_9 
REMARK       I    between atoms: N4_17  and  C11_18 
REMARK    2  A    between atoms: C11_18  and  C12_20 
REMARK    3  A    between atoms: C12_20  and  O3_21 
REMARK    4  A    between atoms: O3_21  and  C13_22 
ROOT
HETATM    1  C4  UNL     1      -3.619   2.722  11.910  1.00  0.00     0.011 A 
HETATM    2  C5  UNL     1      -4.820   2.135  11.464  1.00  0.00     0.018 A 
HETATM    3  C6  UNL     1      -6.064   2.635  11.862  1.00  0.00     0.039 A 
HETATM    4  C7  UNL     1      -6.108   3.735  12.706  1.00  0.00     0.090 A 
HETATM    5  O1  UNL     1      -7.327   4.273  13.040  1.00  0.00    -0.347 OA
HETATM    6  C8  UNL     1      -7.538   5.546  12.386  1.00  0.00     0.213 C 
HETATM    7  C9  UNL     1      -8.041   6.618  13.393  1.00  0.00     0.265 C 
HETATM    8  C10 UNL     1      -9.379   6.094  13.995  1.00  0.00     0.163 C 
HETATM    9  N4  UNL     1      -9.968   7.084  14.894  1.00  0.00    -0.346 N 
HETATM   10  C11 UNL     1     -10.886   7.987  14.352  1.00  0.00     0.244 C 
HETATM   11  O2  UNL     1     -11.224   7.928  13.170  1.00  0.00    -0.271 OA
HETATM   12  C19 UNL     1      -9.080   7.418  16.002  1.00  0.00     0.156 C 
HETATM   13  C20 UNL     1      -7.740   7.947  15.448  1.00  0.00     0.293 C 
HETATM   14  N5  UNL     1      -7.076   7.004  14.502  1.00  0.00     0.106 N 
HETATM   15  C21 UNL     1      -5.830   7.669  13.993  1.00  0.00     0.369 C 
HETATM   16  C22 UNL     1      -4.749   6.647  13.618  1.00  0.00     0.230 C 
HETATM   17  O4  UNL     1      -3.765   6.943  12.946  1.00  0.00    -0.278 OA
HETATM   18  N6  UNL     1      -5.040   5.378  14.098  1.00  0.00    -0.225 NA
HETATM   19  C23 UNL     1      -4.924   4.305  13.190  1.00  0.00     0.049 A 
HETATM   20  C24 UNL     1      -3.683   3.831  12.766  1.00  0.00     0.042 A 
HETATM   21  H25 UNL     1      -5.966   5.407  14.536  1.00  0.00     0.136 HD
ENDROOT
BRANCH  10  22
HETATM   22  C12 UNL     1     -11.469   9.037  15.316  1.00  0.00     0.278 C 
BRANCH  22  23
HETATM   23  O3  UNL     1     -10.709  10.227  15.467  1.00  0.00    -0.342 OA
BRANCH  23  24
HETATM   24  C13 UNL     1     -10.696  10.824  16.697  1.00  0.00     0.069 A 
HETATM   25  C14 UNL     1     -10.223  12.104  16.990  1.00  0.00     0.037 A 
HETATM   26  C15 UNL     1     -10.268  12.588  18.302  1.00  0.00     0.003 A 
HETATM   27  C16 UNL     1     -10.780  11.794  19.327  1.00  0.00     0.000 A 
HETATM   28  C17 UNL     1     -11.245  10.512  19.044  1.00  0.00     0.003 A 
HETATM   29  C18 UNL     1     -11.198  10.030  17.734  1.00  0.00     0.037 A 
ENDBRANCH  23  24
ENDBRANCH  22  23
ENDBRANCH  10  22
BRANCH   1  30
HETATM   30  C3  UNL     1      -2.348   2.170  11.435  1.00  0.00     0.133 A 
HETATM   31  N1  UNL     1      -1.130   2.812  11.389  1.00  0.00    -0.280 N 
HETATM   32  C1  UNL     1      -0.775   4.130  11.848  1.00  0.00     0.179 C 
HETATM   33  N2  UNL     1      -0.168   2.007  10.894  1.00  0.00    -0.293 N 
HETATM   34  C2  UNL     1      -0.847   0.880  10.684  1.00  0.00     0.199 A 
ATOM     35  H2  UNL     1       0.818   2.207  10.726  1.00  0.00     0.188 HD
HETATM   36  N3  UNL     1      -2.167   0.929  11.020  1.00  0.00    -0.336 N 
ATOM     37  H3  UNL     1      -2.856   0.179  10.964  1.00  0.00     0.168 HD
ENDBRANCH   1  30
TORSDOF 4
ENDMDL
MODEL 9
REMARK minimizedAffinity -8.87724781
REMARK  4 active torsions:
REMARK  status: ('A' for Active; 'I' for Inactive)
REMARK    1  A    between atoms: C3_8  and  C4_9 
REMARK       I    between atoms: N4_17  and  C11_18 
REMARK    2  A    between atoms: C11_18  and  C12_20 
REMARK    3  A    between atoms: C12_20  and  O3_21 
REMARK    4  A    between atoms: O3_21  and  C13_22 
ROOT
HETATM    1  C4  UNL     1      -4.993   4.968  13.131  1.00  0.00     0.011 A 
HETATM    2  C5  UNL     1      -4.029   3.959  12.936  1.00  0.00     0.018 A 
HETATM    3  C6  UNL     1      -2.660   4.243  12.984  1.00  0.00     0.039 A 
HETATM    4  C7  UNL     1      -2.252   5.544  13.237  1.00  0.00     0.090 A 
HETATM    5  O1  UNL     1      -0.911   5.813  13.358  1.00  0.00    -0.347 OA
HETATM    6  C8  UNL     1      -0.551   6.092  14.730  1.00  0.00     0.213 C 
HETATM    7  C9  UNL     1       0.321   7.375  14.833  1.00  0.00     0.265 C 
HETATM    8  C10 UNL     1       1.602   7.133  13.978  1.00  0.00     0.163 C 
HETATM    9  N4  UNL     1       2.521   8.263  14.087  1.00  0.00    -0.346 N 
HETATM   10  C11 UNL     1       3.506   8.205  15.077  1.00  0.00     0.244 C 
HETATM   11  O2  UNL     1       3.627   7.220  15.805  1.00  0.00    -0.271 OA
HETATM   12  C19 UNL     1       1.914   9.511  13.638  1.00  0.00     0.156 C 
HETATM   13  C20 UNL     1       0.641   9.792  14.464  1.00  0.00     0.293 C 
HETATM   14  N5  UNL     1      -0.349   8.677  14.425  1.00  0.00     0.106 N 
HETATM   15  C21 UNL     1      -1.495   9.053  15.317  1.00  0.00     0.369 C 
HETATM   16  C22 UNL     1      -2.812   8.411  14.858  1.00  0.00     0.230 C 
HETATM   17  O4  UNL     1      -3.809   8.366  15.573  1.00  0.00    -0.278 OA
HETATM   18  N6  UNL     1      -2.715   7.878  13.581  1.00  0.00    -0.225 NA
HETATM   19  C23 UNL     1      -3.198   6.566  13.394  1.00  0.00     0.049 A 
HETATM   20  C24 UNL     1      -4.562   6.278  13.383  1.00  0.00     0.042 A 
HETATM   21  H25 UNL     1      -1.744   7.975  13.267  1.00  0.00     0.136 HD
ENDROOT
BRANCH  10  22
HETATM   22  C12 UNL     1       4.442   9.422  15.187  1.00  0.00     0.278 C 
BRANCH  22  23
HETATM   23  O3  UNL     1       5.619   9.229  15.959  1.00  0.00    -0.342 OA
BRANCH  23  24
HETATM   24  C13 UNL     1       6.742   8.793  15.312  1.00  0.00     0.069 A 
HETATM   25  C14 UNL     1       6.885   8.610  13.936  1.00  0.00     0.037 A 
HETATM   26  C15 UNL     1       8.098   8.154  13.408  1.00  0.00     0.003 A 
HETATM   27  C16 UNL     1       9.171   7.874  14.253  1.00  0.00     0.000 A 
HETATM   28  C17 UNL     1       9.032   8.046  15.628  1.00  0.00     0.003 A 
HETATM   29  C18 UNL     1       7.821   8.500  16.152  1.00  0.00     0.037 A 
ENDBRANCH  23  24
ENDBRANCH  22  23
ENDBRANCH  10  22
BRANCH   1  30
HETATM   30  C3  UNL     1      -6.411   4.601  13.098  1.00  0.00     0.133 A 
HETATM   31  N1  UNL     1      -7.468   5.327  13.600  1.00  0.00    -0.280 N 
HETATM   32  C1  UNL     1      -7.471   6.632  14.210  1.00  0.00     0.179 C 
HETATM   33  N2  UNL     1      -8.641   4.693  13.398  1.00  0.00    -0.293 N 
HETATM   34  C2  UNL     1      -8.244   3.604  12.743  1.00  0.00     0.199 A 
ATOM     35  H2  UNL     1      -9.583   4.974  13.672  1.00  0.00     0.188 HD
HETATM   36  N3  UNL     1      -6.902   3.519  12.520  1.00  0.00    -0.336 N 
ATOM     37  H3  UNL     1      -6.394   2.789  12.021  1.00  0.00     0.168 HD
ENDBRANCH   1  30
TORSDOF 4
ENDMDL
