MODEL 1
REMARK minimizedAffinity -7.20754147
REMARK  3 active torsions:
REMARK  status: ('A' for Active; 'I' for Inactive)
REMARK    1  A    between atoms: C2_2  and  C3_3 
REMARK    2  A    between atoms: C3_3  and  N1_4 
REMARK    3  A    between atoms: C10_13  and  N3_14 
ROOT
HETATM    1  N1  UNL     1      -1.929  50.822 -26.087  1.00  0.00     0.093 N 
HETATM    2  C4  UNL     1      -1.829  51.482 -27.395  1.00  0.00     0.273 C 
HETATM    3  C5  UNL     1      -0.391  51.706 -27.847  1.00  0.00     0.031 C 
HETATM    4  C6  UNL     1       0.377  52.592 -26.872  1.00  0.00     0.009 C 
HETATM    5  C7  UNL     1      -0.251  52.621 -25.470  1.00  0.00     0.025 C 
HETATM    6  C8  UNL     1       0.812  53.004 -24.428  1.00  0.00     0.064 C 
HETATM    7  C9  UNL     1       0.345  52.853 -23.006  1.00  0.00     0.019 A 
HETATM    8  N2  UNL     1       1.078  53.489 -22.065  1.00  0.00    -0.336 N 
ATOM      9  H2  UNL     1       1.877  54.071 -22.318  1.00  0.00     0.168 HD
HETATM   10  C10 UNL     1       0.712  53.324 -20.791  1.00  0.00     0.154 A 
HETATM   11  N4  UNL     1      -0.336  52.606 -20.384  1.00  0.00    -0.342 N 
ATOM     12  H4  UNL     1      -0.591  52.534 -19.399  1.00  0.00     0.167 HD
HETATM   13  C11 UNL     1      -1.039  51.982 -21.346  1.00  0.00     0.099 A 
HETATM   14  C12 UNL     1      -0.736  52.054 -22.690  1.00  0.00    -0.018 A 
HETATM   15  C13 UNL     1      -1.577  51.371 -23.722  1.00  0.00     0.078 C 
HETATM   16  C14 UNL     1      -0.903  51.267 -25.112  1.00  0.00     0.231 C 
ENDROOT
BRANCH   1  17
HETATM   17  C3  UNL     1      -1.975  49.353 -26.186  1.00  0.00     0.272 C 
BRANCH  17  18
HETATM   18  C2  UNL     1      -3.397  48.806 -26.005  1.00  0.00     0.026 C 
HETATM   19  C1  UNL     1      -4.012  48.417 -27.342  1.00  0.00     0.007 C 
ENDBRANCH  17  18
ENDBRANCH   1  17
BRANCH  10  20
HETATM   20  N3  UNL     1       1.442  53.989 -19.828  1.00  0.00    -0.274 NA
HETATM   21  H17 UNL     1       1.889  54.793 -20.245  1.00  0.00     0.127 HD
HETATM   22  H18 UNL     1       0.860  54.147 -19.019  1.00  0.00     0.127 HD
ENDBRANCH  10  20
TORSDOF 3
ENDMDL
MODEL 2
REMARK minimizedAffinity -7.18621826
REMARK  3 active torsions:
REMARK  status: ('A' for Active; 'I' for Inactive)
REMARK    1  A    between atoms: C2_2  and  C3_3 
REMARK    2  A    between atoms: C3_3  and  N1_4 
REMARK    3  A    between atoms: C10_13  and  N3_14 
ROOT
HETATM    1  N1  UNL     1      -0.974  51.597 -22.098  1.00  0.00     0.093 N 
HETATM    2  C4  UNL     1      -1.514  50.869 -20.942  1.00  0.00     0.273 C 
HETATM    3  C5  UNL     1      -1.394  49.356 -21.075  1.00  0.00     0.031 C 
HETATM    4  C6  UNL     1      -2.152  48.833 -22.290  1.00  0.00     0.009 C 
HETATM    5  C7  UNL     1      -2.403  49.917 -23.349  1.00  0.00     0.025 C 
HETATM    6  C8  UNL     1      -2.612  49.266 -24.726  1.00  0.00     0.064 C 
HETATM    7  C9  UNL     1      -2.654  50.252 -25.861  1.00  0.00     0.019 A 
HETATM    8  N2  UNL     1      -3.175  49.804 -27.024  1.00  0.00    -0.336 N 
ATOM      9  H2  UNL     1      -3.553  48.861 -27.108  1.00  0.00     0.168 HD
HETATM   10  C10 UNL     1      -3.172  50.648 -28.060  1.00  0.00     0.154 A 
HETATM   11  N4  UNL     1      -2.724  51.903 -28.021  1.00  0.00    -0.342 N 
ATOM     12  H4  UNL     1      -2.770  52.518 -28.834  1.00  0.00     0.167 HD
HETATM   13  C11 UNL     1      -2.207  52.315 -26.849  1.00  0.00     0.099 A 
HETATM   14  C12 UNL     1      -2.129  51.522 -25.723  1.00  0.00    -0.018 A 
HETATM   15  C13 UNL     1      -1.580  52.044 -24.432  1.00  0.00     0.078 C 
HETATM   16  C14 UNL     1      -1.247  50.940 -23.400  1.00  0.00     0.231 C 
ENDROOT
BRANCH   1  17
HETATM   17  C3  UNL     1       0.454  51.929 -21.952  1.00  0.00     0.272 C 
BRANCH  17  18
HETATM   18  C2  UNL     1       0.740  52.691 -20.652  1.00  0.00     0.026 C 
HETATM   19  C1  UNL     1       1.161  54.127 -20.934  1.00  0.00     0.007 C 
ENDBRANCH  17  18
ENDBRANCH   1  17
BRANCH  10  20
HETATM   20  N3  UNL     1      -3.722  50.203 -29.244  1.00  0.00    -0.274 NA
HETATM   21  H17 UNL     1      -4.384  49.466 -29.048  1.00  0.00     0.127 HD
HETATM   22  H18 UNL     1      -4.052  50.996 -29.776  1.00  0.00     0.127 HD
ENDBRANCH  10  20
TORSDOF 3
ENDMDL
MODEL 3
REMARK minimizedAffinity -7.0480957
REMARK  3 active torsions:
REMARK  status: ('A' for Active; 'I' for Inactive)
REMARK    1  A    between atoms: C2_2  and  C3_3 
REMARK    2  A    between atoms: C3_3  and  N1_4 
REMARK    3  A    between atoms: C10_13  and  N3_14 
ROOT
HETATM    1  N1  UNL     1       0.104  52.281 -23.980  1.00  0.00     0.093 N 
HETATM    2  C4  UNL     1       0.727  52.164 -25.305  1.00  0.00     0.273 C 
HETATM    3  C5  UNL     1       0.039  53.008 -26.371  1.00  0.00     0.031 C 
HETATM    4  C6  UNL     1      -1.419  52.604 -26.557  1.00  0.00     0.009 C 
HETATM    5  C7  UNL     1      -1.992  51.856 -25.343  1.00  0.00     0.025 C 
HETATM    6  C8  UNL     1      -3.523  51.994 -25.318  1.00  0.00     0.064 C 
HETATM    7  C9  UNL     1      -4.155  51.477 -24.054  1.00  0.00     0.019 A 
HETATM    8  N2  UNL     1      -5.485  51.244 -24.103  1.00  0.00    -0.336 N 
ATOM      9  H2  UNL     1      -6.016  51.374 -24.964  1.00  0.00     0.168 HD
HETATM   10  C10 UNL     1      -6.075  50.835 -22.976  1.00  0.00     0.154 A 
HETATM   11  N4  UNL     1      -5.446  50.613 -21.822  1.00  0.00    -0.342 N 
ATOM     12  H4  UNL     1      -5.939  50.273 -20.995  1.00  0.00     0.167 HD
HETATM   13  C11 UNL     1      -4.124  50.861 -21.808  1.00  0.00     0.099 A 
HETATM   14  C12 UNL     1      -3.415  51.315 -22.900  1.00  0.00    -0.018 A 
HETATM   15  C13 UNL     1      -1.936  51.537 -22.839  1.00  0.00     0.078 C 
HETATM   16  C14 UNL     1      -1.377  52.366 -24.021  1.00  0.00     0.231 C 
ENDROOT
BRANCH   1  17
HETATM   17  C3  UNL     1       0.682  53.365 -23.166  1.00  0.00     0.272 C 
BRANCH  17  18
HETATM   18  C2  UNL     1       1.025  52.899 -21.745  1.00  0.00     0.026 C 
HETATM   19  C1  UNL     1       1.238  54.084 -20.813  1.00  0.00     0.007 C 
ENDBRANCH  17  18
ENDBRANCH   1  17
BRANCH  10  20
HETATM   20  N3  UNL     1      -7.429  50.574 -23.026  1.00  0.00    -0.274 NA
HETATM   21  H17 UNL     1      -7.692  50.357 -23.976  1.00  0.00     0.127 HD
HETATM   22  H18 UNL     1      -7.664  49.900 -22.312  1.00  0.00     0.127 HD
ENDBRANCH  10  20
TORSDOF 3
ENDMDL
MODEL 4
REMARK minimizedAffinity -7.01083803
REMARK  3 active torsions:
REMARK  status: ('A' for Active; 'I' for Inactive)
REMARK    1  A    between atoms: C2_2  and  C3_3 
REMARK    2  A    between atoms: C3_3  and  N1_4 
REMARK    3  A    between atoms: C10_13  and  N3_14 
ROOT
HETATM    1  N1  UNL     1       0.236  52.878 -23.766  1.00  0.00     0.093 N 
HETATM    2  C4  UNL     1       1.060  53.327 -22.636  1.00  0.00     0.273 C 
HETATM    3  C5  UNL     1       1.213  52.274 -21.546  1.00  0.00     0.031 C 
HETATM    4  C6  UNL     1      -0.134  51.877 -20.950  1.00  0.00     0.009 C 
HETATM    5  C7  UNL     1      -1.316  52.197 -21.878  1.00  0.00     0.025 C 
HETATM    6  C8  UNL     1      -2.510  51.294 -21.535  1.00  0.00     0.064 C 
HETATM    7  C9  UNL     1      -3.640  51.385 -22.524  1.00  0.00     0.019 A 
HETATM    8  N2  UNL     1      -4.834  50.904 -22.114  1.00  0.00    -0.336 N 
ATOM      9  H2  UNL     1      -4.965  50.539 -21.171  1.00  0.00     0.168 HD
HETATM   10  C10 UNL     1      -5.838  50.927 -22.997  1.00  0.00     0.154 A 
HETATM   11  N4  UNL     1      -5.754  51.416 -24.235  1.00  0.00    -0.342 N 
ATOM     12  H4  UNL     1      -6.559  51.436 -24.862  1.00  0.00     0.167 HD
HETATM   13  C11 UNL     1      -4.549  51.880 -24.612  1.00  0.00     0.099 A 
HETATM   14  C12 UNL     1      -3.435  51.878 -23.798  1.00  0.00    -0.018 A 
HETATM   15  C13 UNL     1      -2.128  52.445 -24.256  1.00  0.00     0.078 C 
HETATM   16  C14 UNL     1      -0.926  52.046 -23.365  1.00  0.00     0.231 C 
ENDROOT
BRANCH   1  17
HETATM   17  C3  UNL     1       1.022  52.226 -24.828  1.00  0.00     0.272 C 
BRANCH  17  18
HETATM   18  C2  UNL     1       0.663  52.759 -26.221  1.00  0.00     0.026 C 
HETATM   19  C1  UNL     1       1.293  51.908 -27.315  1.00  0.00     0.007 C 
ENDBRANCH  17  18
ENDBRANCH   1  17
BRANCH  10  20
HETATM   20  N3  UNL     1      -7.065  50.458 -22.577  1.00  0.00    -0.274 NA
HETATM   21  H17 UNL     1      -7.123  50.531 -21.571  1.00  0.00     0.127 HD
HETATM   22  H18 UNL     1      -7.793  50.901 -23.119  1.00  0.00     0.127 HD
ENDBRANCH  10  20
TORSDOF 3
ENDMDL
MODEL 5
REMARK minimizedAffinity -6.88837576
REMARK  3 active torsions:
REMARK  status: ('A' for Active; 'I' for Inactive)
REMARK    1  A    between atoms: C2_2  and  C3_3 
REMARK    2  A    between atoms: C3_3  and  N1_4 
REMARK    3  A    between atoms: C10_13  and  N3_14 
ROOT
HETATM    1  N1  UNL     1      -0.800  51.188 -21.474  1.00  0.00     0.093 N 
HETATM    2  C4  UNL     1       0.196  51.579 -20.467  1.00  0.00     0.273 C 
HETATM    3  C5  UNL     1       0.414  53.085 -20.389  1.00  0.00     0.031 C 
HETATM    4  C6  UNL     1       0.913  53.653 -21.713  1.00  0.00     0.009 C 
HETATM    5  C7  UNL     1       0.594  52.746 -22.911  1.00  0.00     0.025 C 
HETATM    6  C8  UNL     1       0.568  53.576 -24.204  1.00  0.00     0.064 C 
HETATM    7  C9  UNL     1       0.057  52.817 -25.399  1.00  0.00     0.019 A 
HETATM    8  N2  UNL     1       0.331  53.352 -26.609  1.00  0.00    -0.336 N 
ATOM      9  H2  UNL     1       0.889  54.201 -26.701  1.00  0.00     0.168 HD
HETATM   10  C10 UNL     1      -0.160  52.723 -27.680  1.00  0.00     0.154 A 
HETATM   11  N4  UNL     1      -0.870  51.594 -27.644  1.00  0.00    -0.342 N 
ATOM     12  H4  UNL     1      -1.199  51.136 -28.494  1.00  0.00     0.167 HD
HETATM   13  C11 UNL     1      -1.129  51.093 -26.423  1.00  0.00     0.099 A 
HETATM   14  C12 UNL     1      -0.701  51.673 -25.247  1.00  0.00    -0.018 A 
HETATM   15  C13 UNL     1      -0.984  51.050 -23.916  1.00  0.00     0.078 C 
HETATM   16  C14 UNL     1      -0.744  51.999 -22.716  1.00  0.00     0.231 C 
ENDROOT
BRANCH   1  17
HETATM   17  C3  UNL     1      -2.169  51.126 -20.934  1.00  0.00     0.272 C 
BRANCH  17  18
HETATM   18  C2  UNL     1      -3.215  51.585 -21.959  1.00  0.00     0.026 C 
HETATM   19  C1  UNL     1      -4.613  51.590 -21.355  1.00  0.00     0.007 C 
ENDBRANCH  17  18
ENDBRANCH   1  17
BRANCH  10  20
HETATM   20  N3  UNL     1       0.135  53.251 -28.919  1.00  0.00    -0.274 NA
HETATM   21  H17 UNL     1       0.983  53.796 -28.856  1.00  0.00     0.127 HD
HETATM   22  H18 UNL     1       0.104  52.516 -29.611  1.00  0.00     0.127 HD
ENDBRANCH  10  20
TORSDOF 3
ENDMDL
MODEL 6
REMARK minimizedAffinity -6.87974691
REMARK  3 active torsions:
REMARK  status: ('A' for Active; 'I' for Inactive)
REMARK    1  A    between atoms: C2_2  and  C3_3 
REMARK    2  A    between atoms: C3_3  and  N1_4 
REMARK    3  A    between atoms: C10_13  and  N3_14 
ROOT
HETATM    1  N1  UNL     1      -1.293  51.299 -21.241  1.00  0.00     0.093 N 
HETATM    2  C4  UNL     1      -2.380  50.380 -20.879  1.00  0.00     0.273 C 
HETATM    3  C5  UNL     1      -2.301  49.040 -21.601  1.00  0.00     0.031 C 
HETATM    4  C6  UNL     1      -2.380  49.207 -23.114  1.00  0.00     0.009 C 
HETATM    5  C7  UNL     1      -2.003  50.622 -23.580  1.00  0.00     0.025 C 
HETATM    6  C8  UNL     1      -1.535  50.584 -25.043  1.00  0.00     0.064 C 
HETATM    7  C9  UNL     1      -0.946  51.882 -25.523  1.00  0.00     0.019 A 
HETATM    8  N2  UNL     1      -0.841  52.034 -26.861  1.00  0.00    -0.336 N 
ATOM      9  H2  UNL     1      -1.183  51.320 -27.505  1.00  0.00     0.168 HD
HETATM   10  C10 UNL     1      -0.271  53.157 -27.306  1.00  0.00     0.154 A 
HETATM   11  N4  UNL     1       0.172  54.148 -26.531  1.00  0.00    -0.342 N 
ATOM     12  H4  UNL     1       0.575  55.000 -26.922  1.00  0.00     0.167 HD
HETATM   13  C11 UNL     1       0.057  53.961 -25.204  1.00  0.00     0.099 A 
HETATM   14  C12 UNL     1      -0.485  52.830 -24.630  1.00  0.00    -0.018 A 
HETATM   15  C13 UNL     1      -0.624  52.692 -23.146  1.00  0.00     0.078 C 
HETATM   16  C14 UNL     1      -0.918  51.246 -22.676  1.00  0.00     0.231 C 
ENDROOT
BRANCH   1  17
HETATM   17  C3  UNL     1      -0.111  51.163 -20.372  1.00  0.00     0.272 C 
BRANCH  17  18
HETATM   18  C2  UNL     1       0.035  52.347 -19.406  1.00  0.00     0.026 C 
HETATM   19  C1  UNL     1       1.041  53.363 -19.929  1.00  0.00     0.007 C 
ENDBRANCH  17  18
ENDBRANCH   1  17
BRANCH  10  20
HETATM   20  N3  UNL     1      -0.182  53.327 -28.672  1.00  0.00    -0.274 NA
HETATM   21  H17 UNL     1      -0.896  52.774 -29.124  1.00  0.00     0.127 HD
HETATM   22  H18 UNL     1      -0.154  54.314 -28.884  1.00  0.00     0.127 HD
ENDBRANCH  10  20
TORSDOF 3
ENDMDL
MODEL 7
REMARK minimizedAffinity -6.85987091
REMARK  3 active torsions:
REMARK  status: ('A' for Active; 'I' for Inactive)
REMARK    1  A    between atoms: C2_2  and  C3_3 
REMARK    2  A    between atoms: C3_3  and  N1_4 
REMARK    3  A    between atoms: C10_13  and  N3_14 
ROOT
HETATM    1  N1  UNL     1      -2.277  50.727 -24.645  1.00  0.00     0.093 N 
HETATM    2  C4  UNL     1      -1.898  51.351 -25.920  1.00  0.00     0.273 C 
HETATM    3  C5  UNL     1      -0.407  51.252 -26.218  1.00  0.00     0.031 C 
HETATM    4  C6  UNL     1       0.431  51.944 -25.149  1.00  0.00     0.009 C 
HETATM    5  C7  UNL     1      -0.318  52.108 -23.817  1.00  0.00     0.025 C 
HETATM    6  C8  UNL     1       0.689  52.245 -22.664  1.00  0.00     0.064 C 
HETATM    7  C9  UNL     1       0.055  52.198 -21.300  1.00  0.00     0.019 A 
HETATM    8  N2  UNL     1       0.808  52.655 -20.275  1.00  0.00    -0.336 N 
ATOM      9  H2  UNL     1       1.737  53.045 -20.430  1.00  0.00     0.168 HD
HETATM   10  C10 UNL     1       0.284  52.572 -19.048  1.00  0.00     0.154 A 
HETATM   11  N4  UNL     1      -0.933  52.104 -18.768  1.00  0.00    -0.342 N 
ATOM     12  H4  UNL     1      -1.298  52.088 -17.816  1.00  0.00     0.167 HD
HETATM   13  C11 UNL     1      -1.652  51.652 -19.812  1.00  0.00     0.099 A 
HETATM   14  C12 UNL     1      -1.202  51.658 -21.116  1.00  0.00    -0.018 A 
HETATM   15  C13 UNL     1      -2.061  51.180 -22.244  1.00  0.00     0.078 C 
HETATM   16  C14 UNL     1      -1.285  50.932 -23.561  1.00  0.00     0.231 C 
ENDROOT
BRANCH   1  17
HETATM   17  C3  UNL     1      -2.634  49.305 -24.785  1.00  0.00     0.272 C 
BRANCH  17  18
HETATM   18  C2  UNL     1      -2.815  48.896 -26.252  1.00  0.00     0.026 C 
HETATM   19  C1  UNL     1      -4.208  48.334 -26.500  1.00  0.00     0.007 C 
ENDBRANCH  17  18
ENDBRANCH   1  17
BRANCH  10  20
HETATM   20  N3  UNL     1       1.038  53.057 -18.000  1.00  0.00    -0.274 NA
HETATM   21  H17 UNL     1       1.692  53.743 -18.350  1.00  0.00     0.127 HD
HETATM   22  H18 UNL     1       0.424  53.338 -17.250  1.00  0.00     0.127 HD
ENDBRANCH  10  20
TORSDOF 3
ENDMDL
MODEL 8
REMARK minimizedAffinity -6.85816431
REMARK  3 active torsions:
REMARK  status: ('A' for Active; 'I' for Inactive)
REMARK    1  A    between atoms: C2_2  and  C3_3 
REMARK    2  A    between atoms: C3_3  and  N1_4 
REMARK    3  A    between atoms: C10_13  and  N3_14 
ROOT
HETATM    1  N1  UNL     1      -0.469  51.396 -25.989  1.00  0.00     0.093 N 
HETATM    2  C4  UNL     1      -1.120  50.120 -26.318  1.00  0.00     0.273 C 
HETATM    3  C5  UNL     1      -2.526  49.997 -25.745  1.00  0.00     0.031 C 
HETATM    4  C6  UNL     1      -2.527  50.088 -24.223  1.00  0.00     0.009 C 
HETATM    5  C7  UNL     1      -1.271  50.776 -23.665  1.00  0.00     0.025 C 
HETATM    6  C8  UNL     1      -1.567  51.356 -22.272  1.00  0.00     0.064 C 
HETATM    7  C9  UNL     1      -0.467  52.230 -21.736  1.00  0.00     0.019 A 
HETATM    8  N2  UNL     1      -0.496  52.481 -20.408  1.00  0.00    -0.336 N 
ATOM      9  H2  UNL     1      -1.204  52.064 -19.804  1.00  0.00     0.168 HD
HETATM   10  C10 UNL     1       0.441  53.299 -19.921  1.00  0.00     0.154 A 
HETATM   11  N4  UNL     1       1.416  53.858 -20.640  1.00  0.00    -0.342 N 
ATOM     12  H4  UNL     1       2.126  54.454 -20.214  1.00  0.00     0.167 HD
HETATM   13  C11 UNL     1       1.411  53.591 -21.958  1.00  0.00     0.099 A 
HETATM   14  C12 UNL     1       0.476  52.788 -22.577  1.00  0.00    -0.018 A 
HETATM   15  C13 UNL     1       0.541  52.493 -24.043  1.00  0.00     0.078 C 
HETATM   16  C14 UNL     1      -0.759  51.879 -24.617  1.00  0.00     0.231 C 
ENDROOT
BRANCH   1  17
HETATM   17  C3  UNL     1      -0.720  52.445 -26.993  1.00  0.00     0.272 C 
BRANCH  17  18
HETATM   18  C2  UNL     1       0.218  52.325 -28.201  1.00  0.00     0.026 C 
HETATM   19  C1  UNL     1       1.616  51.902 -27.773  1.00  0.00     0.007 C 
ENDBRANCH  17  18
ENDBRANCH   1  17
BRANCH  10  20
HETATM   20  N3  UNL     1       0.430  53.541 -18.563  1.00  0.00    -0.274 NA
HETATM   21  H17 UNL     1      -0.029  52.775 -18.092  1.00  0.00     0.127 HD
HETATM   22  H18 UNL     1       1.363  53.782 -18.260  1.00  0.00     0.127 HD
ENDBRANCH  10  20
TORSDOF 3
ENDMDL
MODEL 9
REMARK minimizedAffinity -6.83913279
REMARK  3 active torsions:
REMARK  status: ('A' for Active; 'I' for Inactive)
REMARK    1  A    between atoms: C2_2  and  C3_3 
REMARK    2  A    between atoms: C3_3  and  N1_4 
REMARK    3  A    between atoms: C10_13  and  N3_14 
ROOT
HETATM    1  N1  UNL     1      -1.022  50.344 -21.724  1.00  0.00     0.093 N 
HETATM    2  C4  UNL     1      -0.044  50.645 -20.670  1.00  0.00     0.273 C 
HETATM    3  C5  UNL     1       0.096  52.136 -20.387  1.00  0.00     0.031 C 
HETATM    4  C6  UNL     1       0.558  52.905 -21.619  1.00  0.00     0.009 C 
HETATM    5  C7  UNL     1       0.281  52.154 -22.931  1.00  0.00     0.025 C 
HETATM    6  C8  UNL     1       0.207  53.150 -24.099  1.00  0.00     0.064 C 
HETATM    7  C9  UNL     1      -0.269  52.536 -25.387  1.00  0.00     0.019 A 
HETATM    8  N2  UNL     1      -0.028  53.245 -26.512  1.00  0.00    -0.336 N 
ATOM      9  H2  UNL     1       0.484  54.126 -26.486  1.00  0.00     0.168 HD
HETATM   10  C10 UNL     1      -0.491  52.742 -27.661  1.00  0.00     0.154 A 
HETATM   11  N4  UNL     1      -1.140  51.584 -27.781  1.00  0.00    -0.342 N 
ATOM     12  H4  UNL     1      -1.448  51.230 -28.687  1.00  0.00     0.167 HD
HETATM   13  C11 UNL     1      -1.367  50.908 -26.640  1.00  0.00     0.099 A 
HETATM   14  C12 UNL     1      -0.966  51.344 -25.395  1.00  0.00    -0.018 A 
HETATM   15  C13 UNL     1      -1.210  50.531 -24.162  1.00  0.00     0.078 C 
HETATM   16  C14 UNL     1      -1.014  51.318 -22.843  1.00  0.00     0.231 C 
ENDROOT
BRANCH   1  17
HETATM   17  C3  UNL     1      -2.384  50.137 -21.202  1.00  0.00     0.272 C 
BRANCH  17  18
HETATM   18  C2  UNL     1      -2.936  48.752 -21.561  1.00  0.00     0.026 C 
HETATM   19  C1  UNL     1      -1.817  47.727 -21.683  1.00  0.00     0.007 C 
ENDBRANCH  17  18
ENDBRANCH   1  17
BRANCH  10  20
HETATM   20  N3  UNL     1      -0.229  53.450 -28.816  1.00  0.00    -0.274 NA
HETATM   21  H17 UNL     1       0.590  54.025 -28.676  1.00  0.00     0.127 HD
HETATM   22  H18 UNL     1      -0.224  52.815 -29.601  1.00  0.00     0.127 HD
ENDBRANCH  10  20
TORSDOF 3
ENDMDL
