MODEL 1
REMARK minimizedAffinity -10.5491333
REMARK  9 active torsions:
REMARK  status: ('A' for Active; 'I' for Inactive)
REMARK    1  A    between atoms: C2_2  and  C3_3 
REMARK    2  A    between atoms: C2_2  and  C11_13 
REMARK    3  A    between atoms: C3_3  and  C4_4 
REMARK    4  A    between atoms: C4_4  and  C5_5 
REMARK    5  A    between atoms: C5_5  and  C8_9 
REMARK    6  A    between atoms: C6_6  and  C7_7 
REMARK    7  A    between atoms: C7_7  and  O1_8 
REMARK    8  A    between atoms: C8_9  and  O2_12 
REMARK    9  A    between atoms: C25_27  and  O3_28 
ROOT
HETATM    1  C11 UNL     1       0.356   6.759  11.714  1.00  0.00     0.005 C 
HETATM    2  C12 UNL     1       0.443   5.317  11.165  1.00  0.00     0.033 C 
HETATM    3  C13 UNL     1      -0.943   4.807  11.363  1.00  0.00    -0.018 C 
HETATM    4  C14 UNL     1      -1.622   5.548  12.249  1.00  0.00    -0.047 C 
HETATM    5  C15 UNL     1      -3.005   5.395  12.673  1.00  0.00    -0.048 C 
HETATM    6  C16 UNL     1      -3.624   6.382  13.368  1.00  0.00    -0.064 C 
HETATM    7  C17 UNL     1      -2.908   7.686  13.699  1.00  0.00     0.036 C 
HETATM    8  C18 UNL     1      -1.606   7.923  12.923  1.00  0.00     0.019 C 
HETATM    9  C19 UNL     1      -0.749   6.654  12.821  1.00  0.00    -0.012 C 
HETATM   10  C20 UNL     1      -0.205   6.214  14.195  1.00  0.00     0.021 C 
HETATM   11  C21 UNL     1      -5.060   6.208  13.918  1.00  0.00    -0.016 C 
HETATM   12  C22 UNL     1      -4.907   5.785  15.402  1.00  0.00     0.020 C 
HETATM   13  C23 UNL     1      -5.907   7.511  13.851  1.00  0.00     0.016 C 
HETATM   14  C24 UNL     1      -7.366   7.315  14.275  1.00  0.00     0.033 C 
HETATM   15  C25 UNL     1      -8.051   6.200  13.491  1.00  0.00     0.118 C 
HETATM   16  C26 UNL     1      -7.253   4.898  13.522  1.00  0.00     0.037 C 
HETATM   17  C27 UNL     1      -5.809   5.135  13.064  1.00  0.00     0.001 C 
HETATM   18  C28 UNL     1      -5.019   3.832  12.998  1.00  0.00     0.010 C 
HETATM   19  C29 UNL     1      -3.665   4.072  12.336  1.00  0.00     0.040 C 
ENDROOT
BRANCH   1  20
HETATM   20  C2  UNL     1       1.746   7.331  12.103  1.00  0.00    -0.013 C 
HETATM   21  C1  UNL     1       1.839   8.850  11.915  1.00  0.00     0.010 C 
BRANCH  20  22
HETATM   22  C3  UNL     1       2.915   6.630  11.353  1.00  0.00     0.009 C 
BRANCH  22  23
HETATM   23  C4  UNL     1       3.436   7.368  10.106  1.00  0.00     0.037 C 
BRANCH  23  24
HETATM   24  C5  UNL     1       2.961   6.740   8.795  1.00  0.00    -0.049 C 
HETATM   25  C6  UNL     1       3.211   5.440   8.511  1.00  0.00     0.004 C 
BRANCH  25  26
HETATM   26  C7  UNL     1       3.943   4.429   9.336  1.00  0.00     0.191 C 
BRANCH  26  27
HETATM   27  O1  UNL     1       3.002   3.458   9.768  1.00  0.00    -0.397 OA
HETATM   28  H12 UNL     1       2.329   3.933  10.287  1.00  0.00     0.209 HD
ENDBRANCH  26  27
ENDBRANCH  25  26
BRANCH  24  29
HETATM   29  C8  UNL     1       2.137   7.653   7.868  1.00  0.00     0.074 C 
HETATM   30  C9  UNL     1       1.828   6.999   6.515  1.00  0.00     0.050 C 
HETATM   31  C10 UNL     1       0.813   8.174   8.455  1.00  0.00     0.050 C 
BRANCH  29  32
HETATM   32  O2  UNL     1       2.938   8.811   7.603  1.00  0.00    -0.386 OA
HETATM   33  H19 UNL     1       3.190   9.180   8.466  1.00  0.00     0.211 HD
ENDBRANCH  29  32
ENDBRANCH  24  29
ENDBRANCH  23  24
ENDBRANCH  22  23
ENDBRANCH  20  22
ENDBRANCH   1  20
BRANCH  15  34
HETATM   34  O3  UNL     1      -9.354   5.974  14.019  1.00  0.00    -0.396 OA
HETATM   35  H39 UNL     1      -9.261   5.691  14.944  1.00  0.00     0.210 HD
ENDBRANCH  15  34
TORSDOF 9
ENDMDL
MODEL 2
REMARK minimizedAffinity -10.3986597
REMARK  9 active torsions:
REMARK  status: ('A' for Active; 'I' for Inactive)
REMARK    1  A    between atoms: C2_2  and  C3_3 
REMARK    2  A    between atoms: C2_2  and  C11_13 
REMARK    3  A    between atoms: C3_3  and  C4_4 
REMARK    4  A    between atoms: C4_4  and  C5_5 
REMARK    5  A    between atoms: C5_5  and  C8_9 
REMARK    6  A    between atoms: C6_6  and  C7_7 
REMARK    7  A    between atoms: C7_7  and  O1_8 
REMARK    8  A    between atoms: C8_9  and  O2_12 
REMARK    9  A    between atoms: C25_27  and  O3_28 
ROOT
HETATM    1  C11 UNL     1      -1.512   5.415  11.569  1.00  0.00     0.005 C 
HETATM    2  C12 UNL     1      -1.972   4.019  11.093  1.00  0.00     0.033 C 
HETATM    3  C13 UNL     1      -3.394   3.973  11.541  1.00  0.00    -0.018 C 
HETATM    4  C14 UNL     1      -3.647   4.891  12.483  1.00  0.00    -0.047 C 
HETATM    5  C15 UNL     1      -4.914   5.183  13.133  1.00  0.00    -0.048 C 
HETATM    6  C16 UNL     1      -5.067   6.316  13.864  1.00  0.00    -0.064 C 
HETATM    7  C17 UNL     1      -3.936   7.328  14.003  1.00  0.00     0.036 C 
HETATM    8  C18 UNL     1      -2.778   7.140  13.015  1.00  0.00     0.019 C 
HETATM    9  C19 UNL     1      -2.389   5.666  12.845  1.00  0.00    -0.012 C 
HETATM   10  C20 UNL     1      -1.782   5.077  14.134  1.00  0.00     0.021 C 
HETATM   11  C21 UNL     1      -6.370   6.605  14.648  1.00  0.00    -0.016 C 
HETATM   12  C22 UNL     1      -6.105   6.157  16.108  1.00  0.00     0.020 C 
HETATM   13  C23 UNL     1      -6.769   8.109  14.647  1.00  0.00     0.016 C 
HETATM   14  C24 UNL     1      -8.121   8.383  15.312  1.00  0.00     0.033 C 
HETATM   15  C25 UNL     1      -9.242   7.541  14.711  1.00  0.00     0.118 C 
HETATM   16  C26 UNL     1      -8.895   6.054  14.684  1.00  0.00     0.037 C 
HETATM   17  C27 UNL     1      -7.550   5.822  13.986  1.00  0.00     0.001 C 
HETATM   18  C28 UNL     1      -7.228   4.337  13.865  1.00  0.00     0.010 C 
HETATM   19  C29 UNL     1      -6.001   4.136  12.980  1.00  0.00     0.040 C 
ENDROOT
BRANCH   1  20
HETATM   20  C2  UNL     1       0.032   5.520  11.696  1.00  0.00    -0.013 C 
HETATM   21  C1  UNL     1       0.492   5.876  13.114  1.00  0.00     0.010 C 
BRANCH  20  22
HETATM   22  C3  UNL     1       0.652   6.512  10.671  1.00  0.00     0.009 C 
BRANCH  22  23
HETATM   23  C4  UNL     1       1.860   5.974   9.880  1.00  0.00     0.037 C 
BRANCH  23  24
HETATM   24  C5  UNL     1       2.715   7.083   9.266  1.00  0.00    -0.049 C 
HETATM   25  C6  UNL     1       3.935   7.387   9.768  1.00  0.00     0.004 C 
BRANCH  25  26
HETATM   26  C7  UNL     1       4.646   6.767  10.929  1.00  0.00     0.191 C 
BRANCH  26  27
HETATM   27  O1  UNL     1       5.304   5.598  10.463  1.00  0.00    -0.397 OA
HETATM   28  H12 UNL     1       4.613   5.013  10.105  1.00  0.00     0.209 HD
ENDBRANCH  26  27
ENDBRANCH  25  26
BRANCH  24  29
HETATM   29  C8  UNL     1       2.132   7.772   8.017  1.00  0.00     0.074 C 
HETATM   30  C9  UNL     1       2.038   6.829   6.811  1.00  0.00     0.050 C 
HETATM   31  C10 UNL     1       0.758   8.438   8.207  1.00  0.00     0.050 C 
BRANCH  29  32
HETATM   32  O2  UNL     1       3.038   8.824   7.660  1.00  0.00    -0.386 OA
HETATM   33  H19 UNL     1       3.150   9.377   8.451  1.00  0.00     0.211 HD
ENDBRANCH  29  32
ENDBRANCH  24  29
ENDBRANCH  23  24
ENDBRANCH  22  23
ENDBRANCH  20  22
ENDBRANCH   1  20
BRANCH  15  34
HETATM   34  O3  UNL     1     -10.441   7.739  15.455  1.00  0.00    -0.396 OA
HETATM   35  H39 UNL     1     -10.283   7.441  16.367  1.00  0.00     0.210 HD
ENDBRANCH  15  34
TORSDOF 9
ENDMDL
MODEL 3
REMARK minimizedAffinity -9.64501858
REMARK  9 active torsions:
REMARK  status: ('A' for Active; 'I' for Inactive)
REMARK    1  A    between atoms: C2_2  and  C3_3 
REMARK    2  A    between atoms: C2_2  and  C11_13 
REMARK    3  A    between atoms: C3_3  and  C4_4 
REMARK    4  A    between atoms: C4_4  and  C5_5 
REMARK    5  A    between atoms: C5_5  and  C8_9 
REMARK    6  A    between atoms: C6_6  and  C7_7 
REMARK    7  A    between atoms: C7_7  and  O1_8 
REMARK    8  A    between atoms: C8_9  and  O2_12 
REMARK    9  A    between atoms: C25_27  and  O3_28 
ROOT
HETATM    1  C11 UNL     1      -2.115   6.109  12.941  1.00  0.00     0.005 C 
HETATM    2  C12 UNL     1      -2.515   4.819  12.190  1.00  0.00     0.033 C 
HETATM    3  C13 UNL     1      -4.002   4.821  12.305  1.00  0.00    -0.018 C 
HETATM    4  C14 UNL     1      -4.422   5.633  13.285  1.00  0.00    -0.047 C 
HETATM    5  C15 UNL     1      -5.790   5.934  13.675  1.00  0.00    -0.048 C 
HETATM    6  C16 UNL     1      -6.056   6.977  14.502  1.00  0.00    -0.064 C 
HETATM    7  C17 UNL     1      -4.942   7.879  15.021  1.00  0.00     0.036 C 
HETATM    8  C18 UNL     1      -3.599   7.730  14.295  1.00  0.00     0.019 C 
HETATM    9  C19 UNL     1      -3.246   6.264  14.015  1.00  0.00    -0.012 C 
HETATM   10  C20 UNL     1      -2.974   5.479  15.314  1.00  0.00     0.021 C 
HETATM   11  C21 UNL     1      -7.488   7.261  15.013  1.00  0.00    -0.016 C 
HETATM   12  C22 UNL     1      -7.581   6.619  16.421  1.00  0.00     0.020 C 
HETATM   13  C23 UNL     1      -7.811   8.779  15.130  1.00  0.00     0.016 C 
HETATM   14  C24 UNL     1      -9.265   9.067  15.513  1.00  0.00     0.033 C 
HETATM   15  C25 UNL     1     -10.257   8.388  14.572  1.00  0.00     0.118 C 
HETATM   16  C26 UNL     1      -9.977   6.895  14.420  1.00  0.00     0.037 C 
HETATM   17  C27 UNL     1      -8.520   6.654  14.009  1.00  0.00     0.001 C 
HETATM   18  C28 UNL     1      -8.244   5.174  13.760  1.00  0.00     0.010 C 
HETATM   19  C29 UNL     1      -6.857   4.995  13.146  1.00  0.00     0.040 C 
ENDROOT
BRANCH   1  20
HETATM   20  C2  UNL     1      -0.637   6.084  13.416  1.00  0.00    -0.013 C 
HETATM   21  C1  UNL     1      -0.427   6.805  14.752  1.00  0.00     0.010 C 
BRANCH  20  22
HETATM   22  C3  UNL     1       0.346   6.646  12.349  1.00  0.00     0.009 C 
BRANCH  22  23
HETATM   23  C4  UNL     1       0.537   5.765  11.099  1.00  0.00     0.037 C 
BRANCH  23  24
HETATM   24  C5  UNL     1       1.480   6.385  10.068  1.00  0.00    -0.049 C 
HETATM   25  C6  UNL     1       1.183   7.559   9.463  1.00  0.00     0.004 C 
BRANCH  25  26
HETATM   26  C7  UNL     1      -0.024   8.424   9.648  1.00  0.00     0.191 C 
BRANCH  26  27
HETATM   27  O1  UNL     1      -0.200   9.184   8.462  1.00  0.00    -0.397 OA
HETATM   28  H12 UNL     1       0.610   9.711   8.346  1.00  0.00     0.209 HD
ENDBRANCH  26  27
ENDBRANCH  25  26
BRANCH  24  29
HETATM   29  C8  UNL     1       2.800   5.629   9.819  1.00  0.00     0.074 C 
HETATM   30  C9  UNL     1       3.134   5.499   8.327  1.00  0.00     0.050 C 
HETATM   31  C10 UNL     1       4.037   6.200  10.534  1.00  0.00     0.050 C 
BRANCH  29  32
HETATM   32  O2  UNL     1       2.622   4.302  10.328  1.00  0.00    -0.386 OA
HETATM   33  H19 UNL     1       2.340   4.393  11.253  1.00  0.00     0.211 HD
ENDBRANCH  29  32
ENDBRANCH  24  29
ENDBRANCH  23  24
ENDBRANCH  22  23
ENDBRANCH  20  22
ENDBRANCH   1  20
BRANCH  15  34
HETATM   34  O3  UNL     1     -11.583   8.580  15.055  1.00  0.00    -0.396 OA
HETATM   35  H39 UNL     1     -11.649   8.162  15.930  1.00  0.00     0.210 HD
ENDBRANCH  15  34
TORSDOF 9
ENDMDL
MODEL 4
REMARK minimizedAffinity -9.43470001
REMARK  9 active torsions:
REMARK  status: ('A' for Active; 'I' for Inactive)
REMARK    1  A    between atoms: C2_2  and  C3_3 
REMARK    2  A    between atoms: C2_2  and  C11_13 
REMARK    3  A    between atoms: C3_3  and  C4_4 
REMARK    4  A    between atoms: C4_4  and  C5_5 
REMARK    5  A    between atoms: C5_5  and  C8_9 
REMARK    6  A    between atoms: C6_6  and  C7_7 
REMARK    7  A    between atoms: C7_7  and  O1_8 
REMARK    8  A    between atoms: C8_9  and  O2_12 
REMARK    9  A    between atoms: C25_27  and  O3_28 
ROOT
HETATM    1  C11 UNL     1      -0.725   6.419  12.111  1.00  0.00     0.005 C 
HETATM    2  C12 UNL     1      -0.731   5.003  11.492  1.00  0.00     0.033 C 
HETATM    3  C13 UNL     1      -2.155   4.588  11.637  1.00  0.00    -0.018 C 
HETATM    4  C14 UNL     1      -2.798   5.334  12.546  1.00  0.00    -0.047 C 
HETATM    5  C15 UNL     1      -4.198   5.263  12.936  1.00  0.00    -0.048 C 
HETATM    6  C16 UNL     1      -4.759   6.259  13.667  1.00  0.00    -0.064 C 
HETATM    7  C17 UNL     1      -3.956   7.489  14.077  1.00  0.00     0.036 C 
HETATM    8  C18 UNL     1      -2.623   7.665  13.339  1.00  0.00     0.019 C 
HETATM    9  C19 UNL     1      -1.860   6.343  13.189  1.00  0.00    -0.012 C 
HETATM   10  C20 UNL     1      -1.381   5.797  14.550  1.00  0.00     0.021 C 
HETATM   11  C21 UNL     1      -6.215   6.166  14.180  1.00  0.00    -0.016 C 
HETATM   12  C22 UNL     1      -6.128   5.661  15.643  1.00  0.00     0.020 C 
HETATM   13  C23 UNL     1      -6.963   7.530  14.162  1.00  0.00     0.016 C 
HETATM   14  C24 UNL     1      -8.441   7.422  14.548  1.00  0.00     0.033 C 
HETATM   15  C25 UNL     1      -9.189   6.400  13.696  1.00  0.00     0.118 C 
HETATM   16  C26 UNL     1      -8.489   5.043  13.677  1.00  0.00     0.037 C 
HETATM   17  C27 UNL     1      -7.022   5.194  13.259  1.00  0.00     0.001 C 
HETATM   18  C28 UNL     1      -6.328   3.841  13.143  1.00  0.00     0.010 C 
HETATM   19  C29 UNL     1      -4.945   4.011  12.519  1.00  0.00     0.040 C 
ENDROOT
BRANCH   1  20
HETATM   20  C2  UNL     1       0.694   6.867  12.554  1.00  0.00    -0.013 C 
HETATM   21  C1  UNL     1       0.920   8.375  12.397  1.00  0.00     0.010 C 
BRANCH  20  22
HETATM   22  C3  UNL     1       1.825   6.082  11.830  1.00  0.00     0.009 C 
BRANCH  22  23
HETATM   23  C4  UNL     1       2.760   6.932  10.949  1.00  0.00     0.037 C 
BRANCH  23  24
HETATM   24  C5  UNL     1       4.177   6.368  10.860  1.00  0.00    -0.049 C 
HETATM   25  C6  UNL     1       4.465   5.321  10.052  1.00  0.00     0.004 C 
BRANCH  25  26
HETATM   26  C7  UNL     1       3.544   4.554   9.157  1.00  0.00     0.191 C 
BRANCH  26  27
HETATM   27  O1  UNL     1       3.168   3.365   9.836  1.00  0.00    -0.397 OA
HETATM   28  H12 UNL     1       3.990   2.875  10.017  1.00  0.00     0.209 HD
ENDBRANCH  26  27
ENDBRANCH  25  26
BRANCH  24  29
HETATM   29  C8  UNL     1       5.250   7.102  11.688  1.00  0.00     0.074 C 
HETATM   30  C9  UNL     1       6.378   7.674  10.819  1.00  0.00     0.050 C 
HETATM   31  C10 UNL     1       4.731   8.231  12.595  1.00  0.00     0.050 C 
BRANCH  29  32
HETATM   32  O2  UNL     1       5.841   6.130  12.559  1.00  0.00    -0.386 OA
HETATM   33  H19 UNL     1       5.113   5.720  13.055  1.00  0.00     0.211 HD
ENDBRANCH  29  32
ENDBRANCH  24  29
ENDBRANCH  23  24
ENDBRANCH  22  23
ENDBRANCH  20  22
ENDBRANCH   1  20
BRANCH  15  34
HETATM   34  O3  UNL     1     -10.517   6.246  14.186  1.00  0.00    -0.396 OA
HETATM   35  H39 UNL     1     -10.465   5.913  15.098  1.00  0.00     0.210 HD
ENDBRANCH  15  34
TORSDOF 9
ENDMDL
MODEL 5
REMARK minimizedAffinity -9.40860748
REMARK  9 active torsions:
REMARK  status: ('A' for Active; 'I' for Inactive)
REMARK    1  A    between atoms: C2_2  and  C3_3 
REMARK    2  A    between atoms: C2_2  and  C11_13 
REMARK    3  A    between atoms: C3_3  and  C4_4 
REMARK    4  A    between atoms: C4_4  and  C5_5 
REMARK    5  A    between atoms: C5_5  and  C8_9 
REMARK    6  A    between atoms: C6_6  and  C7_7 
REMARK    7  A    between atoms: C7_7  and  O1_8 
REMARK    8  A    between atoms: C8_9  and  O2_12 
REMARK    9  A    between atoms: C25_27  and  O3_28 
ROOT
HETATM    1  C11 UNL     1      -1.200   5.682  12.951  1.00  0.00     0.005 C 
HETATM    2  C12 UNL     1      -1.141   4.962  11.585  1.00  0.00     0.033 C 
HETATM    3  C13 UNL     1       0.290   5.114  11.197  1.00  0.00    -0.018 C 
HETATM    4  C14 UNL     1       0.891   6.091  11.890  1.00  0.00    -0.047 C 
HETATM    5  C15 UNL     1       2.282   6.511  11.827  1.00  0.00    -0.048 C 
HETATM    6  C16 UNL     1       2.798   7.327  12.780  1.00  0.00    -0.064 C 
HETATM    7  C17 UNL     1       1.953   7.803  13.956  1.00  0.00     0.036 C 
HETATM    8  C18 UNL     1       0.634   7.046  14.152  1.00  0.00     0.019 C 
HETATM    9  C19 UNL     1      -0.090   6.781  12.826  1.00  0.00    -0.012 C 
HETATM   10  C20 UNL     1      -0.586   8.085  12.170  1.00  0.00     0.021 C 
HETATM   11  C21 UNL     1       4.244   7.869  12.687  1.00  0.00    -0.016 C 
HETATM   12  C22 UNL     1       4.135   9.289  12.075  1.00  0.00     0.020 C 
HETATM   13  C23 UNL     1       4.955   7.969  14.067  1.00  0.00     0.016 C 
HETATM   14  C24 UNL     1       6.426   8.383  13.969  1.00  0.00     0.033 C 
HETATM   15  C25 UNL     1       7.220   7.480  13.031  1.00  0.00     0.118 C 
HETATM   16  C26 UNL     1       6.558   7.345  11.662  1.00  0.00     0.037 C 
HETATM   17  C27 UNL     1       5.098   6.901  11.806  1.00  0.00     0.001 C 
HETATM   18  C28 UNL     1       4.444   6.670  10.447  1.00  0.00     0.010 C 
HETATM   19  C29 UNL     1       3.073   6.024  10.627  1.00  0.00     0.040 C 
ENDROOT
BRANCH   1  20
HETATM   20  C2  UNL     1      -2.641   6.119  13.330  1.00  0.00    -0.013 C 
HETATM   21  C1  UNL     1      -2.930   5.987  14.829  1.00  0.00     0.010 C 
BRANCH  20  22
HETATM   22  C3  UNL     1      -3.731   5.371  12.510  1.00  0.00     0.009 C 
BRANCH  22  23
HETATM   23  C4  UNL     1      -4.373   4.161  13.216  1.00  0.00     0.037 C 
BRANCH  23  24
HETATM   24  C5  UNL     1      -5.461   3.488  12.380  1.00  0.00    -0.049 C 
HETATM   25  C6  UNL     1      -6.758   3.861  12.487  1.00  0.00     0.004 C 
BRANCH  25  26
HETATM   26  C7  UNL     1      -7.356   4.911  13.369  1.00  0.00     0.191 C 
BRANCH  26  27
HETATM   27  O1  UNL     1      -7.827   4.273  14.547  1.00  0.00    -0.397 OA
HETATM   28  H12 UNL     1      -8.488   3.616  14.264  1.00  0.00     0.209 HD
ENDBRANCH  26  27
ENDBRANCH  25  26
BRANCH  24  29
HETATM   29  C8  UNL     1      -4.980   2.422  11.376  1.00  0.00     0.074 C 
HETATM   30  C9  UNL     1      -3.572   1.903  11.695  1.00  0.00     0.050 C 
HETATM   31  C10 UNL     1      -5.907   1.205  11.206  1.00  0.00     0.050 C 
BRANCH  29  32
HETATM   32  O2  UNL     1      -4.916   3.056  10.093  1.00  0.00    -0.386 OA
HETATM   33  H19 UNL     1      -5.791   3.446   9.930  1.00  0.00     0.211 HD
ENDBRANCH  29  32
ENDBRANCH  24  29
ENDBRANCH  23  24
ENDBRANCH  22  23
ENDBRANCH  20  22
ENDBRANCH   1  20
BRANCH  15  34
HETATM   34  O3  UNL     1       8.540   7.992  12.876  1.00  0.00    -0.396 OA
HETATM   35  H39 UNL     1       8.476   8.876  12.475  1.00  0.00     0.210 HD
ENDBRANCH  15  34
TORSDOF 9
ENDMDL
MODEL 6
REMARK minimizedAffinity -9.39559078
REMARK  9 active torsions:
REMARK  status: ('A' for Active; 'I' for Inactive)
REMARK    1  A    between atoms: C2_2  and  C3_3 
REMARK    2  A    between atoms: C2_2  and  C11_13 
REMARK    3  A    between atoms: C3_3  and  C4_4 
REMARK    4  A    between atoms: C4_4  and  C5_5 
REMARK    5  A    between atoms: C5_5  and  C8_9 
REMARK    6  A    between atoms: C6_6  and  C7_7 
REMARK    7  A    between atoms: C7_7  and  O1_8 
REMARK    8  A    between atoms: C8_9  and  O2_12 
REMARK    9  A    between atoms: C25_27  and  O3_28 
ROOT
HETATM    1  C11 UNL     1      -1.177   5.409  12.870  1.00  0.00     0.005 C 
HETATM    2  C12 UNL     1      -1.104   4.783  11.459  1.00  0.00     0.033 C 
HETATM    3  C13 UNL     1       0.316   5.015  11.071  1.00  0.00    -0.018 C 
HETATM    4  C14 UNL     1       0.886   5.967  11.822  1.00  0.00    -0.047 C 
HETATM    5  C15 UNL     1       2.259   6.444  11.776  1.00  0.00    -0.048 C 
HETATM    6  C16 UNL     1       2.753   7.216  12.777  1.00  0.00    -0.064 C 
HETATM    7  C17 UNL     1       1.902   7.582  13.987  1.00  0.00     0.036 C 
HETATM    8  C18 UNL     1       0.615   6.762  14.143  1.00  0.00     0.019 C 
HETATM    9  C19 UNL     1      -0.111   6.556  12.808  1.00  0.00    -0.012 C 
HETATM   10  C20 UNL     1      -0.664   7.880  12.242  1.00  0.00     0.021 C 
HETATM   11  C21 UNL     1       4.176   7.819  12.708  1.00  0.00    -0.016 C 
HETATM   12  C22 UNL     1       4.006   9.271  12.191  1.00  0.00     0.020 C 
HETATM   13  C23 UNL     1       4.896   7.857  14.087  1.00  0.00     0.016 C 
HETATM   14  C24 UNL     1       6.349   8.334  14.005  1.00  0.00     0.033 C 
HETATM   15  C25 UNL     1       7.168   7.524  13.004  1.00  0.00     0.118 C 
HETATM   16  C26 UNL     1       6.498   7.453  11.634  1.00  0.00     0.037 C 
HETATM   17  C27 UNL     1       5.058   6.944  11.759  1.00  0.00     0.001 C 
HETATM   18  C28 UNL     1       4.400   6.777  10.393  1.00  0.00     0.010 C 
HETATM   19  C29 UNL     1       3.056   6.068  10.541  1.00  0.00     0.040 C 
ENDROOT
BRANCH   1  20
HETATM   20  C2  UNL     1      -2.630   5.764  13.287  1.00  0.00    -0.013 C 
HETATM   21  C1  UNL     1      -2.778   5.997  14.795  1.00  0.00     0.010 C 
BRANCH  20  22
HETATM   22  C3  UNL     1      -3.668   4.710  12.807  1.00  0.00     0.009 C 
BRANCH  22  23
HETATM   23  C4  UNL     1      -5.144   5.080  13.045  1.00  0.00     0.037 C 
BRANCH  23  24
HETATM   24  C5  UNL     1      -6.112   3.958  12.669  1.00  0.00    -0.049 C 
HETATM   25  C6  UNL     1      -5.709   2.910  11.911  1.00  0.00     0.004 C 
BRANCH  25  26
HETATM   26  C7  UNL     1      -4.357   2.648  11.327  1.00  0.00     0.191 C 
BRANCH  26  27
HETATM   27  O1  UNL     1      -4.111   1.252  11.411  1.00  0.00    -0.397 OA
HETATM   28  H12 UNL     1      -4.150   1.018  12.356  1.00  0.00     0.209 HD
ENDBRANCH  26  27
ENDBRANCH  25  26
BRANCH  24  29
HETATM   29  C8  UNL     1      -7.533   4.066  13.255  1.00  0.00     0.074 C 
HETATM   30  C9  UNL     1      -7.530   4.317  14.768  1.00  0.00     0.050 C 
HETATM   31  C10 UNL     1      -8.443   5.120  12.601  1.00  0.00     0.050 C 
BRANCH  29  32
HETATM   32  O2  UNL     1      -8.170   2.801  13.039  1.00  0.00    -0.386 OA
HETATM   33  H19 UNL     1      -8.104   2.613  12.088  1.00  0.00     0.211 HD
ENDBRANCH  29  32
ENDBRANCH  24  29
ENDBRANCH  23  24
ENDBRANCH  22  23
ENDBRANCH  20  22
ENDBRANCH   1  20
BRANCH  15  34
HETATM   34  O3  UNL     1       8.466   8.097  12.872  1.00  0.00    -0.396 OA
HETATM   35  H39 UNL     1       8.363   9.001  12.531  1.00  0.00     0.210 HD
ENDBRANCH  15  34
TORSDOF 9
ENDMDL
MODEL 7
REMARK minimizedAffinity -9.31414032
REMARK  9 active torsions:
REMARK  status: ('A' for Active; 'I' for Inactive)
REMARK    1  A    between atoms: C2_2  and  C3_3 
REMARK    2  A    between atoms: C2_2  and  C11_13 
REMARK    3  A    between atoms: C3_3  and  C4_4 
REMARK    4  A    between atoms: C4_4  and  C5_5 
REMARK    5  A    between atoms: C5_5  and  C8_9 
REMARK    6  A    between atoms: C6_6  and  C7_7 
REMARK    7  A    between atoms: C7_7  and  O1_8 
REMARK    8  A    between atoms: C8_9  and  O2_12 
REMARK    9  A    between atoms: C25_27  and  O3_28 
ROOT
HETATM    1  C11 UNL     1       1.357   6.698  13.676  1.00  0.00     0.005 C 
HETATM    2  C12 UNL     1       1.565   7.484  14.990  1.00  0.00     0.033 C 
HETATM    3  C13 UNL     1       0.183   7.571  15.541  1.00  0.00    -0.018 C 
HETATM    4  C14 UNL     1      -0.742   7.333  14.601  1.00  0.00    -0.047 C 
HETATM    5  C15 UNL     1      -2.187   7.286  14.757  1.00  0.00    -0.048 C 
HETATM    6  C16 UNL     1      -2.968   6.769  13.774  1.00  0.00    -0.064 C 
HETATM    7  C17 UNL     1      -2.360   6.197  12.499  1.00  0.00     0.036 C 
HETATM    8  C18 UNL     1      -0.847   5.951  12.558  1.00  0.00     0.019 C 
HETATM    9  C19 UNL     1      -0.096   7.099  13.245  1.00  0.00    -0.012 C 
HETATM   10  C20 UNL     1      -0.156   8.401  12.421  1.00  0.00     0.021 C 
HETATM   11  C21 UNL     1      -4.512   6.795  13.868  1.00  0.00    -0.016 C 
HETATM   12  C22 UNL     1      -4.974   8.032  13.055  1.00  0.00     0.020 C 
HETATM   13  C23 UNL     1      -5.187   5.524  13.277  1.00  0.00     0.016 C 
HETATM   14  C24 UNL     1      -6.704   5.486  13.481  1.00  0.00     0.033 C 
HETATM   15  C25 UNL     1      -7.096   5.658  14.945  1.00  0.00     0.118 C 
HETATM   16  C26 UNL     1      -6.452   6.893  15.573  1.00  0.00     0.037 C 
HETATM   17  C27 UNL     1      -4.933   6.875  15.371  1.00  0.00     0.001 C 
HETATM   18  C28 UNL     1      -4.259   8.051  16.071  1.00  0.00     0.010 C 
HETATM   19  C29 UNL     1      -2.742   7.884  16.035  1.00  0.00     0.040 C 
ENDROOT
BRANCH   1  20
HETATM   20  C2  UNL     1       2.518   6.911  12.667  1.00  0.00    -0.013 C 
HETATM   21  C1  UNL     1       3.505   7.995  13.114  1.00  0.00     0.010 C 
BRANCH  20  22
HETATM   22  C3  UNL     1       2.015   7.211  11.227  1.00  0.00     0.009 C 
BRANCH  22  23
HETATM   23  C4  UNL     1       3.117   7.454  10.179  1.00  0.00     0.037 C 
BRANCH  23  24
HETATM   24  C5  UNL     1       2.798   6.835   8.818  1.00  0.00    -0.049 C 
HETATM   25  C6  UNL     1       3.103   5.545   8.546  1.00  0.00     0.004 C 
BRANCH  25  26
HETATM   26  C7  UNL     1       3.763   4.537   9.432  1.00  0.00     0.191 C 
BRANCH  26  27
HETATM   27  O1  UNL     1       2.747   3.878  10.173  1.00  0.00    -0.397 OA
HETATM   28  H12 UNL     1       2.285   4.565  10.686  1.00  0.00     0.209 HD
ENDBRANCH  26  27
ENDBRANCH  25  26
BRANCH  24  29
HETATM   29  C8  UNL     1       2.058   7.746   7.819  1.00  0.00     0.074 C 
HETATM   30  C9  UNL     1       1.844   7.076   6.455  1.00  0.00     0.050 C 
HETATM   31  C10 UNL     1       0.701   8.292   8.297  1.00  0.00     0.050 C 
BRANCH  29  32
HETATM   32  O2  UNL     1       2.893   8.890   7.600  1.00  0.00    -0.386 OA
HETATM   33  H19 UNL     1       3.084   9.267   8.475  1.00  0.00     0.211 HD
ENDBRANCH  29  32
ENDBRANCH  24  29
ENDBRANCH  23  24
ENDBRANCH  22  23
ENDBRANCH  20  22
ENDBRANCH   1  20
BRANCH  15  34
HETATM   34  O3  UNL     1      -8.513   5.750  15.055  1.00  0.00    -0.396 OA
HETATM   35  H39 UNL     1      -8.803   6.536  14.561  1.00  0.00     0.210 HD
ENDBRANCH  15  34
TORSDOF 9
ENDMDL
MODEL 8
REMARK minimizedAffinity -9.13563347
REMARK  9 active torsions:
REMARK  status: ('A' for Active; 'I' for Inactive)
REMARK    1  A    between atoms: C2_2  and  C3_3 
REMARK    2  A    between atoms: C2_2  and  C11_13 
REMARK    3  A    between atoms: C3_3  and  C4_4 
REMARK    4  A    between atoms: C4_4  and  C5_5 
REMARK    5  A    between atoms: C5_5  and  C8_9 
REMARK    6  A    between atoms: C6_6  and  C7_7 
REMARK    7  A    between atoms: C7_7  and  O1_8 
REMARK    8  A    between atoms: C8_9  and  O2_12 
REMARK    9  A    between atoms: C25_27  and  O3_28 
ROOT
HETATM    1  C11 UNL     1      -5.527   5.781  12.882  1.00  0.00     0.005 C 
HETATM    2  C12 UNL     1      -5.787   7.195  13.448  1.00  0.00     0.033 C 
HETATM    3  C13 UNL     1      -4.482   7.881  13.227  1.00  0.00    -0.018 C 
HETATM    4  C14 UNL     1      -3.490   7.005  13.020  1.00  0.00    -0.047 C 
HETATM    5  C15 UNL     1      -2.093   7.284  12.728  1.00  0.00    -0.048 C 
HETATM    6  C16 UNL     1      -1.274   6.300  12.278  1.00  0.00    -0.064 C 
HETATM    7  C17 UNL     1      -1.793   4.887  12.037  1.00  0.00     0.036 C 
HETATM    8  C18 UNL     1      -3.321   4.756  12.016  1.00  0.00     0.019 C 
HETATM    9  C19 UNL     1      -3.992   5.573  13.127  1.00  0.00    -0.012 C 
HETATM   10  C20 UNL     1      -3.662   5.022  14.528  1.00  0.00     0.021 C 
HETATM   11  C21 UNL     1       0.237   6.543  12.053  1.00  0.00    -0.016 C 
HETATM   12  C22 UNL     1       0.953   6.027  13.328  1.00  0.00     0.020 C 
HETATM   13  C23 UNL     1       0.806   5.787  10.817  1.00  0.00     0.016 C 
HETATM   14  C24 UNL     1       2.269   6.123  10.515  1.00  0.00     0.033 C 
HETATM   15  C25 UNL     1       2.500   7.623  10.367  1.00  0.00     0.118 C 
HETATM   16  C26 UNL     1       1.953   8.411  11.556  1.00  0.00     0.037 C 
HETATM   17  C27 UNL     1       0.480   8.067  11.804  1.00  0.00     0.001 C 
HETATM   18  C28 UNL     1      -0.112   8.910  12.928  1.00  0.00     0.010 C 
HETATM   19  C29 UNL     1      -1.623   8.700  13.003  1.00  0.00     0.040 C 
ENDROOT
BRANCH   1  20
HETATM   20  C2  UNL     1      -6.519   4.726  13.441  1.00  0.00    -0.013 C 
HETATM   21  C1  UNL     1      -6.252   3.314  12.908  1.00  0.00     0.010 C 
BRANCH  20  22
HETATM   22  C3  UNL     1      -8.006   5.113  13.200  1.00  0.00     0.009 C 
BRANCH  22  23
HETATM   23  C4  UNL     1      -8.351   6.594  13.449  1.00  0.00     0.037 C 
BRANCH  23  24
HETATM   24  C5  UNL     1      -9.329   6.794  14.607  1.00  0.00    -0.049 C 
HETATM   25  C6  UNL     1      -8.938   6.624  15.892  1.00  0.00     0.004 C 
BRANCH  25  26
HETATM   26  C7  UNL     1      -7.591   6.234  16.412  1.00  0.00     0.191 C 
BRANCH  26  27
HETATM   27  O1  UNL     1      -7.271   7.105  17.487  1.00  0.00    -0.397 OA
HETATM   28  H12 UNL     1      -7.274   8.009  17.125  1.00  0.00     0.209 HD
ENDBRANCH  26  27
ENDBRANCH  25  26
BRANCH  24  29
HETATM   29  C8  UNL     1     -10.747   7.259  14.222  1.00  0.00     0.074 C 
HETATM   30  C9  UNL     1     -11.105   8.624  14.822  1.00  0.00     0.050 C 
HETATM   31  C10 UNL     1     -11.041   7.313  12.712  1.00  0.00     0.050 C 
BRANCH  29  32
HETATM   32  O2  UNL     1     -11.663   6.304  14.772  1.00  0.00    -0.386 OA
HETATM   33  H19 UNL     1     -11.386   5.431  14.445  1.00  0.00     0.211 HD
ENDBRANCH  29  32
ENDBRANCH  24  29
ENDBRANCH  23  24
ENDBRANCH  22  23
ENDBRANCH  20  22
ENDBRANCH   1  20
BRANCH  15  34
HETATM   34  O3  UNL     1       3.893   7.882  10.223  1.00  0.00    -0.396 OA
HETATM   35  H39 UNL     1       4.342   7.576  11.029  1.00  0.00     0.210 HD
ENDBRANCH  15  34
TORSDOF 9
ENDMDL
MODEL 9
REMARK minimizedAffinity -8.99285793
REMARK  9 active torsions:
REMARK  status: ('A' for Active; 'I' for Inactive)
REMARK    1  A    between atoms: C2_2  and  C3_3 
REMARK    2  A    between atoms: C2_2  and  C11_13 
REMARK    3  A    between atoms: C3_3  and  C4_4 
REMARK    4  A    between atoms: C4_4  and  C5_5 
REMARK    5  A    between atoms: C5_5  and  C8_9 
REMARK    6  A    between atoms: C6_6  and  C7_7 
REMARK    7  A    between atoms: C7_7  and  O1_8 
REMARK    8  A    between atoms: C8_9  and  O2_12 
REMARK    9  A    between atoms: C25_27  and  O3_28 
ROOT
HETATM    1  C11 UNL     1       1.267   7.228  10.780  1.00  0.00     0.005 C 
HETATM    2  C12 UNL     1       1.470   5.702  10.642  1.00  0.00     0.033 C 
HETATM    3  C13 UNL     1       0.169   5.154  11.121  1.00  0.00    -0.018 C 
HETATM    4  C14 UNL     1      -0.515   6.057  11.837  1.00  0.00    -0.047 C 
HETATM    5  C15 UNL     1      -1.834   5.915  12.434  1.00  0.00    -0.048 C 
HETATM    6  C16 UNL     1      -2.501   7.003  12.894  1.00  0.00    -0.064 C 
HETATM    7  C17 UNL     1      -1.910   8.403  12.775  1.00  0.00     0.036 C 
HETATM    8  C18 UNL     1      -0.708   8.518  11.828  1.00  0.00     0.019 C 
HETATM    9  C19 UNL     1       0.272   7.349  11.985  1.00  0.00    -0.012 C 
HETATM   10  C20 UNL     1       0.970   7.364  13.360  1.00  0.00     0.021 C 
HETATM   11  C21 UNL     1      -3.860   6.873  13.622  1.00  0.00    -0.016 C 
HETATM   12  C22 UNL     1      -3.543   6.903  15.140  1.00  0.00     0.020 C 
HETATM   13  C23 UNL     1      -4.849   8.027  13.292  1.00  0.00     0.016 C 
HETATM   14  C24 UNL     1      -6.238   7.838  13.908  1.00  0.00     0.033 C 
HETATM   15  C25 UNL     1      -6.856   6.492  13.540  1.00  0.00     0.118 C 
HETATM   16  C26 UNL     1      -5.918   5.325  13.841  1.00  0.00     0.037 C 
HETATM   17  C27 UNL     1      -4.552   5.542  13.182  1.00  0.00     0.001 C 
HETATM   18  C28 UNL     1      -3.630   4.346  13.392  1.00  0.00     0.010 C 
HETATM   19  C29 UNL     1      -2.368   4.500  12.546  1.00  0.00     0.040 C 
ENDROOT
BRANCH   1  20
HETATM   20  C2  UNL     1       2.612   8.002  10.843  1.00  0.00    -0.013 C 
HETATM   21  C1  UNL     1       3.343   8.039   9.497  1.00  0.00     0.010 C 
BRANCH  20  22
HETATM   22  C3  UNL     1       3.562   7.463  11.950  1.00  0.00     0.009 C 
BRANCH  22  23
HETATM   23  C4  UNL     1       4.760   8.371  12.291  1.00  0.00     0.037 C 
BRANCH  23  24
HETATM   24  C5  UNL     1       5.853   7.650  13.080  1.00  0.00    -0.049 C 
HETATM   25  C6  UNL     1       6.751   6.848  12.462  1.00  0.00     0.004 C 
BRANCH  25  26
HETATM   26  C7  UNL     1       6.858   6.518  11.007  1.00  0.00     0.191 C 
BRANCH  26  27
HETATM   27  O1  UNL     1       6.151   5.306  10.783  1.00  0.00    -0.397 OA
HETATM   28  H12 UNL     1       6.574   4.630  11.342  1.00  0.00     0.209 HD
ENDBRANCH  26  27
ENDBRANCH  25  26
BRANCH  24  29
HETATM   29  C8  UNL     1       5.902   7.947  14.592  1.00  0.00     0.074 C 
HETATM   30  C9  UNL     1       7.330   8.177  15.103  1.00  0.00     0.050 C 
HETATM   31  C10 UNL     1       5.033   9.125  15.066  1.00  0.00     0.050 C 
BRANCH  29  32
HETATM   32  O2  UNL     1       5.397   6.785  15.261  1.00  0.00    -0.386 OA
HETATM   33  H19 UNL     1       4.522   6.602  14.881  1.00  0.00     0.211 HD
ENDBRANCH  29  32
ENDBRANCH  24  29
ENDBRANCH  23  24
ENDBRANCH  22  23
ENDBRANCH  20  22
ENDBRANCH   1  20
BRANCH  15  34
HETATM   34  O3  UNL     1      -8.080   6.317  14.247  1.00  0.00    -0.396 OA
HETATM   35  H39 UNL     1      -7.881   6.317  15.199  1.00  0.00     0.210 HD
ENDBRANCH  15  34
TORSDOF 9
ENDMDL
