MODEL 1
REMARK minimizedAffinity -7.23523903
REMARK CNNscore 0.725186229
REMARK CNNaffinity 6.75778341
REMARK  9 active torsions:
REMARK  status: ('A' for Active; 'I' for Inactive)
REMARK    1  A    between atoms: C2_2  and  C3_3 
REMARK    2  A    between atoms: C2_2  and  C9_12 
REMARK    3  A    between atoms: C3_3  and  C4_4 
REMARK    4  A    between atoms: C4_4  and  C5_5 
REMARK    5  A    between atoms: C5_5  and  O1_6 
REMARK    6  A    between atoms: C5_5  and  C6_7 
REMARK    7  A    between atoms: C6_7  and  O2_9 
REMARK    8  A    between atoms: C6_7  and  C8_10 
REMARK    9  A    between atoms: C8_10  and  O3_11 
ROOT
HETATM    1  C9  UNL     1       5.573  55.760  -8.062  1.00  0.00    -0.002 C 
HETATM    2  C10 UNL     1       6.367  54.722  -8.902  1.00  0.00     0.006 C 
HETATM    3  C11 UNL     1       5.348  53.967  -9.774  1.00  0.00     0.011 C 
HETATM    4  C12 UNL     1       4.033  54.768  -9.658  1.00  0.00    -0.032 C 
HETATM    5  C13 UNL     1       4.106  55.920 -10.710  1.00  0.00     0.016 C 
HETATM    6  C14 UNL     1       2.749  53.926  -9.887  1.00  0.00     0.004 C 
HETATM    7  C15 UNL     1       2.496  53.534 -11.353  1.00  0.00     0.007 C 
HETATM    8  C16 UNL     1       1.284  52.609 -11.442  1.00  0.00     0.007 C 
HETATM    9  C17 UNL     1      -0.005  53.378 -11.108  1.00  0.00     0.010 C 
HETATM   10  C18 UNL     1      -1.312  52.515 -11.116  1.00  0.00     0.018 C 
HETATM   11  C19 UNL     1      -1.704  52.162 -12.561  1.00  0.00     0.023 C 
HETATM   12  C20 UNL     1      -1.200  51.209 -10.305  1.00  0.00     0.023 C 
HETATM   13  C21 UNL     1      -2.462  53.347 -10.522  1.00  0.00     0.135 C 
HETATM   14  O4  UNL     1      -3.497  52.833 -10.099  1.00  0.00    -0.297 OA
HETATM   15  C22 UNL     1      -2.287  54.845 -10.521  1.00  0.00     0.080 C 
HETATM   16  C23 UNL     1      -1.065  55.219  -9.692  1.00  0.00     0.018 C 
HETATM   17  C24 UNL     1       0.089  54.218  -9.827  1.00  0.00    -0.026 A 
HETATM   18  C25 UNL     1       0.572  53.596  -8.540  1.00  0.00     0.021 A 
HETATM   19  C26 UNL     1       1.491  54.575  -9.252  1.00  0.00    -0.027 A 
HETATM   20  C27 UNL     1       1.655  55.963  -8.620  1.00  0.00     0.011 C 
HETATM   21  C28 UNL     1       3.000  56.296  -7.948  1.00  0.00     0.011 C 
HETATM   22  C29 UNL     1       4.098  55.246  -8.158  1.00  0.00    -0.032 C 
HETATM   23  C30 UNL     1       3.863  54.107  -7.131  1.00  0.00     0.016 C 
ENDROOT
BRANCH   1  24
HETATM   24  C2  UNL     1       6.286  56.134  -6.728  1.00  0.00    -0.014 C 
HETATM   25  C1  UNL     1       6.126  57.577  -6.230  1.00  0.00     0.010 C 
BRANCH  24  26
HETATM   26  C3  UNL     1       7.776  55.716  -6.738  1.00  0.00     0.007 C 
BRANCH  26  27
HETATM   27  C4  UNL     1       8.456  55.858  -5.364  1.00  0.00     0.035 C 
BRANCH  27  28
HETATM   28  C5  UNL     1       9.531  56.957  -5.308  1.00  0.00     0.154 C 
BRANCH  28  29
HETATM   29  O1  UNL     1      10.791  56.341  -5.614  1.00  0.00    -0.392 OA
HETATM   30  H10 UNL     1      10.832  56.174  -6.570  1.00  0.00     0.210 HD
ENDBRANCH  28  29
BRANCH  28  31
HETATM   31  C6  UNL     1       9.645  57.683  -3.923  1.00  0.00     0.101 C 
HETATM   32  C7  UNL     1      10.060  56.666  -2.842  1.00  0.00     0.051 C 
BRANCH  31  33
HETATM   33  O2  UNL     1       8.384  58.220  -3.484  1.00  0.00    -0.385 OA
HETATM   34  H14 UNL     1       7.905  58.552  -4.262  1.00  0.00     0.210 HD
ENDBRANCH  31  33
BRANCH  31  35
HETATM   35  C8  UNL     1      10.669  58.839  -3.968  1.00  0.00     0.204 C 
BRANCH  35  36
HETATM   36  O3  UNL     1      10.816  59.396  -5.271  1.00  0.00    -0.398 OA
HETATM   37  H17 UNL     1      11.302  58.748  -5.810  1.00  0.00     0.209 HD
ENDBRANCH  35  36
ENDBRANCH  31  35
ENDBRANCH  28  31
ENDBRANCH  27  28
ENDBRANCH  26  27
ENDBRANCH  24  26
ENDBRANCH   1  24
TORSDOF 9
ENDMDL
MODEL 2
REMARK minimizedAffinity -7.91261911
REMARK CNNscore 0.488440514
REMARK CNNaffinity 5.75932312
REMARK  9 active torsions:
REMARK  status: ('A' for Active; 'I' for Inactive)
REMARK    1  A    between atoms: C2_2  and  C3_3 
REMARK    2  A    between atoms: C2_2  and  C9_12 
REMARK    3  A    between atoms: C3_3  and  C4_4 
REMARK    4  A    between atoms: C4_4  and  C5_5 
REMARK    5  A    between atoms: C5_5  and  O1_6 
REMARK    6  A    between atoms: C5_5  and  C6_7 
REMARK    7  A    between atoms: C6_7  and  O2_9 
REMARK    8  A    between atoms: C6_7  and  C8_10 
REMARK    9  A    between atoms: C8_10  and  O3_11 
ROOT
HETATM    1  C9  UNL     1      -9.158  46.683 -29.161  1.00  0.00    -0.002 C 
HETATM    2  C10 UNL     1      -9.660  46.012 -30.470  1.00  0.00     0.006 C 
HETATM    3  C11 UNL     1     -11.147  45.672 -30.265  1.00  0.00     0.011 C 
HETATM    4  C12 UNL     1     -11.565  46.412 -28.976  1.00  0.00    -0.032 C 
HETATM    5  C13 UNL     1     -11.937  47.872 -29.387  1.00  0.00     0.016 C 
HETATM    6  C14 UNL     1     -12.753  45.758 -28.220  1.00  0.00     0.004 C 
HETATM    7  C15 UNL     1     -14.122  45.954 -28.894  1.00  0.00     0.007 C 
HETATM    8  C16 UNL     1     -15.192  45.169 -28.137  1.00  0.00     0.007 C 
HETATM    9  C17 UNL     1     -15.442  45.796 -26.755  1.00  0.00     0.010 C 
HETATM   10  C18 UNL     1     -16.485  45.040 -25.865  1.00  0.00     0.018 C 
HETATM   11  C19 UNL     1     -17.908  45.268 -26.405  1.00  0.00     0.023 C 
HETATM   12  C20 UNL     1     -16.236  43.523 -25.766  1.00  0.00     0.023 C 
HETATM   13  C21 UNL     1     -16.440  45.624 -24.441  1.00  0.00     0.135 C 
HETATM   14  O4  UNL     1     -16.892  45.021 -23.467  1.00  0.00    -0.297 OA
HETATM   15  C22 UNL     1     -15.855  47.005 -24.291  1.00  0.00     0.080 C 
HETATM   16  C23 UNL     1     -14.405  47.002 -24.758  1.00  0.00     0.018 C 
HETATM   17  C24 UNL     1     -14.159  46.089 -25.967  1.00  0.00    -0.026 A 
HETATM   18  C25 UNL     1     -13.117  45.014 -25.776  1.00  0.00     0.021 A 
HETATM   19  C26 UNL     1     -12.800  46.160 -26.723  1.00  0.00    -0.027 A 
HETATM   20  C27 UNL     1     -11.784  47.203 -26.239  1.00  0.00     0.011 C 
HETATM   21  C28 UNL     1     -10.394  47.217 -26.900  1.00  0.00     0.011 C 
HETATM   22  C29 UNL     1     -10.252  46.289 -28.114  1.00  0.00    -0.032 C 
HETATM   23  C30 UNL     1      -9.988  44.855 -27.581  1.00  0.00     0.016 C 
ENDROOT
BRANCH   1  24
HETATM   24  C2  UNL     1      -7.627  46.506 -28.937  1.00  0.00    -0.014 C 
HETATM   25  C1  UNL     1      -6.917  47.567 -28.086  1.00  0.00     0.010 C 
BRANCH  24  26
HETATM   26  C3  UNL     1      -6.876  46.276 -30.271  1.00  0.00     0.007 C 
BRANCH  26  27
HETATM   27  C4  UNL     1      -6.504  47.585 -30.992  1.00  0.00     0.035 C 
BRANCH  27  28
HETATM   28  C5  UNL     1      -5.067  47.612 -31.541  1.00  0.00     0.154 C 
BRANCH  28  29
HETATM   29  O1  UNL     1      -4.595  48.964 -31.442  1.00  0.00    -0.392 OA
HETATM   30  H10 UNL     1      -4.378  49.150 -30.514  1.00  0.00     0.210 HD
ENDBRANCH  28  29
BRANCH  28  31
HETATM   31  C6  UNL     1      -4.933  47.136 -33.029  1.00  0.00     0.101 C 
HETATM   32  C7  UNL     1      -6.139  47.644 -33.843  1.00  0.00     0.051 C 
BRANCH  31  33
HETATM   33  O2  UNL     1      -4.963  45.702 -33.148  1.00  0.00    -0.385 OA
HETATM   34  H14 UNL     1      -4.496  45.322 -32.385  1.00  0.00     0.210 HD
ENDBRANCH  31  33
BRANCH  31  35
HETATM   35  C8  UNL     1      -3.623  47.643 -33.673  1.00  0.00     0.204 C 
BRANCH  35  36
HETATM   36  O3  UNL     1      -3.759  48.935 -34.257  1.00  0.00    -0.398 OA
HETATM   37  H17 UNL     1      -4.291  48.834 -35.065  1.00  0.00     0.209 HD
ENDBRANCH  35  36
ENDBRANCH  31  35
ENDBRANCH  28  31
ENDBRANCH  27  28
ENDBRANCH  26  27
ENDBRANCH  24  26
ENDBRANCH   1  24
TORSDOF 9
ENDMDL
MODEL 3
REMARK minimizedAffinity -7.13036537
REMARK CNNscore 0.346506774
REMARK CNNaffinity 5.6463623
REMARK  9 active torsions:
REMARK  status: ('A' for Active; 'I' for Inactive)
REMARK    1  A    between atoms: C2_2  and  C3_3 
REMARK    2  A    between atoms: C2_2  and  C9_12 
REMARK    3  A    between atoms: C3_3  and  C4_4 
REMARK    4  A    between atoms: C4_4  and  C5_5 
REMARK    5  A    between atoms: C5_5  and  O1_6 
REMARK    6  A    between atoms: C5_5  and  C6_7 
REMARK    7  A    between atoms: C6_7  and  O2_9 
REMARK    8  A    between atoms: C6_7  and  C8_10 
REMARK    9  A    between atoms: C8_10  and  O3_11 
ROOT
HETATM    1  C9  UNL     1     -11.781  45.728 -29.289  1.00  0.00    -0.002 C 
HETATM    2  C10 UNL     1     -10.512  45.439 -28.441  1.00  0.00     0.006 C 
HETATM    3  C11 UNL     1     -10.979  45.186 -26.996  1.00  0.00     0.011 C 
HETATM    4  C12 UNL     1     -12.513  45.031 -27.080  1.00  0.00    -0.032 C 
HETATM    5  C13 UNL     1     -12.802  43.543 -27.452  1.00  0.00     0.016 C 
HETATM    6  C14 UNL     1     -13.265  45.403 -25.773  1.00  0.00     0.004 C 
HETATM    7  C15 UNL     1     -13.124  44.371 -24.641  1.00  0.00     0.007 C 
HETATM    8  C16 UNL     1     -13.795  44.896 -23.372  1.00  0.00     0.007 C 
HETATM    9  C17 UNL     1     -15.321  44.942 -23.552  1.00  0.00     0.010 C 
HETATM   10  C18 UNL     1     -16.114  45.516 -22.329  1.00  0.00     0.018 C 
HETATM   11  C19 UNL     1     -16.118  44.498 -21.175  1.00  0.00     0.023 C 
HETATM   12  C20 UNL     1     -15.561  46.854 -21.802  1.00  0.00     0.023 C 
HETATM   13  C21 UNL     1     -17.580  45.737 -22.745  1.00  0.00     0.135 C 
HETATM   14  O4  UNL     1     -18.339  46.474 -22.117  1.00  0.00    -0.297 OA
HETATM   15  C22 UNL     1     -18.069  44.966 -23.945  1.00  0.00     0.080 C 
HETATM   16  C23 UNL     1     -17.252  45.351 -25.171  1.00  0.00     0.018 C 
HETATM   17  C24 UNL     1     -15.772  45.607 -24.858  1.00  0.00    -0.026 A 
HETATM   18  C25 UNL     1     -15.246  46.969 -25.242  1.00  0.00     0.021 A 
HETATM   19  C26 UNL     1     -14.753  45.763 -26.025  1.00  0.00    -0.027 A 
HETATM   20  C27 UNL     1     -15.290  45.590 -27.451  1.00  0.00     0.011 C 
HETATM   21  C28 UNL     1     -14.324  45.847 -28.622  1.00  0.00     0.011 C 
HETATM   22  C29 UNL     1     -12.864  46.069 -28.211  1.00  0.00    -0.032 C 
HETATM   23  C30 UNL     1     -12.721  47.550 -27.764  1.00  0.00     0.016 C 
ENDROOT
BRANCH   1  24
HETATM   24  C2  UNL     1     -11.487  46.603 -30.544  1.00  0.00    -0.014 C 
HETATM   25  C1  UNL     1     -10.890  45.895 -31.767  1.00  0.00     0.010 C 
BRANCH  24  26
HETATM   26  C3  UNL     1     -10.668  47.865 -30.182  1.00  0.00     0.007 C 
BRANCH  26  27
HETATM   27  C4  UNL     1      -9.164  47.719 -30.480  1.00  0.00     0.035 C 
BRANCH  27  28
HETATM   28  C5  UNL     1      -8.249  48.291 -29.383  1.00  0.00     0.154 C 
BRANCH  28  29
HETATM   29  O1  UNL     1      -8.457  49.711 -29.348  1.00  0.00    -0.392 OA
HETATM   30  H10 UNL     1      -9.305  49.891 -28.911  1.00  0.00     0.210 HD
ENDBRANCH  28  29
BRANCH  28  31
HETATM   31  C6  UNL     1      -6.723  48.008 -29.599  1.00  0.00     0.101 C 
HETATM   32  C7  UNL     1      -6.482  46.486 -29.635  1.00  0.00     0.051 C 
BRANCH  31  33
HETATM   33  O2  UNL     1      -5.919  48.500 -28.512  1.00  0.00    -0.385 OA
HETATM   34  H14 UNL     1      -6.303  49.337 -28.201  1.00  0.00     0.210 HD
ENDBRANCH  31  33
BRANCH  31  35
HETATM   35  C8  UNL     1      -6.203  48.646 -30.906  1.00  0.00     0.204 C 
BRANCH  35  36
HETATM   36  O3  UNL     1      -4.960  49.320 -30.735  1.00  0.00    -0.398 OA
HETATM   37  H17 UNL     1      -5.138  50.135 -30.234  1.00  0.00     0.209 HD
ENDBRANCH  35  36
ENDBRANCH  31  35
ENDBRANCH  28  31
ENDBRANCH  27  28
ENDBRANCH  26  27
ENDBRANCH  24  26
ENDBRANCH   1  24
TORSDOF 9
ENDMDL
MODEL 4
REMARK minimizedAffinity -6.94496679
REMARK CNNscore 0.338767022
REMARK CNNaffinity 5.66593409
REMARK  9 active torsions:
REMARK  status: ('A' for Active; 'I' for Inactive)
REMARK    1  A    between atoms: C2_2  and  C3_3 
REMARK    2  A    between atoms: C2_2  and  C9_12 
REMARK    3  A    between atoms: C3_3  and  C4_4 
REMARK    4  A    between atoms: C4_4  and  C5_5 
REMARK    5  A    between atoms: C5_5  and  O1_6 
REMARK    6  A    between atoms: C5_5  and  C6_7 
REMARK    7  A    between atoms: C6_7  and  O2_9 
REMARK    8  A    between atoms: C6_7  and  C8_10 
REMARK    9  A    between atoms: C8_10  and  O3_11 
ROOT
HETATM    1  C9  UNL     1     -14.011  45.338 -26.670  1.00  0.00    -0.002 C 
HETATM    2  C10 UNL     1     -13.243  44.720 -25.469  1.00  0.00     0.006 C 
HETATM    3  C11 UNL     1     -11.754  45.060 -25.658  1.00  0.00     0.011 C 
HETATM    4  C12 UNL     1     -11.712  46.114 -26.785  1.00  0.00    -0.032 C 
HETATM    5  C13 UNL     1     -11.963  47.504 -26.120  1.00  0.00     0.016 C 
HETATM    6  C14 UNL     1     -10.380  46.144 -27.582  1.00  0.00     0.004 C 
HETATM    7  C15 UNL     1      -9.196  46.766 -26.822  1.00  0.00     0.007 C 
HETATM    8  C16 UNL     1      -7.918  46.630 -27.649  1.00  0.00     0.007 C 
HETATM    9  C17 UNL     1      -7.985  47.530 -28.894  1.00  0.00     0.010 C 
HETATM   10  C18 UNL     1      -6.746  47.432 -29.848  1.00  0.00     0.018 C 
HETATM   11  C19 UNL     1      -5.531  48.128 -29.211  1.00  0.00     0.023 C 
HETATM   12  C20 UNL     1      -6.352  45.987 -30.209  1.00  0.00     0.023 C 
HETATM   13  C21 UNL     1      -7.065  48.180 -31.155  1.00  0.00     0.135 C 
HETATM   14  O4  UNL     1      -6.431  47.991 -32.193  1.00  0.00    -0.297 OA
HETATM   15  C22 UNL     1      -8.172  49.202 -31.100  1.00  0.00     0.080 C 
HETATM   16  C23 UNL     1      -9.478  48.526 -30.708  1.00  0.00     0.018 C 
HETATM   17  C24 UNL     1      -9.295  47.401 -29.681  1.00  0.00    -0.026 A 
HETATM   18  C25 UNL     1      -9.806  46.044 -30.097  1.00  0.00     0.021 A 
HETATM   19  C26 UNL     1     -10.542  46.778 -28.988  1.00  0.00    -0.027 A 
HETATM   20  C27 UNL     1     -11.910  47.379 -29.339  1.00  0.00     0.011 C 
HETATM   21  C28 UNL     1     -13.165  46.709 -28.750  1.00  0.00     0.011 C 
HETATM   22  C29 UNL     1     -12.880  45.613 -27.716  1.00  0.00    -0.032 C 
HETATM   23  C30 UNL     1     -12.543  44.310 -28.491  1.00  0.00     0.016 C 
ENDROOT
BRANCH   1  24
HETATM   24  C2  UNL     1     -15.339  44.590 -26.992  1.00  0.00    -0.014 C 
HETATM   25  C1  UNL     1     -15.456  43.933 -28.373  1.00  0.00     0.010 C 
BRANCH  24  26
HETATM   26  C3  UNL     1     -16.578  45.469 -26.691  1.00  0.00     0.007 C 
BRANCH  26  27
HETATM   27  C4  UNL     1     -16.711  45.842 -25.204  1.00  0.00     0.035 C 
BRANCH  27  28
HETATM   28  C5  UNL     1     -17.835  45.093 -24.467  1.00  0.00     0.154 C 
BRANCH  28  29
HETATM   29  O1  UNL     1     -17.680  43.695 -24.758  1.00  0.00    -0.392 OA
HETATM   30  H10 UNL     1     -16.937  43.350 -24.238  1.00  0.00     0.210 HD
ENDBRANCH  28  29
BRANCH  28  31
HETATM   31  C6  UNL     1     -19.283  45.537 -24.870  1.00  0.00     0.101 C 
HETATM   32  C7  UNL     1     -19.672  44.875 -26.206  1.00  0.00     0.051 C 
BRANCH  31  33
HETATM   33  O2  UNL     1     -19.374  46.955 -25.101  1.00  0.00    -0.385 OA
HETATM   34  H14 UNL     1     -18.797  47.407 -24.461  1.00  0.00     0.210 HD
ENDBRANCH  31  33
BRANCH  31  35
HETATM   35  C8  UNL     1     -20.317  45.161 -23.786  1.00  0.00     0.204 C 
BRANCH  35  36
HETATM   36  O3  UNL     1     -19.740  44.445 -22.697  1.00  0.00    -0.398 OA
HETATM   37  H17 UNL     1     -19.531  43.551 -23.017  1.00  0.00     0.209 HD
ENDBRANCH  35  36
ENDBRANCH  31  35
ENDBRANCH  28  31
ENDBRANCH  27  28
ENDBRANCH  26  27
ENDBRANCH  24  26
ENDBRANCH   1  24
TORSDOF 9
ENDMDL
MODEL 5
REMARK minimizedAffinity -7.14397001
REMARK CNNscore 0.334189534
REMARK CNNaffinity 5.52820444
REMARK  9 active torsions:
REMARK  status: ('A' for Active; 'I' for Inactive)
REMARK    1  A    between atoms: C2_2  and  C3_3 
REMARK    2  A    between atoms: C2_2  and  C9_12 
REMARK    3  A    between atoms: C3_3  and  C4_4 
REMARK    4  A    between atoms: C4_4  and  C5_5 
REMARK    5  A    between atoms: C5_5  and  O1_6 
REMARK    6  A    between atoms: C5_5  and  C6_7 
REMARK    7  A    between atoms: C6_7  and  O2_9 
REMARK    8  A    between atoms: C6_7  and  C8_10 
REMARK    9  A    between atoms: C8_10  and  O3_11 
ROOT
HETATM    1  C9  UNL     1     -11.520  45.833 -28.082  1.00  0.00    -0.002 C 
HETATM    2  C10 UNL     1     -11.208  47.260 -27.554  1.00  0.00     0.006 C 
HETATM    3  C11 UNL     1     -12.269  47.592 -26.488  1.00  0.00     0.011 C 
HETATM    4  C12 UNL     1     -12.989  46.258 -26.195  1.00  0.00    -0.032 C 
HETATM    5  C13 UNL     1     -12.132  45.501 -25.132  1.00  0.00     0.016 C 
HETATM    6  C14 UNL     1     -14.445  46.419 -25.681  1.00  0.00     0.004 C 
HETATM    7  C15 UNL     1     -14.559  46.913 -24.229  1.00  0.00     0.007 C 
HETATM    8  C16 UNL     1     -16.025  47.152 -23.874  1.00  0.00     0.007 C 
HETATM    9  C17 UNL     1     -16.785  45.817 -23.799  1.00  0.00     0.010 C 
HETATM   10  C18 UNL     1     -18.316  45.943 -23.493  1.00  0.00     0.018 C 
HETATM   11  C19 UNL     1     -18.531  46.334 -22.020  1.00  0.00     0.023 C 
HETATM   12  C20 UNL     1     -19.046  46.966 -24.384  1.00  0.00     0.023 C 
HETATM   13  C21 UNL     1     -18.980  44.570 -23.701  1.00  0.00     0.135 C 
HETATM   14  O4  UNL     1     -20.193  44.443 -23.860  1.00  0.00    -0.297 OA
HETATM   15  C22 UNL     1     -18.076  43.364 -23.656  1.00  0.00     0.080 C 
HETATM   16  C23 UNL     1     -17.030  43.464 -24.758  1.00  0.00     0.018 C 
HETATM   17  C24 UNL     1     -16.541  44.897 -25.002  1.00  0.00    -0.026 A 
HETATM   18  C25 UNL     1     -16.711  45.418 -26.409  1.00  0.00     0.021 A 
HETATM   19  C26 UNL     1     -15.301  45.145 -25.911  1.00  0.00    -0.027 A 
HETATM   20  C27 UNL     1     -14.590  43.909 -26.476  1.00  0.00     0.011 C 
HETATM   21  C28 UNL     1     -13.430  44.132 -27.464  1.00  0.00     0.011 C 
HETATM   22  C29 UNL     1     -12.997  45.594 -27.624  1.00  0.00    -0.032 C 
HETATM   23  C30 UNL     1     -13.978  46.270 -28.619  1.00  0.00     0.016 C 
ENDROOT
BRANCH   1  24
HETATM   24  C2  UNL     1     -11.003  45.595 -29.532  1.00  0.00    -0.014 C 
HETATM   25  C1  UNL     1     -10.288  44.267 -29.813  1.00  0.00     0.010 C 
BRANCH  24  26
HETATM   26  C3  UNL     1     -10.165  46.792 -30.044  1.00  0.00     0.007 C 
BRANCH  26  27
HETATM   27  C4  UNL     1      -9.027  46.374 -30.994  1.00  0.00     0.035 C 
BRANCH  27  28
HETATM   28  C5  UNL     1      -7.620  46.710 -30.471  1.00  0.00     0.154 C 
BRANCH  28  29
HETATM   29  O1  UNL     1      -7.492  46.115 -29.170  1.00  0.00    -0.392 OA
HETATM   30  H10 UNL     1      -7.362  45.159 -29.276  1.00  0.00     0.210 HD
ENDBRANCH  28  29
BRANCH  28  31
HETATM   31  C6  UNL     1      -7.318  48.244 -30.360  1.00  0.00     0.101 C 
HETATM   32  C7  UNL     1      -5.849  48.508 -30.743  1.00  0.00     0.051 C 
BRANCH  31  33
HETATM   33  O2  UNL     1      -7.459  48.730 -29.013  1.00  0.00    -0.385 OA
HETATM   34  H14 UNL     1      -8.205  48.265 -28.596  1.00  0.00     0.210 HD
ENDBRANCH  31  33
BRANCH  31  35
HETATM   35  C8  UNL     1      -8.248  49.076 -31.270  1.00  0.00     0.204 C 
BRANCH  35  36
HETATM   36  O3  UNL     1      -8.780  50.223 -30.613  1.00  0.00    -0.398 OA
HETATM   37  H17 UNL     1      -9.442  49.911 -29.973  1.00  0.00     0.209 HD
ENDBRANCH  35  36
ENDBRANCH  31  35
ENDBRANCH  28  31
ENDBRANCH  27  28
ENDBRANCH  26  27
ENDBRANCH  24  26
ENDBRANCH   1  24
TORSDOF 9
ENDMDL
MODEL 6
REMARK minimizedAffinity -7.25312328
REMARK CNNscore 0.309645355
REMARK CNNaffinity 5.23337412
REMARK  9 active torsions:
REMARK  status: ('A' for Active; 'I' for Inactive)
REMARK    1  A    between atoms: C2_2  and  C3_3 
REMARK    2  A    between atoms: C2_2  and  C9_12 
REMARK    3  A    between atoms: C3_3  and  C4_4 
REMARK    4  A    between atoms: C4_4  and  C5_5 
REMARK    5  A    between atoms: C5_5  and  O1_6 
REMARK    6  A    between atoms: C5_5  and  C6_7 
REMARK    7  A    between atoms: C6_7  and  O2_9 
REMARK    8  A    between atoms: C6_7  and  C8_10 
REMARK    9  A    between atoms: C8_10  and  O3_11 
ROOT
HETATM    1  C9  UNL     1     -10.349  45.909 -27.778  1.00  0.00    -0.002 C 
HETATM    2  C10 UNL     1     -10.560  44.979 -29.004  1.00  0.00     0.006 C 
HETATM    3  C11 UNL     1     -12.057  44.626 -29.055  1.00  0.00     0.011 C 
HETATM    4  C12 UNL     1     -12.740  45.585 -28.057  1.00  0.00    -0.032 C 
HETATM    5  C13 UNL     1     -13.010  46.921 -28.818  1.00  0.00     0.016 C 
HETATM    6  C14 UNL     1     -14.065  45.044 -27.456  1.00  0.00     0.004 C 
HETATM    7  C15 UNL     1     -15.257  45.051 -28.429  1.00  0.00     0.007 C 
HETATM    8  C16 UNL     1     -16.467  44.386 -27.775  1.00  0.00     0.007 C 
HETATM    9  C17 UNL     1     -17.006  45.258 -26.630  1.00  0.00     0.010 C 
HETATM   10  C18 UNL     1     -18.220  44.649 -25.849  1.00  0.00     0.018 C 
HETATM   11  C19 UNL     1     -19.491  44.712 -26.713  1.00  0.00     0.023 C 
HETATM   12  C20 UNL     1     -18.002  43.191 -25.401  1.00  0.00     0.023 C 
HETATM   13  C21 UNL     1     -18.480  45.499 -24.592  1.00  0.00     0.135 C 
HETATM   14  O4  UNL     1     -19.133  45.080 -23.637  1.00  0.00    -0.297 OA
HETATM   15  C22 UNL     1     -17.936  46.905 -24.599  1.00  0.00     0.080 C 
HETATM   16  C23 UNL     1     -16.420  46.869 -24.738  1.00  0.00     0.018 C 
HETATM   17  C24 UNL     1     -15.922  45.750 -25.662  1.00  0.00    -0.026 A 
HETATM   18  C25 UNL     1     -14.950  44.774 -25.046  1.00  0.00     0.021 A 
HETATM   19  C26 UNL     1     -14.432  45.726 -26.112  1.00  0.00    -0.027 A 
HETATM   20  C27 UNL     1     -13.541  46.882 -25.641  1.00  0.00     0.011 C 
HETATM   21  C28 UNL     1     -12.041  46.823 -25.982  1.00  0.00     0.011 C 
HETATM   22  C29 UNL     1     -11.644  45.684 -26.929  1.00  0.00    -0.032 C 
HETATM   23  C30 UNL     1     -11.506  44.392 -26.080  1.00  0.00     0.016 C 
ENDROOT
BRANCH   1  24
HETATM   24  C2  UNL     1      -8.902  45.840 -27.204  1.00  0.00    -0.014 C 
HETATM   25  C1  UNL     1      -8.210  44.471 -27.214  1.00  0.00     0.010 C 
BRANCH  24  26
HETATM   26  C3  UNL     1      -8.809  46.496 -25.806  1.00  0.00     0.007 C 
BRANCH  26  27
HETATM   27  C4  UNL     1      -7.643  47.493 -25.678  1.00  0.00     0.035 C 
BRANCH  27  28
HETATM   28  C5  UNL     1      -7.845  48.559 -24.588  1.00  0.00     0.154 C 
BRANCH  28  29
HETATM   29  O1  UNL     1      -8.590  49.637 -25.175  1.00  0.00    -0.392 OA
HETATM   30  H10 UNL     1      -9.518  49.365 -25.258  1.00  0.00     0.210 HD
ENDBRANCH  28  29
BRANCH  28  31
HETATM   31  C6  UNL     1      -6.516  49.131 -23.985  1.00  0.00     0.101 C 
HETATM   32  C7  UNL     1      -6.475  48.851 -22.470  1.00  0.00     0.051 C 
BRANCH  31  33
HETATM   33  O2  UNL     1      -6.429  50.561 -24.116  1.00  0.00    -0.385 OA
HETATM   34  H14 UNL     1      -6.823  50.815 -24.968  1.00  0.00     0.210 HD
ENDBRANCH  31  33
BRANCH  31  35
HETATM   35  C8  UNL     1      -5.271  48.512 -24.660  1.00  0.00     0.204 C 
BRANCH  35  36
HETATM   36  O3  UNL     1      -4.723  49.346 -25.677  1.00  0.00    -0.398 OA
HETATM   37  H17 UNL     1      -5.331  49.317 -26.435  1.00  0.00     0.209 HD
ENDBRANCH  35  36
ENDBRANCH  31  35
ENDBRANCH  28  31
ENDBRANCH  27  28
ENDBRANCH  26  27
ENDBRANCH  24  26
ENDBRANCH   1  24
TORSDOF 9
ENDMDL
MODEL 7
REMARK minimizedAffinity -7.4944706
REMARK CNNscore 0.269927859
REMARK CNNaffinity 5.40918684
REMARK  9 active torsions:
REMARK  status: ('A' for Active; 'I' for Inactive)
REMARK    1  A    between atoms: C2_2  and  C3_3 
REMARK    2  A    between atoms: C2_2  and  C9_12 
REMARK    3  A    between atoms: C3_3  and  C4_4 
REMARK    4  A    between atoms: C4_4  and  C5_5 
REMARK    5  A    between atoms: C5_5  and  O1_6 
REMARK    6  A    between atoms: C5_5  and  C6_7 
REMARK    7  A    between atoms: C6_7  and  O2_9 
REMARK    8  A    between atoms: C6_7  and  C8_10 
REMARK    9  A    between atoms: C8_10  and  O3_11 
ROOT
HETATM    1  C9  UNL     1     -10.468  45.625 -27.679  1.00  0.00    -0.002 C 
HETATM    2  C10 UNL     1     -10.716  44.718 -28.916  1.00  0.00     0.006 C 
HETATM    3  C11 UNL     1     -12.227  44.432 -28.975  1.00  0.00     0.011 C 
HETATM    4  C12 UNL     1     -12.871  45.410 -27.968  1.00  0.00    -0.032 C 
HETATM    5  C13 UNL     1     -13.079  46.765 -28.714  1.00  0.00     0.016 C 
HETATM    6  C14 UNL     1     -14.220  44.920 -27.376  1.00  0.00     0.004 C 
HETATM    7  C15 UNL     1     -15.407  44.991 -28.353  1.00  0.00     0.007 C 
HETATM    8  C16 UNL     1     -16.647  44.372 -27.710  1.00  0.00     0.007 C 
HETATM    9  C17 UNL     1     -17.151  45.255 -26.556  1.00  0.00     0.010 C 
HETATM   10  C18 UNL     1     -18.393  44.691 -25.785  1.00  0.00     0.018 C 
HETATM   11  C19 UNL     1     -19.657  44.820 -26.651  1.00  0.00     0.023 C 
HETATM   12  C20 UNL     1     -18.241  43.220 -25.353  1.00  0.00     0.023 C 
HETATM   13  C21 UNL     1     -18.620  45.538 -24.520  1.00  0.00     0.135 C 
HETATM   14  O4  UNL     1     -19.293  45.137 -23.571  1.00  0.00    -0.297 OA
HETATM   15  C22 UNL     1     -18.014  46.918 -24.508  1.00  0.00     0.080 C 
HETATM   16  C23 UNL     1     -16.500  46.817 -24.645  1.00  0.00     0.018 C 
HETATM   17  C24 UNL     1     -16.050  45.687 -25.580  1.00  0.00    -0.026 A 
HETATM   18  C25 UNL     1     -15.123  44.663 -24.972  1.00  0.00     0.021 A 
HETATM   19  C26 UNL     1     -14.561  45.603 -26.026  1.00  0.00    -0.027 A 
HETATM   20  C27 UNL     1     -13.621  46.713 -25.539  1.00  0.00     0.011 C 
HETATM   21  C28 UNL     1     -12.123  46.591 -25.877  1.00  0.00     0.011 C 
HETATM   22  C29 UNL     1     -11.775  45.447 -26.836  1.00  0.00    -0.032 C 
HETATM   23  C30 UNL     1     -11.696  44.140 -26.002  1.00  0.00     0.016 C 
ENDROOT
BRANCH   1  24
HETATM   24  C2  UNL     1      -9.028  45.485 -27.103  1.00  0.00    -0.014 C 
HETATM   25  C1  UNL     1      -8.878  45.522 -25.576  1.00  0.00     0.010 C 
BRANCH  24  26
HETATM   26  C3  UNL     1      -8.043  46.471 -27.777  1.00  0.00     0.007 C 
BRANCH  26  27
HETATM   27  C4  UNL     1      -7.054  45.782 -28.735  1.00  0.00     0.035 C 
BRANCH  27  28
HETATM   28  C5  UNL     1      -6.783  46.568 -30.029  1.00  0.00     0.154 C 
BRANCH  28  29
HETATM   29  O1  UNL     1      -5.845  45.806 -30.805  1.00  0.00    -0.392 OA
HETATM   30  H10 UNL     1      -6.312  45.057 -31.209  1.00  0.00     0.210 HD
ENDBRANCH  28  29
BRANCH  28  31
HETATM   31  C6  UNL     1      -6.204  48.007 -29.804  1.00  0.00     0.101 C 
HETATM   32  C7  UNL     1      -5.230  47.990 -28.610  1.00  0.00     0.051 C 
BRANCH  31  33
HETATM   33  O2  UNL     1      -7.226  48.958 -29.455  1.00  0.00    -0.385 OA
HETATM   34  H14 UNL     1      -8.031  48.740 -29.956  1.00  0.00     0.210 HD
ENDBRANCH  31  33
BRANCH  31  35
HETATM   35  C8  UNL     1      -5.473  48.531 -31.061  1.00  0.00     0.204 C 
BRANCH  35  36
HETATM   36  O3  UNL     1      -4.622  49.639 -30.783  1.00  0.00    -0.398 OA
HETATM   37  H17 UNL     1      -5.193  50.408 -30.614  1.00  0.00     0.209 HD
ENDBRANCH  35  36
ENDBRANCH  31  35
ENDBRANCH  28  31
ENDBRANCH  27  28
ENDBRANCH  26  27
ENDBRANCH  24  26
ENDBRANCH   1  24
TORSDOF 9
ENDMDL
MODEL 8
REMARK minimizedAffinity -8.38736343
REMARK CNNscore 0.261406481
REMARK CNNaffinity 6.43187284
REMARK  9 active torsions:
REMARK  status: ('A' for Active; 'I' for Inactive)
REMARK    1  A    between atoms: C2_2  and  C3_3 
REMARK    2  A    between atoms: C2_2  and  C9_12 
REMARK    3  A    between atoms: C3_3  and  C4_4 
REMARK    4  A    between atoms: C4_4  and  C5_5 
REMARK    5  A    between atoms: C5_5  and  O1_6 
REMARK    6  A    between atoms: C5_5  and  C6_7 
REMARK    7  A    between atoms: C6_7  and  O2_9 
REMARK    8  A    between atoms: C6_7  and  C8_10 
REMARK    9  A    between atoms: C8_10  and  O3_11 
ROOT
HETATM    1  C9  UNL     1      -3.515  50.371 -24.641  1.00  0.00    -0.002 C 
HETATM    2  C10 UNL     1      -4.675  51.394 -24.495  1.00  0.00     0.006 C 
HETATM    3  C11 UNL     1      -5.456  51.016 -23.223  1.00  0.00     0.011 C 
HETATM    4  C12 UNL     1      -4.575  49.982 -22.490  1.00  0.00    -0.032 C 
HETATM    5  C13 UNL     1      -3.541  50.785 -21.638  1.00  0.00     0.016 C 
HETATM    6  C14 UNL     1      -5.362  49.003 -21.578  1.00  0.00     0.004 C 
HETATM    7  C15 UNL     1      -5.886  49.628 -20.274  1.00  0.00     0.007 C 
HETATM    8  C16 UNL     1      -6.746  48.615 -19.520  1.00  0.00     0.007 C 
HETATM    9  C17 UNL     1      -5.875  47.469 -18.978  1.00  0.00     0.010 C 
HETATM   10  C18 UNL     1      -6.661  46.339 -18.230  1.00  0.00     0.018 C 
HETATM   11  C19 UNL     1      -7.135  46.844 -16.856  1.00  0.00     0.023 C 
HETATM   12  C20 UNL     1      -7.881  45.810 -19.008  1.00  0.00     0.023 C 
HETATM   13  C21 UNL     1      -5.709  45.156 -17.976  1.00  0.00     0.135 C 
HETATM   14  O4  UNL     1      -6.119  44.024 -17.718  1.00  0.00    -0.297 OA
HETATM   15  C22 UNL     1      -4.231  45.453 -18.011  1.00  0.00     0.080 C 
HETATM   16  C23 UNL     1      -3.844  45.978 -19.387  1.00  0.00     0.018 C 
HETATM   17  C24 UNL     1      -4.917  46.874 -20.018  1.00  0.00    -0.026 A 
HETATM   18  C25 UNL     1      -5.432  46.432 -21.366  1.00  0.00     0.021 A 
HETATM   19  C26 UNL     1      -4.583  47.691 -21.301  1.00  0.00    -0.027 A 
HETATM   20  C27 UNL     1      -3.150  47.594 -21.839  1.00  0.00     0.011 C 
HETATM   21  C28 UNL     1      -2.826  48.305 -23.165  1.00  0.00     0.011 C 
HETATM   22  C29 UNL     1      -3.952  49.196 -23.705  1.00  0.00    -0.032 C 
HETATM   23  C30 UNL     1      -4.967  48.279 -24.440  1.00  0.00     0.016 C 
ENDROOT
BRANCH   1  24
HETATM   24  C2  UNL     1      -3.048  50.190 -26.116  1.00  0.00    -0.014 C 
HETATM   25  C1  UNL     1      -3.438  48.883 -26.818  1.00  0.00     0.010 C 
BRANCH  24  26
HETATM   26  C3  UNL     1      -1.534  50.472 -26.276  1.00  0.00     0.007 C 
BRANCH  26  27
HETATM   27  C4  UNL     1      -0.914  51.172 -25.053  1.00  0.00     0.035 C 
BRANCH  27  28
HETATM   28  C5  UNL     1      -0.764  52.694 -25.211  1.00  0.00     0.154 C 
BRANCH  28  29
HETATM   29  O1  UNL     1      -2.060  53.277 -24.999  1.00  0.00    -0.392 OA
HETATM   30  H10 UNL     1      -2.253  53.268 -24.048  1.00  0.00     0.210 HD
ENDBRANCH  28  29
BRANCH  28  31
HETATM   31  C6  UNL     1      -0.225  53.151 -26.610  1.00  0.00     0.101 C 
HETATM   32  C7  UNL     1       1.026  52.329 -26.973  1.00  0.00     0.051 C 
BRANCH  31  33
HETATM   33  O2  UNL     1       0.203  54.525 -26.607  1.00  0.00    -0.385 OA
HETATM   34  H14 UNL     1      -0.398  55.032 -26.036  1.00  0.00     0.210 HD
ENDBRANCH  31  33
BRANCH  31  35
HETATM   35  C8  UNL     1      -1.293  52.985 -27.715  1.00  0.00     0.204 C 
BRANCH  35  36
HETATM   36  O3  UNL     1      -1.721  54.230 -28.259  1.00  0.00    -0.398 OA
HETATM   37  H17 UNL     1      -2.271  54.667 -27.587  1.00  0.00     0.209 HD
ENDBRANCH  35  36
ENDBRANCH  31  35
ENDBRANCH  28  31
ENDBRANCH  27  28
ENDBRANCH  26  27
ENDBRANCH  24  26
ENDBRANCH   1  24
TORSDOF 9
ENDMDL
MODEL 9
REMARK minimizedAffinity -9.19326878
REMARK CNNscore 0.239074424
REMARK CNNaffinity 6.79947662
REMARK  9 active torsions:
REMARK  status: ('A' for Active; 'I' for Inactive)
REMARK    1  A    between atoms: C2_2  and  C3_3 
REMARK    2  A    between atoms: C2_2  and  C9_12 
REMARK    3  A    between atoms: C3_3  and  C4_4 
REMARK    4  A    between atoms: C4_4  and  C5_5 
REMARK    5  A    between atoms: C5_5  and  O1_6 
REMARK    6  A    between atoms: C5_5  and  C6_7 
REMARK    7  A    between atoms: C6_7  and  O2_9 
REMARK    8  A    between atoms: C6_7  and  C8_10 
REMARK    9  A    between atoms: C8_10  and  O3_11 
ROOT
HETATM    1  C9  UNL     1      -0.748  49.993 -17.979  1.00  0.00    -0.002 C 
HETATM    2  C10 UNL     1      -1.950  49.010 -17.930  1.00  0.00     0.006 C 
HETATM    3  C11 UNL     1      -2.477  48.863 -19.368  1.00  0.00     0.011 C 
HETATM    4  C12 UNL     1      -1.404  49.512 -20.268  1.00  0.00    -0.032 C 
HETATM    5  C13 UNL     1      -0.315  48.426 -20.538  1.00  0.00     0.016 C 
HETATM    6  C14 UNL     1      -1.946  50.060 -21.616  1.00  0.00     0.004 C 
HETATM    7  C15 UNL     1      -2.299  48.977 -22.649  1.00  0.00     0.007 C 
HETATM    8  C16 UNL     1      -2.935  49.619 -23.881  1.00  0.00     0.007 C 
HETATM    9  C17 UNL     1      -1.895  50.448 -24.653  1.00  0.00     0.010 C 
HETATM   10  C18 UNL     1      -2.449  51.199 -25.911  1.00  0.00     0.018 C 
HETATM   11  C19 UNL     1      -2.732  50.198 -27.044  1.00  0.00     0.023 C 
HETATM   12  C20 UNL     1      -3.732  52.007 -25.637  1.00  0.00     0.023 C 
HETATM   13  C21 UNL     1      -1.373  52.174 -26.422  1.00  0.00     0.135 C 
HETATM   14  O4  UNL     1      -1.639  53.116 -27.169  1.00  0.00    -0.297 OA
HETATM   15  C22 UNL     1       0.049  51.896 -26.004  1.00  0.00     0.080 C 
HETATM   16  C23 UNL     1       0.159  51.954 -24.487  1.00  0.00     0.018 C 
HETATM   17  C24 UNL     1      -1.074  51.393 -23.767  1.00  0.00    -0.026 A 
HETATM   18  C25 UNL     1      -1.765  52.339 -22.815  1.00  0.00     0.021 A 
HETATM   19  C26 UNL     1      -1.025  51.147 -22.231  1.00  0.00    -0.027 A 
HETATM   20  C27 UNL     1       0.304  51.431 -21.519  1.00  0.00     0.011 C 
HETATM   21  C28 UNL     1       0.344  51.299 -19.985  1.00  0.00     0.011 C 
HETATM   22  C29 UNL     1      -0.925  50.707 -19.360  1.00  0.00    -0.032 C 
HETATM   23  C30 UNL     1      -1.967  51.852 -19.237  1.00  0.00     0.016 C 
ENDROOT
BRANCH   1  24
HETATM   24  C2  UNL     1      -0.516  50.737 -16.630  1.00  0.00    -0.014 C 
HETATM   25  C1  UNL     1       0.791  50.442 -15.883  1.00  0.00     0.010 C 
BRANCH  24  26
HETATM   26  C3  UNL     1      -1.734  50.602 -15.685  1.00  0.00     0.007 C 
BRANCH  26  27
HETATM   27  C4  UNL     1      -1.366  50.737 -14.196  1.00  0.00     0.035 C 
BRANCH  27  28
HETATM   28  C5  UNL     1      -1.958  51.982 -13.514  1.00  0.00     0.154 C 
BRANCH  28  29
HETATM   29  O1  UNL     1      -0.867  52.709 -12.928  1.00  0.00    -0.392 OA
HETATM   30  H10 UNL     1      -0.386  53.170 -13.634  1.00  0.00     0.210 HD
ENDBRANCH  28  29
BRANCH  28  31
HETATM   31  C6  UNL     1      -3.016  51.670 -12.400  1.00  0.00     0.101 C 
HETATM   32  C7  UNL     1      -2.293  51.208 -11.119  1.00  0.00     0.051 C 
BRANCH  31  33
HETATM   33  O2  UNL     1      -3.887  50.584 -12.765  1.00  0.00    -0.385 OA
HETATM   34  H14 UNL     1      -4.066  50.642 -13.719  1.00  0.00     0.210 HD
ENDBRANCH  31  33
BRANCH  31  35
HETATM   35  C8  UNL     1      -3.893  52.902 -12.085  1.00  0.00     0.204 C 
BRANCH  35  36
HETATM   36  O3  UNL     1      -4.252  53.636 -13.252  1.00  0.00    -0.398 OA
HETATM   37  H17 UNL     1      -3.454  54.099 -13.561  1.00  0.00     0.209 HD
ENDBRANCH  35  36
ENDBRANCH  31  35
ENDBRANCH  28  31
ENDBRANCH  27  28
ENDBRANCH  26  27
ENDBRANCH  24  26
ENDBRANCH   1  24
TORSDOF 9
ENDMDL
