MODEL 1
REMARK minimizedAffinity -9.04904938
REMARK CNNscore 0.798523366
REMARK CNNaffinity 6.55956507
REMARK  14 active torsions:
REMARK  status: ('A' for Active; 'I' for Inactive)
REMARK    1  A    between atoms: C2_2  and  O1_3 
REMARK    2  A    between atoms: O1_3  and  C3_4 
REMARK    3  A    between atoms: C4_6  and  C5_7 
REMARK    4  A    between atoms: C5_7  and  O3_8 
REMARK    5  A    between atoms: C5_7  and  C6_9 
REMARK    6  A    between atoms: C6_9  and  O4_10 
REMARK    7  A    between atoms: O4_10  and  C7_11 
REMARK    8  A    between atoms: C12_16  and  C13_17 
REMARK    9  A    between atoms: C13_17  and  O5_19 
REMARK   10  A    between atoms: C13_17  and  C15_20 
REMARK   11  A    between atoms: C15_20  and  O6_21 
REMARK   12  A    between atoms: C18_24  and  O7_26 
REMARK   13  A    between atoms: C22_29  and  O8_30 
REMARK   14  A    between atoms: C23_31  and  O9_32 
ROOT
HETATM    1  C7  UNL     1      -0.134  52.023 -22.201  1.00  0.00     0.126 C 
HETATM    2  C8  UNL     1      -1.579  51.568 -22.080  1.00  0.00     0.040 C 
HETATM    3  C9  UNL     1      -1.771  51.264 -20.578  1.00  0.00     0.026 C 
HETATM    4  C10 UNL     1      -0.726  52.157 -19.844  1.00  0.00    -0.001 C 
HETATM    5  C11 UNL     1       0.209  51.519 -18.807  1.00  0.00     0.013 C 
HETATM    6  C12 UNL     1      -0.495  50.943 -17.562  1.00  0.00     0.022 C 
HETATM    7  C16 UNL     1      -1.025  49.520 -17.832  1.00  0.00     0.010 C 
HETATM    8  C17 UNL     1      -2.186  49.448 -18.814  1.00  0.00     0.038 C 
HETATM    9  C18 UNL     1      -1.876  49.746 -20.290  1.00  0.00     0.058 C 
HETATM   10  C19 UNL     1      -0.725  48.892 -20.836  1.00  0.00     0.046 C 
HETATM   11  C20 UNL     1       0.002  52.933 -20.982  1.00  0.00     0.015 C 
HETATM   12  C21 UNL     1       1.445  53.362 -20.744  1.00  0.00     0.013 C 
ENDROOT
BRANCH   1  13
HETATM   13  O4  UNL     1       0.093  52.761 -23.395  1.00  0.00    -0.383 OA
BRANCH  13  14
HETATM   14  C6  UNL     1       0.178  51.916 -24.553  1.00  0.00     0.202 C 
BRANCH  14  15
HETATM   15  C5  UNL     1      -0.176  52.771 -25.775  1.00  0.00     0.173 C 
BRANCH  15  16
HETATM   16  C4  UNL     1      -0.935  51.969 -26.844  1.00  0.00     0.187 C 
HETATM   17  O2  UNL     1      -0.911  50.559 -26.501  1.00  0.00    -0.348 OA
HETATM   18  C3  UNL     1      -2.269  50.098 -26.402  1.00  0.00     0.291 C 
HETATM   19  C23 UNL     1      -3.056  51.005 -27.355  1.00  0.00     0.204 C 
HETATM   20  C22 UNL     1      -2.406  52.355 -27.087  1.00  0.00     0.183 C 
BRANCH  18  21
HETATM   21  O1  UNL     1      -2.766  50.234 -25.075  1.00  0.00    -0.359 OA
BRANCH  21  22
HETATM   22  C2  UNL     1      -3.380  49.036 -24.608  1.00  0.00     0.166 C 
HETATM   23  C1  UNL     1      -3.891  48.266 -25.811  1.00  0.00     0.033 C 
ENDBRANCH  21  22
ENDBRANCH  18  21
BRANCH  19  24
HETATM   24  O9  UNL     1      -2.848  50.624 -28.725  1.00  0.00    -0.388 OA
HETATM   25  H42 UNL     1      -1.931  50.300 -28.810  1.00  0.00     0.210 HD
ENDBRANCH  19  24
BRANCH  20  26
HETATM   26  O8  UNL     1      -3.025  53.003 -25.978  1.00  0.00    -0.390 OA
HETATM   27  H40 UNL     1      -2.681  52.565 -25.165  1.00  0.00     0.210 HD
ENDBRANCH  20  26
ENDBRANCH  15  16
BRANCH  15  28
HETATM   28  O3  UNL     1       1.033  53.339 -26.312  1.00  0.00    -0.391 OA
HETATM   29  H9  UNL     1       1.510  53.686 -25.531  1.00  0.00     0.210 HD
ENDBRANCH  15  28
ENDBRANCH  14  15
ENDBRANCH  13  14
ENDBRANCH   1  13
BRANCH   9  30
HETATM   30  O7  UNL     1      -3.050  49.316 -21.022  1.00  0.00    -0.390 OA
HETATM   31  H34 UNL     1      -3.184  48.367 -20.852  1.00  0.00     0.210 HD
ENDBRANCH   9  30
BRANCH   6  32
HETATM   32  C13 UNL     1       0.430  50.968 -16.287  1.00  0.00     0.079 C 
HETATM   33  C14 UNL     1       0.863  49.573 -15.827  1.00  0.00     0.048 C 
BRANCH  32  34
HETATM   34  O5  UNL     1      -0.325  51.552 -15.208  1.00  0.00    -0.388 OA
HETATM   35  H23 UNL     1      -0.363  52.508 -15.409  1.00  0.00     0.210 HD
ENDBRANCH  32  34
BRANCH  32  36
HETATM   36  C15 UNL     1       1.681  51.866 -16.454  1.00  0.00     0.201 C 
BRANCH  36  37
HETATM   37  O6  UNL     1       1.383  53.190 -16.004  1.00  0.00    -0.398 OA
HETATM   38  H26 UNL     1       2.203  53.708 -16.093  1.00  0.00     0.209 HD
ENDBRANCH  36  37
ENDBRANCH  32  36
ENDBRANCH   6  32
TORSDOF 14
ENDMDL
MODEL 2
REMARK minimizedAffinity -8.91423988
REMARK CNNscore 0.765660107
REMARK CNNaffinity 6.56083727
REMARK  14 active torsions:
REMARK  status: ('A' for Active; 'I' for Inactive)
REMARK    1  A    between atoms: C2_2  and  O1_3 
REMARK    2  A    between atoms: O1_3  and  C3_4 
REMARK    3  A    between atoms: C4_6  and  C5_7 
REMARK    4  A    between atoms: C5_7  and  O3_8 
REMARK    5  A    between atoms: C5_7  and  C6_9 
REMARK    6  A    between atoms: C6_9  and  O4_10 
REMARK    7  A    between atoms: O4_10  and  C7_11 
REMARK    8  A    between atoms: C12_16  and  C13_17 
REMARK    9  A    between atoms: C13_17  and  O5_19 
REMARK   10  A    between atoms: C13_17  and  C15_20 
REMARK   11  A    between atoms: C15_20  and  O6_21 
REMARK   12  A    between atoms: C18_24  and  O7_26 
REMARK   13  A    between atoms: C22_29  and  O8_30 
REMARK   14  A    between atoms: C23_31  and  O9_32 
ROOT
HETATM    1  C7  UNL     1      -0.992  52.122 -22.273  1.00  0.00     0.126 C 
HETATM    2  C8  UNL     1       0.409  52.655 -22.018  1.00  0.00     0.040 C 
HETATM    3  C9  UNL     1       0.807  52.073 -20.644  1.00  0.00     0.026 C 
HETATM    4  C10 UNL     1      -0.027  50.765 -20.497  1.00  0.00    -0.001 C 
HETATM    5  C11 UNL     1      -0.840  50.535 -19.216  1.00  0.00     0.013 C 
HETATM    6  C12 UNL     1      -0.003  50.401 -17.928  1.00  0.00     0.022 C 
HETATM    7  C16 UNL     1       0.351  51.787 -17.350  1.00  0.00     0.010 C 
HETATM    8  C17 UNL     1       1.333  52.595 -18.187  1.00  0.00     0.038 C 
HETATM    9  C18 UNL     1       0.822  53.147 -19.528  1.00  0.00     0.058 C 
HETATM   10  C19 UNL     1      -0.471  53.958 -19.379  1.00  0.00     0.046 C 
HETATM   11  C20 UNL     1      -0.854  50.672 -21.814  1.00  0.00     0.015 C 
HETATM   12  C21 UNL     1      -2.198  49.955 -21.764  1.00  0.00     0.013 C 
ENDROOT
BRANCH   1  13
HETATM   13  O4  UNL     1      -1.338  52.173 -23.651  1.00  0.00    -0.383 OA
BRANCH  13  14
HETATM   14  C6  UNL     1      -0.241  51.812 -24.504  1.00  0.00     0.202 C 
BRANCH  14  15
HETATM   15  C5  UNL     1      -0.350  52.657 -25.778  1.00  0.00     0.173 C 
BRANCH  15  16
HETATM   16  C4  UNL     1      -1.094  51.921 -26.902  1.00  0.00     0.187 C 
HETATM   17  O2  UNL     1      -1.026  50.490 -26.672  1.00  0.00    -0.348 OA
HETATM   18  C3  UNL     1      -2.369  49.982 -26.601  1.00  0.00     0.291 C 
HETATM   19  C23 UNL     1      -3.191  50.937 -27.474  1.00  0.00     0.204 C 
HETATM   20  C22 UNL     1      -2.578  52.280 -27.104  1.00  0.00     0.183 C 
BRANCH  18  21
HETATM   21  O1  UNL     1      -2.858  49.998 -25.264  1.00  0.00    -0.359 OA
BRANCH  21  22
HETATM   22  C2  UNL     1      -3.343  48.722 -24.857  1.00  0.00     0.166 C 
HETATM   23  C1  UNL     1      -4.512  48.352 -25.749  1.00  0.00     0.033 C 
ENDBRANCH  21  22
ENDBRANCH  18  21
BRANCH  19  24
HETATM   24  O9  UNL     1      -2.984  50.672 -28.871  1.00  0.00    -0.388 OA
HETATM   25  H42 UNL     1      -2.060  50.383 -28.987  1.00  0.00     0.210 HD
ENDBRANCH  19  24
BRANCH  20  26
HETATM   26  O8  UNL     1      -3.206  52.820 -25.943  1.00  0.00    -0.390 OA
HETATM   27  H40 UNL     1      -2.842  52.329 -25.169  1.00  0.00     0.210 HD
ENDBRANCH  20  26
ENDBRANCH  15  16
BRANCH  15  28
HETATM   28  O3  UNL     1       0.974  53.041 -26.197  1.00  0.00    -0.391 OA
HETATM   29  H9  UNL     1       1.410  53.354 -25.378  1.00  0.00     0.210 HD
ENDBRANCH  15  28
ENDBRANCH  14  15
ENDBRANCH  13  14
ENDBRANCH   1  13
BRANCH   9  30
HETATM   30  O7  UNL     1       1.824  54.103 -19.955  1.00  0.00    -0.390 OA
HETATM   31  H34 UNL     1       1.899  54.791 -19.271  1.00  0.00     0.210 HD
ENDBRANCH   9  30
BRANCH   6  32
HETATM   32  C13 UNL     1      -0.711  49.502 -16.845  1.00  0.00     0.079 C 
HETATM   33  C14 UNL     1      -1.103  50.274 -15.582  1.00  0.00     0.048 C 
BRANCH  32  34
HETATM   34  O5  UNL     1       0.224  48.482 -16.442  1.00  0.00    -0.388 OA
HETATM   35  H23 UNL     1       0.256  47.853 -17.190  1.00  0.00     0.210 HD
ENDBRANCH  32  34
BRANCH  32  36
HETATM   36  C15 UNL     1      -1.947  48.743 -17.389  1.00  0.00     0.201 C 
BRANCH  36  37
HETATM   37  O6  UNL     1      -1.942  47.403 -16.892  1.00  0.00    -0.398 OA
HETATM   38  H26 UNL     1      -2.750  46.977 -17.227  1.00  0.00     0.209 HD
ENDBRANCH  36  37
ENDBRANCH  32  36
ENDBRANCH   6  32
TORSDOF 14
ENDMDL
MODEL 3
REMARK minimizedAffinity -6.95561266
REMARK CNNscore 0.667948246
REMARK CNNaffinity 5.83410025
REMARK  14 active torsions:
REMARK  status: ('A' for Active; 'I' for Inactive)
REMARK    1  A    between atoms: C2_2  and  O1_3 
REMARK    2  A    between atoms: O1_3  and  C3_4 
REMARK    3  A    between atoms: C4_6  and  C5_7 
REMARK    4  A    between atoms: C5_7  and  O3_8 
REMARK    5  A    between atoms: C5_7  and  C6_9 
REMARK    6  A    between atoms: C6_9  and  O4_10 
REMARK    7  A    between atoms: O4_10  and  C7_11 
REMARK    8  A    between atoms: C12_16  and  C13_17 
REMARK    9  A    between atoms: C13_17  and  O5_19 
REMARK   10  A    between atoms: C13_17  and  C15_20 
REMARK   11  A    between atoms: C15_20  and  O6_21 
REMARK   12  A    between atoms: C18_24  and  O7_26 
REMARK   13  A    between atoms: C22_29  and  O8_30 
REMARK   14  A    between atoms: C23_31  and  O9_32 
ROOT
HETATM    1  C7  UNL     1      -2.765  49.529 -21.549  1.00  0.00     0.126 C 
HETATM    2  C8  UNL     1      -2.595  50.830 -20.782  1.00  0.00     0.040 C 
HETATM    3  C9  UNL     1      -1.897  51.785 -21.776  1.00  0.00     0.026 C 
HETATM    4  C10 UNL     1      -2.299  51.266 -23.190  1.00  0.00    -0.001 C 
HETATM    5  C11 UNL     1      -1.203  51.022 -24.237  1.00  0.00     0.013 C 
HETATM    6  C12 UNL     1      -0.433  52.282 -24.681  1.00  0.00     0.022 C 
HETATM    7  C16 UNL     1       0.706  52.612 -23.695  1.00  0.00     0.010 C 
HETATM    8  C17 UNL     1       0.244  53.088 -22.324  1.00  0.00     0.038 C 
HETATM    9  C18 UNL     1      -0.416  52.047 -21.406  1.00  0.00     0.058 C 
HETATM   10  C19 UNL     1       0.446  50.792 -21.219  1.00  0.00     0.046 C 
HETATM   11  C20 UNL     1      -3.219  50.039 -22.916  1.00  0.00     0.015 C 
HETATM   12  C21 UNL     1      -3.257  48.929 -23.959  1.00  0.00     0.013 C 
ENDROOT
BRANCH   1  13
HETATM   13  O4  UNL     1      -3.767  48.700 -20.975  1.00  0.00    -0.383 OA
BRANCH  13  14
HETATM   14  C6  UNL     1      -4.775  49.457 -20.286  1.00  0.00     0.202 C 
BRANCH  14  15
HETATM   15  C5  UNL     1      -6.138  48.881 -20.684  1.00  0.00     0.173 C 
BRANCH  15  16
HETATM   16  C4  UNL     1      -7.208  49.126 -19.609  1.00  0.00     0.187 C 
HETATM   17  O2  UNL     1      -8.484  48.611 -20.070  1.00  0.00    -0.348 OA
HETATM   18  C3  UNL     1      -8.952  47.648 -19.111  1.00  0.00     0.291 C 
HETATM   19  C23 UNL     1      -8.343  48.099 -17.779  1.00  0.00     0.204 C 
HETATM   20  C22 UNL     1      -6.947  48.520 -18.217  1.00  0.00     0.183 C 
BRANCH  18  21
HETATM   21  O1  UNL     1      -8.503  46.336 -19.435  1.00  0.00    -0.359 OA
BRANCH  21  22
HETATM   22  C2  UNL     1      -9.136  45.341 -18.634  1.00  0.00     0.166 C 
HETATM   23  C1  UNL     1      -8.644  43.982 -19.093  1.00  0.00     0.033 C 
ENDBRANCH  21  22
ENDBRANCH  18  21
BRANCH  19  24
HETATM   24  O9  UNL     1      -9.049  49.229 -17.241  1.00  0.00    -0.388 OA
HETATM   25  H42 UNL     1      -9.352  49.776 -17.989  1.00  0.00     0.210 HD
ENDBRANCH  19  24
BRANCH  20  26
HETATM   26  O8  UNL     1      -6.062  47.402 -18.230  1.00  0.00    -0.390 OA
HETATM   27  H40 UNL     1      -6.269  46.885 -19.044  1.00  0.00     0.210 HD
ENDBRANCH  20  26
ENDBRANCH  15  16
BRANCH  15  28
HETATM   28  O3  UNL     1      -5.988  47.475 -20.956  1.00  0.00    -0.391 OA
HETATM   29  H9  UNL     1      -5.192  47.418 -21.524  1.00  0.00     0.210 HD
ENDBRANCH  15  28
ENDBRANCH  14  15
ENDBRANCH  13  14
ENDBRANCH   1  13
BRANCH   9  30
HETATM   30  O7  UNL     1      -0.472  52.669 -20.099  1.00  0.00    -0.390 OA
HETATM   31  H34 UNL     1       0.437  52.886 -19.826  1.00  0.00     0.210 HD
ENDBRANCH   9  30
BRANCH   6  32
HETATM   32  C13 UNL     1       0.113  52.161 -26.153  1.00  0.00     0.079 C 
HETATM   33  C14 UNL     1       0.294  50.711 -26.613  1.00  0.00     0.048 C 
BRANCH  32  34
HETATM   34  O5  UNL     1       1.414  52.779 -26.192  1.00  0.00    -0.388 OA
HETATM   35  H23 UNL     1       1.242  53.742 -26.153  1.00  0.00     0.210 HD
ENDBRANCH  32  34
BRANCH  32  36
HETATM   36  C15 UNL     1      -0.743  52.927 -27.192  1.00  0.00     0.201 C 
BRANCH  36  37
HETATM   37  O6  UNL     1      -0.139  52.819 -28.483  1.00  0.00    -0.398 OA
HETATM   38  H26 UNL     1      -0.726  53.282 -29.107  1.00  0.00     0.209 HD
ENDBRANCH  36  37
ENDBRANCH  32  36
ENDBRANCH   6  32
TORSDOF 14
ENDMDL
MODEL 4
REMARK minimizedAffinity -7.79667091
REMARK CNNscore 0.661123097
REMARK CNNaffinity 6.25901175
REMARK  14 active torsions:
REMARK  status: ('A' for Active; 'I' for Inactive)
REMARK    1  A    between atoms: C2_2  and  O1_3 
REMARK    2  A    between atoms: O1_3  and  C3_4 
REMARK    3  A    between atoms: C4_6  and  C5_7 
REMARK    4  A    between atoms: C5_7  and  O3_8 
REMARK    5  A    between atoms: C5_7  and  C6_9 
REMARK    6  A    between atoms: C6_9  and  O4_10 
REMARK    7  A    between atoms: O4_10  and  C7_11 
REMARK    8  A    between atoms: C12_16  and  C13_17 
REMARK    9  A    between atoms: C13_17  and  O5_19 
REMARK   10  A    between atoms: C13_17  and  C15_20 
REMARK   11  A    between atoms: C15_20  and  O6_21 
REMARK   12  A    between atoms: C18_24  and  O7_26 
REMARK   13  A    between atoms: C22_29  and  O8_30 
REMARK   14  A    between atoms: C23_31  and  O9_32 
ROOT
HETATM    1  C7  UNL     1      -4.462  48.737 -24.204  1.00  0.00     0.126 C 
HETATM    2  C8  UNL     1      -4.655  49.697 -23.042  1.00  0.00     0.040 C 
HETATM    3  C9  UNL     1      -3.594  50.797 -23.260  1.00  0.00     0.026 C 
HETATM    4  C10 UNL     1      -3.325  50.806 -24.796  1.00  0.00    -0.001 C 
HETATM    5  C11 UNL     1      -1.878  50.738 -25.302  1.00  0.00     0.013 C 
HETATM    6  C12 UNL     1      -0.996  51.945 -24.922  1.00  0.00     0.022 C 
HETATM    7  C16 UNL     1      -0.414  51.782 -23.503  1.00  0.00     0.010 C 
HETATM    8  C17 UNL     1      -1.438  51.875 -22.380  1.00  0.00     0.038 C 
HETATM    9  C18 UNL     1      -2.432  50.710 -22.240  1.00  0.00     0.058 C 
HETATM   10  C19 UNL     1      -1.736  49.347 -22.152  1.00  0.00     0.046 C 
HETATM   11  C20 UNL     1      -4.265  49.705 -25.369  1.00  0.00     0.015 C 
HETATM   12  C21 UNL     1      -3.832  48.989 -26.643  1.00  0.00     0.013 C 
ENDROOT
BRANCH   1  13
HETATM   13  O4  UNL     1      -5.611  47.928 -24.423  1.00  0.00    -0.383 OA
BRANCH  13  14
HETATM   14  C6  UNL     1      -6.596  48.085 -23.390  1.00  0.00     0.202 C 
BRANCH  14  15
HETATM   15  C5  UNL     1      -7.855  48.672 -24.037  1.00  0.00     0.173 C 
BRANCH  15  16
HETATM   16  C4  UNL     1      -8.206  47.976 -25.361  1.00  0.00     0.187 C 
HETATM   17  O2  UNL     1      -9.031  46.813 -25.094  1.00  0.00    -0.348 OA
HETATM   18  C3  UNL     1     -10.262  46.958 -25.823  1.00  0.00     0.291 C 
HETATM   19  C23 UNL     1      -9.892  47.811 -27.041  1.00  0.00     0.204 C 
HETATM   20  C22 UNL     1      -8.939  48.822 -26.419  1.00  0.00     0.183 C 
BRANCH  18  21
HETATM   21  O1  UNL     1     -11.249  47.623 -25.042  1.00  0.00    -0.359 OA
BRANCH  21  22
HETATM   22  C2  UNL     1     -12.144  46.706 -24.417  1.00  0.00     0.166 C 
HETATM   23  C1  UNL     1     -13.171  46.272 -25.445  1.00  0.00     0.033 C 
ENDBRANCH  21  22
ENDBRANCH  18  21
BRANCH  19  24
HETATM   24  O9  UNL     1      -9.201  47.032 -28.031  1.00  0.00    -0.388 OA
HETATM   25  H42 UNL     1      -8.659  46.369 -27.565  1.00  0.00     0.210 HD
ENDBRANCH  19  24
BRANCH  20  26
HETATM   26  O8  UNL     1      -9.658  49.928 -25.877  1.00  0.00    -0.390 OA
HETATM   27  H40 UNL     1     -10.048  49.623 -25.025  1.00  0.00     0.210 HD
ENDBRANCH  20  26
ENDBRANCH  15  16
BRANCH  15  28
HETATM   28  O3  UNL     1      -7.664  50.086 -24.228  1.00  0.00    -0.391 OA
HETATM   29  H9  UNL     1      -7.298  50.403 -23.377  1.00  0.00     0.210 HD
ENDBRANCH  15  28
ENDBRANCH  14  15
ENDBRANCH  13  14
ENDBRANCH   1  13
BRANCH   9  30
HETATM   30  O7  UNL     1      -3.065  50.900 -20.950  1.00  0.00    -0.390 OA
HETATM   31  H34 UNL     1      -2.371  50.885 -20.267  1.00  0.00     0.210 HD
ENDBRANCH   9  30
BRANCH   6  32
HETATM   32  C13 UNL     1       0.147  52.205 -25.975  1.00  0.00     0.079 C 
HETATM   33  C14 UNL     1       0.826  50.920 -26.458  1.00  0.00     0.048 C 
BRANCH  32  34
HETATM   34  O5  UNL     1       1.162  53.002 -25.333  1.00  0.00    -0.388 OA
HETATM   35  H23 UNL     1       0.781  53.900 -25.270  1.00  0.00     0.210 HD
ENDBRANCH  32  34
BRANCH  32  36
HETATM   36  C15 UNL     1      -0.321  53.032 -27.198  1.00  0.00     0.201 C 
BRANCH  36  37
HETATM   37  O6  UNL     1      -0.476  52.170 -28.327  1.00  0.00    -0.398 OA
HETATM   38  H26 UNL     1      -0.803  52.722 -29.059  1.00  0.00     0.209 HD
ENDBRANCH  36  37
ENDBRANCH  32  36
ENDBRANCH   6  32
TORSDOF 14
ENDMDL
MODEL 5
REMARK minimizedAffinity -7.92799568
REMARK CNNscore 0.584370017
REMARK CNNaffinity 5.76154327
REMARK  14 active torsions:
REMARK  status: ('A' for Active; 'I' for Inactive)
REMARK    1  A    between atoms: C2_2  and  O1_3 
REMARK    2  A    between atoms: O1_3  and  C3_4 
REMARK    3  A    between atoms: C4_6  and  C5_7 
REMARK    4  A    between atoms: C5_7  and  O3_8 
REMARK    5  A    between atoms: C5_7  and  C6_9 
REMARK    6  A    between atoms: C6_9  and  O4_10 
REMARK    7  A    between atoms: O4_10  and  C7_11 
REMARK    8  A    between atoms: C12_16  and  C13_17 
REMARK    9  A    between atoms: C13_17  and  O5_19 
REMARK   10  A    between atoms: C13_17  and  C15_20 
REMARK   11  A    between atoms: C15_20  and  O6_21 
REMARK   12  A    between atoms: C18_24  and  O7_26 
REMARK   13  A    between atoms: C22_29  and  O8_30 
REMARK   14  A    between atoms: C23_31  and  O9_32 
ROOT
HETATM    1  C7  UNL     1      -2.627  51.537 -21.967  1.00  0.00     0.126 C 
HETATM    2  C8  UNL     1      -3.313  50.353 -22.629  1.00  0.00     0.040 C 
HETATM    3  C9  UNL     1      -2.543  50.140 -23.951  1.00  0.00     0.026 C 
HETATM    4  C10 UNL     1      -1.116  50.710 -23.688  1.00  0.00    -0.001 C 
HETATM    5  C11 UNL     1      -0.513  51.708 -24.687  1.00  0.00     0.013 C 
HETATM    6  C12 UNL     1      -0.264  51.145 -26.100  1.00  0.00     0.022 C 
HETATM    7  C16 UNL     1      -1.547  51.200 -26.955  1.00  0.00     0.010 C 
HETATM    8  C17 UNL     1      -2.648  50.246 -26.512  1.00  0.00     0.038 C 
HETATM    9  C18 UNL     1      -3.366  50.569 -25.191  1.00  0.00     0.058 C 
HETATM   10  C19 UNL     1      -3.917  51.999 -25.151  1.00  0.00     0.046 C 
HETATM   11  C20 UNL     1      -1.155  51.211 -22.214  1.00  0.00     0.015 C 
HETATM   12  C21 UNL     1      -0.240  52.368 -21.829  1.00  0.00     0.013 C 
ENDROOT
BRANCH   1  13
HETATM   13  O4  UNL     1      -2.892  51.594 -20.572  1.00  0.00    -0.383 OA
BRANCH  13  14
HETATM   14  C6  UNL     1      -3.506  50.392 -20.081  1.00  0.00     0.202 C 
BRANCH  14  15
HETATM   15  C5  UNL     1      -2.991  50.159 -18.657  1.00  0.00     0.173 C 
BRANCH  15  16
HETATM   16  C4  UNL     1      -3.880  49.182 -17.871  1.00  0.00     0.187 C 
HETATM   17  O2  UNL     1      -4.714  48.436 -18.794  1.00  0.00    -0.348 OA
HETATM   18  C3  UNL     1      -4.458  47.034 -18.597  1.00  0.00     0.291 C 
HETATM   19  C23 UNL     1      -4.035  46.921 -17.129  1.00  0.00     0.204 C 
HETATM   20  C22 UNL     1      -3.162  48.157 -16.973  1.00  0.00     0.183 C 
BRANCH  18  21
HETATM   21  O1  UNL     1      -3.411  46.577 -19.446  1.00  0.00    -0.359 OA
BRANCH  21  22
HETATM   22  C2  UNL     1      -3.856  45.567 -20.347  1.00  0.00     0.166 C 
HETATM   23  C1  UNL     1      -5.347  45.377 -20.148  1.00  0.00     0.033 C 
ENDBRANCH  21  22
ENDBRANCH  18  21
BRANCH  19  24
HETATM   24  O9  UNL     1      -5.170  47.009 -16.252  1.00  0.00    -0.388 OA
HETATM   25  H42 UNL     1      -5.812  47.622 -16.655  1.00  0.00     0.210 HD
ENDBRANCH  19  24
BRANCH  20  26
HETATM   26  O8  UNL     1      -1.819  47.882 -17.370  1.00  0.00    -0.390 OA
HETATM   27  H40 UNL     1      -1.810  47.878 -18.355  1.00  0.00     0.210 HD
ENDBRANCH  20  26
ENDBRANCH  15  16
BRANCH  15  28
HETATM   28  O3  UNL     1      -2.893  51.428 -17.984  1.00  0.00    -0.391 OA
HETATM   29  H9  UNL     1      -2.447  52.014 -18.629  1.00  0.00     0.210 HD
ENDBRANCH  15  28
ENDBRANCH  14  15
ENDBRANCH  13  14
ENDBRANCH   1  13
BRANCH   9  30
HETATM   30  O7  UNL     1      -4.532  49.710 -25.169  1.00  0.00    -0.390 OA
HETATM   31  H34 UNL     1      -5.076  49.916 -25.951  1.00  0.00     0.210 HD
ENDBRANCH   9  30
BRANCH   6  32
HETATM   32  C13 UNL     1       0.931  51.868 -26.829  1.00  0.00     0.079 C 
HETATM   33  C14 UNL     1       2.303  51.312 -26.437  1.00  0.00     0.048 C 
BRANCH  32  34
HETATM   34  O5  UNL     1       0.910  53.255 -26.436  1.00  0.00    -0.388 OA
HETATM   35  H23 UNL     1       0.155  53.647 -26.917  1.00  0.00     0.210 HD
ENDBRANCH  32  34
BRANCH  32  36
HETATM   36  C15 UNL     1       0.798  51.871 -28.373  1.00  0.00     0.201 C 
BRANCH  36  37
HETATM   37  O6  UNL     1       0.170  53.084 -28.796  1.00  0.00    -0.398 OA
HETATM   38  H26 UNL     1       0.140  53.059 -29.769  1.00  0.00     0.209 HD
ENDBRANCH  36  37
ENDBRANCH  32  36
ENDBRANCH   6  32
TORSDOF 14
ENDMDL
MODEL 6
REMARK minimizedAffinity -8.5262289
REMARK CNNscore 0.566376448
REMARK CNNaffinity 6.53205538
REMARK  14 active torsions:
REMARK  status: ('A' for Active; 'I' for Inactive)
REMARK    1  A    between atoms: C2_2  and  O1_3 
REMARK    2  A    between atoms: O1_3  and  C3_4 
REMARK    3  A    between atoms: C4_6  and  C5_7 
REMARK    4  A    between atoms: C5_7  and  O3_8 
REMARK    5  A    between atoms: C5_7  and  C6_9 
REMARK    6  A    between atoms: C6_9  and  O4_10 
REMARK    7  A    between atoms: O4_10  and  C7_11 
REMARK    8  A    between atoms: C12_16  and  C13_17 
REMARK    9  A    between atoms: C13_17  and  O5_19 
REMARK   10  A    between atoms: C13_17  and  C15_20 
REMARK   11  A    between atoms: C15_20  and  O6_21 
REMARK   12  A    between atoms: C18_24  and  O7_26 
REMARK   13  A    between atoms: C22_29  and  O8_30 
REMARK   14  A    between atoms: C23_31  and  O9_32 
ROOT
HETATM    1  C7  UNL     1      -0.606  51.758 -21.250  1.00  0.00     0.126 C 
HETATM    2  C8  UNL     1      -1.967  51.381 -20.688  1.00  0.00     0.040 C 
HETATM    3  C9  UNL     1      -1.776  51.385 -19.156  1.00  0.00     0.026 C 
HETATM    4  C10 UNL     1      -0.598  52.372 -18.894  1.00  0.00    -0.001 C 
HETATM    5  C11 UNL     1       0.576  51.920 -18.014  1.00  0.00     0.013 C 
HETATM    6  C12 UNL     1       0.213  51.623 -16.545  1.00  0.00     0.022 C 
HETATM    7  C16 UNL     1      -0.341  50.193 -16.388  1.00  0.00     0.010 C 
HETATM    8  C17 UNL     1      -1.708  49.966 -17.019  1.00  0.00     0.038 C 
HETATM    9  C18 UNL     1      -1.778  49.957 -18.555  1.00  0.00     0.058 C 
HETATM   10  C19 UNL     1      -0.783  48.977 -19.187  1.00  0.00     0.046 C 
HETATM   11  C20 UNL     1      -0.190  52.885 -20.307  1.00  0.00     0.015 C 
HETATM   12  C21 UNL     1       1.259  53.307 -20.521  1.00  0.00     0.013 C 
ENDROOT
BRANCH   1  13
HETATM   13  O4  UNL     1      -0.695  52.239 -22.584  1.00  0.00    -0.383 OA
BRANCH  13  14
HETATM   14  C6  UNL     1      -2.051  52.308 -23.052  1.00  0.00     0.202 C 
BRANCH  14  15
HETATM   15  C5  UNL     1      -2.121  51.544 -24.379  1.00  0.00     0.173 C 
BRANCH  15  16
HETATM   16  C4  UNL     1      -2.123  52.486 -25.592  1.00  0.00     0.187 C 
HETATM   17  O2  UNL     1      -1.132  53.528 -25.398  1.00  0.00    -0.348 OA
HETATM   18  C3  UNL     1      -0.211  53.484 -26.502  1.00  0.00     0.291 C 
HETATM   19  C23 UNL     1      -1.032  52.923 -27.668  1.00  0.00     0.204 C 
HETATM   20  C22 UNL     1      -1.851  51.849 -26.968  1.00  0.00     0.183 C 
BRANCH  18  21
HETATM   21  O1  UNL     1       0.890  52.626 -26.222  1.00  0.00    -0.359 OA
BRANCH  21  22
HETATM   22  C2  UNL     1       1.594  52.256 -27.404  1.00  0.00     0.166 C 
HETATM   23  C1  UNL     1       2.800  51.432 -26.998  1.00  0.00     0.033 C 
ENDBRANCH  21  22
ENDBRANCH  18  21
BRANCH  19  24
HETATM   24  O9  UNL     1      -1.905  53.924 -28.218  1.00  0.00    -0.388 OA
HETATM   25  H42 UNL     1      -2.199  54.499 -27.486  1.00  0.00     0.210 HD
ENDBRANCH  19  24
BRANCH  20  26
HETATM   26  O8  UNL     1      -1.127  50.622 -26.904  1.00  0.00    -0.390 OA
HETATM   27  H40 UNL     1      -0.461  50.723 -26.184  1.00  0.00     0.210 HD
ENDBRANCH  20  26
ENDBRANCH  15  16
BRANCH  15  28
HETATM   28  O3  UNL     1      -3.291  50.704 -24.371  1.00  0.00    -0.391 OA
HETATM   29  H9  UNL     1      -3.273  50.264 -23.497  1.00  0.00     0.210 HD
ENDBRANCH  15  28
ENDBRANCH  14  15
ENDBRANCH  13  14
ENDBRANCH   1  13
BRANCH   9  30
HETATM   30  O7  UNL     1      -3.089  49.429 -18.876  1.00  0.00    -0.390 OA
HETATM   31  H34 UNL     1      -3.159  48.537 -18.493  1.00  0.00     0.210 HD
ENDBRANCH   9  30
BRANCH   6  32
HETATM   32  C13 UNL     1       1.424  51.870 -15.569  1.00  0.00     0.079 C 
HETATM   33  C14 UNL     1       1.882  50.602 -14.843  1.00  0.00     0.048 C 
BRANCH  32  34
HETATM   34  O5  UNL     1       0.991  52.801 -14.557  1.00  0.00    -0.388 OA
HETATM   35  H23 UNL     1       0.956  53.669 -15.006  1.00  0.00     0.210 HD
ENDBRANCH  32  34
BRANCH  32  36
HETATM   36  C15 UNL     1       2.641  52.538 -16.256  1.00  0.00     0.201 C 
BRANCH  36  37
HETATM   37  O6  UNL     1       3.640  52.833 -15.277  1.00  0.00    -0.398 OA
HETATM   38  H26 UNL     1       4.397  53.216 -15.755  1.00  0.00     0.209 HD
ENDBRANCH  36  37
ENDBRANCH  32  36
ENDBRANCH   6  32
TORSDOF 14
ENDMDL
MODEL 7
REMARK minimizedAffinity -7.1320672
REMARK CNNscore 0.563517392
REMARK CNNaffinity 5.86634588
REMARK  14 active torsions:
REMARK  status: ('A' for Active; 'I' for Inactive)
REMARK    1  A    between atoms: C2_2  and  O1_3 
REMARK    2  A    between atoms: O1_3  and  C3_4 
REMARK    3  A    between atoms: C4_6  and  C5_7 
REMARK    4  A    between atoms: C5_7  and  O3_8 
REMARK    5  A    between atoms: C5_7  and  C6_9 
REMARK    6  A    between atoms: C6_9  and  O4_10 
REMARK    7  A    between atoms: O4_10  and  C7_11 
REMARK    8  A    between atoms: C12_16  and  C13_17 
REMARK    9  A    between atoms: C13_17  and  O5_19 
REMARK   10  A    between atoms: C13_17  and  C15_20 
REMARK   11  A    between atoms: C15_20  and  O6_21 
REMARK   12  A    between atoms: C18_24  and  O7_26 
REMARK   13  A    between atoms: C22_29  and  O8_30 
REMARK   14  A    between atoms: C23_31  and  O9_32 
ROOT
HETATM    1  C7  UNL     1      -0.802  51.963 -20.158  1.00  0.00     0.126 C 
HETATM    2  C8  UNL     1      -1.389  50.597 -20.470  1.00  0.00     0.040 C 
HETATM    3  C9  UNL     1      -1.160  50.407 -21.986  1.00  0.00     0.026 C 
HETATM    4  C10 UNL     1       0.080  51.290 -22.325  1.00  0.00    -0.001 C 
HETATM    5  C11 UNL     1      -0.002  52.277 -23.497  1.00  0.00     0.013 C 
HETATM    6  C12 UNL     1      -0.190  51.628 -24.884  1.00  0.00     0.022 C 
HETATM    7  C16 UNL     1      -1.676  51.318 -25.155  1.00  0.00     0.010 C 
HETATM    8  C17 UNL     1      -2.263  50.208 -24.294  1.00  0.00     0.038 C 
HETATM    9  C18 UNL     1      -2.472  50.515 -22.802  1.00  0.00     0.058 C 
HETATM   10  C19 UNL     1      -3.287  51.793 -22.569  1.00  0.00     0.046 C 
HETATM   11  C20 UNL     1       0.493  51.930 -20.966  1.00  0.00     0.015 C 
HETATM   12  C21 UNL     1       1.185  53.288 -20.999  1.00  0.00     0.013 C 
ENDROOT
BRANCH   1  13
HETATM   13  O4  UNL     1      -0.516  52.116 -18.774  1.00  0.00    -0.383 OA
BRANCH  13  14
HETATM   14  C6  UNL     1      -0.785  50.921 -18.024  1.00  0.00     0.202 C 
BRANCH  14  15
HETATM   15  C5  UNL     1      -0.092  51.062 -16.665  1.00  0.00     0.173 C 
BRANCH  15  16
HETATM   16  C4  UNL     1       0.604  49.764 -16.230  1.00  0.00     0.187 C 
HETATM   17  O2  UNL     1       1.331  49.994 -14.994  1.00  0.00    -0.348 OA
HETATM   18  C3  UNL     1       0.845  49.066 -14.009  1.00  0.00     0.291 C 
HETATM   19  C23 UNL     1       0.370  47.855 -14.819  1.00  0.00     0.204 C 
HETATM   20  C22 UNL     1      -0.295  48.533 -16.008  1.00  0.00     0.183 C 
BRANCH  18  21
HETATM   21  O1  UNL     1      -0.239  49.617 -13.271  1.00  0.00    -0.359 OA
BRANCH  21  22
HETATM   22  C2  UNL     1      -0.712  48.724 -12.266  1.00  0.00     0.166 C 
HETATM   23  C1  UNL     1      -0.922  49.514 -10.989  1.00  0.00     0.033 C 
ENDBRANCH  21  22
ENDBRANCH  18  21
BRANCH  19  24
HETATM   24  O9  UNL     1       1.480  47.060 -15.266  1.00  0.00    -0.388 OA
HETATM   25  H42 UNL     1       2.224  47.663 -15.451  1.00  0.00     0.210 HD
ENDBRANCH  19  24
BRANCH  20  26
HETATM   26  O8  UNL     1      -1.653  48.855 -15.713  1.00  0.00    -0.390 OA
HETATM   27  H40 UNL     1      -1.636  49.656 -15.139  1.00  0.00     0.210 HD
ENDBRANCH  20  26
ENDBRANCH  15  16
BRANCH  15  28
HETATM   28  O3  UNL     1      -1.064  51.483 -15.688  1.00  0.00    -0.391 OA
HETATM   29  H9  UNL     1      -1.550  52.212 -16.124  1.00  0.00     0.210 HD
ENDBRANCH  15  28
ENDBRANCH  14  15
ENDBRANCH  13  14
ENDBRANCH   1  13
BRANCH   9  30
HETATM   30  O7  UNL     1      -3.302  49.438 -22.301  1.00  0.00    -0.390 OA
HETATM   31  H34 UNL     1      -4.136  49.438 -22.804  1.00  0.00     0.210 HD
ENDBRANCH   9  30
BRANCH   6  32
HETATM   32  C13 UNL     1       0.425  52.502 -26.041  1.00  0.00     0.079 C 
HETATM   33  C14 UNL     1       1.656  51.864 -26.691  1.00  0.00     0.048 C 
BRANCH  32  34
HETATM   34  O5  UNL     1       0.853  53.752 -25.466  1.00  0.00    -0.388 OA
HETATM   35  H23 UNL     1       0.029  54.252 -25.296  1.00  0.00     0.210 HD
ENDBRANCH  32  34
BRANCH  32  36
HETATM   36  C15 UNL     1      -0.601  52.878 -27.139  1.00  0.00     0.201 C 
BRANCH  36  37
HETATM   37  O6  UNL     1      -0.237  52.248 -28.369  1.00  0.00    -0.398 OA
HETATM   38  H26 UNL     1      -0.925  52.480 -29.018  1.00  0.00     0.209 HD
ENDBRANCH  36  37
ENDBRANCH  32  36
ENDBRANCH   6  32
TORSDOF 14
ENDMDL
MODEL 8
REMARK minimizedAffinity -8.13936901
REMARK CNNscore 0.52478826
REMARK CNNaffinity 6.19688082
REMARK  14 active torsions:
REMARK  status: ('A' for Active; 'I' for Inactive)
REMARK    1  A    between atoms: C2_2  and  O1_3 
REMARK    2  A    between atoms: O1_3  and  C3_4 
REMARK    3  A    between atoms: C4_6  and  C5_7 
REMARK    4  A    between atoms: C5_7  and  O3_8 
REMARK    5  A    between atoms: C5_7  and  C6_9 
REMARK    6  A    between atoms: C6_9  and  O4_10 
REMARK    7  A    between atoms: O4_10  and  C7_11 
REMARK    8  A    between atoms: C12_16  and  C13_17 
REMARK    9  A    between atoms: C13_17  and  O5_19 
REMARK   10  A    between atoms: C13_17  and  C15_20 
REMARK   11  A    between atoms: C15_20  and  O6_21 
REMARK   12  A    between atoms: C18_24  and  O7_26 
REMARK   13  A    between atoms: C22_29  and  O8_30 
REMARK   14  A    between atoms: C23_31  and  O9_32 
ROOT
HETATM    1  C7  UNL     1      -4.220  49.172 -26.486  1.00  0.00     0.126 C 
HETATM    2  C8  UNL     1      -2.926  49.361 -27.260  1.00  0.00     0.040 C 
HETATM    3  C9  UNL     1      -1.894  49.804 -26.199  1.00  0.00     0.026 C 
HETATM    4  C10 UNL     1      -2.416  49.216 -24.853  1.00  0.00    -0.001 C 
HETATM    5  C11 UNL     1      -2.543  50.139 -23.633  1.00  0.00     0.013 C 
HETATM    6  C12 UNL     1      -1.212  50.720 -23.114  1.00  0.00     0.022 C 
HETATM    7  C16 UNL     1      -0.806  51.976 -23.911  1.00  0.00     0.010 C 
HETATM    8  C17 UNL     1      -0.400  51.711 -25.354  1.00  0.00     0.038 C 
HETATM    9  C18 UNL     1      -1.514  51.300 -26.331  1.00  0.00     0.058 C 
HETATM   10  C19 UNL     1      -2.693  52.280 -26.330  1.00  0.00     0.046 C 
HETATM   11  C20 UNL     1      -3.722  48.458 -25.231  1.00  0.00     0.015 C 
HETATM   12  C21 UNL     1      -4.810  48.337 -24.170  1.00  0.00     0.013 C 
ENDROOT
BRANCH   1  13
HETATM   13  O4  UNL     1      -5.145  48.350 -27.187  1.00  0.00    -0.383 OA
BRANCH  13  14
HETATM   14  C6  UNL     1      -4.746  48.115 -28.547  1.00  0.00     0.202 C 
BRANCH  14  15
HETATM   15  C5  UNL     1      -6.002  47.726 -29.335  1.00  0.00     0.173 C 
BRANCH  15  16
HETATM   16  C4  UNL     1      -5.754  47.710 -30.851  1.00  0.00     0.187 C 
HETATM   17  O2  UNL     1      -4.686  46.777 -31.158  1.00  0.00    -0.348 OA
HETATM   18  C3  UNL     1      -5.194  45.802 -32.085  1.00  0.00     0.291 C 
HETATM   19  C23 UNL     1      -6.292  46.539 -32.859  1.00  0.00     0.204 C 
HETATM   20  C22 UNL     1      -6.951  47.343 -31.747  1.00  0.00     0.183 C 
BRANCH  18  21
HETATM   21  O1  UNL     1      -5.744  44.679 -31.404  1.00  0.00    -0.359 OA
BRANCH  21  22
HETATM   22  C2  UNL     1      -5.748  43.510 -32.218  1.00  0.00     0.166 C 
HETATM   23  C1  UNL     1      -4.345  43.301 -32.753  1.00  0.00     0.033 C 
ENDBRANCH  21  22
ENDBRANCH  18  21
BRANCH  19  24
HETATM   24  O9  UNL     1      -5.731  47.427 -33.839  1.00  0.00    -0.388 OA
HETATM   25  H42 UNL     1      -4.896  47.782 -33.479  1.00  0.00     0.210 HD
ENDBRANCH  19  24
BRANCH  20  26
HETATM   26  O8  UNL     1      -7.952  46.569 -31.088  1.00  0.00    -0.390 OA
HETATM   27  H40 UNL     1      -7.479  45.945 -30.490  1.00  0.00     0.210 HD
ENDBRANCH  20  26
ENDBRANCH  15  16
BRANCH  15  28
HETATM   28  O3  UNL     1      -7.066  48.633 -28.992  1.00  0.00    -0.391 OA
HETATM   29  H9  UNL     1      -7.039  48.687 -28.015  1.00  0.00     0.210 HD
ENDBRANCH  15  28
ENDBRANCH  14  15
ENDBRANCH  13  14
ENDBRANCH   1  13
BRANCH   9  30
HETATM   30  O7  UNL     1      -0.926  51.411 -27.651  1.00  0.00    -0.390 OA
HETATM   31  H34 UNL     1      -0.638  52.332 -27.778  1.00  0.00     0.210 HD
ENDBRANCH   9  30
BRANCH   6  32
HETATM   32  C13 UNL     1      -1.254  51.022 -21.568  1.00  0.00     0.079 C 
HETATM   33  C14 UNL     1      -0.795  49.841 -20.709  1.00  0.00     0.048 C 
BRANCH  32  34
HETATM   34  O5  UNL     1      -2.624  51.294 -21.212  1.00  0.00    -0.388 OA
HETATM   35  H23 UNL     1      -2.808  52.188 -21.564  1.00  0.00     0.210 HD
ENDBRANCH  32  34
BRANCH  32  36
HETATM   36  C15 UNL     1      -0.460  52.290 -21.167  1.00  0.00     0.201 C 
BRANCH  36  37
HETATM   37  O6  UNL     1      -0.253  52.297 -19.753  1.00  0.00    -0.398 OA
HETATM   38  H26 UNL     1       0.279  53.088 -19.551  1.00  0.00     0.209 HD
ENDBRANCH  36  37
ENDBRANCH  32  36
ENDBRANCH   6  32
TORSDOF 14
ENDMDL
MODEL 9
REMARK minimizedAffinity -7.21610355
REMARK CNNscore 0.501996398
REMARK CNNaffinity 5.47160292
REMARK  14 active torsions:
REMARK  status: ('A' for Active; 'I' for Inactive)
REMARK    1  A    between atoms: C2_2  and  O1_3 
REMARK    2  A    between atoms: O1_3  and  C3_4 
REMARK    3  A    between atoms: C4_6  and  C5_7 
REMARK    4  A    between atoms: C5_7  and  O3_8 
REMARK    5  A    between atoms: C5_7  and  C6_9 
REMARK    6  A    between atoms: C6_9  and  O4_10 
REMARK    7  A    between atoms: O4_10  and  C7_11 
REMARK    8  A    between atoms: C12_16  and  C13_17 
REMARK    9  A    between atoms: C13_17  and  O5_19 
REMARK   10  A    between atoms: C13_17  and  C15_20 
REMARK   11  A    between atoms: C15_20  and  O6_21 
REMARK   12  A    between atoms: C18_24  and  O7_26 
REMARK   13  A    between atoms: C22_29  and  O8_30 
REMARK   14  A    between atoms: C23_31  and  O9_32 
ROOT
HETATM    1  C7  UNL     1      -1.639  49.900 -21.395  1.00  0.00     0.126 C 
HETATM    2  C8  UNL     1      -1.480  51.231 -20.679  1.00  0.00     0.040 C 
HETATM    3  C9  UNL     1      -1.150  52.243 -21.799  1.00  0.00     0.026 C 
HETATM    4  C10 UNL     1      -1.778  51.641 -23.092  1.00  0.00    -0.001 C 
HETATM    5  C11 UNL     1      -0.915  51.515 -24.355  1.00  0.00     0.013 C 
HETATM    6  C12 UNL     1      -0.435  52.853 -24.952  1.00  0.00     0.022 C 
HETATM    7  C16 UNL     1       0.837  53.355 -24.240  1.00  0.00     0.010 C 
HETATM    8  C17 UNL     1       0.626  53.801 -22.799  1.00  0.00     0.038 C 
HETATM    9  C18 UNL     1       0.328  52.706 -21.762  1.00  0.00     0.058 C 
HETATM   10  C19 UNL     1       1.369  51.581 -21.774  1.00  0.00     0.046 C 
HETATM   11  C20 UNL     1      -2.444  50.311 -22.626  1.00  0.00     0.015 C 
HETATM   12  C21 UNL     1      -2.561  49.179 -23.640  1.00  0.00     0.013 C 
ENDROOT
BRANCH   1  13
HETATM   13  O4  UNL     1      -2.371  48.962 -20.618  1.00  0.00    -0.383 OA
BRANCH  13  14
HETATM   14  C6  UNL     1      -1.832  48.807 -19.296  1.00  0.00     0.202 C 
BRANCH  14  15
HETATM   15  C5  UNL     1      -3.000  48.893 -18.308  1.00  0.00     0.173 C 
BRANCH  15  16
HETATM   16  C4  UNL     1      -2.535  48.783 -16.848  1.00  0.00     0.187 C 
HETATM   17  O2  UNL     1      -1.107  48.531 -16.811  1.00  0.00    -0.348 OA
HETATM   18  C3  UNL     1      -0.485  49.575 -16.044  1.00  0.00     0.291 C 
HETATM   19  C23 UNL     1      -1.567  50.027 -15.057  1.00  0.00     0.204 C 
HETATM   20  C22 UNL     1      -2.807  49.997 -15.939  1.00  0.00     0.183 C 
BRANCH  18  21
HETATM   21  O1  UNL     1      -0.095  50.664 -16.874  1.00  0.00    -0.359 OA
BRANCH  21  22
HETATM   22  C2  UNL     1       0.708  51.610 -16.174  1.00  0.00     0.166 C 
HETATM   23  C1  UNL     1       1.510  52.396 -17.193  1.00  0.00     0.033 C 
ENDBRANCH  21  22
ENDBRANCH  18  21
BRANCH  19  24
HETATM   24  O9  UNL     1      -1.710  49.088 -13.978  1.00  0.00    -0.388 OA
HETATM   25  H42 UNL     1      -1.544  48.195 -14.334  1.00  0.00     0.210 HD
ENDBRANCH  19  24
BRANCH  20  26
HETATM   26  O8  UNL     1      -2.955  51.227 -16.645  1.00  0.00    -0.390 OA
HETATM   27  H40 UNL     1      -2.306  51.208 -17.387  1.00  0.00     0.210 HD
ENDBRANCH  20  26
ENDBRANCH  15  16
BRANCH  15  28
HETATM   28  O3  UNL     1      -3.957  47.865 -18.627  1.00  0.00    -0.391 OA
HETATM   29  H9  UNL     1      -4.067  47.924 -19.598  1.00  0.00     0.210 HD
ENDBRANCH  15  28
ENDBRANCH  14  15
ENDBRANCH  13  14
ENDBRANCH   1  13
BRANCH   9  30
HETATM   30  O7  UNL     1       0.476  53.349 -20.472  1.00  0.00    -0.390 OA
HETATM   31  H34 UNL     1       1.386  53.690 -20.406  1.00  0.00     0.210 HD
ENDBRANCH   9  30
BRANCH   6  32
HETATM   32  C13 UNL     1      -0.213  52.767 -26.509  1.00  0.00     0.079 C 
HETATM   33  C14 UNL     1       0.858  51.748 -26.911  1.00  0.00     0.048 C 
BRANCH  32  34
HETATM   34  O5  UNL     1       0.243  54.057 -26.960  1.00  0.00    -0.388 OA
HETATM   35  H23 UNL     1      -0.547  54.633 -26.933  1.00  0.00     0.210 HD
ENDBRANCH  32  34
BRANCH  32  36
HETATM   36  C15 UNL     1      -1.514  52.485 -27.302  1.00  0.00     0.201 C 
BRANCH  36  37
HETATM   37  O6  UNL     1      -1.908  53.664 -28.008  1.00  0.00    -0.398 OA
HETATM   38  H26 UNL     1      -2.705  53.432 -28.518  1.00  0.00     0.209 HD
ENDBRANCH  36  37
ENDBRANCH  32  36
ENDBRANCH   6  32
TORSDOF 14
ENDMDL
