MODEL 1
REMARK minimizedAffinity -9.40240669
REMARK  6 active torsions:
REMARK  status: ('A' for Active; 'I' for Inactive)
REMARK    1  A    between atoms: C2_2  and  C4_4 
REMARK    2  A    between atoms: C4_4  and  O1_5 
REMARK    3  A    between atoms: C4_4  and  C5_6 
REMARK    4  A    between atoms: C5_6  and  C6_7 
REMARK    5  A    between atoms: C6_7  and  C7_8 
REMARK    6  A    between atoms: C7_8  and  C9_10 
ROOT
HETATM    1  C9  UNL     1       1.165   7.707  11.849  1.00  0.00    -0.001 C 
HETATM    2  C10 UNL     1       0.602   6.975  10.597  1.00  0.00     0.007 C 
HETATM    3  C11 UNL     1      -0.764   6.380  10.982  1.00  0.00     0.024 C 
HETATM    4  C12 UNL     1      -1.058   6.965  12.344  1.00  0.00     0.092 C 
HETATM    5  C13 UNL     1      -1.757   8.347  12.238  1.00  0.00     0.272 C 
HETATM    6  O2  UNL     1      -1.694   9.148  11.321  1.00  0.00    -0.264 OA
HETATM    7  O3  UNL     1      -2.496   8.553  13.388  1.00  0.00    -0.305 OA
HETATM    8  C14 UNL     1      -2.352   7.399  14.249  1.00  0.00     0.113 C 
HETATM    9  C15 UNL     1      -1.079   7.654  15.119  1.00  0.00     0.043 C 
HETATM   10  C16 UNL     1       0.177   8.026  14.281  1.00  0.00     0.014 C 
HETATM   11  C17 UNL     1       0.341   7.114  13.036  1.00  0.00    -0.020 C 
HETATM   12  C18 UNL     1       0.929   5.766  13.508  1.00  0.00     0.017 C 
HETATM   13  C19 UNL     1      -2.043   6.328  13.244  1.00  0.00     0.137 A 
HETATM   14  O4  UNL     1      -1.961   4.965  13.617  1.00  0.00    -0.364 OA
HETATM   15  C20 UNL     1      -3.078   5.325  12.781  1.00  0.00     0.162 A 
HETATM   16  C21 UNL     1      -4.418   5.278  13.450  1.00  0.00     0.042 C 
HETATM   17  C22 UNL     1      -4.784   6.671  14.007  1.00  0.00     0.014 C 
HETATM   18  C23 UNL     1      -6.279   6.849  14.440  1.00  0.00     0.018 C 
HETATM   19  C24 UNL     1      -7.213   6.605  13.232  1.00  0.00     0.023 C 
HETATM   20  C25 UNL     1      -6.731   5.937  15.588  1.00  0.00     0.023 C 
HETATM   21  C26 UNL     1      -6.499   8.305  14.884  1.00  0.00     0.135 C 
HETATM   22  O5  UNL     1      -7.620   8.739  15.154  1.00  0.00    -0.297 OA
HETATM   23  C27 UNL     1      -5.287   9.204  14.965  1.00  0.00     0.080 C 
HETATM   24  C28 UNL     1      -4.182   8.484  15.725  1.00  0.00     0.020 C 
HETATM   25  C29 UNL     1      -3.695   7.164  15.047  1.00  0.00    -0.004 C 
HETATM   26  C30 UNL     1      -3.430   6.143  16.186  1.00  0.00     0.019 C 
ENDROOT
BRANCH   1  27
HETATM   27  C7  UNL     1       2.721   7.809  11.856  1.00  0.00    -0.014 C 
HETATM   28  C8  UNL     1       3.323   9.218  11.927  1.00  0.00     0.010 C 
BRANCH  27  29
HETATM   29  C6  UNL     1       3.344   6.999  10.699  1.00  0.00     0.007 C 
BRANCH  29  30
HETATM   30  C5  UNL     1       3.899   7.821   9.522  1.00  0.00     0.036 C 
BRANCH  30  31
HETATM   31  C4  UNL     1       2.861   8.191   8.450  1.00  0.00     0.146 C 
BRANCH  31  32
HETATM   32  C2  UNL     1       2.469   7.014   7.578  1.00  0.00    -0.065 C 
HETATM   33  C1  UNL     1       1.745   7.187   6.458  1.00  0.00     0.016 C 
HETATM   34  C3  UNL     1       2.920   5.638   7.989  1.00  0.00     0.045 C 
ENDBRANCH  31  32
BRANCH  31  35
HETATM   35  O1  UNL     1       3.348   9.242   7.622  1.00  0.00    -0.391 OA
HETATM   36  H7  UNL     1       4.226   8.984   7.302  1.00  0.00     0.210 HD
ENDBRANCH  31  35
ENDBRANCH  30  31
ENDBRANCH  29  30
ENDBRANCH  27  29
ENDBRANCH   1  27
TORSDOF 6
ENDMDL
MODEL 2
REMARK minimizedAffinity -9.19918633
REMARK  6 active torsions:
REMARK  status: ('A' for Active; 'I' for Inactive)
REMARK    1  A    between atoms: C2_2  and  C4_4 
REMARK    2  A    between atoms: C4_4  and  O1_5 
REMARK    3  A    between atoms: C4_4  and  C5_6 
REMARK    4  A    between atoms: C5_6  and  C6_7 
REMARK    5  A    between atoms: C6_7  and  C7_8 
REMARK    6  A    between atoms: C7_8  and  C9_10 
ROOT
HETATM    1  C9  UNL     1      -5.575   6.428  14.802  1.00  0.00    -0.001 C 
HETATM    2  C10 UNL     1      -6.164   7.303  13.658  1.00  0.00     0.007 C 
HETATM    3  C11 UNL     1      -4.982   7.903  12.876  1.00  0.00     0.024 C 
HETATM    4  C12 UNL     1      -3.767   7.194  13.428  1.00  0.00     0.092 C 
HETATM    5  C13 UNL     1      -3.499   5.854  12.690  1.00  0.00     0.272 C 
HETATM    6  O2  UNL     1      -4.302   5.149  12.105  1.00  0.00    -0.264 OA
HETATM    7  O3  UNL     1      -2.152   5.558  12.797  1.00  0.00    -0.305 OA
HETATM    8  C14 UNL     1      -1.500   6.614  13.543  1.00  0.00     0.113 C 
HETATM    9  C15 UNL     1      -1.621   6.227  15.052  1.00  0.00     0.043 C 
HETATM   10  C16 UNL     1      -3.077   5.898  15.490  1.00  0.00     0.014 C 
HETATM   11  C17 UNL     1      -4.101   6.926  14.936  1.00  0.00    -0.020 C 
HETATM   12  C18 UNL     1      -4.016   8.198  15.809  1.00  0.00     0.017 C 
HETATM   13  C19 UNL     1      -2.416   7.769  13.265  1.00  0.00     0.137 A 
HETATM   14  O4  UNL     1      -2.095   9.084  13.681  1.00  0.00    -0.364 OA
HETATM   15  C20 UNL     1      -2.079   8.850  12.259  1.00  0.00     0.162 A 
HETATM   16  C21 UNL     1      -0.722   8.876  11.623  1.00  0.00     0.042 C 
HETATM   17  C22 UNL     1      -0.141   7.447  11.552  1.00  0.00     0.014 C 
HETATM   18  C23 UNL     1       1.113   7.278  10.628  1.00  0.00     0.018 C 
HETATM   19  C24 UNL     1       0.760   7.676   9.177  1.00  0.00     0.023 C 
HETATM   20  C25 UNL     1       2.345   8.083  11.061  1.00  0.00     0.023 C 
HETATM   21  C26 UNL     1       1.512   5.793  10.597  1.00  0.00     0.135 C 
HETATM   22  O5  UNL     1       2.392   5.372   9.844  1.00  0.00    -0.297 OA
HETATM   23  C27 UNL     1       0.773   4.849  11.517  1.00  0.00     0.080 C 
HETATM   24  C28 UNL     1       0.726   5.449  12.914  1.00  0.00     0.020 C 
HETATM   25  C29 UNL     1      -0.030   6.813  13.000  1.00  0.00    -0.004 C 
HETATM   26  C30 UNL     1       0.758   7.703  13.998  1.00  0.00     0.019 C 
ENDROOT
BRANCH   1  27
HETATM   27  C7  UNL     1      -6.539   6.272  16.017  1.00  0.00    -0.014 C 
HETATM   28  C8  UNL     1      -7.478   5.060  16.005  1.00  0.00     0.010 C 
BRANCH  27  29
HETATM   29  C6  UNL     1      -7.321   7.575  16.288  1.00  0.00     0.007 C 
BRANCH  29  30
HETATM   30  C5  UNL     1      -8.375   7.961  15.235  1.00  0.00     0.036 C 
BRANCH  30  31
HETATM   31  C4  UNL     1      -9.770   7.360  15.474  1.00  0.00     0.146 C 
BRANCH  31  32
HETATM   32  C2  UNL     1     -10.438   6.894  14.195  1.00  0.00    -0.065 C 
HETATM   33  C1  UNL     1     -11.761   7.046  14.004  1.00  0.00     0.016 C 
HETATM   34  C3  UNL     1      -9.582   6.263  13.130  1.00  0.00     0.045 C 
ENDBRANCH  31  32
BRANCH  31  35
HETATM   35  O1  UNL     1     -10.617   8.302  16.124  1.00  0.00    -0.391 OA
HETATM   36  H7  UNL     1     -10.583   9.129  15.618  1.00  0.00     0.210 HD
ENDBRANCH  31  35
ENDBRANCH  30  31
ENDBRANCH  29  30
ENDBRANCH  27  29
ENDBRANCH   1  27
TORSDOF 6
ENDMDL
MODEL 3
REMARK minimizedAffinity -9.08634853
REMARK  6 active torsions:
REMARK  status: ('A' for Active; 'I' for Inactive)
REMARK    1  A    between atoms: C2_2  and  C4_4 
REMARK    2  A    between atoms: C4_4  and  O1_5 
REMARK    3  A    between atoms: C4_4  and  C5_6 
REMARK    4  A    between atoms: C5_6  and  C6_7 
REMARK    5  A    between atoms: C6_7  and  C7_8 
REMARK    6  A    between atoms: C7_8  and  C9_10 
ROOT
HETATM    1  C9  UNL     1      -6.592   7.129  14.109  1.00  0.00    -0.001 C 
HETATM    2  C10 UNL     1      -6.618   8.506  14.833  1.00  0.00     0.007 C 
HETATM    3  C11 UNL     1      -5.171   8.852  15.227  1.00  0.00     0.024 C 
HETATM    4  C12 UNL     1      -4.333   7.803  14.534  1.00  0.00     0.092 C 
HETATM    5  C13 UNL     1      -3.974   8.222  13.082  1.00  0.00     0.272 C 
HETATM    6  O2  UNL     1      -4.588   8.978  12.348  1.00  0.00    -0.264 OA
HETATM    7  O3  UNL     1      -2.803   7.582  12.718  1.00  0.00    -0.305 OA
HETATM    8  C14 UNL     1      -2.347   6.777  13.831  1.00  0.00     0.113 C 
HETATM    9  C15 UNL     1      -3.052   5.390  13.691  1.00  0.00     0.043 C 
HETATM   10  C16 UNL     1      -4.596   5.495  13.529  1.00  0.00     0.014 C 
HETATM   11  C17 UNL     1      -5.219   6.511  14.524  1.00  0.00    -0.020 C 
HETATM   12  C18 UNL     1      -5.308   5.828  15.907  1.00  0.00     0.017 C 
HETATM   13  C19 UNL     1      -2.956   7.513  14.988  1.00  0.00     0.137 A 
HETATM   14  O4  UNL     1      -2.655   7.167  16.327  1.00  0.00    -0.364 OA
HETATM   15  C20 UNL     1      -2.152   8.440  15.876  1.00  0.00     0.162 A 
HETATM   16  C21 UNL     1      -0.664   8.518  15.714  1.00  0.00     0.042 C 
HETATM   17  C22 UNL     1      -0.270   8.194  14.257  1.00  0.00     0.014 C 
HETATM   18  C23 UNL     1       1.204   8.551  13.866  1.00  0.00     0.018 C 
HETATM   19  C24 UNL     1       1.452  10.065  14.057  1.00  0.00     0.023 C 
HETATM   20  C25 UNL     1       2.282   7.786  14.646  1.00  0.00     0.023 C 
HETATM   21  C26 UNL     1       1.410   8.254  12.371  1.00  0.00     0.135 C 
HETATM   22  O5  UNL     1       2.447   8.565  11.783  1.00  0.00    -0.297 OA
HETATM   23  C27 UNL     1       0.281   7.574  11.630  1.00  0.00     0.080 C 
HETATM   24  C28 UNL     1      -0.199   6.379  12.441  1.00  0.00     0.020 C 
HETATM   25  C29 UNL     1      -0.767   6.746  13.848  1.00  0.00    -0.004 C 
HETATM   26  C30 UNL     1      -0.296   5.639  14.828  1.00  0.00     0.019 C 
ENDROOT
BRANCH   1  27
HETATM   27  C7  UNL     1      -7.942   6.356  14.205  1.00  0.00    -0.014 C 
HETATM   28  C8  UNL     1      -8.884   6.747  15.350  1.00  0.00     0.010 C 
BRANCH  27  29
HETATM   29  C6  UNL     1      -7.721   4.828  14.168  1.00  0.00     0.007 C 
BRANCH  29  30
HETATM   30  C5  UNL     1      -7.647   4.191  12.769  1.00  0.00     0.036 C 
BRANCH  30  31
HETATM   31  C4  UNL     1      -7.145   2.738  12.751  1.00  0.00     0.146 C 
BRANCH  31  32
HETATM   32  C2  UNL     1      -6.177   2.462  11.617  1.00  0.00    -0.065 C 
HETATM   33  C1  UNL     1      -5.492   3.459  11.027  1.00  0.00     0.016 C 
HETATM   34  C3  UNL     1      -5.990   1.039  11.167  1.00  0.00     0.045 C 
ENDBRANCH  31  32
BRANCH  31  35
HETATM   35  O1  UNL     1      -8.238   1.831  12.660  1.00  0.00    -0.391 OA
HETATM   36  H7  UNL     1      -8.790   2.106  11.912  1.00  0.00     0.210 HD
ENDBRANCH  31  35
ENDBRANCH  30  31
ENDBRANCH  29  30
ENDBRANCH  27  29
ENDBRANCH   1  27
TORSDOF 6
ENDMDL
MODEL 4
REMARK minimizedAffinity -8.93540192
REMARK  6 active torsions:
REMARK  status: ('A' for Active; 'I' for Inactive)
REMARK    1  A    between atoms: C2_2  and  C4_4 
REMARK    2  A    between atoms: C4_4  and  O1_5 
REMARK    3  A    between atoms: C4_4  and  C5_6 
REMARK    4  A    between atoms: C5_6  and  C6_7 
REMARK    5  A    between atoms: C6_7  and  C7_8 
REMARK    6  A    between atoms: C7_8  and  C9_10 
ROOT
HETATM    1  C9  UNL     1      -3.251   7.764  14.524  1.00  0.00    -0.001 C 
HETATM    2  C10 UNL     1      -2.428   8.628  15.524  1.00  0.00     0.007 C 
HETATM    3  C11 UNL     1      -0.946   8.513  15.126  1.00  0.00     0.024 C 
HETATM    4  C12 UNL     1      -0.968   7.790  13.799  1.00  0.00     0.092 C 
HETATM    5  C13 UNL     1      -1.149   8.774  12.611  1.00  0.00     0.272 C 
HETATM    6  O2  UNL     1      -1.678   9.872  12.624  1.00  0.00    -0.264 OA
HETATM    7  O3  UNL     1      -0.600   8.200  11.479  1.00  0.00    -0.305 OA
HETATM    8  C14 UNL     1      -0.052   6.907  11.831  1.00  0.00     0.113 C 
HETATM    9  C15 UNL     1      -1.219   5.879  11.687  1.00  0.00     0.043 C 
HETATM   10  C16 UNL     1      -2.505   6.293  12.458  1.00  0.00     0.014 C 
HETATM   11  C17 UNL     1      -2.190   6.812  13.886  1.00  0.00    -0.020 C 
HETATM   12  C18 UNL     1      -1.921   5.588  14.788  1.00  0.00     0.017 C 
HETATM   13  C19 UNL     1       0.239   7.106  13.290  1.00  0.00     0.137 A 
HETATM   14  O4  UNL     1       0.935   6.132  14.045  1.00  0.00    -0.364 OA
HETATM   15  C20 UNL     1       1.636   7.369  13.811  1.00  0.00     0.162 A 
HETATM   16  C21 UNL     1       2.807   7.274  12.880  1.00  0.00     0.042 C 
HETATM   17  C22 UNL     1       2.368   7.609  11.439  1.00  0.00     0.014 C 
HETATM   18  C23 UNL     1       3.535   7.866  10.425  1.00  0.00     0.018 C 
HETATM   19  C24 UNL     1       4.401   9.054  10.903  1.00  0.00     0.023 C 
HETATM   20  C25 UNL     1       4.458   6.665  10.186  1.00  0.00     0.023 C 
HETATM   21  C26 UNL     1       2.936   8.272   9.068  1.00  0.00     0.135 C 
HETATM   22  O5  UNL     1       3.643   8.651   8.133  1.00  0.00    -0.297 OA
HETATM   23  C27 UNL     1       1.433   8.207   8.917  1.00  0.00     0.080 C 
HETATM   24  C28 UNL     1       0.937   6.866   9.438  1.00  0.00     0.020 C 
HETATM   25  C29 UNL     1       1.230   6.620  10.953  1.00  0.00    -0.004 C 
HETATM   26  C30 UNL     1       1.615   5.124  11.100  1.00  0.00     0.019 C 
ENDROOT
BRANCH   1  27
HETATM   27  C7  UNL     1      -4.605   7.262  15.113  1.00  0.00    -0.014 C 
HETATM   28  C8  UNL     1      -4.536   6.120  16.134  1.00  0.00     0.010 C 
BRANCH  27  29
HETATM   29  C6  UNL     1      -5.622   6.945  13.995  1.00  0.00     0.007 C 
BRANCH  29  30
HETATM   30  C5  UNL     1      -7.012   6.474  14.461  1.00  0.00     0.036 C 
BRANCH  30  31
HETATM   31  C4  UNL     1      -7.168   4.950  14.579  1.00  0.00     0.146 C 
BRANCH  31  32
HETATM   32  C2  UNL     1      -7.773   4.322  13.339  1.00  0.00    -0.065 C 
HETATM   33  C1  UNL     1      -7.686   2.998  13.114  1.00  0.00     0.016 C 
HETATM   34  C3  UNL     1      -8.488   5.215  12.361  1.00  0.00     0.045 C 
ENDBRANCH  31  32
BRANCH  31  35
HETATM   35  O1  UNL     1      -7.967   4.614  15.708  1.00  0.00    -0.391 OA
HETATM   36  H7  UNL     1      -8.787   5.129  15.654  1.00  0.00     0.210 HD
ENDBRANCH  31  35
ENDBRANCH  30  31
ENDBRANCH  29  30
ENDBRANCH  27  29
ENDBRANCH   1  27
TORSDOF 6
ENDMDL
MODEL 5
REMARK minimizedAffinity -8.79349613
REMARK  6 active torsions:
REMARK  status: ('A' for Active; 'I' for Inactive)
REMARK    1  A    between atoms: C2_2  and  C4_4 
REMARK    2  A    between atoms: C4_4  and  O1_5 
REMARK    3  A    between atoms: C4_4  and  C5_6 
REMARK    4  A    between atoms: C5_6  and  C6_7 
REMARK    5  A    between atoms: C6_7  and  C7_8 
REMARK    6  A    between atoms: C7_8  and  C9_10 
ROOT
HETATM    1  C9  UNL     1      -4.076   7.058  13.199  1.00  0.00    -0.001 C 
HETATM    2  C10 UNL     1      -4.706   8.446  13.514  1.00  0.00     0.007 C 
HETATM    3  C11 UNL     1      -3.624   9.302  14.198  1.00  0.00     0.024 C 
HETATM    4  C12 UNL     1      -2.358   8.490  14.057  1.00  0.00     0.092 C 
HETATM    5  C13 UNL     1      -1.642   8.771  12.707  1.00  0.00     0.272 C 
HETATM    6  O2  UNL     1      -2.139   9.161  11.665  1.00  0.00    -0.264 OA
HETATM    7  O3  UNL     1      -0.294   8.500  12.862  1.00  0.00    -0.305 OA
HETATM    8  C14 UNL     1      -0.058   8.073  14.225  1.00  0.00     0.113 C 
HETATM    9  C15 UNL     1      -0.288   6.527  14.248  1.00  0.00     0.043 C 
HETATM   10  C16 UNL     1      -1.652   6.097  13.638  1.00  0.00     0.014 C 
HETATM   11  C17 UNL     1      -2.821   6.994  14.126  1.00  0.00    -0.020 C 
HETATM   12  C18 UNL     1      -3.200   6.545  15.554  1.00  0.00     0.017 C 
HETATM   13  C19 UNL     1      -1.197   8.740  14.937  1.00  0.00     0.137 A 
HETATM   14  O4  UNL     1      -1.297   8.725  16.349  1.00  0.00    -0.364 OA
HETATM   15  C20 UNL     1      -1.017  10.005  15.750  1.00  0.00     0.162 A 
HETATM   16  C21 UNL     1       0.362  10.539  16.000  1.00  0.00     0.042 C 
HETATM   17  C22 UNL     1       1.303  10.138  14.843  1.00  0.00     0.014 C 
HETATM   18  C23 UNL     1       2.676  10.892  14.805  1.00  0.00     0.018 C 
HETATM   19  C24 UNL     1       2.442  12.414  14.668  1.00  0.00     0.023 C 
HETATM   20  C25 UNL     1       3.577  10.652  16.023  1.00  0.00     0.023 C 
HETATM   21  C26 UNL     1       3.453  10.448  13.554  1.00  0.00     0.135 C 
HETATM   22  O5  UNL     1       4.511  10.985  13.222  1.00  0.00    -0.297 OA
HETATM   23  C27 UNL     1       2.866   9.331  12.723  1.00  0.00     0.080 C 
HETATM   24  C28 UNL     1       2.462   8.186  13.641  1.00  0.00     0.020 C 
HETATM   25  C29 UNL     1       1.370   8.562  14.691  1.00  0.00    -0.004 C 
HETATM   26  C30 UNL     1       1.743   7.837  16.011  1.00  0.00     0.019 C 
ENDROOT
BRANCH   1  27
HETATM   27  C7  UNL     1      -5.128   5.911  13.105  1.00  0.00    -0.014 C 
HETATM   28  C8  UNL     1      -6.339   6.004  14.041  1.00  0.00     0.010 C 
BRANCH  27  29
HETATM   29  C6  UNL     1      -4.459   4.523  13.202  1.00  0.00     0.007 C 
BRANCH  29  30
HETATM   30  C5  UNL     1      -4.205   3.801  11.867  1.00  0.00     0.036 C 
BRANCH  30  31
HETATM   31  C4  UNL     1      -5.475   3.455  11.073  1.00  0.00     0.146 C 
BRANCH  31  32
HETATM   32  C2  UNL     1      -6.244   2.291  11.668  1.00  0.00    -0.065 C 
HETATM   33  C1  UNL     1      -5.974   1.022  11.312  1.00  0.00     0.016 C 
HETATM   34  C3  UNL     1      -7.317   2.587  12.680  1.00  0.00     0.045 C 
ENDBRANCH  31  32
BRANCH  31  35
HETATM   35  O1  UNL     1      -5.153   3.155   9.719  1.00  0.00    -0.391 OA
HETATM   36  H7  UNL     1      -4.450   2.487   9.722  1.00  0.00     0.210 HD
ENDBRANCH  31  35
ENDBRANCH  30  31
ENDBRANCH  29  30
ENDBRANCH  27  29
ENDBRANCH   1  27
TORSDOF 6
ENDMDL
MODEL 6
REMARK minimizedAffinity -8.79263496
REMARK  6 active torsions:
REMARK  status: ('A' for Active; 'I' for Inactive)
REMARK    1  A    between atoms: C2_2  and  C4_4 
REMARK    2  A    between atoms: C4_4  and  O1_5 
REMARK    3  A    between atoms: C4_4  and  C5_6 
REMARK    4  A    between atoms: C5_6  and  C6_7 
REMARK    5  A    between atoms: C6_7  and  C7_8 
REMARK    6  A    between atoms: C7_8  and  C9_10 
ROOT
HETATM    1  C9  UNL     1      -2.052   6.669  12.940  1.00  0.00    -0.001 C 
HETATM    2  C10 UNL     1      -1.732   5.742  11.732  1.00  0.00     0.007 C 
HETATM    3  C11 UNL     1      -0.308   6.078  11.253  1.00  0.00     0.024 C 
HETATM    4  C12 UNL     1       0.236   7.006  12.314  1.00  0.00     0.092 C 
HETATM    5  C13 UNL     1       0.880   6.221  13.489  1.00  0.00     0.272 C 
HETATM    6  O2  UNL     1       0.629   5.086  13.857  1.00  0.00    -0.264 OA
HETATM    7  O3  UNL     1       1.826   7.031  14.091  1.00  0.00    -0.305 OA
HETATM    8  C14 UNL     1       1.868   8.297  13.390  1.00  0.00     0.113 C 
HETATM    9  C15 UNL     1       0.785   9.206  14.056  1.00  0.00     0.043 C 
HETATM   10  C16 UNL     1      -0.615   8.535  14.142  1.00  0.00     0.014 C 
HETATM   11  C17 UNL     1      -1.004   7.821  12.820  1.00  0.00    -0.020 C 
HETATM   12  C18 UNL     1      -1.469   8.899  11.817  1.00  0.00     0.017 C 
HETATM   13  C19 UNL     1       1.386   7.889  12.029  1.00  0.00     0.137 A 
HETATM   14  O4  UNL     1       1.399   8.792  10.939  1.00  0.00    -0.364 OA
HETATM   15  C20 UNL     1       2.327   7.692  10.859  1.00  0.00     0.162 A 
HETATM   16  C21 UNL     1       3.772   8.065  10.997  1.00  0.00     0.042 C 
HETATM   17  C22 UNL     1       4.218   7.931  12.469  1.00  0.00     0.014 C 
HETATM   18  C23 UNL     1       5.765   7.972  12.707  1.00  0.00     0.018 C 
HETATM   19  C24 UNL     1       6.451   6.819  11.939  1.00  0.00     0.023 C 
HETATM   20  C25 UNL     1       6.445   9.287  12.306  1.00  0.00     0.023 C 
HETATM   21  C26 UNL     1       6.046   7.738  14.201  1.00  0.00     0.135 C 
HETATM   22  O5  UNL     1       7.191   7.597  14.633  1.00  0.00    -0.297 OA
HETATM   23  C27 UNL     1       4.859   7.667  15.134  1.00  0.00     0.080 C 
HETATM   24  C28 UNL     1       3.934   8.842  14.854  1.00  0.00     0.020 C 
HETATM   25  C29 UNL     1       3.344   8.861  13.408  1.00  0.00    -0.004 C 
HETATM   26  C30 UNL     1       3.321  10.344  12.950  1.00  0.00     0.019 C 
ENDROOT
BRANCH   1  27
HETATM   27  C7  UNL     1      -3.578   6.919  13.138  1.00  0.00    -0.014 C 
HETATM   28  C8  UNL     1      -3.989   8.279  13.715  1.00  0.00     0.010 C 
BRANCH  27  29
HETATM   29  C6  UNL     1      -4.242   5.764  13.920  1.00  0.00     0.007 C 
BRANCH  29  30
HETATM   30  C5  UNL     1      -5.392   5.036  13.202  1.00  0.00     0.036 C 
BRANCH  30  31
HETATM   31  C4  UNL     1      -4.951   3.869  12.304  1.00  0.00     0.146 C 
BRANCH  31  32
HETATM   32  C2  UNL     1      -6.040   2.832  12.108  1.00  0.00    -0.065 C 
HETATM   33  C1  UNL     1      -5.872   1.795  11.267  1.00  0.00     0.016 C 
HETATM   34  C3  UNL     1      -7.319   2.982  12.887  1.00  0.00     0.045 C 
ENDBRANCH  31  32
BRANCH  31  35
HETATM   35  O1  UNL     1      -3.795   3.233  12.840  1.00  0.00    -0.391 OA
HETATM   36  H7  UNL     1      -3.978   3.018  13.768  1.00  0.00     0.210 HD
ENDBRANCH  31  35
ENDBRANCH  30  31
ENDBRANCH  29  30
ENDBRANCH  27  29
ENDBRANCH   1  27
TORSDOF 6
ENDMDL
MODEL 7
REMARK minimizedAffinity -8.71820068
REMARK  6 active torsions:
REMARK  status: ('A' for Active; 'I' for Inactive)
REMARK    1  A    between atoms: C2_2  and  C4_4 
REMARK    2  A    between atoms: C4_4  and  O1_5 
REMARK    3  A    between atoms: C4_4  and  C5_6 
REMARK    4  A    between atoms: C5_6  and  C6_7 
REMARK    5  A    between atoms: C6_7  and  C7_8 
REMARK    6  A    between atoms: C7_8  and  C9_10 
ROOT
HETATM    1  C9  UNL     1      -2.826   7.012  12.796  1.00  0.00    -0.001 C 
HETATM    2  C10 UNL     1      -3.363   8.468  12.919  1.00  0.00     0.007 C 
HETATM    3  C11 UNL     1      -2.197   9.354  13.391  1.00  0.00     0.024 C 
HETATM    4  C12 UNL     1      -0.984   8.455  13.309  1.00  0.00     0.092 C 
HETATM    5  C13 UNL     1      -0.349   8.477  11.893  1.00  0.00     0.272 C 
HETATM    6  O2  UNL     1      -0.894   8.727  10.832  1.00  0.00    -0.264 OA
HETATM    7  O3  UNL     1       0.991   8.153  12.010  1.00  0.00    -0.305 OA
HETATM    8  C14 UNL     1       1.297   7.932  13.407  1.00  0.00     0.113 C 
HETATM    9  C15 UNL     1       0.993   6.426  13.692  1.00  0.00     0.043 C 
HETATM   10  C16 UNL     1      -0.430   5.987  13.240  1.00  0.00     0.014 C 
HETATM   11  C17 UNL     1      -1.516   7.020  13.646  1.00  0.00    -0.020 C 
HETATM   12  C18 UNL     1      -1.821   6.825  15.147  1.00  0.00     0.017 C 
HETATM   13  C19 UNL     1       0.244   8.771  14.068  1.00  0.00     0.137 A 
HETATM   14  O4  UNL     1       0.239   8.984  15.468  1.00  0.00    -0.364 OA
HETATM   15  C20 UNL     1       0.541  10.135  14.655  1.00  0.00     0.162 A 
HETATM   16  C21 UNL     1       1.959  10.617  14.734  1.00  0.00     0.042 C 
HETATM   17  C22 UNL     1       2.799   9.983  13.604  1.00  0.00     0.014 C 
HETATM   18  C23 UNL     1       4.202  10.638  13.364  1.00  0.00     0.018 C 
HETATM   19  C24 UNL     1       4.036  12.130  12.998  1.00  0.00     0.023 C 
HETATM   20  C25 UNL     1       5.170  10.539  14.550  1.00  0.00     0.023 C 
HETATM   21  C26 UNL     1       4.870   9.956  12.158  1.00  0.00     0.135 C 
HETATM   22  O5  UNL     1       5.929  10.370  11.682  1.00  0.00    -0.297 OA
HETATM   23  C27 UNL     1       4.172   8.760  11.554  1.00  0.00     0.080 C 
HETATM   24  C28 UNL     1       3.775   7.800  12.666  1.00  0.00     0.020 C 
HETATM   25  C29 UNL     1       2.776   8.402  13.704  1.00  0.00    -0.004 C 
HETATM   26  C30 UNL     1       3.201   7.872  15.099  1.00  0.00     0.019 C 
ENDROOT
BRANCH   1  27
HETATM   27  C7  UNL     1      -3.938   5.930  12.949  1.00  0.00    -0.014 C 
HETATM   28  C8  UNL     1      -5.139   6.291  13.833  1.00  0.00     0.010 C 
BRANCH  27  29
HETATM   29  C6  UNL     1      -3.344   4.564  13.355  1.00  0.00     0.007 C 
BRANCH  29  30
HETATM   30  C5  UNL     1      -3.436   3.447  12.300  1.00  0.00     0.036 C 
BRANCH  30  31
HETATM   31  C4  UNL     1      -4.631   3.567  11.341  1.00  0.00     0.146 C 
BRANCH  31  32
HETATM   32  C2  UNL     1      -5.777   2.645  11.709  1.00  0.00    -0.065 C 
HETATM   33  C1  UNL     1      -5.826   1.379  11.257  1.00  0.00     0.016 C 
HETATM   34  C3  UNL     1      -6.862   3.176  12.607  1.00  0.00     0.045 C 
ENDBRANCH  31  32
BRANCH  31  35
HETATM   35  O1  UNL     1      -4.229   3.297  10.003  1.00  0.00    -0.391 OA
HETATM   36  H7  UNL     1      -3.757   2.450  10.000  1.00  0.00     0.210 HD
ENDBRANCH  31  35
ENDBRANCH  30  31
ENDBRANCH  29  30
ENDBRANCH  27  29
ENDBRANCH   1  27
TORSDOF 6
ENDMDL
MODEL 8
REMARK minimizedAffinity -8.71341324
REMARK  6 active torsions:
REMARK  status: ('A' for Active; 'I' for Inactive)
REMARK    1  A    between atoms: C2_2  and  C4_4 
REMARK    2  A    between atoms: C4_4  and  O1_5 
REMARK    3  A    between atoms: C4_4  and  C5_6 
REMARK    4  A    between atoms: C5_6  and  C6_7 
REMARK    5  A    between atoms: C6_7  and  C7_8 
REMARK    6  A    between atoms: C7_8  and  C9_10 
ROOT
HETATM    1  C9  UNL     1      -4.899   6.182  14.479  1.00  0.00    -0.001 C 
HETATM    2  C10 UNL     1      -4.519   5.486  13.140  1.00  0.00     0.007 C 
HETATM    3  C11 UNL     1      -3.223   6.140  12.628  1.00  0.00     0.024 C 
HETATM    4  C12 UNL     1      -2.769   7.018  13.771  1.00  0.00     0.092 C 
HETATM    5  C13 UNL     1      -1.899   6.232  14.789  1.00  0.00     0.272 C 
HETATM    6  O2  UNL     1      -1.912   5.034  15.015  1.00  0.00    -0.264 OA
HETATM    7  O3  UNL     1      -1.068   7.127  15.438  1.00  0.00    -0.305 OA
HETATM    8  C14 UNL     1      -1.311   8.454  14.913  1.00  0.00     0.113 C 
HETATM    9  C15 UNL     1      -2.481   9.054  15.758  1.00  0.00     0.043 C 
HETATM   10  C16 UNL     1      -3.727   8.125  15.835  1.00  0.00     0.014 C 
HETATM   11  C17 UNL     1      -4.089   7.517  14.454  1.00  0.00    -0.020 C 
HETATM   12  C18 UNL     1      -4.821   8.602  13.633  1.00  0.00     0.017 C 
HETATM   13  C19 UNL     1      -1.824   8.131  13.540  1.00  0.00     0.137 A 
HETATM   14  O4  UNL     1      -2.063   9.145  12.583  1.00  0.00    -0.364 OA
HETATM   15  C20 UNL     1      -0.963   8.258  12.301  1.00  0.00     0.162 A 
HETATM   16  C21 UNL     1       0.399   8.877  12.402  1.00  0.00     0.042 C 
HETATM   17  C22 UNL     1       0.981   8.652  13.814  1.00  0.00     0.014 C 
HETATM   18  C23 UNL     1       2.511   8.954  13.964  1.00  0.00     0.018 C 
HETATM   19  C24 UNL     1       3.326   8.054  13.009  1.00  0.00     0.023 C 
HETATM   20  C25 UNL     1       2.908  10.413  13.705  1.00  0.00     0.023 C 
HETATM   21  C26 UNL     1       2.951   8.598  15.394  1.00  0.00     0.135 C 
HETATM   22  O5  UNL     1       4.135   8.624  15.735  1.00  0.00    -0.297 OA
HETATM   23  C27 UNL     1       1.878   8.192  16.378  1.00  0.00     0.080 C 
HETATM   24  C28 UNL     1       0.737   9.197  16.313  1.00  0.00     0.020 C 
HETATM   25  C29 UNL     1       0.036   9.280  14.920  1.00  0.00    -0.004 C 
HETATM   26  C30 UNL     1      -0.291  10.775  14.668  1.00  0.00     0.019 C 
ENDROOT
BRANCH   1  27
HETATM   27  C7  UNL     1      -6.424   6.114  14.798  1.00  0.00    -0.014 C 
HETATM   28  C8  UNL     1      -6.842   6.389  16.248  1.00  0.00     0.010 C 
BRANCH  27  29
HETATM   29  C6  UNL     1      -7.049   4.799  14.283  1.00  0.00     0.007 C 
BRANCH  29  30
HETATM   30  C5  UNL     1      -6.548   4.305  12.914  1.00  0.00     0.036 C 
BRANCH  30  31
HETATM   31  C4  UNL     1      -6.630   2.783  12.712  1.00  0.00     0.146 C 
BRANCH  31  32
HETATM   32  C2  UNL     1      -6.099   2.338  11.363  1.00  0.00    -0.065 C 
HETATM   33  C1  UNL     1      -5.533   3.214  10.513  1.00  0.00     0.016 C 
HETATM   34  C3  UNL     1      -6.211   0.883  10.996  1.00  0.00     0.045 C 
ENDBRANCH  31  32
BRANCH  31  35
HETATM   35  O1  UNL     1      -7.972   2.330  12.856  1.00  0.00    -0.391 OA
HETATM   36  H7  UNL     1      -8.531   2.873  12.279  1.00  0.00     0.210 HD
ENDBRANCH  31  35
ENDBRANCH  30  31
ENDBRANCH  29  30
ENDBRANCH  27  29
ENDBRANCH   1  27
TORSDOF 6
ENDMDL
MODEL 9
REMARK minimizedAffinity -8.61224556
REMARK  6 active torsions:
REMARK  status: ('A' for Active; 'I' for Inactive)
REMARK    1  A    between atoms: C2_2  and  C4_4 
REMARK    2  A    between atoms: C4_4  and  O1_5 
REMARK    3  A    between atoms: C4_4  and  C5_6 
REMARK    4  A    between atoms: C5_6  and  C6_7 
REMARK    5  A    between atoms: C6_7  and  C7_8 
REMARK    6  A    between atoms: C7_8  and  C9_10 
ROOT
HETATM    1  C9  UNL     1       1.233   7.926  11.966  1.00  0.00    -0.001 C 
HETATM    2  C10 UNL     1       0.749   7.189  10.683  1.00  0.00     0.007 C 
HETATM    3  C11 UNL     1      -0.597   6.520  11.012  1.00  0.00     0.024 C 
HETATM    4  C12 UNL     1      -0.965   7.064  12.373  1.00  0.00     0.092 C 
HETATM    5  C13 UNL     1      -1.728   8.412  12.267  1.00  0.00     0.272 C 
HETATM    6  O2  UNL     1      -1.676   9.232  11.366  1.00  0.00    -0.264 OA
HETATM    7  O3  UNL     1      -2.515   8.559  13.395  1.00  0.00    -0.305 OA
HETATM    8  C14 UNL     1      -2.340   7.398  14.241  1.00  0.00     0.113 C 
HETATM    9  C15 UNL     1      -1.112   7.700  15.157  1.00  0.00     0.043 C 
HETATM   10  C16 UNL     1       0.151   8.150  14.368  1.00  0.00     0.014 C 
HETATM   11  C17 UNL     1       0.402   7.270  13.114  1.00  0.00    -0.020 C 
HETATM   12  C18 UNL     1       1.041   5.945  13.583  1.00  0.00     0.017 C 
HETATM   13  C19 UNL     1      -1.945   6.363  13.229  1.00  0.00     0.137 A 
HETATM   14  O4  UNL     1      -1.807   4.999  13.581  1.00  0.00    -0.364 OA
HETATM   15  C20 UNL     1      -2.913   5.318  12.714  1.00  0.00     0.162 A 
HETATM   16  C21 UNL     1      -4.270   5.191  13.338  1.00  0.00     0.042 C 
HETATM   17  C22 UNL     1      -4.723   6.554  13.905  1.00  0.00     0.014 C 
HETATM   18  C23 UNL     1      -6.239   6.649  14.290  1.00  0.00     0.018 C 
HETATM   19  C24 UNL     1      -7.120   6.381  13.048  1.00  0.00     0.023 C 
HETATM   20  C25 UNL     1      -6.681   5.695  15.408  1.00  0.00     0.023 C 
HETATM   21  C26 UNL     1      -6.546   8.084  14.751  1.00  0.00     0.135 C 
HETATM   22  O5  UNL     1      -7.696   8.457  14.990  1.00  0.00    -0.297 OA
HETATM   23  C27 UNL     1      -5.385   9.041  14.888  1.00  0.00     0.080 C 
HETATM   24  C28 UNL     1      -4.270   8.363  15.672  1.00  0.00     0.020 C 
HETATM   25  C29 UNL     1      -3.695   7.081  14.989  1.00  0.00    -0.004 C 
HETATM   26  C30 UNL     1      -3.417   6.054  16.119  1.00  0.00     0.019 C 
ENDROOT
BRANCH   1  27
HETATM   27  C7  UNL     1       2.781   8.105  12.027  1.00  0.00    -0.014 C 
HETATM   28  C8  UNL     1       3.318   9.159  13.003  1.00  0.00     0.010 C 
BRANCH  27  29
HETATM   29  C6  UNL     1       3.382   8.299  10.618  1.00  0.00     0.007 C 
BRANCH  29  30
HETATM   30  C5  UNL     1       4.270   7.155  10.099  1.00  0.00     0.036 C 
BRANCH  30  31
HETATM   31  C4  UNL     1       5.158   6.497  11.167  1.00  0.00     0.146 C 
BRANCH  31  32
HETATM   32  C2  UNL     1       6.243   7.421  11.684  1.00  0.00    -0.065 C 
HETATM   33  C1  UNL     1       6.789   7.245  12.900  1.00  0.00     0.016 C 
HETATM   34  C3  UNL     1       6.708   8.543  10.795  1.00  0.00     0.045 C 
ENDBRANCH  31  32
BRANCH  31  35
HETATM   35  O1  UNL     1       5.760   5.312  10.658  1.00  0.00    -0.391 OA
HETATM   36  H7  UNL     1       6.190   5.535   9.818  1.00  0.00     0.210 HD
ENDBRANCH  31  35
ENDBRANCH  30  31
ENDBRANCH  29  30
ENDBRANCH  27  29
ENDBRANCH   1  27
TORSDOF 6
ENDMDL
