MODEL 1
REMARK minimizedAffinity -8.00040531
REMARK CNNscore 0.815748036
REMARK CNNaffinity 7.25114393
REMARK  15 active torsions:
REMARK  status: ('A' for Active; 'I' for Inactive)
REMARK    1  A    between atoms: C19_20  and  O2_21 
REMARK    2  A    between atoms: C19_20  and  C20_22 
REMARK    3  A    between atoms: C20_22  and  C21_24 
REMARK    4  A    between atoms: C21_24  and  O4_25 
REMARK    5  A    between atoms: O4_25  and  C22_26 
REMARK    6  A    between atoms: C22_26  and  C23_28 
REMARK    7  A    between atoms: C23_28  and  C24_29 
REMARK    8  A    between atoms: C24_29  and  C25_30 
REMARK       I    between atoms: C25_30  and  N1_32 
REMARK    9  A    between atoms: N1_32  and  C26_33 
REMARK   10  A    between atoms: C26_33  and  C27_34 
REMARK   11  A    between atoms: C27_34  and  C28_35 
REMARK   12  A    between atoms: C28_35  and  C29_36 
REMARK   13  A    between atoms: C29_36  and  C30_37 
REMARK   14  A    between atoms: C30_37  and  C31_38 
REMARK   15  A    between atoms: C31_38  and  O8_40 
ROOT
HETATM    1  C1  UNL     1      -8.716   6.503  13.170  1.00  0.00     0.020 C 
HETATM    2  C2  UNL     1      -7.420   5.638  13.238  1.00  0.00    -0.016 C 
HETATM    3  C3  UNL     1      -7.395   4.861  11.884  1.00  0.00     0.022 C 
HETATM    4  C4  UNL     1      -6.794   3.463  11.920  1.00  0.00     0.084 C 
HETATM    5  C5  UNL     1      -7.321   2.670  13.088  1.00  0.00     0.149 C 
HETATM    6  O1  UNL     1      -7.516   1.459  13.027  1.00  0.00    -0.293 OA
HETATM    7  C6  UNL     1      -7.499   3.375  14.377  1.00  0.00     0.053 C 
HETATM    8  C7  UNL     1      -7.500   4.717  14.453  1.00  0.00    -0.068 C 
HETATM    9  C8  UNL     1      -7.518   5.406  15.800  1.00  0.00     0.035 C 
HETATM   10  C9  UNL     1      -6.334   6.373  15.959  1.00  0.00     0.010 C 
HETATM   11  C10 UNL     1      -6.202   7.344  14.767  1.00  0.00    -0.004 C 
HETATM   12  C11 UNL     1      -6.168   6.576  13.416  1.00  0.00     0.002 C 
HETATM   13  C12 UNL     1      -4.815   5.848  13.218  1.00  0.00     0.007 C 
HETATM   14  C13 UNL     1      -3.629   6.386  14.023  1.00  0.00     0.013 C 
HETATM   15  C14 UNL     1      -3.653   7.899  14.284  1.00  0.00    -0.002 C 
HETATM   16  C15 UNL     1      -3.374   8.639  12.951  1.00  0.00     0.019 C 
HETATM   17  C16 UNL     1      -5.046   8.370  14.822  1.00  0.00     0.002 C 
HETATM   18  C17 UNL     1      -4.789   9.030  16.182  1.00  0.00     0.009 C 
HETATM   19  C18 UNL     1      -3.359   9.536  16.069  1.00  0.00     0.047 C 
HETATM   20  C19 UNL     1      -2.643   8.354  15.400  1.00  0.00     0.128 C 
ENDROOT
BRANCH  20  21
HETATM   21  O2  UNL     1      -2.507   7.336  16.402  1.00  0.00    -0.381 OA
HETATM   22  H27 UNL     1      -1.900   7.672  17.095  1.00  0.00     0.211 HD
ENDBRANCH  20  21
BRANCH  20  23
HETATM   23  C20 UNL     1      -1.235   8.724  14.899  1.00  0.00     0.185 C 
HETATM   24  O3  UNL     1      -1.026   9.140  13.756  1.00  0.00    -0.292 OA
BRANCH  23  25
HETATM   25  C21 UNL     1      -0.090   8.571  15.902  1.00  0.00     0.260 C 
BRANCH  25  26
HETATM   26  O4  UNL     1      -0.337   9.242  17.137  1.00  0.00    -0.314 OA
BRANCH  26  27
HETATM   27  C22 UNL     1       0.581  10.203  17.436  1.00  0.00     0.259 C 
HETATM   28  O5  UNL     1       1.558  10.484  16.749  1.00  0.00    -0.265 OA
BRANCH  27  29
HETATM   29  C23 UNL     1       0.249  10.858  18.748  1.00  0.00     0.120 C 
BRANCH  29  30
HETATM   30  C24 UNL     1       1.468  11.586  19.291  1.00  0.00     0.112 C 
BRANCH  30  31
HETATM   31  C25 UNL     1       2.110  10.806  20.418  1.00  0.00     0.217 C 
HETATM   32  O6  UNL     1       1.639   9.769  20.874  1.00  0.00    -0.274 OA
HETATM   33  N1  UNL     1       3.280  11.378  20.877  1.00  0.00    -0.361 N 
HETATM   34  H34 UNL     1       3.718  12.078  20.290  1.00  0.00     0.162 HD
BRANCH  33  35
HETATM   35  C26 UNL     1       4.118  10.655  21.813  1.00  0.00     0.122 C 
BRANCH  35  36
HETATM   36  C27 UNL     1       4.568  11.546  22.965  1.00  0.00     0.020 C 
BRANCH  36  37
HETATM   37  C28 UNL     1       6.091  11.587  23.136  1.00  0.00     0.002 C 
BRANCH  37  38
HETATM   38  C29 UNL     1       6.789  12.823  22.557  1.00  0.00     0.010 C 
BRANCH  38  39
HETATM   39  C30 UNL     1       8.222  13.002  23.055  1.00  0.00     0.110 C 
BRANCH  39  40
HETATM   40  C31 UNL     1       9.232  12.596  22.013  1.00  0.00     0.139 C 
HETATM   41  O7  UNL     1       9.293  11.545  21.402  1.00  0.00    -0.650 OA
BRANCH  40  42
HETATM   42  O8  UNL     1      10.137  13.571  21.787  1.00  0.00    -0.776 OA
HETATM   43  H45 UNL     1      10.721  13.192  21.095  1.00  0.00     0.167 HD
ENDBRANCH  40  42
ENDBRANCH  39  40
ENDBRANCH  38  39
ENDBRANCH  37  38
ENDBRANCH  36  37
ENDBRANCH  35  36
ENDBRANCH  33  35
ENDBRANCH  30  31
ENDBRANCH  29  30
ENDBRANCH  27  29
ENDBRANCH  26  27
ENDBRANCH  25  26
ENDBRANCH  23  25
ENDBRANCH  20  23
TORSDOF 15
ENDMDL
MODEL 2
REMARK minimizedAffinity -6.79747581
REMARK CNNscore 0.758086562
REMARK CNNaffinity 7.47721243
REMARK  15 active torsions:
REMARK  status: ('A' for Active; 'I' for Inactive)
REMARK    1  A    between atoms: C19_20  and  O2_21 
REMARK    2  A    between atoms: C19_20  and  C20_22 
REMARK    3  A    between atoms: C20_22  and  C21_24 
REMARK    4  A    between atoms: C21_24  and  O4_25 
REMARK    5  A    between atoms: O4_25  and  C22_26 
REMARK    6  A    between atoms: C22_26  and  C23_28 
REMARK    7  A    between atoms: C23_28  and  C24_29 
REMARK    8  A    between atoms: C24_29  and  C25_30 
REMARK       I    between atoms: C25_30  and  N1_32 
REMARK    9  A    between atoms: N1_32  and  C26_33 
REMARK   10  A    between atoms: C26_33  and  C27_34 
REMARK   11  A    between atoms: C27_34  and  C28_35 
REMARK   12  A    between atoms: C28_35  and  C29_36 
REMARK   13  A    between atoms: C29_36  and  C30_37 
REMARK   14  A    between atoms: C30_37  and  C31_38 
REMARK   15  A    between atoms: C31_38  and  O8_40 
ROOT
HETATM    1  C1  UNL     1      -8.636   6.380  12.934  1.00  0.00     0.020 C 
HETATM    2  C2  UNL     1      -7.358   5.504  13.108  1.00  0.00    -0.016 C 
HETATM    3  C3  UNL     1      -7.278   4.659  11.797  1.00  0.00     0.022 C 
HETATM    4  C4  UNL     1      -6.700   3.258  11.933  1.00  0.00     0.084 C 
HETATM    5  C5  UNL     1      -7.295   2.532  13.111  1.00  0.00     0.149 C 
HETATM    6  O1  UNL     1      -7.504   1.321  13.100  1.00  0.00    -0.293 OA
HETATM    7  C6  UNL     1      -7.525   3.302  14.353  1.00  0.00     0.053 C 
HETATM    8  C7  UNL     1      -7.511   4.646  14.362  1.00  0.00    -0.068 C 
HETATM    9  C8  UNL     1      -7.584   5.402  15.671  1.00  0.00     0.035 C 
HETATM   10  C9  UNL     1      -6.395   6.361  15.839  1.00  0.00     0.010 C 
HETATM   11  C10 UNL     1      -6.191   7.270  14.609  1.00  0.00    -0.004 C 
HETATM   12  C11 UNL     1      -6.102   6.435  13.301  1.00  0.00     0.002 C 
HETATM   13  C12 UNL     1      -4.752   5.680  13.206  1.00  0.00     0.007 C 
HETATM   14  C13 UNL     1      -3.599   6.245  14.041  1.00  0.00     0.013 C 
HETATM   15  C14 UNL     1      -3.613   7.769  14.225  1.00  0.00    -0.002 C 
HETATM   16  C15 UNL     1      -3.259   8.437  12.872  1.00  0.00     0.019 C 
HETATM   17  C16 UNL     1      -5.024   8.284  14.670  1.00  0.00     0.002 C 
HETATM   18  C17 UNL     1      -4.825   9.008  16.007  1.00  0.00     0.009 C 
HETATM   19  C18 UNL     1      -3.383   9.490  15.939  1.00  0.00     0.047 C 
HETATM   20  C19 UNL     1      -2.653   8.267  15.366  1.00  0.00     0.128 C 
ENDROOT
BRANCH  20  21
HETATM   21  O2  UNL     1      -2.580   7.300  16.423  1.00  0.00    -0.381 OA
HETATM   22  H27 UNL     1      -2.003   7.663  17.127  1.00  0.00     0.211 HD
ENDBRANCH  20  21
BRANCH  20  23
HETATM   23  C20 UNL     1      -1.217   8.595  14.918  1.00  0.00     0.185 C 
HETATM   24  O3  UNL     1      -0.388   7.719  14.654  1.00  0.00    -0.292 OA
BRANCH  23  25
HETATM   25  C21 UNL     1      -0.862  10.077  14.792  1.00  0.00     0.260 C 
BRANCH  25  26
HETATM   26  O4  UNL     1      -0.705  10.722  16.056  1.00  0.00    -0.314 OA
BRANCH  26  27
HETATM   27  C22 UNL     1      -0.632  12.080  15.977  1.00  0.00     0.259 C 
HETATM   28  O5  UNL     1      -0.059  12.706  15.092  1.00  0.00    -0.265 OA
BRANCH  27  29
HETATM   29  C23 UNL     1      -1.330  12.712  17.149  1.00  0.00     0.120 C 
BRANCH  29  30
HETATM   30  C24 UNL     1      -2.428  13.644  16.662  1.00  0.00     0.112 C 
BRANCH  30  31
HETATM   31  C25 UNL     1      -3.263  14.152  17.817  1.00  0.00     0.217 C 
HETATM   32  O6  UNL     1      -2.873  15.005  18.608  1.00  0.00    -0.274 OA
HETATM   33  N1  UNL     1      -4.509  13.562  17.887  1.00  0.00    -0.361 N 
HETATM   34  H34 UNL     1      -4.837  13.066  17.067  1.00  0.00     0.162 HD
BRANCH  33  35
HETATM   35  C26 UNL     1      -5.501  14.078  18.810  1.00  0.00     0.122 C 
BRANCH  35  36
HETATM   36  C27 UNL     1      -5.504  13.300  20.121  1.00  0.00     0.020 C 
BRANCH  36  37
HETATM   37  C28 UNL     1      -5.477  14.203  21.359  1.00  0.00     0.002 C 
BRANCH  37  38
HETATM   38  C29 UNL     1      -5.990  13.565  22.655  1.00  0.00     0.010 C 
BRANCH  38  39
HETATM   39  C30 UNL     1      -7.399  12.988  22.532  1.00  0.00     0.110 C 
BRANCH  39  40
HETATM   40  C31 UNL     1      -8.241  13.303  23.743  1.00  0.00     0.139 C 
HETATM   41  O7  UNL     1      -8.272  14.339  24.381  1.00  0.00    -0.650 OA
BRANCH  40  42
HETATM   42  O8  UNL     1      -9.026  12.262  24.090  1.00  0.00    -0.776 OA
HETATM   43  H45 UNL     1      -9.521  12.593  24.870  1.00  0.00     0.167 HD
ENDBRANCH  40  42
ENDBRANCH  39  40
ENDBRANCH  38  39
ENDBRANCH  37  38
ENDBRANCH  36  37
ENDBRANCH  35  36
ENDBRANCH  33  35
ENDBRANCH  30  31
ENDBRANCH  29  30
ENDBRANCH  27  29
ENDBRANCH  26  27
ENDBRANCH  25  26
ENDBRANCH  23  25
ENDBRANCH  20  23
TORSDOF 15
ENDMDL
MODEL 3
REMARK minimizedAffinity -8.40447044
REMARK CNNscore 0.745730042
REMARK CNNaffinity 7.6250701
REMARK  15 active torsions:
REMARK  status: ('A' for Active; 'I' for Inactive)
REMARK    1  A    between atoms: C19_20  and  O2_21 
REMARK    2  A    between atoms: C19_20  and  C20_22 
REMARK    3  A    between atoms: C20_22  and  C21_24 
REMARK    4  A    between atoms: C21_24  and  O4_25 
REMARK    5  A    between atoms: O4_25  and  C22_26 
REMARK    6  A    between atoms: C22_26  and  C23_28 
REMARK    7  A    between atoms: C23_28  and  C24_29 
REMARK    8  A    between atoms: C24_29  and  C25_30 
REMARK       I    between atoms: C25_30  and  N1_32 
REMARK    9  A    between atoms: N1_32  and  C26_33 
REMARK   10  A    between atoms: C26_33  and  C27_34 
REMARK   11  A    between atoms: C27_34  and  C28_35 
REMARK   12  A    between atoms: C28_35  and  C29_36 
REMARK   13  A    between atoms: C29_36  and  C30_37 
REMARK   14  A    between atoms: C30_37  and  C31_38 
REMARK   15  A    between atoms: C31_38  and  O8_40 
ROOT
HETATM    1  C1  UNL     1       0.022   5.104  10.858  1.00  0.00     0.020 C 
HETATM    2  C2  UNL     1       0.139   6.525  11.488  1.00  0.00    -0.016 C 
HETATM    3  C3  UNL     1       0.534   7.453  10.296  1.00  0.00     0.022 C 
HETATM    4  C4  UNL     1       1.439   8.631  10.630  1.00  0.00     0.084 C 
HETATM    5  C5  UNL     1       2.592   8.206  11.501  1.00  0.00     0.149 C 
HETATM    6  O1  UNL     1       3.708   8.711  11.409  1.00  0.00    -0.293 OA
HETATM    7  C6  UNL     1       2.321   7.223  12.575  1.00  0.00     0.053 C 
HETATM    8  C7  UNL     1       1.193   6.493  12.594  1.00  0.00    -0.068 C 
HETATM    9  C8  UNL     1       0.868   5.620  13.786  1.00  0.00     0.035 C 
HETATM   10  C9  UNL     1      -0.504   5.965  14.386  1.00  0.00     0.010 C 
HETATM   11  C10 UNL     1      -1.621   6.002  13.322  1.00  0.00    -0.004 C 
HETATM   12  C11 UNL     1      -1.238   6.931  12.136  1.00  0.00     0.002 C 
HETATM   13  C12 UNL     1      -1.314   8.423  12.543  1.00  0.00     0.007 C 
HETATM   14  C13 UNL     1      -2.201   8.754  13.747  1.00  0.00     0.013 C 
HETATM   15  C14 UNL     1      -3.429   7.849  13.920  1.00  0.00    -0.002 C 
HETATM   16  C15 UNL     1      -4.447   8.172  12.796  1.00  0.00     0.019 C 
HETATM   17  C16 UNL     1      -3.049   6.333  13.813  1.00  0.00     0.002 C 
HETATM   18  C17 UNL     1      -3.480   5.681  15.133  1.00  0.00     0.009 C 
HETATM   19  C18 UNL     1      -4.631   6.557  15.605  1.00  0.00     0.047 C 
HETATM   20  C19 UNL     1      -4.099   7.972  15.337  1.00  0.00     0.128 C 
ENDROOT
BRANCH  20  21
HETATM   21  O2  UNL     1      -3.110   8.236  16.341  1.00  0.00    -0.381 OA
HETATM   22  H27 UNL     1      -3.562   8.270  17.211  1.00  0.00     0.211 HD
ENDBRANCH  20  21
BRANCH  20  23
HETATM   23  C20 UNL     1      -5.197   9.046  15.452  1.00  0.00     0.185 C 
HETATM   24  O3  UNL     1      -4.943  10.254  15.471  1.00  0.00    -0.292 OA
BRANCH  23  25
HETATM   25  C21 UNL     1      -6.640   8.543  15.524  1.00  0.00     0.260 C 
BRANCH  25  26
HETATM   26  O4  UNL     1      -7.032   7.805  14.367  1.00  0.00    -0.314 OA
BRANCH  26  27
HETATM   27  C22 UNL     1      -8.142   7.038  14.551  1.00  0.00     0.259 C 
HETATM   28  O5  UNL     1      -9.258   7.467  14.827  1.00  0.00    -0.265 OA
BRANCH  27  29
HETATM   29  C23 UNL     1      -7.805   5.581  14.400  1.00  0.00     0.120 C 
BRANCH  29  30
HETATM   30  C24 UNL     1      -8.265   5.078  13.041  1.00  0.00     0.112 C 
BRANCH  30  31
HETATM   31  C25 UNL     1      -7.698   3.706  12.748  1.00  0.00     0.217 C 
HETATM   32  O6  UNL     1      -8.101   2.680  13.287  1.00  0.00    -0.274 OA
HETATM   33  N1  UNL     1      -6.685   3.726  11.810  1.00  0.00    -0.361 N 
HETATM   34  H34 UNL     1      -6.590   4.561  11.244  1.00  0.00     0.162 HD
BRANCH  33  35
HETATM   35  C26 UNL     1      -6.174   2.480  11.273  1.00  0.00     0.122 C 
BRANCH  35  36
HETATM   36  C27 UNL     1      -4.699   2.289  11.610  1.00  0.00     0.020 C 
BRANCH  36  37
HETATM   37  C28 UNL     1      -3.820   3.461  11.160  1.00  0.00     0.002 C 
BRANCH  37  38
HETATM   38  C29 UNL     1      -2.352   3.118  10.881  1.00  0.00     0.010 C 
BRANCH  38  39
HETATM   39  C30 UNL     1      -1.991   1.673  11.219  1.00  0.00     0.110 C 
BRANCH  39  40
HETATM   40  C31 UNL     1      -0.814   1.186  10.413  1.00  0.00     0.139 C 
HETATM   41  O7  UNL     1      -0.831   0.508   9.402  1.00  0.00    -0.650 OA
BRANCH  40  42
HETATM   42  O8  UNL     1       0.357   1.600  10.939  1.00  0.00    -0.776 OA
HETATM   43  H45 UNL     1       1.031   1.232  10.327  1.00  0.00     0.167 HD
ENDBRANCH  40  42
ENDBRANCH  39  40
ENDBRANCH  38  39
ENDBRANCH  37  38
ENDBRANCH  36  37
ENDBRANCH  35  36
ENDBRANCH  33  35
ENDBRANCH  30  31
ENDBRANCH  29  30
ENDBRANCH  27  29
ENDBRANCH  26  27
ENDBRANCH  25  26
ENDBRANCH  23  25
ENDBRANCH  20  23
TORSDOF 15
ENDMDL
MODEL 4
REMARK minimizedAffinity -8.96282005
REMARK CNNscore 0.486086309
REMARK CNNaffinity 7.07569885
REMARK  15 active torsions:
REMARK  status: ('A' for Active; 'I' for Inactive)
REMARK    1  A    between atoms: C19_20  and  O2_21 
REMARK    2  A    between atoms: C19_20  and  C20_22 
REMARK    3  A    between atoms: C20_22  and  C21_24 
REMARK    4  A    between atoms: C21_24  and  O4_25 
REMARK    5  A    between atoms: O4_25  and  C22_26 
REMARK    6  A    between atoms: C22_26  and  C23_28 
REMARK    7  A    between atoms: C23_28  and  C24_29 
REMARK    8  A    between atoms: C24_29  and  C25_30 
REMARK       I    between atoms: C25_30  and  N1_32 
REMARK    9  A    between atoms: N1_32  and  C26_33 
REMARK   10  A    between atoms: C26_33  and  C27_34 
REMARK   11  A    between atoms: C27_34  and  C28_35 
REMARK   12  A    between atoms: C28_35  and  C29_36 
REMARK   13  A    between atoms: C29_36  and  C30_37 
REMARK   14  A    between atoms: C30_37  and  C31_38 
REMARK   15  A    between atoms: C31_38  and  O8_40 
ROOT
HETATM    1  C1  UNL     1       2.806   7.482   8.345  1.00  0.00     0.020 C 
HETATM    2  C2  UNL     1       3.273   7.520   9.832  1.00  0.00    -0.016 C 
HETATM    3  C3  UNL     1       4.184   8.784   9.926  1.00  0.00     0.022 C 
HETATM    4  C4  UNL     1       5.352   8.703  10.899  1.00  0.00     0.084 C 
HETATM    5  C5  UNL     1       6.098   7.403  10.752  1.00  0.00     0.149 C 
HETATM    6  O1  UNL     1       7.315   7.322  10.902  1.00  0.00    -0.293 OA
HETATM    7  C6  UNL     1       5.306   6.173  10.526  1.00  0.00     0.053 C 
HETATM    8  C7  UNL     1       4.016   6.225  10.152  1.00  0.00    -0.068 C 
HETATM    9  C8  UNL     1       3.188   4.960  10.090  1.00  0.00     0.035 C 
HETATM   10  C9  UNL     1       1.926   5.063  10.960  1.00  0.00     0.010 C 
HETATM   11  C10 UNL     1       1.119   6.347  10.678  1.00  0.00    -0.004 C 
HETATM   12  C11 UNL     1       2.018   7.611  10.779  1.00  0.00     0.002 C 
HETATM   13  C12 UNL     1       2.375   7.932  12.251  1.00  0.00     0.007 C 
HETATM   14  C13 UNL     1       1.437   7.359  13.318  1.00  0.00     0.013 C 
HETATM   15  C14 UNL     1      -0.034   7.240  12.895  1.00  0.00    -0.002 C 
HETATM   16  C15 UNL     1      -0.642   8.663  12.803  1.00  0.00     0.019 C 
HETATM   17  C16 UNL     1      -0.179   6.555  11.494  1.00  0.00     0.002 C 
HETATM   18  C17 UNL     1      -1.054   5.313  11.703  1.00  0.00     0.009 C 
HETATM   19  C18 UNL     1      -1.907   5.677  12.909  1.00  0.00     0.047 C 
HETATM   20  C19 UNL     1      -0.885   6.327  13.852  1.00  0.00     0.128 C 
ENDROOT
BRANCH  20  21
HETATM   21  O2  UNL     1      -0.080   5.264  14.382  1.00  0.00    -0.381 OA
HETATM   22  H27 UNL     1      -0.654   4.700  14.942  1.00  0.00     0.211 HD
ENDBRANCH  20  21
BRANCH  20  23
HETATM   23  C20 UNL     1      -1.552   7.057  15.032  1.00  0.00     0.185 C 
HETATM   24  O3  UNL     1      -0.933   7.828  15.770  1.00  0.00    -0.292 OA
BRANCH  23  25
HETATM   25  C21 UNL     1      -3.044   6.795  15.242  1.00  0.00     0.260 C 
BRANCH  25  26
HETATM   26  O4  UNL     1      -3.874   7.807  14.673  1.00  0.00    -0.314 OA
BRANCH  26  27
HETATM   27  C22 UNL     1      -4.896   7.322  13.915  1.00  0.00     0.259 C 
HETATM   28  O5  UNL     1      -5.601   7.993  13.167  1.00  0.00    -0.265 OA
BRANCH  27  29
HETATM   29  C23 UNL     1      -5.066   5.846  14.144  1.00  0.00     0.120 C 
BRANCH  29  30
HETATM   30  C24 UNL     1      -6.538   5.513  14.331  1.00  0.00     0.112 C 
BRANCH  30  31
HETATM   31  C25 UNL     1      -7.063   4.699  13.169  1.00  0.00     0.217 C 
HETATM   32  O6  UNL     1      -7.798   5.159  12.301  1.00  0.00    -0.274 OA
HETATM   33  N1  UNL     1      -6.628   3.389  13.183  1.00  0.00    -0.361 N 
HETATM   34  H34 UNL     1      -5.842   3.165  13.781  1.00  0.00     0.162 HD
BRANCH  33  35
HETATM   35  C26 UNL     1      -6.877   2.533  12.040  1.00  0.00     0.122 C 
BRANCH  35  36
HETATM   36  C27 UNL     1      -5.610   1.816  11.590  1.00  0.00     0.020 C 
BRANCH  36  37
HETATM   37  C28 UNL     1      -4.454   2.774  11.274  1.00  0.00     0.002 C 
BRANCH  37  38
HETATM   38  C29 UNL     1      -3.108   2.420  11.916  1.00  0.00     0.010 C 
BRANCH  38  39
HETATM   39  C30 UNL     1      -2.495   1.131  11.373  1.00  0.00     0.110 C 
BRANCH  39  40
HETATM   40  C31 UNL     1      -1.124   1.364  10.790  1.00  0.00     0.139 C 
HETATM   41  O7  UNL     1      -0.206   2.000  11.275  1.00  0.00    -0.650 OA
BRANCH  40  42
HETATM   42  O8  UNL     1      -0.981   0.759   9.593  1.00  0.00    -0.776 OA
HETATM   43  H45 UNL     1      -0.059   0.975   9.331  1.00  0.00     0.167 HD
ENDBRANCH  40  42
ENDBRANCH  39  40
ENDBRANCH  38  39
ENDBRANCH  37  38
ENDBRANCH  36  37
ENDBRANCH  35  36
ENDBRANCH  33  35
ENDBRANCH  30  31
ENDBRANCH  29  30
ENDBRANCH  27  29
ENDBRANCH  26  27
ENDBRANCH  25  26
ENDBRANCH  23  25
ENDBRANCH  20  23
TORSDOF 15
ENDMDL
MODEL 5
REMARK minimizedAffinity -7.91841555
REMARK CNNscore 0.445284873
REMARK CNNaffinity 6.49671364
REMARK  15 active torsions:
REMARK  status: ('A' for Active; 'I' for Inactive)
REMARK    1  A    between atoms: C19_20  and  O2_21 
REMARK    2  A    between atoms: C19_20  and  C20_22 
REMARK    3  A    between atoms: C20_22  and  C21_24 
REMARK    4  A    between atoms: C21_24  and  O4_25 
REMARK    5  A    between atoms: O4_25  and  C22_26 
REMARK    6  A    between atoms: C22_26  and  C23_28 
REMARK    7  A    between atoms: C23_28  and  C24_29 
REMARK    8  A    between atoms: C24_29  and  C25_30 
REMARK       I    between atoms: C25_30  and  N1_32 
REMARK    9  A    between atoms: N1_32  and  C26_33 
REMARK   10  A    between atoms: C26_33  and  C27_34 
REMARK   11  A    between atoms: C27_34  and  C28_35 
REMARK   12  A    between atoms: C28_35  and  C29_36 
REMARK   13  A    between atoms: C29_36  and  C30_37 
REMARK   14  A    between atoms: C30_37  and  C31_38 
REMARK   15  A    between atoms: C31_38  and  O8_40 
ROOT
HETATM    1  C1  UNL     1      -7.387   4.654  15.902  1.00  0.00     0.020 C 
HETATM    2  C2  UNL     1      -7.459   5.959  15.053  1.00  0.00    -0.016 C 
HETATM    3  C3  UNL     1      -8.634   6.773  15.682  1.00  0.00     0.022 C 
HETATM    4  C4  UNL     1      -9.450   7.629  14.724  1.00  0.00     0.084 C 
HETATM    5  C5  UNL     1      -9.815   6.862  13.479  1.00  0.00     0.149 C 
HETATM    6  O1  UNL     1     -10.881   7.027  12.893  1.00  0.00    -0.293 OA
HETATM    7  C6  UNL     1      -8.793   5.963  12.897  1.00  0.00     0.053 C 
HETATM    8  C7  UNL     1      -7.705   5.589  13.592  1.00  0.00    -0.068 C 
HETATM    9  C8  UNL     1      -6.599   4.807  12.917  1.00  0.00     0.035 C 
HETATM   10  C9  UNL     1      -5.241   5.513  13.052  1.00  0.00     0.010 C 
HETATM   11  C10 UNL     1      -4.922   5.905  14.510  1.00  0.00    -0.004 C 
HETATM   12  C11 UNL     1      -6.084   6.723  15.140  1.00  0.00     0.002 C 
HETATM   13  C12 UNL     1      -6.137   8.160  14.564  1.00  0.00     0.007 C 
HETATM   14  C13 UNL     1      -4.840   8.691  13.947  1.00  0.00     0.013 C 
HETATM   15  C14 UNL     1      -3.549   8.173  14.596  1.00  0.00    -0.002 C 
HETATM   16  C15 UNL     1      -3.407   8.813  16.001  1.00  0.00     0.019 C 
HETATM   17  C16 UNL     1      -3.573   6.617  14.768  1.00  0.00     0.002 C 
HETATM   18  C17 UNL     1      -2.362   6.073  14.000  1.00  0.00     0.009 C 
HETATM   19  C18 UNL     1      -1.371   7.227  14.033  1.00  0.00     0.047 C 
HETATM   20  C19 UNL     1      -2.266   8.437  13.727  1.00  0.00     0.128 C 
ENDROOT
BRANCH  20  21
HETATM   21  O2  UNL     1      -2.581   8.372  12.329  1.00  0.00    -0.381 OA
HETATM   22  H27 UNL     1      -1.751   8.505  11.824  1.00  0.00     0.211 HD
ENDBRANCH  20  21
BRANCH  20  23
HETATM   23  C20 UNL     1      -1.556   9.777  13.995  1.00  0.00     0.185 C 
HETATM   24  O3  UNL     1      -2.089  10.867  13.768  1.00  0.00    -0.292 OA
BRANCH  23  25
HETATM   25  C21 UNL     1      -0.146   9.698  14.583  1.00  0.00     0.260 C 
BRANCH  25  26
HETATM   26  O4  UNL     1       0.045  10.573  15.695  1.00  0.00    -0.314 OA
BRANCH  26  27
HETATM   27  C22 UNL     1       0.832  10.054  16.677  1.00  0.00     0.259 C 
HETATM   28  O5  UNL     1       1.056   8.859  16.845  1.00  0.00    -0.265 OA
BRANCH  27  29
HETATM   29  C23 UNL     1       1.369  11.150  17.555  1.00  0.00     0.120 C 
BRANCH  29  30
HETATM   30  C24 UNL     1       1.292  10.733  19.015  1.00  0.00     0.112 C 
BRANCH  30  31
HETATM   31  C25 UNL     1       2.592  11.026  19.733  1.00  0.00     0.217 C 
HETATM   32  O6  UNL     1       3.520  10.225  19.802  1.00  0.00    -0.274 OA
HETATM   33  N1  UNL     1       2.629  12.285  20.297  1.00  0.00    -0.361 N 
HETATM   34  H34 UNL     1       1.938  12.956  19.985  1.00  0.00     0.162 HD
BRANCH  33  35
HETATM   35  C26 UNL     1       3.871  12.793  20.847  1.00  0.00     0.122 C 
BRANCH  35  36
HETATM   36  C27 UNL     1       3.922  12.627  22.361  1.00  0.00     0.020 C 
BRANCH  36  37
HETATM   37  C28 UNL     1       4.996  13.496  23.028  1.00  0.00     0.002 C 
BRANCH  37  38
HETATM   38  C29 UNL     1       6.417  13.329  22.478  1.00  0.00     0.010 C 
BRANCH  38  39
HETATM   39  C30 UNL     1       7.170  12.149  23.090  1.00  0.00     0.110 C 
BRANCH  39  40
HETATM   40  C31 UNL     1       8.663  12.355  23.049  1.00  0.00     0.139 C 
HETATM   41  O7  UNL     1       9.335  13.086  23.754  1.00  0.00    -0.650 OA
BRANCH  40  42
HETATM   42  O8  UNL     1       9.246  11.600  22.096  1.00  0.00    -0.776 OA
HETATM   43  H45 UNL     1      10.201  11.815  22.178  1.00  0.00     0.167 HD
ENDBRANCH  40  42
ENDBRANCH  39  40
ENDBRANCH  38  39
ENDBRANCH  37  38
ENDBRANCH  36  37
ENDBRANCH  35  36
ENDBRANCH  33  35
ENDBRANCH  30  31
ENDBRANCH  29  30
ENDBRANCH  27  29
ENDBRANCH  26  27
ENDBRANCH  25  26
ENDBRANCH  23  25
ENDBRANCH  20  23
TORSDOF 15
ENDMDL
MODEL 6
REMARK minimizedAffinity -8.29070854
REMARK CNNscore 0.439335197
REMARK CNNaffinity 7.205441
REMARK  15 active torsions:
REMARK  status: ('A' for Active; 'I' for Inactive)
REMARK    1  A    between atoms: C19_20  and  O2_21 
REMARK    2  A    between atoms: C19_20  and  C20_22 
REMARK    3  A    between atoms: C20_22  and  C21_24 
REMARK    4  A    between atoms: C21_24  and  O4_25 
REMARK    5  A    between atoms: O4_25  and  C22_26 
REMARK    6  A    between atoms: C22_26  and  C23_28 
REMARK    7  A    between atoms: C23_28  and  C24_29 
REMARK    8  A    between atoms: C24_29  and  C25_30 
REMARK       I    between atoms: C25_30  and  N1_32 
REMARK    9  A    between atoms: N1_32  and  C26_33 
REMARK   10  A    between atoms: C26_33  and  C27_34 
REMARK   11  A    between atoms: C27_34  and  C28_35 
REMARK   12  A    between atoms: C28_35  and  C29_36 
REMARK   13  A    between atoms: C29_36  and  C30_37 
REMARK   14  A    between atoms: C30_37  and  C31_38 
REMARK   15  A    between atoms: C31_38  and  O8_40 
ROOT
HETATM    1  C1  UNL     1      -8.636   6.775  13.651  1.00  0.00     0.020 C 
HETATM    2  C2  UNL     1      -7.394   5.853  13.461  1.00  0.00    -0.016 C 
HETATM    3  C3  UNL     1      -7.622   5.166  12.078  1.00  0.00     0.022 C 
HETATM    4  C4  UNL     1      -7.097   3.744  11.937  1.00  0.00     0.084 C 
HETATM    5  C5  UNL     1      -7.476   2.900  13.126  1.00  0.00     0.149 C 
HETATM    6  O1  UNL     1      -7.742   1.705  13.028  1.00  0.00    -0.293 OA
HETATM    7  C6  UNL     1      -7.412   3.526  14.466  1.00  0.00     0.053 C 
HETATM    8  C7  UNL     1      -7.330   4.859  14.618  1.00  0.00    -0.068 C 
HETATM    9  C8  UNL     1      -7.100   5.459  15.988  1.00  0.00     0.035 C 
HETATM   10  C9  UNL     1      -5.857   6.361  16.011  1.00  0.00     0.010 C 
HETATM   11  C10 UNL     1      -5.862   7.402  14.872  1.00  0.00    -0.004 C 
HETATM   12  C11 UNL     1      -6.081   6.723  13.490  1.00  0.00     0.002 C 
HETATM   13  C12 UNL     1      -4.817   5.951  13.037  1.00  0.00     0.007 C 
HETATM   14  C13 UNL     1      -3.492   6.385  13.672  1.00  0.00     0.013 C 
HETATM   15  C14 UNL     1      -3.394   7.877  14.020  1.00  0.00    -0.002 C 
HETATM   16  C15 UNL     1      -3.289   8.689  12.704  1.00  0.00     0.019 C 
HETATM   17  C16 UNL     1      -4.659   8.372  14.800  1.00  0.00     0.002 C 
HETATM   18  C17 UNL     1      -4.158   8.930  16.137  1.00  0.00     0.009 C 
HETATM   19  C18 UNL     1      -2.738   9.380  15.826  1.00  0.00     0.047 C 
HETATM   20  C19 UNL     1      -2.200   8.214  14.985  1.00  0.00     0.128 C 
ENDROOT
BRANCH  20  21
HETATM   21  O2  UNL     1      -1.962   7.128  15.892  1.00  0.00    -0.381 OA
HETATM   22  H27 UNL     1      -1.237   7.392  16.497  1.00  0.00     0.211 HD
ENDBRANCH  20  21
BRANCH  20  23
HETATM   23  C20 UNL     1      -0.870   8.556  14.288  1.00  0.00     0.185 C 
HETATM   24  O3  UNL     1      -0.486   9.717  14.125  1.00  0.00    -0.292 OA
BRANCH  23  25
HETATM   25  C21 UNL     1      -0.023   7.373  13.814  1.00  0.00     0.260 C 
BRANCH  25  26
HETATM   26  O4  UNL     1      -0.243   7.044  12.443  1.00  0.00    -0.314 OA
BRANCH  26  27
HETATM   27  C22 UNL     1       0.814   7.324  11.631  1.00  0.00     0.259 C 
HETATM   28  O5  UNL     1       1.321   8.432  11.489  1.00  0.00    -0.265 OA
BRANCH  27  29
HETATM   29  C23 UNL     1       1.261   6.086  10.904  1.00  0.00     0.120 C 
BRANCH  29  30
HETATM   30  C24 UNL     1       2.101   6.466   9.695  1.00  0.00     0.112 C 
BRANCH  30  31
HETATM   31  C25 UNL     1       3.560   6.128   9.917  1.00  0.00     0.217 C 
HETATM   32  O6  UNL     1       4.089   5.110   9.485  1.00  0.00    -0.274 OA
HETATM   33  N1  UNL     1       4.233   7.085  10.651  1.00  0.00    -0.361 N 
HETATM   34  H34 UNL     1       3.793   7.992  10.750  1.00  0.00     0.162 HD
BRANCH  33  35
HETATM   35  C26 UNL     1       5.675   7.011  10.782  1.00  0.00     0.122 C 
BRANCH  35  36
HETATM   36  C27 UNL     1       6.102   6.959  12.244  1.00  0.00     0.020 C 
BRANCH  36  37
HETATM   37  C28 UNL     1       7.018   8.122  12.647  1.00  0.00     0.002 C 
BRANCH  37  38
HETATM   38  C29 UNL     1       8.183   7.755  13.574  1.00  0.00     0.010 C 
BRANCH  38  39
HETATM   39  C30 UNL     1       7.865   7.949  15.055  1.00  0.00     0.110 C 
BRANCH  39  40
HETATM   40  C31 UNL     1       9.115   7.983  15.897  1.00  0.00     0.139 C 
HETATM   41  O7  UNL     1       9.214   7.786  17.094  1.00  0.00    -0.650 OA
BRANCH  40  42
HETATM   42  O8  UNL     1      10.207   8.267  15.158  1.00  0.00    -0.776 OA
HETATM   43  H45 UNL     1      10.942   8.250  15.809  1.00  0.00     0.167 HD
ENDBRANCH  40  42
ENDBRANCH  39  40
ENDBRANCH  38  39
ENDBRANCH  37  38
ENDBRANCH  36  37
ENDBRANCH  35  36
ENDBRANCH  33  35
ENDBRANCH  30  31
ENDBRANCH  29  30
ENDBRANCH  27  29
ENDBRANCH  26  27
ENDBRANCH  25  26
ENDBRANCH  23  25
ENDBRANCH  20  23
TORSDOF 15
ENDMDL
MODEL 7
REMARK minimizedAffinity -7.24772739
REMARK CNNscore 0.436472625
REMARK CNNaffinity 6.81899977
REMARK  15 active torsions:
REMARK  status: ('A' for Active; 'I' for Inactive)
REMARK    1  A    between atoms: C19_20  and  O2_21 
REMARK    2  A    between atoms: C19_20  and  C20_22 
REMARK    3  A    between atoms: C20_22  and  C21_24 
REMARK    4  A    between atoms: C21_24  and  O4_25 
REMARK    5  A    between atoms: O4_25  and  C22_26 
REMARK    6  A    between atoms: C22_26  and  C23_28 
REMARK    7  A    between atoms: C23_28  and  C24_29 
REMARK    8  A    between atoms: C24_29  and  C25_30 
REMARK       I    between atoms: C25_30  and  N1_32 
REMARK    9  A    between atoms: N1_32  and  C26_33 
REMARK   10  A    between atoms: C26_33  and  C27_34 
REMARK   11  A    between atoms: C27_34  and  C28_35 
REMARK   12  A    between atoms: C28_35  and  C29_36 
REMARK   13  A    between atoms: C29_36  and  C30_37 
REMARK   14  A    between atoms: C30_37  and  C31_38 
REMARK   15  A    between atoms: C31_38  and  O8_40 
ROOT
HETATM    1  C1  UNL     1      -7.413   4.777  16.097  1.00  0.00     0.020 C 
HETATM    2  C2  UNL     1      -7.447   6.009  15.142  1.00  0.00    -0.016 C 
HETATM    3  C3  UNL     1      -8.595   6.908  15.700  1.00  0.00     0.022 C 
HETATM    4  C4  UNL     1      -9.386   7.706  14.674  1.00  0.00     0.084 C 
HETATM    5  C5  UNL     1      -9.776   6.850  13.497  1.00  0.00     0.149 C 
HETATM    6  O1  UNL     1     -10.838   6.999  12.898  1.00  0.00    -0.293 OA
HETATM    7  C6  UNL     1      -8.783   5.875  12.992  1.00  0.00     0.053 C 
HETATM    8  C7  UNL     1      -7.706   5.527  13.717  1.00  0.00    -0.068 C 
HETATM    9  C8  UNL     1      -6.626   4.658  13.110  1.00  0.00     0.035 C 
HETATM   10  C9  UNL     1      -5.246   5.330  13.188  1.00  0.00     0.010 C 
HETATM   11  C10 UNL     1      -4.913   5.832  14.608  1.00  0.00    -0.004 C 
HETATM   12  C11 UNL     1      -6.049   6.735  15.167  1.00  0.00     0.002 C 
HETATM   13  C12 UNL     1      -6.058   8.120  14.474  1.00  0.00     0.007 C 
HETATM   14  C13 UNL     1      -4.747   8.558  13.815  1.00  0.00     0.013 C 
HETATM   15  C14 UNL     1      -3.471   8.057  14.507  1.00  0.00    -0.002 C 
HETATM   16  C15 UNL     1      -3.307   8.806  15.853  1.00  0.00     0.019 C 
HETATM   17  C16 UNL     1      -3.543   6.521  14.807  1.00  0.00     0.002 C 
HETATM   18  C17 UNL     1      -2.351   5.878  14.089  1.00  0.00     0.009 C 
HETATM   19  C18 UNL     1      -1.325   7.001  14.026  1.00  0.00     0.047 C 
HETATM   20  C19 UNL     1      -2.182   8.208  13.620  1.00  0.00     0.128 C 
ENDROOT
BRANCH  20  21
HETATM   21  O2  UNL     1      -2.501   8.036  12.232  1.00  0.00    -0.381 OA
HETATM   22  H27 UNL     1      -1.668   8.102  11.719  1.00  0.00     0.211 HD
ENDBRANCH  20  21
BRANCH  20  23
HETATM   23  C20 UNL     1      -1.431   9.543  13.777  1.00  0.00     0.185 C 
HETATM   24  O3  UNL     1      -2.007  10.634  13.751  1.00  0.00    -0.292 OA
BRANCH  23  25
HETATM   25  C21 UNL     1       0.081   9.456  13.989  1.00  0.00     0.260 C 
BRANCH  25  26
HETATM   26  O4  UNL     1       0.811   9.346  12.767  1.00  0.00    -0.314 OA
BRANCH  26  27
HETATM   27  C22 UNL     1       2.140   9.101  12.938  1.00  0.00     0.259 C 
HETATM   28  O5  UNL     1       2.937   8.873  12.034  1.00  0.00    -0.265 OA
BRANCH  27  29
HETATM   29  C23 UNL     1       2.494   9.119  14.398  1.00  0.00     0.120 C 
BRANCH  29  30
HETATM   30  C24 UNL     1       3.087   7.780  14.808  1.00  0.00     0.112 C 
BRANCH  30  31
HETATM   31  C25 UNL     1       4.596   7.857  14.895  1.00  0.00     0.217 C 
HETATM   32  O6  UNL     1       5.195   8.249  15.891  1.00  0.00    -0.274 OA
HETATM   33  N1  UNL     1       5.229   7.435  13.743  1.00  0.00    -0.361 N 
HETATM   34  H34 UNL     1       4.680   6.903  13.078  1.00  0.00     0.162 HD
BRANCH  33  35
HETATM   35  C26 UNL     1       6.668   7.258  13.733  1.00  0.00     0.122 C 
BRANCH  35  36
HETATM   36  C27 UNL     1       7.388   8.508  14.225  1.00  0.00     0.020 C 
BRANCH  36  37
HETATM   37  C28 UNL     1       8.833   8.609  13.721  1.00  0.00     0.002 C 
BRANCH  37  38
HETATM   38  C29 UNL     1       9.708   9.652  14.427  1.00  0.00     0.010 C 
BRANCH  38  39
HETATM   39  C30 UNL     1       9.002  10.354  15.585  1.00  0.00     0.110 C 
BRANCH  39  40
HETATM   40  C31 UNL     1       9.550   9.921  16.921  1.00  0.00     0.139 C 
HETATM   41  O7  UNL     1       8.976   9.301  17.797  1.00  0.00    -0.650 OA
BRANCH  40  42
HETATM   42  O8  UNL     1      10.835  10.299  17.080  1.00  0.00    -0.776 OA
HETATM   43  H45 UNL     1      11.072   9.954  17.968  1.00  0.00     0.167 HD
ENDBRANCH  40  42
ENDBRANCH  39  40
ENDBRANCH  38  39
ENDBRANCH  37  38
ENDBRANCH  36  37
ENDBRANCH  35  36
ENDBRANCH  33  35
ENDBRANCH  30  31
ENDBRANCH  29  30
ENDBRANCH  27  29
ENDBRANCH  26  27
ENDBRANCH  25  26
ENDBRANCH  23  25
ENDBRANCH  20  23
TORSDOF 15
ENDMDL
MODEL 8
REMARK minimizedAffinity -7.33970833
REMARK CNNscore 0.40955314
REMARK CNNaffinity 6.31844473
REMARK  15 active torsions:
REMARK  status: ('A' for Active; 'I' for Inactive)
REMARK    1  A    between atoms: C19_20  and  O2_21 
REMARK    2  A    between atoms: C19_20  and  C20_22 
REMARK    3  A    between atoms: C20_22  and  C21_24 
REMARK    4  A    between atoms: C21_24  and  O4_25 
REMARK    5  A    between atoms: O4_25  and  C22_26 
REMARK    6  A    between atoms: C22_26  and  C23_28 
REMARK    7  A    between atoms: C23_28  and  C24_29 
REMARK    8  A    between atoms: C24_29  and  C25_30 
REMARK       I    between atoms: C25_30  and  N1_32 
REMARK    9  A    between atoms: N1_32  and  C26_33 
REMARK   10  A    between atoms: C26_33  and  C27_34 
REMARK   11  A    between atoms: C27_34  and  C28_35 
REMARK   12  A    between atoms: C28_35  and  C29_36 
REMARK   13  A    between atoms: C29_36  and  C30_37 
REMARK   14  A    between atoms: C30_37  and  C31_38 
REMARK   15  A    between atoms: C31_38  and  O8_40 
ROOT
HETATM    1  C1  UNL     1       0.014   8.131   9.242  1.00  0.00     0.020 C 
HETATM    2  C2  UNL     1       1.181   7.664  10.164  1.00  0.00    -0.016 C 
HETATM    3  C3  UNL     1       2.477   8.075   9.396  1.00  0.00     0.022 C 
HETATM    4  C4  UNL     1       3.680   7.159   9.566  1.00  0.00     0.084 C 
HETATM    5  C5  UNL     1       3.293   5.711   9.411  1.00  0.00     0.149 C 
HETATM    6  O1  UNL     1       4.041   4.881   8.901  1.00  0.00    -0.293 OA
HETATM    7  C6  UNL     1       2.008   5.273  10.001  1.00  0.00     0.053 C 
HETATM    8  C7  UNL     1       1.070   6.157  10.382  1.00  0.00    -0.068 C 
HETATM    9  C8  UNL     1      -0.160   5.690  11.131  1.00  0.00     0.035 C 
HETATM   10  C9  UNL     1      -0.319   6.422  12.472  1.00  0.00     0.010 C 
HETATM   11  C10 UNL     1      -0.229   7.955  12.322  1.00  0.00    -0.004 C 
HETATM   12  C11 UNL     1       1.063   8.372  11.566  1.00  0.00     0.002 C 
HETATM   13  C12 UNL     1       2.318   8.194  12.456  1.00  0.00     0.007 C 
HETATM   14  C13 UNL     1       2.080   8.174  13.969  1.00  0.00     0.013 C 
HETATM   15  C14 UNL     1       0.912   9.043  14.456  1.00  0.00    -0.002 C 
HETATM   16  C15 UNL     1       1.308  10.535  14.311  1.00  0.00     0.019 C 
HETATM   17  C16 UNL     1      -0.383   8.797  13.611  1.00  0.00     0.002 C 
HETATM   18  C17 UNL     1      -1.467   8.340  14.594  1.00  0.00     0.009 C 
HETATM   19  C18 UNL     1      -1.046   8.976  15.911  1.00  0.00     0.047 C 
HETATM   20  C19 UNL     1       0.468   8.721  15.930  1.00  0.00     0.128 C 
ENDROOT
BRANCH  20  21
HETATM   21  O2  UNL     1       0.647   7.327  16.217  1.00  0.00    -0.381 OA
HETATM   22  H27 UNL     1       0.326   7.162  17.128  1.00  0.00     0.211 HD
ENDBRANCH  20  21
BRANCH  20  23
HETATM   23  C20 UNL     1       1.188   9.531  17.023  1.00  0.00     0.185 C 
HETATM   24  O3  UNL     1       2.289   9.203  17.475  1.00  0.00    -0.292 OA
BRANCH  23  25
HETATM   25  C21 UNL     1       0.476  10.790  17.521  1.00  0.00     0.260 C 
BRANCH  25  26
HETATM   26  O4  UNL     1       0.136  10.728  18.906  1.00  0.00    -0.314 OA
BRANCH  26  27
HETATM   27  C22 UNL     1       0.407  11.872  19.593  1.00  0.00     0.259 C 
HETATM   28  O5  UNL     1       0.109  13.004  19.224  1.00  0.00    -0.265 OA
BRANCH  27  29
HETATM   29  C23 UNL     1       1.152  11.561  20.860  1.00  0.00     0.120 C 
BRANCH  29  30
HETATM   30  C24 UNL     1       2.010  10.320  20.669  1.00  0.00     0.112 C 
BRANCH  30  31
HETATM   31  C25 UNL     1       2.982  10.148  21.816  1.00  0.00     0.217 C 
HETATM   32  O6  UNL     1       3.220   9.066  22.343  1.00  0.00    -0.274 OA
HETATM   33  N1  UNL     1       3.577  11.332  22.205  1.00  0.00    -0.361 N 
HETATM   34  H34 UNL     1       3.515  12.116  21.567  1.00  0.00     0.162 HD
BRANCH  33  35
HETATM   35  C26 UNL     1       4.675  11.311  23.151  1.00  0.00     0.122 C 
BRANCH  35  36
HETATM   36  C27 UNL     1       5.569  12.537  23.000  1.00  0.00     0.020 C 
BRANCH  36  37
HETATM   37  C28 UNL     1       6.874  12.243  22.251  1.00  0.00     0.002 C 
BRANCH  37  38
HETATM   38  C29 UNL     1       8.065  11.843  23.129  1.00  0.00     0.010 C 
BRANCH  38  39
HETATM   39  C30 UNL     1       9.267  12.775  22.986  1.00  0.00     0.110 C 
BRANCH  39  40
HETATM   40  C31 UNL     1       8.877  14.221  23.153  1.00  0.00     0.139 C 
HETATM   41  O7  UNL     1       8.600  14.806  24.184  1.00  0.00    -0.650 OA
BRANCH  40  42
HETATM   42  O8  UNL     1       8.864  14.874  21.972  1.00  0.00    -0.776 OA
HETATM   43  H45 UNL     1       8.610  15.791  22.214  1.00  0.00     0.167 HD
ENDBRANCH  40  42
ENDBRANCH  39  40
ENDBRANCH  38  39
ENDBRANCH  37  38
ENDBRANCH  36  37
ENDBRANCH  35  36
ENDBRANCH  33  35
ENDBRANCH  30  31
ENDBRANCH  29  30
ENDBRANCH  27  29
ENDBRANCH  26  27
ENDBRANCH  25  26
ENDBRANCH  23  25
ENDBRANCH  20  23
TORSDOF 15
ENDMDL
MODEL 9
REMARK minimizedAffinity -7.95712137
REMARK CNNscore 0.403156489
REMARK CNNaffinity 7.02665281
REMARK  15 active torsions:
REMARK  status: ('A' for Active; 'I' for Inactive)
REMARK    1  A    between atoms: C19_20  and  O2_21 
REMARK    2  A    between atoms: C19_20  and  C20_22 
REMARK    3  A    between atoms: C20_22  and  C21_24 
REMARK    4  A    between atoms: C21_24  and  O4_25 
REMARK    5  A    between atoms: O4_25  and  C22_26 
REMARK    6  A    between atoms: C22_26  and  C23_28 
REMARK    7  A    between atoms: C23_28  and  C24_29 
REMARK    8  A    between atoms: C24_29  and  C25_30 
REMARK       I    between atoms: C25_30  and  N1_32 
REMARK    9  A    between atoms: N1_32  and  C26_33 
REMARK   10  A    between atoms: C26_33  and  C27_34 
REMARK   11  A    between atoms: C27_34  and  C28_35 
REMARK   12  A    between atoms: C28_35  and  C29_36 
REMARK   13  A    between atoms: C29_36  and  C30_37 
REMARK   14  A    between atoms: C30_37  and  C31_38 
REMARK   15  A    between atoms: C31_38  and  O8_40 
ROOT
HETATM    1  C1  UNL     1      -8.379   6.502  12.678  1.00  0.00     0.020 C 
HETATM    2  C2  UNL     1      -7.181   5.566  13.022  1.00  0.00    -0.016 C 
HETATM    3  C3  UNL     1      -6.994   4.683  11.748  1.00  0.00     0.022 C 
HETATM    4  C4  UNL     1      -6.514   3.257  11.980  1.00  0.00     0.084 C 
HETATM    5  C5  UNL     1      -7.283   2.595  13.093  1.00  0.00     0.149 C 
HETATM    6  O1  UNL     1      -7.557   1.398  13.083  1.00  0.00    -0.293 OA
HETATM    7  C6  UNL     1      -7.616   3.410  14.283  1.00  0.00     0.053 C 
HETATM    8  C7  UNL     1      -7.528   4.751  14.266  1.00  0.00    -0.068 C 
HETATM    9  C8  UNL     1      -7.714   5.545  15.541  1.00  0.00     0.035 C 
HETATM   10  C9  UNL     1      -6.502   6.445  15.830  1.00  0.00     0.010 C 
HETATM   11  C10 UNL     1      -6.104   7.308  14.615  1.00  0.00    -0.004 C 
HETATM   12  C11 UNL     1      -5.907   6.434  13.344  1.00  0.00     0.002 C 
HETATM   13  C12 UNL     1      -4.600   5.608  13.427  1.00  0.00     0.007 C 
HETATM   14  C13 UNL     1      -3.524   6.133  14.382  1.00  0.00     0.013 C 
HETATM   15  C14 UNL     1      -3.476   7.660  14.532  1.00  0.00    -0.002 C 
HETATM   16  C15 UNL     1      -2.927   8.272  13.218  1.00  0.00     0.019 C 
HETATM   17  C16 UNL     1      -4.899   8.260  14.794  1.00  0.00     0.002 C 
HETATM   18  C17 UNL     1      -4.819   9.009  16.130  1.00  0.00     0.009 C 
HETATM   19  C18 UNL     1      -3.355   9.413  16.225  1.00  0.00     0.047 C 
HETATM   20  C19 UNL     1      -2.631   8.138  15.769  1.00  0.00     0.128 C 
ENDROOT
BRANCH  20  21
HETATM   21  O2  UNL     1      -2.737   7.197  16.846  1.00  0.00    -0.381 OA
HETATM   22  H27 UNL     1      -2.228   7.548  17.607  1.00  0.00     0.211 HD
ENDBRANCH  20  21
BRANCH  20  23
HETATM   23  C20 UNL     1      -1.136   8.378  15.489  1.00  0.00     0.185 C 
HETATM   24  O3  UNL     1      -0.687   9.489  15.194  1.00  0.00    -0.292 OA
BRANCH  23  25
HETATM   25  C21 UNL     1      -0.214   7.164  15.612  1.00  0.00     0.260 C 
BRANCH  25  26
HETATM   26  O4  UNL     1       1.109   7.418  15.140  1.00  0.00    -0.314 OA
BRANCH  26  27
HETATM   27  C22 UNL     1       1.348   6.947  13.885  1.00  0.00     0.259 C 
HETATM   28  O5  UNL     1       1.055   5.825  13.484  1.00  0.00    -0.265 OA
BRANCH  27  29
HETATM   29  C23 UNL     1       2.053   7.986  13.059  1.00  0.00     0.120 C 
BRANCH  29  30
HETATM   30  C24 UNL     1       3.553   7.906  13.290  1.00  0.00     0.112 C 
BRANCH  30  31
HETATM   31  C25 UNL     1       4.285   7.577  12.006  1.00  0.00     0.217 C 
HETATM   32  O6  UNL     1       5.474   7.816  11.827  1.00  0.00    -0.274 OA
HETATM   33  N1  UNL     1       3.478   6.975  11.061  1.00  0.00    -0.361 N 
HETATM   34  H34 UNL     1       2.593   6.595  11.376  1.00  0.00     0.162 HD
BRANCH  33  35
HETATM   35  C26 UNL     1       4.066   6.419   9.858  1.00  0.00     0.122 C 
BRANCH  35  36
HETATM   36  C27 UNL     1       3.030   5.684   9.016  1.00  0.00     0.020 C 
BRANCH  36  37
HETATM   37  C28 UNL     1       2.498   6.522   7.847  1.00  0.00     0.002 C 
BRANCH  37  38
HETATM   38  C29 UNL     1       2.131   7.971   8.186  1.00  0.00     0.010 C 
BRANCH  38  39
HETATM   39  C30 UNL     1       0.631   8.190   8.378  1.00  0.00     0.110 C 
BRANCH  39  40
HETATM   40  C31 UNL     1       0.196   7.885   9.789  1.00  0.00     0.139 C 
HETATM   41  O7  UNL     1       0.218   6.811  10.361  1.00  0.00    -0.650 OA
BRANCH  40  42
HETATM   42  O8  UNL     1      -0.251   8.988  10.423  1.00  0.00    -0.776 OA
HETATM   43  H45 UNL     1      -0.490   8.663  11.318  1.00  0.00     0.167 HD
ENDBRANCH  40  42
ENDBRANCH  39  40
ENDBRANCH  38  39
ENDBRANCH  37  38
ENDBRANCH  36  37
ENDBRANCH  35  36
ENDBRANCH  33  35
ENDBRANCH  30  31
ENDBRANCH  29  30
ENDBRANCH  27  29
ENDBRANCH  26  27
ENDBRANCH  25  26
ENDBRANCH  23  25
ENDBRANCH  20  23
TORSDOF 15
ENDMDL
