MODEL 1
REMARK minimizedAffinity -9.5834446
REMARK CNNscore 0.766926646
REMARK CNNaffinity 6.60199881
REMARK  12 active torsions:
REMARK  status: ('A' for Active; 'I' for Inactive)
REMARK    1  A    between atoms: C2_2  and  C3_3 
REMARK    2  A    between atoms: C2_2  and  C26_31 
REMARK    3  A    between atoms: C3_3  and  C4_4 
REMARK    4  A    between atoms: C4_4  and  C5_5 
REMARK    5  A    between atoms: C5_5  and  C7_7 
REMARK    6  A    between atoms: C8_8  and  O1_9 
REMARK    7  A    between atoms: C9_10  and  O2_11 
REMARK    8  A    between atoms: C11_13  and  O3_14 
REMARK    9  A    between atoms: C13_16  and  O4_17 
REMARK   10  A    between atoms: C16_20  and  O5_21 
REMARK   11  A    between atoms: C26_31  and  C28_33 
REMARK   12  A    between atoms: C28_33  and  O6_34 
ROOT
HETATM    1  C7  UNL     1      -0.681  50.421 -19.022  1.00  0.00     0.029 C 
HETATM    2  C8  UNL     1      -2.099  49.875 -18.800  1.00  0.00     0.152 C 
HETATM    3  C9  UNL     1      -3.005  50.840 -19.571  1.00  0.00     0.155 C 
HETATM    4  C10 UNL     1      -2.159  51.357 -20.761  1.00  0.00     0.060 C 
HETATM    5  C11 UNL     1      -2.747  51.299 -22.196  1.00  0.00     0.071 C 
HETATM    6  C12 UNL     1      -4.090  52.033 -22.334  1.00  0.00     0.071 C 
HETATM    7  C13 UNL     1      -4.674  51.869 -23.736  1.00  0.00     0.126 C 
HETATM    8  C14 UNL     1      -5.109  50.419 -23.983  1.00  0.00     0.025 C 
HETATM    9  C15 UNL     1      -6.501  50.194 -23.342  1.00  0.00     0.039 C 
HETATM   10  C16 UNL     1      -7.042  48.795 -23.600  1.00  0.00     0.118 C 
HETATM   11  C17 UNL     1      -6.054  47.702 -23.215  1.00  0.00     0.032 C 
HETATM   12  C18 UNL     1      -4.733  48.244 -22.671  1.00  0.00     0.012 C 
HETATM   13  C19 UNL     1      -4.049  49.330 -23.557  1.00  0.00    -0.031 C 
HETATM   14  C20 UNL     1      -3.594  48.611 -24.868  1.00  0.00     0.016 C 
HETATM   15  C21 UNL     1      -2.704  49.899 -22.885  1.00  0.00     0.029 C 
HETATM   16  C22 UNL     1      -1.975  48.854 -22.011  1.00  0.00     0.009 C 
HETATM   17  C23 UNL     1      -0.661  49.352 -21.411  1.00  0.00     0.011 C 
HETATM   18  C24 UNL     1      -0.744  50.681 -20.594  1.00  0.00    -0.029 C 
HETATM   19  C25 UNL     1       0.416  51.565 -21.101  1.00  0.00     0.016 C 
ENDROOT
BRANCH   1  20
HETATM   20  C5  UNL     1      -0.234  51.678 -18.171  1.00  0.00    -0.011 C 
HETATM   21  C6  UNL     1       0.494  52.681 -19.088  1.00  0.00     0.010 C 
BRANCH  20  22
HETATM   22  C4  UNL     1       0.641  51.400 -16.925  1.00  0.00     0.009 C 
BRANCH  22  23
HETATM   23  C3  UNL     1       1.651  52.519 -16.597  1.00  0.00     0.034 C 
BRANCH  23  24
HETATM   24  C2  UNL     1       2.882  52.111 -15.793  1.00  0.00    -0.083 C 
HETATM   25  C1  UNL     1       4.124  52.543 -16.083  1.00  0.00     0.015 C 
BRANCH  24  26
HETATM   26  C26 UNL     1       2.583  51.141 -14.637  1.00  0.00     0.033 C 
HETATM   27  C27 UNL     1       3.814  50.423 -14.067  1.00  0.00     0.017 C 
BRANCH  26  28
HETATM   28  C28 UNL     1       1.795  51.825 -13.503  1.00  0.00     0.172 C 
BRANCH  28  29
HETATM   29  O6  UNL     1       2.641  52.589 -12.650  1.00  0.00    -0.400 OA
HETATM   30  H48 UNL     1       3.094  53.239 -13.216  1.00  0.00     0.209 HD
ENDBRANCH  28  29
ENDBRANCH  26  28
ENDBRANCH  24  26
ENDBRANCH  23  24
ENDBRANCH  22  23
ENDBRANCH  20  22
ENDBRANCH   1  20
BRANCH   2  31
HETATM   31  O1  UNL     1      -2.505  49.710 -17.451  1.00  0.00    -0.393 OA
HETATM   32  H13 UNL     1      -3.143  48.973 -17.433  1.00  0.00     0.210 HD
ENDBRANCH   2  31
BRANCH   3  33
HETATM   33  O2  UNL     1      -4.214  50.187 -19.918  1.00  0.00    -0.392 OA
HETATM   34  H15 UNL     1      -4.747  50.160 -19.103  1.00  0.00     0.210 HD
ENDBRANCH   3  33
BRANCH   5  35
HETATM   35  O3  UNL     1      -1.808  52.121 -22.953  1.00  0.00    -0.389 OA
HETATM   36  H17 UNL     1      -2.254  52.346 -23.798  1.00  0.00     0.210 HD
ENDBRANCH   5  35
BRANCH   7  37
HETATM   37  O4  UNL     1      -3.703  52.272 -24.702  1.00  0.00    -0.395 OA
HETATM   38  H21 UNL     1      -3.928  51.878 -25.573  1.00  0.00     0.210 HD
ENDBRANCH   7  37
BRANCH  10  39
HETATM   39  O5  UNL     1      -7.366  48.651 -24.981  1.00  0.00    -0.396 OA
HETATM   40  H26 UNL     1      -8.067  49.295 -25.188  1.00  0.00     0.210 HD
ENDBRANCH  10  39
TORSDOF 12
ENDMDL
MODEL 2
REMARK minimizedAffinity -8.4037466
REMARK CNNscore 0.696965456
REMARK CNNaffinity 5.77474976
REMARK  12 active torsions:
REMARK  status: ('A' for Active; 'I' for Inactive)
REMARK    1  A    between atoms: C2_2  and  C3_3 
REMARK    2  A    between atoms: C2_2  and  C26_31 
REMARK    3  A    between atoms: C3_3  and  C4_4 
REMARK    4  A    between atoms: C4_4  and  C5_5 
REMARK    5  A    between atoms: C5_5  and  C7_7 
REMARK    6  A    between atoms: C8_8  and  O1_9 
REMARK    7  A    between atoms: C9_10  and  O2_11 
REMARK    8  A    between atoms: C11_13  and  O3_14 
REMARK    9  A    between atoms: C13_16  and  O4_17 
REMARK   10  A    between atoms: C16_20  and  O5_21 
REMARK   11  A    between atoms: C26_31  and  C28_33 
REMARK   12  A    between atoms: C28_33  and  O6_34 
ROOT
HETATM    1  C7  UNL     1       4.076  67.838 -36.590  1.00  0.00     0.029 C 
HETATM    2  C8  UNL     1       4.324  68.898 -37.674  1.00  0.00     0.152 C 
HETATM    3  C9  UNL     1       3.848  68.236 -38.971  1.00  0.00     0.155 C 
HETATM    4  C10 UNL     1       2.706  67.273 -38.562  1.00  0.00     0.060 C 
HETATM    5  C11 UNL     1       1.352  67.335 -39.317  1.00  0.00     0.071 C 
HETATM    6  C12 UNL     1       1.491  67.140 -40.836  1.00  0.00     0.071 C 
HETATM    7  C13 UNL     1       0.147  67.302 -41.545  1.00  0.00     0.126 C 
HETATM    8  C14 UNL     1      -0.334  68.757 -41.482  1.00  0.00     0.025 C 
HETATM    9  C15 UNL     1       0.383  69.574 -42.585  1.00  0.00     0.039 C 
HETATM   10  C16 UNL     1      -0.090  71.020 -42.640  1.00  0.00     0.118 C 
HETATM   11  C17 UNL     1      -0.025  71.712 -41.284  1.00  0.00     0.032 C 
HETATM   12  C18 UNL     1       0.485  70.804 -40.165  1.00  0.00     0.012 C 
HETATM   13  C19 UNL     1      -0.235  69.424 -40.055  1.00  0.00    -0.031 C 
HETATM   14  C20 UNL     1      -1.700  69.723 -39.597  1.00  0.00     0.016 C 
HETATM   15  C21 UNL     1       0.401  68.501 -38.902  1.00  0.00     0.029 C 
HETATM   16  C22 UNL     1       0.979  69.317 -37.724  1.00  0.00     0.009 C 
HETATM   17  C23 UNL     1       1.534  68.460 -36.586  1.00  0.00     0.011 C 
HETATM   18  C24 UNL     1       2.599  67.392 -36.994  1.00  0.00    -0.029 C 
HETATM   19  C25 UNL     1       2.164  66.077 -36.312  1.00  0.00     0.016 C 
ENDROOT
BRANCH   1  20
HETATM   20  C5  UNL     1       5.109  66.644 -36.478  1.00  0.00    -0.011 C 
HETATM   21  C6  UNL     1       5.687  66.338 -37.874  1.00  0.00     0.010 C 
BRANCH  20  22
HETATM   22  C4  UNL     1       4.589  65.332 -35.844  1.00  0.00     0.009 C 
BRANCH  22  23
HETATM   23  C3  UNL     1       5.579  64.663 -34.868  1.00  0.00     0.034 C 
BRANCH  23  24
HETATM   24  C2  UNL     1       5.421  65.014 -33.391  1.00  0.00    -0.083 C 
HETATM   25  C1  UNL     1       5.900  66.153 -32.853  1.00  0.00     0.015 C 
BRANCH  24  26
HETATM   26  C26 UNL     1       4.690  63.942 -32.566  1.00  0.00     0.033 C 
HETATM   27  C27 UNL     1       3.708  64.493 -31.523  1.00  0.00     0.017 C 
BRANCH  26  28
HETATM   28  C28 UNL     1       3.984  62.908 -33.464  1.00  0.00     0.172 C 
BRANCH  28  29
HETATM   29  O6  UNL     1       3.617  61.736 -32.745  1.00  0.00    -0.400 OA
HETATM   30  H48 UNL     1       3.044  62.026 -32.013  1.00  0.00     0.209 HD
ENDBRANCH  28  29
ENDBRANCH  26  28
ENDBRANCH  24  26
ENDBRANCH  23  24
ENDBRANCH  22  23
ENDBRANCH  20  22
ENDBRANCH   1  20
BRANCH   2  31
HETATM   31  O1  UNL     1       5.647  69.397 -37.773  1.00  0.00    -0.393 OA
HETATM   32  H13 UNL     1       5.583  70.312 -38.103  1.00  0.00     0.210 HD
ENDBRANCH   2  31
BRANCH   3  33
HETATM   33  O2  UNL     1       3.500  69.233 -39.917  1.00  0.00    -0.392 OA
HETATM   34  H15 UNL     1       4.342  69.576 -40.268  1.00  0.00     0.210 HD
ENDBRANCH   3  33
BRANCH   5  35
HETATM   35  O3  UNL     1       0.682  66.122 -38.859  1.00  0.00    -0.389 OA
HETATM   36  H17 UNL     1      -0.055  65.957 -39.486  1.00  0.00     0.210 HD
ENDBRANCH   5  35
BRANCH   7  37
HETATM   37  O4  UNL     1      -0.811  66.431 -40.944  1.00  0.00    -0.395 OA
HETATM   38  H21 UNL     1      -1.716  66.748 -41.156  1.00  0.00     0.210 HD
ENDBRANCH   7  37
BRANCH  10  39
HETATM   39  O5  UNL     1      -1.435  71.069 -43.112  1.00  0.00    -0.396 OA
HETATM   40  H26 UNL     1      -1.442  70.709 -44.017  1.00  0.00     0.210 HD
ENDBRANCH  10  39
TORSDOF 12
ENDMDL
MODEL 3
REMARK minimizedAffinity -7.57614803
REMARK CNNscore 0.62723583
REMARK CNNaffinity 6.45190954
REMARK  12 active torsions:
REMARK  status: ('A' for Active; 'I' for Inactive)
REMARK    1  A    between atoms: C2_2  and  C3_3 
REMARK    2  A    between atoms: C2_2  and  C26_31 
REMARK    3  A    between atoms: C3_3  and  C4_4 
REMARK    4  A    between atoms: C4_4  and  C5_5 
REMARK    5  A    between atoms: C5_5  and  C7_7 
REMARK    6  A    between atoms: C8_8  and  O1_9 
REMARK    7  A    between atoms: C9_10  and  O2_11 
REMARK    8  A    between atoms: C11_13  and  O3_14 
REMARK    9  A    between atoms: C13_16  and  O4_17 
REMARK   10  A    between atoms: C16_20  and  O5_21 
REMARK   11  A    between atoms: C26_31  and  C28_33 
REMARK   12  A    between atoms: C28_33  and  O6_34 
ROOT
HETATM    1  C7  UNL     1      -1.265  49.220 -21.031  1.00  0.00     0.029 C 
HETATM    2  C8  UNL     1      -1.771  49.365 -19.588  1.00  0.00     0.152 C 
HETATM    3  C9  UNL     1      -3.163  49.989 -19.733  1.00  0.00     0.155 C 
HETATM    4  C10 UNL     1      -3.717  49.482 -21.088  1.00  0.00     0.060 C 
HETATM    5  C11 UNL     1      -5.133  48.850 -21.142  1.00  0.00     0.071 C 
HETATM    6  C12 UNL     1      -6.235  49.774 -20.600  1.00  0.00     0.071 C 
HETATM    7  C13 UNL     1      -7.593  49.075 -20.587  1.00  0.00     0.126 C 
HETATM    8  C14 UNL     1      -7.621  47.950 -19.546  1.00  0.00     0.025 C 
HETATM    9  C15 UNL     1      -7.886  48.562 -18.148  1.00  0.00     0.039 C 
HETATM   10  C16 UNL     1      -8.000  47.503 -17.060  1.00  0.00     0.118 C 
HETATM   11  C17 UNL     1      -6.816  46.544 -17.047  1.00  0.00     0.032 C 
HETATM   12  C18 UNL     1      -5.784  46.842 -18.134  1.00  0.00     0.012 C 
HETATM   13  C19 UNL     1      -6.365  46.993 -19.574  1.00  0.00    -0.031 C 
HETATM   14  C20 UNL     1      -6.888  45.580 -19.993  1.00  0.00     0.016 C 
HETATM   15  C21 UNL     1      -5.230  47.372 -20.647  1.00  0.00     0.029 C 
HETATM   16  C22 UNL     1      -3.842  46.797 -20.288  1.00  0.00     0.009 C 
HETATM   17  C23 UNL     1      -2.759  47.092 -21.326  1.00  0.00     0.011 C 
HETATM   18  C24 UNL     1      -2.568  48.596 -21.705  1.00  0.00    -0.029 C 
HETATM   19  C25 UNL     1      -2.525  48.644 -23.248  1.00  0.00     0.016 C 
ENDROOT
BRANCH   1  20
HETATM   20  C5  UNL     1      -0.717  50.518 -21.752  1.00  0.00    -0.011 C 
HETATM   21  C6  UNL     1      -1.124  51.763 -20.939  1.00  0.00     0.010 C 
BRANCH  20  22
HETATM   22  C4  UNL     1      -1.129  50.719 -23.230  1.00  0.00     0.009 C 
BRANCH  22  23
HETATM   23  C3  UNL     1      -1.703  52.116 -23.544  1.00  0.00     0.034 C 
BRANCH  23  24
HETATM   24  C2  UNL     1      -1.596  52.587 -24.991  1.00  0.00    -0.083 C 
HETATM   25  C1  UNL     1      -2.405  52.139 -25.970  1.00  0.00     0.015 C 
BRANCH  24  26
HETATM   26  C26 UNL     1      -0.464  53.600 -25.239  1.00  0.00     0.033 C 
HETATM   27  C27 UNL     1       0.826  53.325 -24.454  1.00  0.00     0.017 C 
BRANCH  26  28
HETATM   28  C28 UNL     1      -0.150  53.754 -26.739  1.00  0.00     0.172 C 
BRANCH  28  29
HETATM   29  O6  UNL     1      -0.127  55.118 -27.144  1.00  0.00    -0.400 OA
HETATM   30  H48 UNL     1       0.539  55.563 -26.590  1.00  0.00     0.209 HD
ENDBRANCH  28  29
ENDBRANCH  26  28
ENDBRANCH  24  26
ENDBRANCH  23  24
ENDBRANCH  22  23
ENDBRANCH  20  22
ENDBRANCH   1  20
BRANCH   2  31
HETATM   31  O1  UNL     1      -0.939  50.092 -18.700  1.00  0.00    -0.393 OA
HETATM   32  H13 UNL     1      -1.089  49.729 -17.808  1.00  0.00     0.210 HD
ENDBRANCH   2  31
BRANCH   3  33
HETATM   33  O2  UNL     1      -3.947  49.676 -18.595  1.00  0.00    -0.392 OA
HETATM   34  H15 UNL     1      -3.634  50.264 -17.884  1.00  0.00     0.210 HD
ENDBRANCH   3  33
BRANCH   5  35
HETATM   35  O3  UNL     1      -5.392  48.784 -22.577  1.00  0.00    -0.389 OA
HETATM   36  H17 UNL     1      -6.358  48.646 -22.679  1.00  0.00     0.210 HD
ENDBRANCH   5  35
BRANCH   7  37
HETATM   37  O4  UNL     1      -7.872  48.560 -21.889  1.00  0.00    -0.395 OA
HETATM   38  H21 UNL     1      -8.551  47.855 -21.821  1.00  0.00     0.210 HD
ENDBRANCH   7  37
BRANCH  10  39
HETATM   39  O5  UNL     1      -9.195  46.749 -17.245  1.00  0.00    -0.396 OA
HETATM   40  H26 UNL     1      -9.947  47.362 -17.157  1.00  0.00     0.210 HD
ENDBRANCH  10  39
TORSDOF 12
ENDMDL
MODEL 4
REMARK minimizedAffinity -7.42617655
REMARK CNNscore 0.60731858
REMARK CNNaffinity 5.93988609
REMARK  12 active torsions:
REMARK  status: ('A' for Active; 'I' for Inactive)
REMARK    1  A    between atoms: C2_2  and  C3_3 
REMARK    2  A    between atoms: C2_2  and  C26_31 
REMARK    3  A    between atoms: C3_3  and  C4_4 
REMARK    4  A    between atoms: C4_4  and  C5_5 
REMARK    5  A    between atoms: C5_5  and  C7_7 
REMARK    6  A    between atoms: C8_8  and  O1_9 
REMARK    7  A    between atoms: C9_10  and  O2_11 
REMARK    8  A    between atoms: C11_13  and  O3_14 
REMARK    9  A    between atoms: C13_16  and  O4_17 
REMARK   10  A    between atoms: C16_20  and  O5_21 
REMARK   11  A    between atoms: C26_31  and  C28_33 
REMARK   12  A    between atoms: C28_33  and  O6_34 
ROOT
HETATM    1  C7  UNL     1      -1.380  53.686  -8.036  1.00  0.00     0.029 C 
HETATM    2  C8  UNL     1      -0.231  53.079  -7.216  1.00  0.00     0.152 C 
HETATM    3  C9  UNL     1       0.862  52.787  -8.248  1.00  0.00     0.155 C 
HETATM    4  C10 UNL     1       0.697  53.857  -9.356  1.00  0.00     0.060 C 
HETATM    5  C11 UNL     1       1.933  54.676  -9.813  1.00  0.00     0.071 C 
HETATM    6  C12 UNL     1       3.100  53.801 -10.297  1.00  0.00     0.071 C 
HETATM    7  C13 UNL     1       4.324  54.646 -10.647  1.00  0.00     0.126 C 
HETATM    8  C14 UNL     1       4.935  55.273  -9.388  1.00  0.00     0.025 C 
HETATM    9  C15 UNL     1       5.824  54.221  -8.680  1.00  0.00     0.039 C 
HETATM   10  C16 UNL     1       6.528  54.783  -7.453  1.00  0.00     0.118 C 
HETATM   11  C17 UNL     1       5.569  55.463  -6.485  1.00  0.00     0.032 C 
HETATM   12  C18 UNL     1       4.117  55.448  -6.960  1.00  0.00     0.012 C 
HETATM   13  C19 UNL     1       3.893  55.956  -8.418  1.00  0.00    -0.031 C 
HETATM   14  C20 UNL     1       4.222  57.484  -8.411  1.00  0.00     0.016 C 
HETATM   15  C21 UNL     1       2.354  55.845  -8.867  1.00  0.00     0.029 C 
HETATM   16  C22 UNL     1       1.366  56.010  -7.690  1.00  0.00     0.009 C 
HETATM   17  C23 UNL     1      -0.105  55.971  -8.102  1.00  0.00     0.011 C 
HETATM   18  C24 UNL     1      -0.550  54.719  -8.924  1.00  0.00    -0.029 C 
HETATM   19  C25 UNL     1      -1.359  55.262 -10.122  1.00  0.00     0.016 C 
ENDROOT
BRANCH   1  20
HETATM   20  C5  UNL     1      -2.292  52.696  -8.869  1.00  0.00    -0.011 C 
HETATM   21  C6  UNL     1      -1.789  51.253  -8.671  1.00  0.00     0.010 C 
BRANCH  20  22
HETATM   22  C4  UNL     1      -2.427  52.984 -10.384  1.00  0.00     0.009 C 
BRANCH  22  23
HETATM   23  C3  UNL     1      -3.830  52.701 -10.960  1.00  0.00     0.034 C 
BRANCH  23  24
HETATM   24  C2  UNL     1      -4.180  51.237 -11.211  1.00  0.00    -0.083 C 
HETATM   25  C1  UNL     1      -5.013  50.536 -10.418  1.00  0.00     0.015 C 
BRANCH  24  26
HETATM   26  C26 UNL     1      -3.478  50.625 -12.435  1.00  0.00     0.033 C 
HETATM   27  C27 UNL     1      -3.043  51.642 -13.500  1.00  0.00     0.017 C 
BRANCH  26  28
HETATM   28  C28 UNL     1      -2.285  49.739 -12.030  1.00  0.00     0.172 C 
BRANCH  28  29
HETATM   29  O6  UNL     1      -1.102  50.073 -12.746  1.00  0.00    -0.400 OA
HETATM   30  H48 UNL     1      -0.925  51.015 -12.570  1.00  0.00     0.209 HD
ENDBRANCH  28  29
ENDBRANCH  26  28
ENDBRANCH  24  26
ENDBRANCH  23  24
ENDBRANCH  22  23
ENDBRANCH  20  22
ENDBRANCH   1  20
BRANCH   2  31
HETATM   31  O1  UNL     1      -0.552  51.945  -6.429  1.00  0.00    -0.393 OA
HETATM   32  H13 UNL     1       0.044  51.955  -5.657  1.00  0.00     0.210 HD
ENDBRANCH   2  31
BRANCH   3  33
HETATM   33  O2  UNL     1       2.127  52.757  -7.609  1.00  0.00    -0.392 OA
HETATM   34  H15 UNL     1       2.175  51.900  -7.149  1.00  0.00     0.210 HD
ENDBRANCH   3  33
BRANCH   5  35
HETATM   35  O3  UNL     1       1.446  55.329 -11.024  1.00  0.00    -0.389 OA
HETATM   36  H17 UNL     1       2.240  55.647 -11.507  1.00  0.00     0.210 HD
ENDBRANCH   5  35
BRANCH   7  37
HETATM   37  O4  UNL     1       3.947  55.659 -11.579  1.00  0.00    -0.395 OA
HETATM   38  H21 UNL     1       4.612  56.382 -11.560  1.00  0.00     0.210 HD
ENDBRANCH   7  37
BRANCH  10  39
HETATM   39  O5  UNL     1       7.516  55.729  -7.856  1.00  0.00    -0.396 OA
HETATM   40  H26 UNL     1       8.173  55.256  -8.398  1.00  0.00     0.210 HD
ENDBRANCH  10  39
TORSDOF 12
ENDMDL
MODEL 5
REMARK minimizedAffinity -7.46609402
REMARK CNNscore 0.605824471
REMARK CNNaffinity 6.13258028
REMARK  12 active torsions:
REMARK  status: ('A' for Active; 'I' for Inactive)
REMARK    1  A    between atoms: C2_2  and  C3_3 
REMARK    2  A    between atoms: C2_2  and  C26_31 
REMARK    3  A    between atoms: C3_3  and  C4_4 
REMARK    4  A    between atoms: C4_4  and  C5_5 
REMARK    5  A    between atoms: C5_5  and  C7_7 
REMARK    6  A    between atoms: C8_8  and  O1_9 
REMARK    7  A    between atoms: C9_10  and  O2_11 
REMARK    8  A    between atoms: C11_13  and  O3_14 
REMARK    9  A    between atoms: C13_16  and  O4_17 
REMARK   10  A    between atoms: C16_20  and  O5_21 
REMARK   11  A    between atoms: C26_31  and  C28_33 
REMARK   12  A    between atoms: C28_33  and  O6_34 
ROOT
HETATM    1  C7  UNL     1      -1.522  53.503  -8.757  1.00  0.00     0.029 C 
HETATM    2  C8  UNL     1      -0.426  52.745  -7.994  1.00  0.00     0.152 C 
HETATM    3  C9  UNL     1       0.733  52.642  -8.991  1.00  0.00     0.155 C 
HETATM    4  C10 UNL     1       0.634  53.902  -9.888  1.00  0.00     0.060 C 
HETATM    5  C11 UNL     1       1.893  54.783 -10.104  1.00  0.00     0.071 C 
HETATM    6  C12 UNL     1       3.092  54.004 -10.668  1.00  0.00     0.071 C 
HETATM    7  C13 UNL     1       4.332  54.890 -10.776  1.00  0.00     0.126 C 
HETATM    8  C14 UNL     1       4.859  55.267  -9.385  1.00  0.00     0.025 C 
HETATM    9  C15 UNL     1       5.705  54.094  -8.832  1.00  0.00     0.039 C 
HETATM   10  C16 UNL     1       6.328  54.412  -7.479  1.00  0.00     0.118 C 
HETATM   11  C17 UNL     1       5.306  54.907  -6.463  1.00  0.00     0.032 C 
HETATM   12  C18 UNL     1       3.887  54.991  -7.024  1.00  0.00     0.012 C 
HETATM   13  C19 UNL     1       3.754  55.764  -8.373  1.00  0.00    -0.031 C 
HETATM   14  C20 UNL     1       4.075  57.262  -8.060  1.00  0.00     0.016 C 
HETATM   15  C21 UNL     1       2.247  55.751  -8.932  1.00  0.00     0.029 C 
HETATM   16  C22 UNL     1       1.186  55.701  -7.809  1.00  0.00     0.009 C 
HETATM   17  C23 UNL     1      -0.256  55.750  -8.314  1.00  0.00     0.011 C 
HETATM   18  C24 UNL     1      -0.642  54.677  -9.382  1.00  0.00    -0.029 C 
HETATM   19  C25 UNL     1      -1.375  55.441 -10.506  1.00  0.00     0.016 C 
ENDROOT
BRANCH   1  20
HETATM   20  C5  UNL     1      -2.375  52.693  -9.817  1.00  0.00    -0.011 C 
HETATM   21  C6  UNL     1      -3.566  53.557 -10.278  1.00  0.00     0.010 C 
BRANCH  20  22
HETATM   22  C4  UNL     1      -2.895  51.304  -9.376  1.00  0.00     0.009 C 
BRANCH  22  23
HETATM   23  C3  UNL     1      -4.276  50.932  -9.954  1.00  0.00     0.034 C 
BRANCH  23  24
HETATM   24  C2  UNL     1      -4.768  49.513  -9.681  1.00  0.00    -0.083 C 
HETATM   25  C1  UNL     1      -4.058  48.615  -8.971  1.00  0.00     0.015 C 
BRANCH  24  26
HETATM   26  C26 UNL     1      -6.135  49.192 -10.309  1.00  0.00     0.033 C 
HETATM   27  C27 UNL     1      -6.098  48.132 -11.418  1.00  0.00     0.017 C 
BRANCH  26  28
HETATM   28  C28 UNL     1      -7.181  48.809  -9.245  1.00  0.00     0.172 C 
BRANCH  28  29
HETATM   29  O6  UNL     1      -7.888  49.944  -8.757  1.00  0.00    -0.400 OA
HETATM   30  H48 UNL     1      -8.301  50.369  -9.530  1.00  0.00     0.209 HD
ENDBRANCH  28  29
ENDBRANCH  26  28
ENDBRANCH  24  26
ENDBRANCH  23  24
ENDBRANCH  22  23
ENDBRANCH  20  22
ENDBRANCH   1  20
BRANCH   2  31
HETATM   31  O1  UNL     1      -0.791  51.486  -7.454  1.00  0.00    -0.393 OA
HETATM   32  H13 UNL     1      -0.246  51.347  -6.658  1.00  0.00     0.210 HD
ENDBRANCH   2  31
BRANCH   3  33
HETATM   33  O2  UNL     1       1.954  52.484  -8.289  1.00  0.00    -0.392 OA
HETATM   34  H15 UNL     1       1.977  51.556  -7.996  1.00  0.00     0.210 HD
ENDBRANCH   3  33
BRANCH   5  35
HETATM   35  O3  UNL     1       1.481  55.654 -11.200  1.00  0.00    -0.389 OA
HETATM   36  H17 UNL     1       2.302  56.050 -11.564  1.00  0.00     0.210 HD
ENDBRANCH   5  35
BRANCH   7  37
HETATM   37  O4  UNL     1       4.011  56.063 -11.524  1.00  0.00    -0.395 OA
HETATM   38  H21 UNL     1       4.670  56.764 -11.328  1.00  0.00     0.210 HD
ENDBRANCH   7  37
BRANCH  10  39
HETATM   39  O5  UNL     1       7.335  55.409  -7.635  1.00  0.00    -0.396 OA
HETATM   40  H26 UNL     1       8.027  55.040  -8.213  1.00  0.00     0.210 HD
ENDBRANCH  10  39
TORSDOF 12
ENDMDL
MODEL 6
REMARK minimizedAffinity -7.54888344
REMARK CNNscore 0.587190092
REMARK CNNaffinity 6.05801439
REMARK  12 active torsions:
REMARK  status: ('A' for Active; 'I' for Inactive)
REMARK    1  A    between atoms: C2_2  and  C3_3 
REMARK    2  A    between atoms: C2_2  and  C26_31 
REMARK    3  A    between atoms: C3_3  and  C4_4 
REMARK    4  A    between atoms: C4_4  and  C5_5 
REMARK    5  A    between atoms: C5_5  and  C7_7 
REMARK    6  A    between atoms: C8_8  and  O1_9 
REMARK    7  A    between atoms: C9_10  and  O2_11 
REMARK    8  A    between atoms: C11_13  and  O3_14 
REMARK    9  A    between atoms: C13_16  and  O4_17 
REMARK   10  A    between atoms: C16_20  and  O5_21 
REMARK   11  A    between atoms: C26_31  and  C28_33 
REMARK   12  A    between atoms: C28_33  and  O6_34 
ROOT
HETATM    1  C7  UNL     1      -2.383  50.118 -21.602  1.00  0.00     0.029 C 
HETATM    2  C8  UNL     1      -1.590  51.272 -20.972  1.00  0.00     0.152 C 
HETATM    3  C9  UNL     1      -2.310  51.555 -19.650  1.00  0.00     0.155 C 
HETATM    4  C10 UNL     1      -2.904  50.199 -19.191  1.00  0.00     0.060 C 
HETATM    5  C11 UNL     1      -2.641  49.704 -17.745  1.00  0.00     0.071 C 
HETATM    6  C12 UNL     1      -3.092  50.703 -16.667  1.00  0.00     0.071 C 
HETATM    7  C13 UNL     1      -2.729  50.214 -15.266  1.00  0.00     0.126 C 
HETATM    8  C14 UNL     1      -1.209  50.228 -15.057  1.00  0.00     0.025 C 
HETATM    9  C15 UNL     1      -0.761  51.668 -14.706  1.00  0.00     0.039 C 
HETATM   10  C16 UNL     1       0.730  51.760 -14.412  1.00  0.00     0.118 C 
HETATM   11  C17 UNL     1       1.585  51.150 -15.516  1.00  0.00     0.032 C 
HETATM   12  C18 UNL     1       0.764  50.568 -16.665  1.00  0.00     0.012 C 
HETATM   13  C19 UNL     1      -0.375  49.591 -16.236  1.00  0.00    -0.031 C 
HETATM   14  C20 UNL     1       0.326  48.321 -15.654  1.00  0.00     0.016 C 
HETATM   15  C21 UNL     1      -1.235  49.076 -17.493  1.00  0.00     0.029 C 
HETATM   16  C22 UNL     1      -0.408  48.985 -18.795  1.00  0.00     0.009 C 
HETATM   17  C23 UNL     1      -1.188  48.437 -19.991  1.00  0.00     0.011 C 
HETATM   18  C24 UNL     1      -2.526  49.172 -20.326  1.00  0.00    -0.029 C 
HETATM   19  C25 UNL     1      -3.583  48.063 -20.519  1.00  0.00     0.016 C 
ENDROOT
BRANCH   1  20
HETATM   20  C5  UNL     1      -3.756  50.468 -22.309  1.00  0.00    -0.011 C 
HETATM   21  C6  UNL     1      -4.902  49.731 -21.589  1.00  0.00     0.010 C 
BRANCH  20  22
HETATM   22  C4  UNL     1      -3.846  50.187 -23.828  1.00  0.00     0.009 C 
BRANCH  22  23
HETATM   23  C3  UNL     1      -4.067  48.703 -24.187  1.00  0.00     0.034 C 
BRANCH  23  24
HETATM   24  C2  UNL     1      -4.962  48.419 -25.390  1.00  0.00    -0.083 C 
HETATM   25  C1  UNL     1      -6.207  47.919 -25.275  1.00  0.00     0.015 C 
BRANCH  24  26
HETATM   26  C26 UNL     1      -4.307  48.732 -26.746  1.00  0.00     0.033 C 
HETATM   27  C27 UNL     1      -2.803  48.435 -26.816  1.00  0.00     0.017 C 
BRANCH  26  28
HETATM   28  C28 UNL     1      -5.040  48.039 -27.911  1.00  0.00     0.172 C 
BRANCH  28  29
HETATM   29  O6  UNL     1      -4.425  48.309 -29.166  1.00  0.00    -0.400 OA
HETATM   30  H48 UNL     1      -3.501  48.010 -29.094  1.00  0.00     0.209 HD
ENDBRANCH  28  29
ENDBRANCH  26  28
ENDBRANCH  24  26
ENDBRANCH  23  24
ENDBRANCH  22  23
ENDBRANCH  20  22
ENDBRANCH   1  20
BRANCH   2  31
HETATM   31  O1  UNL     1      -1.436  52.436 -21.767  1.00  0.00    -0.393 OA
HETATM   32  H13 UNL     1      -0.593  52.850 -21.507  1.00  0.00     0.210 HD
ENDBRANCH   2  31
BRANCH   3  33
HETATM   33  O2  UNL     1      -1.415  52.171 -18.740  1.00  0.00    -0.392 OA
HETATM   34  H15 UNL     1      -1.338  53.099 -19.026  1.00  0.00     0.210 HD
ENDBRANCH   3  33
BRANCH   5  35
HETATM   35  O3  UNL     1      -3.578  48.592 -17.619  1.00  0.00    -0.389 OA
HETATM   36  H17 UNL     1      -3.659  48.403 -16.659  1.00  0.00     0.210 HD
ENDBRANCH   5  35
BRANCH   7  37
HETATM   37  O4  UNL     1      -3.248  48.898 -15.075  1.00  0.00    -0.395 OA
HETATM   38  H21 UNL     1      -2.763  48.460 -14.343  1.00  0.00     0.210 HD
ENDBRANCH   7  37
BRANCH  10  39
HETATM   39  O5  UNL     1       1.021  51.091 -13.187  1.00  0.00    -0.396 OA
HETATM   40  H26 UNL     1       0.539  51.552 -12.478  1.00  0.00     0.210 HD
ENDBRANCH  10  39
TORSDOF 12
ENDMDL
MODEL 7
REMARK minimizedAffinity -7.55173445
REMARK CNNscore 0.565915406
REMARK CNNaffinity 6.18446875
REMARK  12 active torsions:
REMARK  status: ('A' for Active; 'I' for Inactive)
REMARK    1  A    between atoms: C2_2  and  C3_3 
REMARK    2  A    between atoms: C2_2  and  C26_31 
REMARK    3  A    between atoms: C3_3  and  C4_4 
REMARK    4  A    between atoms: C4_4  and  C5_5 
REMARK    5  A    between atoms: C5_5  and  C7_7 
REMARK    6  A    between atoms: C8_8  and  O1_9 
REMARK    7  A    between atoms: C9_10  and  O2_11 
REMARK    8  A    between atoms: C11_13  and  O3_14 
REMARK    9  A    between atoms: C13_16  and  O4_17 
REMARK   10  A    between atoms: C16_20  and  O5_21 
REMARK   11  A    between atoms: C26_31  and  C28_33 
REMARK   12  A    between atoms: C28_33  and  O6_34 
ROOT
HETATM    1  C7  UNL     1      -3.052  49.579 -21.694  1.00  0.00     0.029 C 
HETATM    2  C8  UNL     1      -3.311  50.708 -20.685  1.00  0.00     0.152 C 
HETATM    3  C9  UNL     1      -3.889  49.997 -19.457  1.00  0.00     0.155 C 
HETATM    4  C10 UNL     1      -3.253  48.584 -19.445  1.00  0.00     0.060 C 
HETATM    5  C11 UNL     1      -2.586  48.060 -18.146  1.00  0.00     0.071 C 
HETATM    6  C12 UNL     1      -3.530  48.065 -16.932  1.00  0.00     0.071 C 
HETATM    7  C13 UNL     1      -2.805  47.630 -15.660  1.00  0.00     0.126 C 
HETATM    8  C14 UNL     1      -1.775  48.681 -15.229  1.00  0.00     0.025 C 
HETATM    9  C15 UNL     1      -2.500  49.817 -14.467  1.00  0.00     0.039 C 
HETATM   10  C16 UNL     1      -1.539  50.874 -13.940  1.00  0.00     0.118 C 
HETATM   11  C17 UNL     1      -0.611  51.415 -15.021  1.00  0.00     0.032 C 
HETATM   12  C18 UNL     1      -0.836  50.772 -16.389  1.00  0.00     0.012 C 
HETATM   13  C19 UNL     1      -0.847  49.212 -16.392  1.00  0.00    -0.031 C 
HETATM   14  C20 UNL     1       0.608  48.756 -16.048  1.00  0.00     0.016 C 
HETATM   15  C21 UNL     1      -1.156  48.613 -17.852  1.00  0.00     0.029 C 
HETATM   16  C22 UNL     1      -0.646  49.516 -18.997  1.00  0.00     0.009 C 
HETATM   17  C23 UNL     1      -0.873  48.938 -20.394  1.00  0.00     0.011 C 
HETATM   18  C24 UNL     1      -2.342  48.525 -20.731  1.00  0.00    -0.029 C 
HETATM   19  C25 UNL     1      -2.255  47.113 -21.350  1.00  0.00     0.016 C 
ENDROOT
BRANCH   1  20
HETATM   20  C5  UNL     1      -4.294  49.003 -22.488  1.00  0.00    -0.011 C 
HETATM   21  C6  UNL     1      -4.979  47.914 -21.639  1.00  0.00     0.010 C 
BRANCH  20  22
HETATM   22  C4  UNL     1      -4.015  48.444 -23.904  1.00  0.00     0.009 C 
BRANCH  22  23
HETATM   23  C3  UNL     1      -4.250  49.457 -25.043  1.00  0.00     0.034 C 
BRANCH  23  24
HETATM   24  C2  UNL     1      -3.230  49.454 -26.178  1.00  0.00    -0.083 C 
HETATM   25  C1  UNL     1      -3.006  48.381 -26.960  1.00  0.00     0.015 C 
BRANCH  24  26
HETATM   26  C26 UNL     1      -2.460  50.777 -26.332  1.00  0.00     0.033 C 
HETATM   27  C27 UNL     1      -1.173  50.871 -25.502  1.00  0.00     0.017 C 
BRANCH  26  28
HETATM   28  C28 UNL     1      -2.164  51.100 -27.809  1.00  0.00     0.172 C 
BRANCH  28  29
HETATM   29  O6  UNL     1      -3.354  51.186 -28.586  1.00  0.00    -0.400 OA
HETATM   30  H48 UNL     1      -3.909  51.872 -28.173  1.00  0.00     0.209 HD
ENDBRANCH  28  29
ENDBRANCH  26  28
ENDBRANCH  24  26
ENDBRANCH  23  24
ENDBRANCH  22  23
ENDBRANCH  20  22
ENDBRANCH   1  20
BRANCH   2  31
HETATM   31  O1  UNL     1      -4.131  51.774 -21.131  1.00  0.00    -0.393 OA
HETATM   32  H13 UNL     1      -3.846  52.574 -20.653  1.00  0.00     0.210 HD
ENDBRANCH   2  31
BRANCH   3  33
HETATM   33  O2  UNL     1      -3.660  50.781 -18.298  1.00  0.00    -0.392 OA
HETATM   34  H15 UNL     1      -4.314  51.502 -18.329  1.00  0.00     0.210 HD
ENDBRANCH   3  33
BRANCH   5  35
HETATM   35  O3  UNL     1      -2.390  46.645 -18.443  1.00  0.00    -0.389 OA
HETATM   36  H17 UNL     1      -2.221  46.201 -17.584  1.00  0.00     0.210 HD
ENDBRANCH   5  35
BRANCH   7  37
HETATM   37  O4  UNL     1      -2.171  46.370 -15.884  1.00  0.00    -0.395 OA
HETATM   38  H21 UNL     1      -1.459  46.242 -15.220  1.00  0.00     0.210 HD
ENDBRANCH   7  37
BRANCH  10  39
HETATM   39  O5  UNL     1      -0.745  50.322 -12.892  1.00  0.00    -0.396 OA
HETATM   40  H26 UNL     1      -1.346  50.067 -12.170  1.00  0.00     0.210 HD
ENDBRANCH  10  39
TORSDOF 12
ENDMDL
MODEL 8
REMARK minimizedAffinity -7.68154907
REMARK CNNscore 0.505485594
REMARK CNNaffinity 6.06846094
REMARK  12 active torsions:
REMARK  status: ('A' for Active; 'I' for Inactive)
REMARK    1  A    between atoms: C2_2  and  C3_3 
REMARK    2  A    between atoms: C2_2  and  C26_31 
REMARK    3  A    between atoms: C3_3  and  C4_4 
REMARK    4  A    between atoms: C4_4  and  C5_5 
REMARK    5  A    between atoms: C5_5  and  C7_7 
REMARK    6  A    between atoms: C8_8  and  O1_9 
REMARK    7  A    between atoms: C9_10  and  O2_11 
REMARK    8  A    between atoms: C11_13  and  O3_14 
REMARK    9  A    between atoms: C13_16  and  O4_17 
REMARK   10  A    between atoms: C16_20  and  O5_21 
REMARK   11  A    between atoms: C26_31  and  C28_33 
REMARK   12  A    between atoms: C28_33  and  O6_34 
ROOT
HETATM    1  C7  UNL     1     -11.870  44.644 -27.540  1.00  0.00     0.029 C 
HETATM    2  C8  UNL     1     -11.255  44.029 -28.805  1.00  0.00     0.152 C 
HETATM    3  C9  UNL     1     -11.168  45.196 -29.794  1.00  0.00     0.155 C 
HETATM    4  C10 UNL     1     -10.965  46.468 -28.932  1.00  0.00     0.060 C 
HETATM    5  C11 UNL     1      -9.810  47.445 -29.278  1.00  0.00     0.071 C 
HETATM    6  C12 UNL     1      -9.865  47.967 -30.722  1.00  0.00     0.071 C 
HETATM    7  C13 UNL     1      -8.661  48.849 -31.044  1.00  0.00     0.126 C 
HETATM    8  C14 UNL     1      -7.370  48.022 -31.084  1.00  0.00     0.025 C 
HETATM    9  C15 UNL     1      -7.263  47.319 -32.459  1.00  0.00     0.039 C 
HETATM   10  C16 UNL     1      -5.971  46.528 -32.611  1.00  0.00     0.118 C 
HETATM   11  C17 UNL     1      -5.734  45.562 -31.458  1.00  0.00     0.032 C 
HETATM   12  C18 UNL     1      -6.832  45.607 -30.396  1.00  0.00     0.012 C 
HETATM   13  C19 UNL     1      -7.182  47.032 -29.868  1.00  0.00    -0.031 C 
HETATM   14  C20 UNL     1      -5.932  47.531 -29.073  1.00  0.00     0.016 C 
HETATM   15  C21 UNL     1      -8.389  47.004 -28.806  1.00  0.00     0.029 C 
HETATM   16  C22 UNL     1      -8.441  45.696 -27.984  1.00  0.00     0.009 C 
HETATM   17  C23 UNL     1      -9.543  45.670 -26.925  1.00  0.00     0.011 C 
HETATM   18  C24 UNL     1     -10.989  45.968 -27.437  1.00  0.00    -0.029 C 
HETATM   19  C25 UNL     1     -11.580  47.006 -26.458  1.00  0.00     0.016 C 
ENDROOT
BRANCH   1  20
HETATM   20  C5  UNL     1     -13.433  44.899 -27.530  1.00  0.00    -0.011 C 
HETATM   21  C6  UNL     1     -13.804  45.827 -28.704  1.00  0.00     0.010 C 
BRANCH  20  22
HETATM   22  C4  UNL     1     -14.037  45.465 -26.223  1.00  0.00     0.009 C 
BRANCH  22  23
HETATM   23  C3  UNL     1     -15.561  45.699 -26.278  1.00  0.00     0.034 C 
BRANCH  23  24
HETATM   24  C2  UNL     1     -16.194  46.353 -25.054  1.00  0.00    -0.083 C 
HETATM   25  C1  UNL     1     -15.522  47.190 -24.240  1.00  0.00     0.015 C 
BRANCH  24  26
HETATM   26  C26 UNL     1     -17.660  45.953 -24.816  1.00  0.00     0.033 C 
HETATM   27  C27 UNL     1     -18.610  47.128 -24.547  1.00  0.00     0.017 C 
BRANCH  26  28
HETATM   28  C28 UNL     1     -18.209  45.078 -25.959  1.00  0.00     0.172 C 
BRANCH  28  29
HETATM   29  O6  UNL     1     -19.497  45.504 -26.388  1.00  0.00    -0.400 OA
HETATM   30  H48 UNL     1     -19.408  46.435 -26.659  1.00  0.00     0.209 HD
ENDBRANCH  28  29
ENDBRANCH  26  28
ENDBRANCH  24  26
ENDBRANCH  23  24
ENDBRANCH  22  23
ENDBRANCH  20  22
ENDBRANCH   1  20
BRANCH   2  31
HETATM   31  O1  UNL     1     -11.927  42.906 -29.349  1.00  0.00    -0.393 OA
HETATM   32  H13 UNL     1     -11.254  42.356 -29.791  1.00  0.00     0.210 HD
ENDBRANCH   2  31
BRANCH   3  33
HETATM   33  O2  UNL     1     -10.155  44.937 -30.751  1.00  0.00    -0.392 OA
HETATM   34  H15 UNL     1     -10.534  44.292 -31.374  1.00  0.00     0.210 HD
ENDBRANCH   3  33
BRANCH   5  35
HETATM   35  O3  UNL     1     -10.132  48.612 -28.461  1.00  0.00    -0.389 OA
HETATM   36  H17 UNL     1      -9.606  49.358 -28.822  1.00  0.00     0.210 HD
ENDBRANCH   5  35
BRANCH   7  37
HETATM   37  O4  UNL     1      -8.561  49.886 -30.067  1.00  0.00    -0.395 OA
HETATM   38  H21 UNL     1      -7.646  50.244 -30.065  1.00  0.00     0.210 HD
ENDBRANCH   7  37
BRANCH  10  39
HETATM   39  O5  UNL     1      -4.865  47.424 -32.690  1.00  0.00    -0.396 OA
HETATM   40  H26 UNL     1      -4.985  47.972 -33.487  1.00  0.00     0.210 HD
ENDBRANCH  10  39
TORSDOF 12
ENDMDL
MODEL 9
REMARK minimizedAffinity -8.60115623
REMARK CNNscore 0.498192251
REMARK CNNaffinity 6.08435202
REMARK  12 active torsions:
REMARK  status: ('A' for Active; 'I' for Inactive)
REMARK    1  A    between atoms: C2_2  and  C3_3 
REMARK    2  A    between atoms: C2_2  and  C26_31 
REMARK    3  A    between atoms: C3_3  and  C4_4 
REMARK    4  A    between atoms: C4_4  and  C5_5 
REMARK    5  A    between atoms: C5_5  and  C7_7 
REMARK    6  A    between atoms: C8_8  and  O1_9 
REMARK    7  A    between atoms: C9_10  and  O2_11 
REMARK    8  A    between atoms: C11_13  and  O3_14 
REMARK    9  A    between atoms: C13_16  and  O4_17 
REMARK   10  A    between atoms: C16_20  and  O5_21 
REMARK   11  A    between atoms: C26_31  and  C28_33 
REMARK   12  A    between atoms: C28_33  and  O6_34 
ROOT
HETATM    1  C7  UNL     1      -1.547  50.618 -22.593  1.00  0.00     0.029 C 
HETATM    2  C8  UNL     1      -1.206  50.330 -21.124  1.00  0.00     0.152 C 
HETATM    3  C9  UNL     1      -2.549  50.428 -20.394  1.00  0.00     0.155 C 
HETATM    4  C10 UNL     1      -3.624  49.988 -21.420  1.00  0.00     0.060 C 
HETATM    5  C11 UNL     1      -4.662  48.908 -21.018  1.00  0.00     0.071 C 
HETATM    6  C12 UNL     1      -5.463  49.271 -19.758  1.00  0.00     0.071 C 
HETATM    7  C13 UNL     1      -6.405  48.140 -19.349  1.00  0.00     0.126 C 
HETATM    8  C14 UNL     1      -5.616  46.924 -18.849  1.00  0.00     0.025 C 
HETATM    9  C15 UNL     1      -5.206  47.159 -17.375  1.00  0.00     0.039 C 
HETATM   10  C16 UNL     1      -4.475  45.965 -16.775  1.00  0.00     0.118 C 
HETATM   11  C17 UNL     1      -3.299  45.507 -17.628  1.00  0.00     0.032 C 
HETATM   12  C18 UNL     1      -3.118  46.331 -18.902  1.00  0.00     0.012 C 
HETATM   13  C19 UNL     1      -4.404  46.500 -19.768  1.00  0.00    -0.031 C 
HETATM   14  C20 UNL     1      -4.745  45.085 -20.336  1.00  0.00     0.016 C 
HETATM   15  C21 UNL     1      -4.149  47.434 -21.052  1.00  0.00     0.029 C 
HETATM   16  C22 UNL     1      -2.703  47.345 -21.588  1.00  0.00     0.009 C 
HETATM   17  C23 UNL     1      -2.453  48.176 -22.846  1.00  0.00     0.011 C 
HETATM   18  C24 UNL     1      -2.833  49.689 -22.750  1.00  0.00    -0.029 C 
HETATM   19  C25 UNL     1      -3.647  50.004 -24.025  1.00  0.00     0.016 C 
ENDROOT
BRANCH   1  20
HETATM   20  C5  UNL     1      -1.779  52.127 -23.013  1.00  0.00    -0.011 C 
HETATM   21  C6  UNL     1      -3.290  52.381 -23.185  1.00  0.00     0.010 C 
BRANCH  20  22
HETATM   22  C4  UNL     1      -1.033  52.620 -24.276  1.00  0.00     0.009 C 
BRANCH  22  23
HETATM   23  C3  UNL     1       0.006  51.623 -24.828  1.00  0.00     0.034 C 
BRANCH  23  24
HETATM   24  C2  UNL     1      -0.273  51.044 -26.212  1.00  0.00    -0.083 C 
HETATM   25  C1  UNL     1      -1.466  50.526 -26.563  1.00  0.00     0.015 C 
BRANCH  24  26
HETATM   26  C26 UNL     1       0.935  51.080 -27.163  1.00  0.00     0.033 C 
HETATM   27  C27 UNL     1       0.742  51.950 -28.413  1.00  0.00     0.017 C 
BRANCH  26  28
HETATM   28  C28 UNL     1       2.230  51.484 -26.432  1.00  0.00     0.172 C 
BRANCH  28  29
HETATM   29  O6  UNL     1       3.341  51.563 -27.317  1.00  0.00    -0.400 OA
HETATM   30  H48 UNL     1       3.104  52.208 -28.007  1.00  0.00     0.209 HD
ENDBRANCH  28  29
ENDBRANCH  26  28
ENDBRANCH  24  26
ENDBRANCH  23  24
ENDBRANCH  22  23
ENDBRANCH  20  22
ENDBRANCH   1  20
BRANCH   2  31
HETATM   31  O1  UNL     1      -0.209  51.150 -20.538  1.00  0.00    -0.393 OA
HETATM   32  H13 UNL     1       0.234  50.615 -19.853  1.00  0.00     0.210 HD
ENDBRANCH   2  31
BRANCH   3  33
HETATM   33  O2  UNL     1      -2.499  49.671 -19.196  1.00  0.00    -0.392 OA
HETATM   34  H15 UNL     1      -1.988  50.205 -18.562  1.00  0.00     0.210 HD
ENDBRANCH   3  33
BRANCH   5  35
HETATM   35  O3  UNL     1      -5.637  48.992 -22.101  1.00  0.00    -0.389 OA
HETATM   36  H17 UNL     1      -6.446  48.535 -21.783  1.00  0.00     0.210 HD
ENDBRANCH   5  35
BRANCH   7  37
HETATM   37  O4  UNL     1      -7.225  47.782 -20.461  1.00  0.00    -0.395 OA
HETATM   38  H21 UNL     1      -7.584  46.879 -20.323  1.00  0.00     0.210 HD
ENDBRANCH   7  37
BRANCH  10  39
HETATM   39  O5  UNL     1      -5.380  44.874 -16.622  1.00  0.00    -0.396 OA
HETATM   40  H26 UNL     1      -6.075  45.153 -16.000  1.00  0.00     0.210 HD
ENDBRANCH  10  39
TORSDOF 12
ENDMDL
