MODEL 1
REMARK minimizedAffinity -8.91596127
REMARK CNNscore 0.752888739
REMARK CNNaffinity 6.99213839
REMARK  10 active torsions:
REMARK  status: ('A' for Active; 'I' for Inactive)
REMARK    1  A    between atoms: C19_21  and  O3_22 
REMARK    2  A    between atoms: C19_21  and  C20_23 
REMARK    3  A    between atoms: C20_23  and  C21_25 
REMARK    4  A    between atoms: C21_25  and  O5_26 
REMARK    5  A    between atoms: O5_26  and  C22_27 
REMARK    6  A    between atoms: C22_27  and  C23_29 
REMARK    7  A    between atoms: C23_29  and  C24_30 
REMARK    8  A    between atoms: C24_30  and  C25_31 
REMARK       I    between atoms: C25_31  and  N1_33 
REMARK    9  A    between atoms: N1_33  and  C26_34 
REMARK   10  A    between atoms: C26_34  and  C27_35 
ROOT
HETATM    1  C1  UNL     1      -2.322  52.638 -24.221  1.00  0.00     0.021 C 
HETATM    2  C2  UNL     1      -1.289  51.493 -24.315  1.00  0.00    -0.009 C 
HETATM    3  C3  UNL     1       0.156  52.079 -24.302  1.00  0.00     0.022 C 
HETATM    4  C4  UNL     1       0.529  52.826 -25.576  1.00  0.00     0.084 C 
HETATM    5  C5  UNL     1       0.331  51.948 -26.781  1.00  0.00     0.149 C 
HETATM    6  O1  UNL     1       1.000  52.069 -27.803  1.00  0.00    -0.293 OA
HETATM    7  C6  UNL     1      -0.767  50.954 -26.748  1.00  0.00     0.053 C 
HETATM    8  C7  UNL     1      -1.528  50.770 -25.655  1.00  0.00    -0.067 C 
HETATM    9  C8  UNL     1      -2.719  49.842 -25.730  1.00  0.00     0.035 C 
HETATM   10  C9  UNL     1      -2.746  48.855 -24.572  1.00  0.00     0.010 C 
HETATM   11  C10 UNL     1      -2.705  49.587 -23.224  1.00  0.00     0.003 C 
HETATM   12  C11 UNL     1      -1.418  50.462 -23.134  1.00  0.00     0.072 C 
HETATM   13  C12 UNL     1      -1.288  51.057 -21.717  1.00  0.00     0.133 C 
HETATM   14  O2  UNL     1      -1.050  52.243 -21.497  1.00  0.00    -0.297 OA
HETATM   15  C13 UNL     1      -1.403  50.080 -20.552  1.00  0.00     0.091 C 
HETATM   16  C14 UNL     1      -2.717  49.297 -20.667  1.00  0.00     0.005 C 
HETATM   17  C15 UNL     1      -3.907  50.274 -20.469  1.00  0.00     0.019 C 
HETATM   18  C16 UNL     1      -2.722  48.598 -22.051  1.00  0.00     0.002 C 
HETATM   19  C17 UNL     1      -3.880  47.611 -21.951  1.00  0.00     0.009 C 
HETATM   20  C18 UNL     1      -3.898  47.173 -20.471  1.00  0.00     0.047 C 
HETATM   21  C19 UNL     1      -2.861  48.053 -19.741  1.00  0.00     0.128 C 
ENDROOT
BRANCH  21  22
HETATM   22  O3  UNL     1      -1.618  47.323 -19.746  1.00  0.00    -0.381 OA
HETATM   23  H25 UNL     1      -1.082  47.677 -19.004  1.00  0.00     0.211 HD
ENDBRANCH  21  22
BRANCH  21  24
HETATM   24  C20 UNL     1      -3.139  48.396 -18.265  1.00  0.00     0.185 C 
HETATM   25  O4  UNL     1      -4.285  48.236 -17.826  1.00  0.00    -0.292 OA
BRANCH  24  26
HETATM   26  C21 UNL     1      -1.998  48.890 -17.386  1.00  0.00     0.260 C 
BRANCH  26  27
HETATM   27  O5  UNL     1      -2.447  49.208 -16.069  1.00  0.00    -0.314 OA
BRANCH  27  28
HETATM   28  C22 UNL     1      -2.668  50.530 -15.853  1.00  0.00     0.259 C 
HETATM   29  O6  UNL     1      -2.915  51.341 -16.740  1.00  0.00    -0.265 OA
BRANCH  28  30
HETATM   30  C23 UNL     1      -2.557  50.924 -14.399  1.00  0.00     0.120 C 
BRANCH  30  31
HETATM   31  C24 UNL     1      -3.312  52.187 -14.003  1.00  0.00     0.112 C 
BRANCH  31  32
HETATM   32  C25 UNL     1      -3.546  52.267 -12.506  1.00  0.00     0.218 C 
HETATM   33  O7  UNL     1      -3.685  51.283 -11.789  1.00  0.00    -0.274 OA
HETATM   34  N1  UNL     1      -3.609  53.565 -12.047  1.00  0.00    -0.356 N 
HETATM   35  H32 UNL     1      -3.308  54.310 -12.659  1.00  0.00     0.162 HD
BRANCH  34  36
HETATM   36  C26 UNL     1      -3.707  53.861 -10.634  1.00  0.00     0.168 C 
BRANCH  36  37
HETATM   37  C27 UNL     1      -2.332  54.126 -10.102  1.00  0.00     0.000 A 
HETATM   38  C28 UNL     1      -1.524  55.231 -10.308  1.00  0.00     0.017 A 
HETATM   39  C29 UNL     1      -0.269  55.117  -9.642  1.00  0.00     0.008 A 
HETATM   40  C30 UNL     1      -0.163  53.938  -8.939  1.00  0.00     0.050 A 
HETATM   41  S1  UNL     1      -1.567  52.974  -9.085  1.00  0.00    -0.105 SA
ENDBRANCH  36  37
ENDBRANCH  34  36
ENDBRANCH  31  32
ENDBRANCH  30  31
ENDBRANCH  28  30
ENDBRANCH  27  28
ENDBRANCH  26  27
ENDBRANCH  24  26
ENDBRANCH  21  24
TORSDOF 10
ENDMDL
MODEL 2
REMARK minimizedAffinity -9.99642754
REMARK CNNscore 0.649220228
REMARK CNNaffinity 7.64563227
REMARK  10 active torsions:
REMARK  status: ('A' for Active; 'I' for Inactive)
REMARK    1  A    between atoms: C19_21  and  O3_22 
REMARK    2  A    between atoms: C19_21  and  C20_23 
REMARK    3  A    between atoms: C20_23  and  C21_25 
REMARK    4  A    between atoms: C21_25  and  O5_26 
REMARK    5  A    between atoms: O5_26  and  C22_27 
REMARK    6  A    between atoms: C22_27  and  C23_29 
REMARK    7  A    between atoms: C23_29  and  C24_30 
REMARK    8  A    between atoms: C24_30  and  C25_31 
REMARK       I    between atoms: C25_31  and  N1_33 
REMARK    9  A    between atoms: N1_33  and  C26_34 
REMARK   10  A    between atoms: C26_34  and  C27_35 
ROOT
HETATM    1  C1  UNL     1      -0.335  49.902 -21.138  1.00  0.00     0.021 C 
HETATM    2  C2  UNL     1      -1.020  51.281 -21.263  1.00  0.00    -0.009 C 
HETATM    3  C3  UNL     1      -0.274  52.152 -22.319  1.00  0.00     0.022 C 
HETATM    4  C4  UNL     1       1.102  52.623 -21.868  1.00  0.00     0.084 C 
HETATM    5  C5  UNL     1       1.006  53.356 -20.557  1.00  0.00     0.149 C 
HETATM    6  O1  UNL     1       1.791  54.245 -20.240  1.00  0.00    -0.293 OA
HETATM    7  C6  UNL     1      -0.031  52.927 -19.591  1.00  0.00     0.053 C 
HETATM    8  C7  UNL     1      -0.924  51.965 -19.886  1.00  0.00    -0.067 C 
HETATM    9  C8  UNL     1      -1.867  51.476 -18.810  1.00  0.00     0.035 C 
HETATM   10  C9  UNL     1      -3.310  51.436 -19.292  1.00  0.00     0.010 C 
HETATM   11  C10 UNL     1      -3.440  50.587 -20.564  1.00  0.00     0.003 C 
HETATM   12  C11 UNL     1      -2.531  51.170 -21.687  1.00  0.00     0.072 C 
HETATM   13  C12 UNL     1      -2.795  50.426 -23.013  1.00  0.00     0.133 C 
HETATM   14  O2  UNL     1      -1.902  49.984 -23.733  1.00  0.00    -0.297 OA
HETATM   15  C13 UNL     1      -4.249  50.309 -23.453  1.00  0.00     0.091 C 
HETATM   16  C14 UNL     1      -5.077  49.673 -22.328  1.00  0.00     0.005 C 
HETATM   17  C15 UNL     1      -4.614  48.204 -22.130  1.00  0.00     0.019 C 
HETATM   18  C16 UNL     1      -4.892  50.550 -21.062  1.00  0.00     0.002 C 
HETATM   19  C17 UNL     1      -5.972  50.043 -20.113  1.00  0.00     0.009 C 
HETATM   20  C18 UNL     1      -7.141  49.628 -21.031  1.00  0.00     0.047 C 
HETATM   21  C19 UNL     1      -6.624  49.751 -22.481  1.00  0.00     0.128 C 
ENDROOT
BRANCH  21  22
HETATM   22  O3  UNL     1      -6.980  51.070 -22.940  1.00  0.00    -0.381 OA
HETATM   23  H25 UNL     1      -6.995  51.032 -23.920  1.00  0.00     0.211 HD
ENDBRANCH  21  22
BRANCH  21  24
HETATM   24  C20 UNL     1      -7.203  48.775 -23.523  1.00  0.00     0.185 C 
HETATM   25  O4  UNL     1      -8.363  48.952 -23.920  1.00  0.00    -0.292 OA
BRANCH  24  26
HETATM   26  C21 UNL     1      -6.330  47.646 -24.054  1.00  0.00     0.260 C 
BRANCH  26  27
HETATM   27  O5  UNL     1      -5.546  48.066 -25.170  1.00  0.00    -0.314 OA
BRANCH  27  28
HETATM   28  C22 UNL     1      -6.082  47.762 -26.380  1.00  0.00     0.259 C 
HETATM   29  O6  UNL     1      -7.140  47.159 -26.534  1.00  0.00    -0.265 OA
BRANCH  28  30
HETATM   30  C23 UNL     1      -5.230  48.219 -27.541  1.00  0.00     0.120 C 
BRANCH  30  31
HETATM   31  C24 UNL     1      -3.744  48.372 -27.242  1.00  0.00     0.112 C 
BRANCH  31  32
HETATM   32  C25 UNL     1      -3.214  49.731 -27.659  1.00  0.00     0.218 C 
HETATM   33  O7  UNL     1      -3.410  50.224 -28.764  1.00  0.00    -0.274 OA
HETATM   34  N1  UNL     1      -2.468  50.337 -26.671  1.00  0.00    -0.356 N 
HETATM   35  H32 UNL     1      -2.502  49.956 -25.737  1.00  0.00     0.162 HD
BRANCH  34  36
HETATM   36  C26 UNL     1      -1.972  51.688 -26.822  1.00  0.00     0.168 C 
BRANCH  36  37
HETATM   37  C27 UNL     1      -0.477  51.645 -26.892  1.00  0.00     0.000 A 
HETATM   38  C28 UNL     1       0.412  51.050 -26.014  1.00  0.00     0.017 A 
HETATM   39  C29 UNL     1       1.770  51.231 -26.410  1.00  0.00     0.008 A 
HETATM   40  C30 UNL     1       1.874  51.946 -27.582  1.00  0.00     0.050 A 
HETATM   41  S1  UNL     1       0.345  52.397 -28.197  1.00  0.00    -0.105 SA
ENDBRANCH  36  37
ENDBRANCH  34  36
ENDBRANCH  31  32
ENDBRANCH  30  31
ENDBRANCH  28  30
ENDBRANCH  27  28
ENDBRANCH  26  27
ENDBRANCH  24  26
ENDBRANCH  21  24
TORSDOF 10
ENDMDL
MODEL 3
REMARK minimizedAffinity -8.39804745
REMARK CNNscore 0.593740761
REMARK CNNaffinity 6.76677322
REMARK  10 active torsions:
REMARK  status: ('A' for Active; 'I' for Inactive)
REMARK    1  A    between atoms: C19_21  and  O3_22 
REMARK    2  A    between atoms: C19_21  and  C20_23 
REMARK    3  A    between atoms: C20_23  and  C21_25 
REMARK    4  A    between atoms: C21_25  and  O5_26 
REMARK    5  A    between atoms: O5_26  and  C22_27 
REMARK    6  A    between atoms: C22_27  and  C23_29 
REMARK    7  A    between atoms: C23_29  and  C24_30 
REMARK    8  A    between atoms: C24_30  and  C25_31 
REMARK       I    between atoms: C25_31  and  N1_33 
REMARK    9  A    between atoms: N1_33  and  C26_34 
REMARK   10  A    between atoms: C26_34  and  C27_35 
ROOT
HETATM    1  C1  UNL     1      -0.740  50.412 -25.303  1.00  0.00     0.021 C 
HETATM    2  C2  UNL     1      -1.316  51.789 -24.901  1.00  0.00    -0.009 C 
HETATM    3  C3  UNL     1      -2.712  51.995 -25.563  1.00  0.00     0.022 C 
HETATM    4  C4  UNL     1      -2.654  52.205 -27.070  1.00  0.00     0.084 C 
HETATM    5  C5  UNL     1      -1.738  53.350 -27.410  1.00  0.00     0.149 C 
HETATM    6  O1  UNL     1      -1.897  54.046 -28.409  1.00  0.00    -0.293 OA
HETATM    7  C6  UNL     1      -0.564  53.586 -26.540  1.00  0.00     0.053 C 
HETATM    8  C7  UNL     1      -0.344  52.862 -25.429  1.00  0.00    -0.067 C 
HETATM    9  C8  UNL     1       0.944  53.058 -24.661  1.00  0.00     0.035 C 
HETATM   10  C9  UNL     1       0.696  53.241 -23.170  1.00  0.00     0.010 C 
HETATM   11  C10 UNL     1      -0.112  52.068 -22.599  1.00  0.00     0.003 C 
HETATM   12  C11 UNL     1      -1.475  51.948 -23.344  1.00  0.00     0.072 C 
HETATM   13  C12 UNL     1      -2.356  50.885 -22.655  1.00  0.00     0.133 C 
HETATM   14  O2  UNL     1      -2.945  49.993 -23.264  1.00  0.00    -0.297 OA
HETATM   15  C13 UNL     1      -2.534  51.017 -21.147  1.00  0.00     0.091 C 
HETATM   16  C14 UNL     1      -1.157  51.068 -20.471  1.00  0.00     0.005 C 
HETATM   17  C15 UNL     1      -0.453  49.697 -20.657  1.00  0.00     0.019 C 
HETATM   18  C16 UNL     1      -0.375  52.250 -21.098  1.00  0.00     0.002 C 
HETATM   19  C17 UNL     1       0.821  52.422 -20.167  1.00  0.00     0.009 C 
HETATM   20  C18 UNL     1       0.291  52.043 -18.769  1.00  0.00     0.047 C 
HETATM   21  C19 UNL     1      -1.141  51.502 -18.976  1.00  0.00     0.128 C 
ENDROOT
BRANCH  21  22
HETATM   22  O3  UNL     1      -2.036  52.619 -18.804  1.00  0.00    -0.381 OA
HETATM   23  H25 UNL     1      -2.912  52.242 -18.572  1.00  0.00     0.211 HD
ENDBRANCH  21  22
BRANCH  21  24
HETATM   24  C20 UNL     1      -1.633  50.417 -17.999  1.00  0.00     0.185 C 
HETATM   25  O4  UNL     1      -2.815  50.444 -17.630  1.00  0.00    -0.292 OA
BRANCH  24  26
HETATM   26  C21 UNL     1      -0.668  49.331 -17.542  1.00  0.00     0.260 C 
BRANCH  26  27
HETATM   27  O5  UNL     1       0.419  49.874 -16.793  1.00  0.00    -0.314 OA
BRANCH  27  28
HETATM   28  C22 UNL     1       0.095  50.267 -15.534  1.00  0.00     0.259 C 
HETATM   29  O6  UNL     1      -0.533  49.576 -14.737  1.00  0.00    -0.265 OA
BRANCH  28  30
HETATM   30  C23 UNL     1       0.563  51.665 -15.206  1.00  0.00     0.120 C 
BRANCH  30  31
HETATM   31  C24 UNL     1       2.073  51.843 -15.106  1.00  0.00     0.112 C 
BRANCH  31  32
HETATM   32  C25 UNL     1       2.600  51.484 -13.729  1.00  0.00     0.218 C 
HETATM   33  O7  UNL     1       3.354  50.541 -13.517  1.00  0.00    -0.274 OA
HETATM   34  N1  UNL     1       2.120  52.318 -12.742  1.00  0.00    -0.356 N 
HETATM   35  H32 UNL     1       1.654  53.171 -13.014  1.00  0.00     0.162 HD
BRANCH  34  36
HETATM   36  C26 UNL     1       2.592  52.222 -11.378  1.00  0.00     0.168 C 
BRANCH  36  37
HETATM   37  C27 UNL     1       2.907  53.599 -10.880  1.00  0.00     0.000 A 
HETATM   38  C28 UNL     1       4.146  54.170 -10.645  1.00  0.00     0.017 A 
HETATM   39  C29 UNL     1       4.044  55.507 -10.161  1.00  0.00     0.008 A 
HETATM   40  C30 UNL     1       2.734  55.919 -10.055  1.00  0.00     0.050 A 
HETATM   41  S1  UNL     1       1.637  54.699 -10.533  1.00  0.00    -0.105 SA
ENDBRANCH  36  37
ENDBRANCH  34  36
ENDBRANCH  31  32
ENDBRANCH  30  31
ENDBRANCH  28  30
ENDBRANCH  27  28
ENDBRANCH  26  27
ENDBRANCH  24  26
ENDBRANCH  21  24
TORSDOF 10
ENDMDL
MODEL 4
REMARK minimizedAffinity -9.47281456
REMARK CNNscore 0.501458645
REMARK CNNaffinity 7.56177711
REMARK  10 active torsions:
REMARK  status: ('A' for Active; 'I' for Inactive)
REMARK    1  A    between atoms: C19_21  and  O3_22 
REMARK    2  A    between atoms: C19_21  and  C20_23 
REMARK    3  A    between atoms: C20_23  and  C21_25 
REMARK    4  A    between atoms: C21_25  and  O5_26 
REMARK    5  A    between atoms: O5_26  and  C22_27 
REMARK    6  A    between atoms: C22_27  and  C23_29 
REMARK    7  A    between atoms: C23_29  and  C24_30 
REMARK    8  A    between atoms: C24_30  and  C25_31 
REMARK       I    between atoms: C25_31  and  N1_33 
REMARK    9  A    between atoms: N1_33  and  C26_34 
REMARK   10  A    between atoms: C26_34  and  C27_35 
ROOT
HETATM    1  C1  UNL     1      -4.344  50.935 -24.571  1.00  0.00     0.021 C 
HETATM    2  C2  UNL     1      -3.742  49.513 -24.600  1.00  0.00    -0.009 C 
HETATM    3  C3  UNL     1      -2.514  49.475 -25.559  1.00  0.00     0.022 C 
HETATM    4  C4  UNL     1      -2.879  49.596 -27.032  1.00  0.00     0.084 C 
HETATM    5  C5  UNL     1      -3.878  48.540 -27.418  1.00  0.00     0.149 C 
HETATM    6  O1  UNL     1      -3.944  48.079 -28.554  1.00  0.00    -0.293 OA
HETATM    7  C6  UNL     1      -4.861  48.103 -26.400  1.00  0.00     0.053 C 
HETATM    8  C7  UNL     1      -4.832  48.566 -25.138  1.00  0.00    -0.067 C 
HETATM    9  C8  UNL     1      -5.945  48.190 -24.186  1.00  0.00     0.035 C 
HETATM   10  C9  UNL     1      -5.409  47.691 -22.852  1.00  0.00     0.010 C 
HETATM   11  C10 UNL     1      -4.468  48.724 -22.217  1.00  0.00     0.003 C 
HETATM   12  C11 UNL     1      -3.279  49.022 -23.179  1.00  0.00     0.072 C 
HETATM   13  C12 UNL     1      -2.246  49.922 -22.470  1.00  0.00     0.133 C 
HETATM   14  O2  UNL     1      -1.764  50.933 -22.978  1.00  0.00    -0.297 OA
HETATM   15  C13 UNL     1      -1.774  49.469 -21.094  1.00  0.00     0.091 C 
HETATM   16  C14 UNL     1      -2.988  49.253 -20.180  1.00  0.00     0.005 C 
HETATM   17  C15 UNL     1      -3.673  50.622 -19.920  1.00  0.00     0.019 C 
HETATM   18  C16 UNL     1      -3.916  48.224 -20.875  1.00  0.00     0.002 C 
HETATM   19  C17 UNL     1      -4.905  47.837 -19.782  1.00  0.00     0.009 C 
HETATM   20  C18 UNL     1      -4.094  47.912 -18.471  1.00  0.00     0.047 C 
HETATM   21  C19 UNL     1      -2.717  48.505 -18.841  1.00  0.00     0.128 C 
ENDROOT
BRANCH  21  22
HETATM   22  O3  UNL     1      -1.840  47.391 -19.099  1.00  0.00    -0.381 OA
HETATM   23  H25 UNL     1      -0.925  47.720 -18.973  1.00  0.00     0.211 HD
ENDBRANCH  21  22
BRANCH  21  24
HETATM   24  C20 UNL     1      -2.007  49.360 -17.775  1.00  0.00     0.185 C 
HETATM   25  O4  UNL     1      -1.770  48.853 -16.670  1.00  0.00    -0.292 OA
BRANCH  24  26
HETATM   26  C21 UNL     1      -1.591  50.785 -18.116  1.00  0.00     0.260 C 
BRANCH  26  27
HETATM   27  O5  UNL     1      -0.242  50.843 -18.580  1.00  0.00    -0.314 OA
BRANCH  27  28
HETATM   28  C22 UNL     1       0.274  52.096 -18.654  1.00  0.00     0.259 C 
HETATM   29  O6  UNL     1       0.834  52.667 -17.722  1.00  0.00    -0.265 OA
BRANCH  28  30
HETATM   30  C23 UNL     1       0.071  52.747 -20.002  1.00  0.00     0.120 C 
BRANCH  30  31
HETATM   31  C24 UNL     1       1.239  52.619 -20.973  1.00  0.00     0.112 C 
BRANCH  31  32
HETATM   32  C25 UNL     1       1.150  53.622 -22.108  1.00  0.00     0.218 C 
HETATM   33  O7  UNL     1       1.613  54.756 -22.047  1.00  0.00    -0.274 OA
HETATM   34  N1  UNL     1       0.474  53.128 -23.202  1.00  0.00    -0.356 N 
HETATM   35  H32 UNL     1       0.283  52.137 -23.247  1.00  0.00     0.162 HD
BRANCH  34  36
HETATM   36  C26 UNL     1       0.382  53.880 -24.435  1.00  0.00     0.168 C 
BRANCH  36  37
HETATM   37  C27 UNL     1       0.390  52.922 -25.585  1.00  0.00     0.000 A 
HETATM   38  C28 UNL     1       0.654  51.563 -25.575  1.00  0.00     0.017 A 
HETATM   39  C29 UNL     1       0.577  50.986 -26.876  1.00  0.00     0.008 A 
HETATM   40  C30 UNL     1       0.243  51.917 -27.835  1.00  0.00     0.050 A 
HETATM   41  S1  UNL     1       0.029  53.476 -27.169  1.00  0.00    -0.105 SA
ENDBRANCH  36  37
ENDBRANCH  34  36
ENDBRANCH  31  32
ENDBRANCH  30  31
ENDBRANCH  28  30
ENDBRANCH  27  28
ENDBRANCH  26  27
ENDBRANCH  24  26
ENDBRANCH  21  24
TORSDOF 10
ENDMDL
MODEL 5
REMARK minimizedAffinity -9.05643749
REMARK CNNscore 0.494971901
REMARK CNNaffinity 6.87469816
REMARK  10 active torsions:
REMARK  status: ('A' for Active; 'I' for Inactive)
REMARK    1  A    between atoms: C19_21  and  O3_22 
REMARK    2  A    between atoms: C19_21  and  C20_23 
REMARK    3  A    between atoms: C20_23  and  C21_25 
REMARK    4  A    between atoms: C21_25  and  O5_26 
REMARK    5  A    between atoms: O5_26  and  C22_27 
REMARK    6  A    between atoms: C22_27  and  C23_29 
REMARK    7  A    between atoms: C23_29  and  C24_30 
REMARK    8  A    between atoms: C24_30  and  C25_31 
REMARK       I    between atoms: C25_31  and  N1_33 
REMARK    9  A    between atoms: N1_33  and  C26_34 
REMARK   10  A    between atoms: C26_34  and  C27_35 
ROOT
HETATM    1  C1  UNL     1      -2.203  52.679 -24.469  1.00  0.00     0.021 C 
HETATM    2  C2  UNL     1      -1.240  51.484 -24.644  1.00  0.00    -0.009 C 
HETATM    3  C3  UNL     1       0.214  52.001 -24.864  1.00  0.00     0.022 C 
HETATM    4  C4  UNL     1       0.433  52.668 -26.215  1.00  0.00     0.084 C 
HETATM    5  C5  UNL     1       0.031  51.744 -27.332  1.00  0.00     0.149 C 
HETATM    6  O1  UNL     1       0.554  51.785 -28.442  1.00  0.00    -0.293 OA
HETATM    7  C6  UNL     1      -1.090  50.806 -27.093  1.00  0.00     0.053 C 
HETATM    8  C7  UNL     1      -1.695  50.710 -25.896  1.00  0.00    -0.067 C 
HETATM    9  C8  UNL     1      -2.921  49.837 -25.755  1.00  0.00     0.035 C 
HETATM   10  C9  UNL     1      -2.824  48.909 -24.553  1.00  0.00     0.010 C 
HETATM   11  C10 UNL     1      -2.563  49.702 -23.265  1.00  0.00     0.003 C 
HETATM   12  C11 UNL     1      -1.243  50.518 -23.403  1.00  0.00     0.072 C 
HETATM   13  C12 UNL     1      -0.889  51.173 -22.051  1.00  0.00     0.133 C 
HETATM   14  O2  UNL     1      -0.576  52.356 -21.931  1.00  0.00    -0.297 OA
HETATM   15  C13 UNL     1      -0.877  50.260 -20.831  1.00  0.00     0.091 C 
HETATM   16  C14 UNL     1      -2.225  49.534 -20.720  1.00  0.00     0.005 C 
HETATM   17  C15 UNL     1      -3.334  50.575 -20.411  1.00  0.00     0.019 C 
HETATM   18  C16 UNL     1      -2.453  48.771 -22.050  1.00  0.00     0.002 C 
HETATM   19  C17 UNL     1      -3.624  47.846 -21.736  1.00  0.00     0.009 C 
HETATM   20  C18 UNL     1      -3.451  47.480 -20.247  1.00  0.00     0.047 C 
HETATM   21  C19 UNL     1      -2.286  48.345 -19.717  1.00  0.00     0.128 C 
ENDROOT
BRANCH  21  22
HETATM   22  O3  UNL     1      -1.086  47.557 -19.855  1.00  0.00    -0.381 OA
HETATM   23  H25 UNL     1      -0.437  47.920 -19.216  1.00  0.00     0.211 HD
ENDBRANCH  21  22
BRANCH  21  24
HETATM   24  C20 UNL     1      -2.339  48.770 -18.237  1.00  0.00     0.185 C 
HETATM   25  O4  UNL     1      -3.423  48.713 -17.643  1.00  0.00    -0.292 OA
BRANCH  24  26
HETATM   26  C21 UNL     1      -1.059  49.218 -17.544  1.00  0.00     0.260 C 
BRANCH  26  27
HETATM   27  O5  UNL     1      -1.137  50.579 -17.121  1.00  0.00    -0.314 OA
BRANCH  27  28
HETATM   28  C22 UNL     1       0.002  51.293 -17.308  1.00  0.00     0.259 C 
HETATM   29  O6  UNL     1       0.217  52.006 -18.284  1.00  0.00    -0.265 OA
BRANCH  28  30
HETATM   30  C23 UNL     1       1.009  51.111 -16.197  1.00  0.00     0.120 C 
BRANCH  30  31
HETATM   31  C24 UNL     1       1.071  52.241 -15.177  1.00  0.00     0.112 C 
BRANCH  31  32
HETATM   32  C25 UNL     1       0.646  51.786 -13.793  1.00  0.00     0.218 C 
HETATM   33  O7  UNL     1       0.627  50.611 -13.444  1.00  0.00    -0.274 OA
HETATM   34  N1  UNL     1       0.261  52.832 -12.984  1.00  0.00    -0.356 N 
HETATM   35  H32 UNL     1       0.473  53.775 -13.278  1.00  0.00     0.162 HD
BRANCH  34  36
HETATM   36  C26 UNL     1      -0.066  52.627 -11.590  1.00  0.00     0.168 C 
BRANCH  36  37
HETATM   37  C27 UNL     1      -1.501  52.999 -11.373  1.00  0.00     0.000 A 
HETATM   38  C28 UNL     1      -2.027  53.940 -10.505  1.00  0.00     0.017 A 
HETATM   39  C29 UNL     1      -3.449  54.006 -10.572  1.00  0.00     0.008 A 
HETATM   40  C30 UNL     1      -3.962  53.124 -11.497  1.00  0.00     0.050 A 
HETATM   41  S1  UNL     1      -2.737  52.223 -12.275  1.00  0.00    -0.105 SA
ENDBRANCH  36  37
ENDBRANCH  34  36
ENDBRANCH  31  32
ENDBRANCH  30  31
ENDBRANCH  28  30
ENDBRANCH  27  28
ENDBRANCH  26  27
ENDBRANCH  24  26
ENDBRANCH  21  24
TORSDOF 10
ENDMDL
MODEL 6
REMARK minimizedAffinity -7.69253874
REMARK CNNscore 0.475412786
REMARK CNNaffinity 6.09099579
REMARK  10 active torsions:
REMARK  status: ('A' for Active; 'I' for Inactive)
REMARK    1  A    between atoms: C19_21  and  O3_22 
REMARK    2  A    between atoms: C19_21  and  C20_23 
REMARK    3  A    between atoms: C20_23  and  C21_25 
REMARK    4  A    between atoms: C21_25  and  O5_26 
REMARK    5  A    between atoms: O5_26  and  C22_27 
REMARK    6  A    between atoms: C22_27  and  C23_29 
REMARK    7  A    between atoms: C23_29  and  C24_30 
REMARK    8  A    between atoms: C24_30  and  C25_31 
REMARK       I    between atoms: C25_31  and  N1_33 
REMARK    9  A    between atoms: N1_33  and  C26_34 
REMARK   10  A    between atoms: C26_34  and  C27_35 
ROOT
HETATM    1  C1  UNL     1      -7.461  45.192 -30.738  1.00  0.00     0.021 C 
HETATM    2  C2  UNL     1      -7.630  46.727 -30.720  1.00  0.00    -0.009 C 
HETATM    3  C3  UNL     1      -7.801  47.260 -32.175  1.00  0.00     0.022 C 
HETATM    4  C4  UNL     1      -6.533  47.182 -33.013  1.00  0.00     0.084 C 
HETATM    5  C5  UNL     1      -5.399  47.894 -32.325  1.00  0.00     0.149 C 
HETATM    6  O1  UNL     1      -4.482  48.424 -32.944  1.00  0.00    -0.293 OA
HETATM    7  C6  UNL     1      -5.363  47.880 -30.844  1.00  0.00     0.053 C 
HETATM    8  C7  UNL     1      -6.344  47.322 -30.113  1.00  0.00    -0.067 C 
HETATM    9  C8  UNL     1      -6.181  47.216 -28.614  1.00  0.00     0.035 C 
HETATM   10  C9  UNL     1      -7.410  47.719 -27.871  1.00  0.00     0.010 C 
HETATM   11  C10 UNL     1      -8.674  46.985 -28.339  1.00  0.00     0.003 C 
HETATM   12  C11 UNL     1      -8.870  47.190 -29.871  1.00  0.00     0.072 C 
HETATM   13  C12 UNL     1     -10.229  46.603 -30.307  1.00  0.00     0.133 C 
HETATM   14  O2  UNL     1     -10.368  45.861 -31.278  1.00  0.00    -0.297 OA
HETATM   15  C13 UNL     1     -11.451  47.039 -29.507  1.00  0.00     0.091 C 
HETATM   16  C14 UNL     1     -11.217  46.754 -28.017  1.00  0.00     0.005 C 
HETATM   17  C15 UNL     1     -11.143  45.218 -27.803  1.00  0.00     0.019 C 
HETATM   18  C16 UNL     1      -9.920  47.494 -27.601  1.00  0.00     0.002 C 
HETATM   19  C17 UNL     1      -9.940  47.424 -26.078  1.00  0.00     0.009 C 
HETATM   20  C18 UNL     1     -11.435  47.479 -25.699  1.00  0.00     0.047 C 
HETATM   21  C19 UNL     1     -12.225  47.405 -27.025  1.00  0.00     0.128 C 
ENDROOT
BRANCH  21  22
HETATM   22  O3  UNL     1     -12.473  48.763 -27.437  1.00  0.00    -0.381 OA
HETATM   23  H25 UNL     1     -13.249  48.736 -28.037  1.00  0.00     0.211 HD
ENDBRANCH  21  22
BRANCH  21  24
HETATM   24  C20 UNL     1     -13.604  46.719 -26.988  1.00  0.00     0.185 C 
HETATM   25  O4  UNL     1     -14.223  46.576 -28.050  1.00  0.00    -0.292 OA
BRANCH  24  26
HETATM   26  C21 UNL     1     -14.150  46.215 -25.659  1.00  0.00     0.260 C 
BRANCH  26  27
HETATM   27  O5  UNL     1     -15.551  46.460 -25.537  1.00  0.00    -0.314 OA
BRANCH  27  28
HETATM   28  C22 UNL     1     -15.921  47.044 -24.370  1.00  0.00     0.259 C 
HETATM   29  O6  UNL     1     -15.372  48.030 -23.887  1.00  0.00    -0.265 OA
BRANCH  28  30
HETATM   30  C23 UNL     1     -17.076  46.345 -23.692  1.00  0.00     0.120 C 
BRANCH  30  31
HETATM   31  C24 UNL     1     -18.445  46.978 -23.912  1.00  0.00     0.112 C 
BRANCH  31  32
HETATM   32  C25 UNL     1     -19.217  46.297 -25.027  1.00  0.00     0.218 C 
HETATM   33  O7  UNL     1     -20.419  46.453 -25.211  1.00  0.00    -0.274 OA
HETATM   34  N1  UNL     1     -18.427  45.467 -25.791  1.00  0.00    -0.356 N 
HETATM   35  H32 UNL     1     -17.424  45.529 -25.694  1.00  0.00     0.162 HD
BRANCH  34  36
HETATM   36  C26 UNL     1     -18.941  44.816 -26.976  1.00  0.00     0.168 C 
BRANCH  36  37
HETATM   37  C27 UNL     1     -17.937  43.809 -27.447  1.00  0.00     0.000 A 
HETATM   38  C28 UNL     1     -16.936  43.964 -28.390  1.00  0.00     0.017 A 
HETATM   39  C29 UNL     1     -16.180  42.770 -28.580  1.00  0.00     0.008 A 
HETATM   40  C30 UNL     1     -16.618  41.748 -27.768  1.00  0.00     0.050 A 
HETATM   41  S1  UNL     1     -17.933  42.225 -26.786  1.00  0.00    -0.105 SA
ENDBRANCH  36  37
ENDBRANCH  34  36
ENDBRANCH  31  32
ENDBRANCH  30  31
ENDBRANCH  28  30
ENDBRANCH  27  28
ENDBRANCH  26  27
ENDBRANCH  24  26
ENDBRANCH  21  24
TORSDOF 10
ENDMDL
MODEL 7
REMARK minimizedAffinity -8.6737299
REMARK CNNscore 0.466397285
REMARK CNNaffinity 6.5407176
REMARK  10 active torsions:
REMARK  status: ('A' for Active; 'I' for Inactive)
REMARK    1  A    between atoms: C19_21  and  O3_22 
REMARK    2  A    between atoms: C19_21  and  C20_23 
REMARK    3  A    between atoms: C20_23  and  C21_25 
REMARK    4  A    between atoms: C21_25  and  O5_26 
REMARK    5  A    between atoms: O5_26  and  C22_27 
REMARK    6  A    between atoms: C22_27  and  C23_29 
REMARK    7  A    between atoms: C23_29  and  C24_30 
REMARK    8  A    between atoms: C24_30  and  C25_31 
REMARK       I    between atoms: C25_31  and  N1_33 
REMARK    9  A    between atoms: N1_33  and  C26_34 
REMARK   10  A    between atoms: C26_34  and  C27_35 
ROOT
HETATM    1  C1  UNL     1      -2.158  52.661 -24.418  1.00  0.00     0.021 C 
HETATM    2  C2  UNL     1      -1.190  51.461 -24.516  1.00  0.00    -0.009 C 
HETATM    3  C3  UNL     1       0.266  51.968 -24.746  1.00  0.00     0.022 C 
HETATM    4  C4  UNL     1       0.500  52.562 -26.129  1.00  0.00     0.084 C 
HETATM    5  C5  UNL     1       0.113  51.577 -27.199  1.00  0.00     0.149 C 
HETATM    6  O1  UNL     1       0.649  51.559 -28.303  1.00  0.00    -0.293 OA
HETATM    7  C6  UNL     1      -1.009  50.651 -26.923  1.00  0.00     0.053 C 
HETATM    8  C7  UNL     1      -1.628  50.618 -25.730  1.00  0.00    -0.067 C 
HETATM    9  C8  UNL     1      -2.854  49.752 -25.556  1.00  0.00     0.035 C 
HETATM   10  C9  UNL     1      -2.770  48.890 -24.304  1.00  0.00     0.010 C 
HETATM   11  C10 UNL     1      -2.526  49.752 -23.059  1.00  0.00     0.003 C 
HETATM   12  C11 UNL     1      -1.206  50.563 -23.224  1.00  0.00     0.072 C 
HETATM   13  C12 UNL     1      -0.870  51.291 -21.906  1.00  0.00     0.133 C 
HETATM   14  O2  UNL     1      -0.560  52.480 -21.847  1.00  0.00    -0.297 OA
HETATM   15  C13 UNL     1      -0.871  50.446 -20.638  1.00  0.00     0.091 C 
HETATM   16  C14 UNL     1      -2.218  49.724 -20.504  1.00  0.00     0.005 C 
HETATM   17  C15 UNL     1      -3.333  50.777 -20.265  1.00  0.00     0.019 C 
HETATM   18  C16 UNL     1      -2.429  48.889 -21.793  1.00  0.00     0.002 C 
HETATM   19  C17 UNL     1      -3.601  47.979 -21.444  1.00  0.00     0.009 C 
HETATM   20  C18 UNL     1      -3.445  47.695 -19.935  1.00  0.00     0.047 C 
HETATM   21  C19 UNL     1      -2.289  48.590 -19.439  1.00  0.00     0.128 C 
ENDROOT
BRANCH  21  22
HETATM   22  O3  UNL     1      -1.086  47.799 -19.520  1.00  0.00    -0.381 OA
HETATM   23  H25 UNL     1      -0.446  48.198 -18.893  1.00  0.00     0.211 HD
ENDBRANCH  21  22
BRANCH  21  24
HETATM   24  C20 UNL     1      -2.360  49.095 -17.985  1.00  0.00     0.185 C 
HETATM   25  O4  UNL     1      -3.434  49.550 -17.568  1.00  0.00    -0.292 OA
BRANCH  24  26
HETATM   26  C21 UNL     1      -1.126  48.994 -17.099  1.00  0.00     0.260 C 
BRANCH  26  27
HETATM   27  O5  UNL     1      -0.008  49.671 -17.674  1.00  0.00    -0.314 OA
BRANCH  27  28
HETATM   28  C22 UNL     1       0.385  50.782 -17.000  1.00  0.00     0.259 C 
HETATM   29  O6  UNL     1       0.438  51.905 -17.494  1.00  0.00    -0.265 OA
BRANCH  28  30
HETATM   30  C23 UNL     1       0.782  50.504 -15.570  1.00  0.00     0.120 C 
BRANCH  30  31
HETATM   31  C24 UNL     1       1.739  51.513 -14.948  1.00  0.00     0.112 C 
BRANCH  31  32
HETATM   32  C25 UNL     1       1.186  52.110 -13.667  1.00  0.00     0.218 C 
HETATM   33  O7  UNL     1      -0.008  52.318 -13.477  1.00  0.00    -0.274 OA
HETATM   34  N1  UNL     1       2.171  52.416 -12.754  1.00  0.00    -0.356 N 
HETATM   35  H32 UNL     1       3.102  52.054 -12.907  1.00  0.00     0.162 HD
BRANCH  34  36
HETATM   36  C26 UNL     1       1.849  52.884 -11.423  1.00  0.00     0.168 C 
BRANCH  36  37
HETATM   37  C27 UNL     1       3.096  53.410 -10.783  1.00  0.00     0.000 A 
HETATM   38  C28 UNL     1       3.624  54.688 -10.844  1.00  0.00     0.017 A 
HETATM   39  C29 UNL     1       4.840  54.808 -10.109  1.00  0.00     0.008 A 
HETATM   40  C30 UNL     1       5.194  53.624  -9.501  1.00  0.00     0.050 A 
HETATM   41  S1  UNL     1       4.069  52.378  -9.818  1.00  0.00    -0.105 SA
ENDBRANCH  36  37
ENDBRANCH  34  36
ENDBRANCH  31  32
ENDBRANCH  30  31
ENDBRANCH  28  30
ENDBRANCH  27  28
ENDBRANCH  26  27
ENDBRANCH  24  26
ENDBRANCH  21  24
TORSDOF 10
ENDMDL
MODEL 8
REMARK minimizedAffinity -8.67918015
REMARK CNNscore 0.417862803
REMARK CNNaffinity 6.95031118
REMARK  10 active torsions:
REMARK  status: ('A' for Active; 'I' for Inactive)
REMARK    1  A    between atoms: C19_21  and  O3_22 
REMARK    2  A    between atoms: C19_21  and  C20_23 
REMARK    3  A    between atoms: C20_23  and  C21_25 
REMARK    4  A    between atoms: C21_25  and  O5_26 
REMARK    5  A    between atoms: O5_26  and  C22_27 
REMARK    6  A    between atoms: C22_27  and  C23_29 
REMARK    7  A    between atoms: C23_29  and  C24_30 
REMARK    8  A    between atoms: C24_30  and  C25_31 
REMARK       I    between atoms: C25_31  and  N1_33 
REMARK    9  A    between atoms: N1_33  and  C26_34 
REMARK   10  A    between atoms: C26_34  and  C27_35 
ROOT
HETATM    1  C1  UNL     1      -4.191  51.225 -24.521  1.00  0.00     0.021 C 
HETATM    2  C2  UNL     1      -3.433  49.879 -24.493  1.00  0.00    -0.009 C 
HETATM    3  C3  UNL     1      -2.240  49.920 -25.495  1.00  0.00     0.022 C 
HETATM    4  C4  UNL     1      -2.662  49.912 -26.958  1.00  0.00     0.084 C 
HETATM    5  C5  UNL     1      -3.547  48.730 -27.246  1.00  0.00     0.149 C 
HETATM    6  O1  UNL     1      -3.597  48.197 -28.351  1.00  0.00    -0.293 OA
HETATM    7  C6  UNL     1      -4.443  48.249 -26.168  1.00  0.00     0.053 C 
HETATM    8  C7  UNL     1      -4.426  48.787 -24.936  1.00  0.00    -0.067 C 
HETATM    9  C8  UNL     1      -5.458  48.348 -23.923  1.00  0.00     0.035 C 
HETATM   10  C9  UNL     1      -4.827  47.992 -22.584  1.00  0.00     0.010 C 
HETATM   11  C10 UNL     1      -3.990  49.159 -22.044  1.00  0.00     0.003 C 
HETATM   12  C11 UNL     1      -2.873  49.529 -23.065  1.00  0.00     0.072 C 
HETATM   13  C12 UNL     1      -1.926  50.579 -22.448  1.00  0.00     0.133 C 
HETATM   14  O2  UNL     1      -1.578  51.605 -23.030  1.00  0.00    -0.297 OA
HETATM   15  C13 UNL     1      -1.363  50.264 -21.068  1.00  0.00     0.091 C 
HETATM   16  C14 UNL     1      -2.515  49.970 -20.097  1.00  0.00     0.005 C 
HETATM   17  C15 UNL     1      -3.342  51.267 -19.889  1.00  0.00     0.019 C 
HETATM   18  C16 UNL     1      -3.342  48.804 -20.698  1.00  0.00     0.002 C 
HETATM   19  C17 UNL     1      -4.247  48.376 -19.548  1.00  0.00     0.009 C 
HETATM   20  C18 UNL     1      -3.409  48.619 -18.275  1.00  0.00     0.047 C 
HETATM   21  C19 UNL     1      -2.120  49.338 -18.730  1.00  0.00     0.128 C 
ENDROOT
BRANCH  21  22
HETATM   22  O3  UNL     1      -1.131  48.314 -18.959  1.00  0.00    -0.381 OA
HETATM   23  H25 UNL     1      -0.255  48.750 -18.886  1.00  0.00     0.211 HD
ENDBRANCH  21  22
BRANCH  21  24
HETATM   24  C20 UNL     1      -1.477  50.328 -17.741  1.00  0.00     0.185 C 
HETATM   25  O4  UNL     1      -2.191  50.847 -16.874  1.00  0.00    -0.292 OA
BRANCH  24  26
HETATM   26  C21 UNL     1       0.016  50.616 -17.839  1.00  0.00     0.260 C 
BRANCH  26  27
HETATM   27  O5  UNL     1       0.303  51.994 -17.600  1.00  0.00    -0.314 OA
BRANCH  27  28
HETATM   28  C22 UNL     1       1.291  52.215 -16.697  1.00  0.00     0.259 C 
HETATM   29  O6  UNL     1       2.418  52.605 -16.990  1.00  0.00    -0.265 OA
BRANCH  28  30
HETATM   30  C23 UNL     1       0.881  51.910 -15.276  1.00  0.00     0.120 C 
BRANCH  30  31
HETATM   31  C24 UNL     1       1.990  51.386 -14.372  1.00  0.00     0.112 C 
BRANCH  31  32
HETATM   32  C25 UNL     1       1.905  51.960 -12.970  1.00  0.00     0.218 C 
HETATM   33  O7  UNL     1       2.764  51.785 -12.113  1.00  0.00    -0.274 OA
HETATM   34  N1  UNL     1       0.747  52.677 -12.759  1.00  0.00    -0.356 N 
HETATM   35  H32 UNL     1       0.181  52.927 -13.557  1.00  0.00     0.162 HD
BRANCH  34  36
HETATM   36  C26 UNL     1       0.525  53.406 -11.530  1.00  0.00     0.168 C 
BRANCH  36  37
HETATM   37  C27 UNL     1      -0.947  53.452 -11.257  1.00  0.00     0.000 A 
HETATM   38  C28 UNL     1      -1.652  54.346 -10.470  1.00  0.00     0.017 A 
HETATM   39  C29 UNL     1      -3.049  54.062 -10.444  1.00  0.00     0.008 A 
HETATM   40  C30 UNL     1      -3.367  52.971 -11.222  1.00  0.00     0.050 A 
HETATM   41  S1  UNL     1      -1.990  52.294 -11.974  1.00  0.00    -0.105 SA
ENDBRANCH  36  37
ENDBRANCH  34  36
ENDBRANCH  31  32
ENDBRANCH  30  31
ENDBRANCH  28  30
ENDBRANCH  27  28
ENDBRANCH  26  27
ENDBRANCH  24  26
ENDBRANCH  21  24
TORSDOF 10
ENDMDL
MODEL 9
REMARK minimizedAffinity -8.36643982
REMARK CNNscore 0.412219673
REMARK CNNaffinity 6.71723366
REMARK  10 active torsions:
REMARK  status: ('A' for Active; 'I' for Inactive)
REMARK    1  A    between atoms: C19_21  and  O3_22 
REMARK    2  A    between atoms: C19_21  and  C20_23 
REMARK    3  A    between atoms: C20_23  and  C21_25 
REMARK    4  A    between atoms: C21_25  and  O5_26 
REMARK    5  A    between atoms: O5_26  and  C22_27 
REMARK    6  A    between atoms: C22_27  and  C23_29 
REMARK    7  A    between atoms: C23_29  and  C24_30 
REMARK    8  A    between atoms: C24_30  and  C25_31 
REMARK       I    between atoms: C25_31  and  N1_33 
REMARK    9  A    between atoms: N1_33  and  C26_34 
REMARK   10  A    between atoms: C26_34  and  C27_35 
ROOT
HETATM    1  C1  UNL     1      -4.400  51.247 -24.442  1.00  0.00     0.021 C 
HETATM    2  C2  UNL     1      -3.526  49.973 -24.457  1.00  0.00    -0.009 C 
HETATM    3  C3  UNL     1      -2.353  50.146 -25.469  1.00  0.00     0.022 C 
HETATM    4  C4  UNL     1      -2.791  50.137 -26.928  1.00  0.00     0.084 C 
HETATM    5  C5  UNL     1      -3.572  48.889 -27.238  1.00  0.00     0.149 C 
HETATM    6  O1  UNL     1      -3.588  48.382 -28.356  1.00  0.00    -0.293 OA
HETATM    7  C6  UNL     1      -4.408  48.303 -26.165  1.00  0.00     0.053 C 
HETATM    8  C7  UNL     1      -4.423  48.809 -24.919  1.00  0.00    -0.067 C 
HETATM    9  C8  UNL     1      -5.401  48.254 -23.908  1.00  0.00     0.035 C 
HETATM   10  C9  UNL     1      -4.724  47.922 -22.585  1.00  0.00     0.010 C 
HETATM   11  C10 UNL     1      -3.987  49.144 -22.023  1.00  0.00     0.003 C 
HETATM   12  C11 UNL     1      -2.920  49.638 -23.045  1.00  0.00     0.072 C 
HETATM   13  C12 UNL     1      -2.062  50.752 -22.409  1.00  0.00     0.133 C 
HETATM   14  O2  UNL     1      -1.813  51.819 -22.968  1.00  0.00    -0.297 OA
HETATM   15  C13 UNL     1      -1.456  50.453 -21.044  1.00  0.00     0.091 C 
HETATM   16  C14 UNL     1      -2.566  50.033 -20.070  1.00  0.00     0.005 C 
HETATM   17  C15 UNL     1      -3.502  51.246 -19.819  1.00  0.00     0.019 C 
HETATM   18  C16 UNL     1      -3.294  48.815 -20.693  1.00  0.00     0.002 C 
HETATM   19  C17 UNL     1      -4.143  48.279 -19.546  1.00  0.00     0.009 C 
HETATM   20  C18 UNL     1      -3.314  48.563 -18.275  1.00  0.00     0.047 C 
HETATM   21  C19 UNL     1      -2.099  49.405 -18.724  1.00  0.00     0.128 C 
ENDROOT
BRANCH  21  22
HETATM   22  O3  UNL     1      -1.026  48.479 -18.989  1.00  0.00    -0.381 OA
HETATM   23  H25 UNL     1      -0.192  48.989 -18.914  1.00  0.00     0.211 HD
ENDBRANCH  21  22
BRANCH  21  24
HETATM   24  C20 UNL     1      -1.534  50.423 -17.716  1.00  0.00     0.185 C 
HETATM   25  O4  UNL     1      -2.327  51.062 -17.012  1.00  0.00    -0.292 OA
BRANCH  24  26
HETATM   26  C21 UNL     1      -0.026  50.591 -17.592  1.00  0.00     0.260 C 
BRANCH  26  27
HETATM   27  O5  UNL     1       0.385  50.678 -16.228  1.00  0.00    -0.314 OA
BRANCH  27  28
HETATM   28  C22 UNL     1       0.970  51.855 -15.890  1.00  0.00     0.259 C 
HETATM   29  O6  UNL     1       1.373  52.683 -16.702  1.00  0.00    -0.265 OA
BRANCH  28  30
HETATM   30  C23 UNL     1       1.106  52.047 -14.398  1.00  0.00     0.120 C 
BRANCH  30  31
HETATM   31  C24 UNL     1      -0.190  51.945 -13.604  1.00  0.00     0.112 C 
BRANCH  31  32
HETATM   32  C25 UNL     1      -0.084  52.617 -12.247  1.00  0.00     0.218 C 
HETATM   33  O7  UNL     1      -1.029  53.159 -11.685  1.00  0.00    -0.274 OA
HETATM   34  N1  UNL     1       1.192  52.572 -11.730  1.00  0.00    -0.356 N 
HETATM   35  H32 UNL     1       1.868  51.959 -12.162  1.00  0.00     0.162 HD
BRANCH  34  36
HETATM   36  C26 UNL     1       1.482  53.050 -10.396  1.00  0.00     0.168 C 
BRANCH  36  37
HETATM   37  C27 UNL     1       2.469  54.173 -10.492  1.00  0.00     0.000 A 
HETATM   38  C28 UNL     1       2.237  55.502 -10.801  1.00  0.00     0.017 A 
HETATM   39  C29 UNL     1       3.435  56.275 -10.805  1.00  0.00     0.008 A 
HETATM   40  C30 UNL     1       4.539  55.517 -10.487  1.00  0.00     0.050 A 
HETATM   41  S1  UNL     1       4.133  53.884 -10.189  1.00  0.00    -0.105 SA
ENDBRANCH  36  37
ENDBRANCH  34  36
ENDBRANCH  31  32
ENDBRANCH  30  31
ENDBRANCH  28  30
ENDBRANCH  27  28
ENDBRANCH  26  27
ENDBRANCH  24  26
ENDBRANCH  21  24
TORSDOF 10
ENDMDL
