MODEL 1
REMARK minimizedAffinity -8.91096592
REMARK CNNscore 0.615704417
REMARK CNNaffinity 6.94463205
REMARK  12 active torsions:
REMARK  status: ('A' for Active; 'I' for Inactive)
REMARK    1  A    between atoms: C2_2  and  O2_4 
REMARK    2  A    between atoms: O2_4  and  C3_5 
REMARK    3  A    between atoms: C4_6  and  O3_7 
REMARK    4  A    between atoms: O3_7  and  C5_8 
REMARK    5  A    between atoms: C11_14  and  O4_15 
REMARK    6  A    between atoms: C14_18  and  C15_19 
REMARK    7  A    between atoms: C19_23  and  C20_24 
REMARK    8  A    between atoms: C20_24  and  O5_27 
REMARK    9  A    between atoms: C35_42  and  C36_43 
REMARK   10  A    between atoms: C36_43  and  O8_44 
REMARK   11  A    between atoms: C37_45  and  O9_46 
REMARK   12  A    between atoms: C38_47  and  O10_48 
ROOT
HETATM    1  C5  UNL     1       0.142   7.051  12.892  1.00  0.00     0.133 C 
HETATM    2  C6  UNL     1       1.037   6.625  14.052  1.00  0.00     0.034 C 
HETATM    3  C7  UNL     1       1.235   7.640  15.185  1.00  0.00     0.012 C 
HETATM    4  C8  UNL     1       0.488   8.999  15.060  1.00  0.00    -0.033 C 
HETATM    5  C9  UNL     1       1.234   9.851  14.017  1.00  0.00     0.016 C 
HETATM    6  C10 UNL     1       0.441   9.743  16.488  1.00  0.00     0.032 C 
HETATM    7  C11 UNL     1       1.829  10.099  17.123  1.00  0.00     0.124 C 
HETATM    8  C12 UNL     1       1.742  10.747  18.521  1.00  0.00     0.038 C 
HETATM    9  C13 UNL     1       0.777  11.917  18.538  1.00  0.00     0.004 C 
HETATM   10  C14 UNL     1       0.560  12.673  19.857  1.00  0.00     0.025 C 
HETATM   11  C23 UNL     1      -0.738  13.463  19.565  1.00  0.00     0.009 C 
HETATM   12  C24 UNL     1      -1.435  12.782  18.371  1.00  0.00     0.011 C 
HETATM   13  C25 UNL     1      -0.641  11.486  18.089  1.00  0.00    -0.032 C 
HETATM   14  C26 UNL     1      -1.251  10.398  19.031  1.00  0.00     0.016 C 
HETATM   15  C27 UNL     1      -0.566  10.981  16.568  1.00  0.00    -0.030 C 
HETATM   16  C28 UNL     1      -0.122  12.146  15.627  1.00  0.00     0.016 C 
HETATM   17  C29 UNL     1      -1.962  10.522  16.073  1.00  0.00     0.011 C 
HETATM   18  C30 UNL     1      -1.947   9.844  14.707  1.00  0.00     0.007 C 
HETATM   19  C31 UNL     1      -0.989   8.637  14.651  1.00  0.00     0.004 C 
HETATM   20  C32 UNL     1      -1.170   7.747  13.355  1.00  0.00    -0.017 C 
HETATM   21  C33 UNL     1      -1.783   8.521  12.157  1.00  0.00     0.018 C 
HETATM   22  C34 UNL     1      -2.191   6.624  13.713  1.00  0.00     0.018 C 
ENDROOT
BRANCH   1  23
HETATM   23  O3  UNL     1       0.859   7.906  11.988  1.00  0.00    -0.352 OA
BRANCH  23  24
HETATM   24  C4  UNL     1       1.898   7.252  11.243  1.00  0.00     0.293 C 
HETATM   25  C3  UNL     1       2.275   8.136  10.035  1.00  0.00     0.218 C 
HETATM   26  C38 UNL     1       3.700   7.821   9.590  1.00  0.00     0.183 C 
HETATM   27  C37 UNL     1       4.718   7.932  10.740  1.00  0.00     0.180 C 
HETATM   28  C35 UNL     1       4.113   7.730  12.136  1.00  0.00     0.179 C 
HETATM   29  O7  UNL     1       2.959   6.885  12.112  1.00  0.00    -0.348 OA
BRANCH  25  30
HETATM   30  O2  UNL     1       1.328   7.844   8.961  1.00  0.00    -0.309 OA
BRANCH  30  31
HETATM   31  C2  UNL     1       1.748   6.967   8.019  1.00  0.00     0.255 C 
HETATM   32  C1  UNL     1       1.432   7.468   6.645  1.00  0.00     0.126 C 
HETATM   33  O1  UNL     1       2.291   5.899   8.260  1.00  0.00    -0.266 OA
ENDBRANCH  30  31
ENDBRANCH  25  30
BRANCH  26  34
HETATM   34  O10 UNL     1       4.158   8.666   8.514  1.00  0.00    -0.390 OA
HETATM   35  H64 UNL     1       3.484   9.354   8.353  1.00  0.00     0.210 HD
ENDBRANCH  26  34
BRANCH  27  36
HETATM   36  O9  UNL     1       5.705   6.904  10.516  1.00  0.00    -0.390 OA
HETATM   37  H62 UNL     1       6.580   7.302  10.663  1.00  0.00     0.210 HD
ENDBRANCH  27  36
BRANCH  28  38
HETATM   38  C36 UNL     1       3.887   9.041  12.905  1.00  0.00     0.198 C 
BRANCH  38  39
HETATM   39  O8  UNL     1       4.517  10.155  12.282  1.00  0.00    -0.398 OA
HETATM   40  H60 UNL     1       4.028  10.953  12.549  1.00  0.00     0.209 HD
ENDBRANCH  38  39
ENDBRANCH  28  38
ENDBRANCH  23  24
ENDBRANCH   1  23
BRANCH   7  41
HETATM   41  O4  UNL     1       2.629   8.931  17.280  1.00  0.00    -0.395 OA
HETATM   42  H16 UNL     1       3.508   9.215  17.567  1.00  0.00     0.210 HD
ENDBRANCH   7  41
BRANCH  10  43
HETATM   43  C15 UNL     1       1.730  13.560  20.378  1.00  0.00     0.062 C 
HETATM   44  C16 UNL     1       1.291  14.966  20.803  1.00  0.00     0.046 C 
HETATM   45  C17 UNL     1       2.917  13.638  19.413  1.00  0.00     0.041 C 
HETATM   46  C18 UNL     1       3.713  12.394  19.730  1.00  0.00     0.038 C 
HETATM   47  C19 UNL     1       3.493  12.230  21.230  1.00  0.00     0.156 C 
HETATM   48  O6  UNL     1       2.272  12.925  21.559  1.00  0.00    -0.372 OA
BRANCH  47  49
HETATM   49  C20 UNL     1       3.450  10.761  21.728  1.00  0.00     0.076 C 
HETATM   50  C21 UNL     1       4.025  10.643  23.146  1.00  0.00     0.048 C 
HETATM   51  C22 UNL     1       2.014  10.216  21.694  1.00  0.00     0.048 C 
BRANCH  49  52
HETATM   52  O5  UNL     1       4.266   9.945  20.874  1.00  0.00    -0.388 OA
HETATM   53  H35 UNL     1       3.980   9.021  20.982  1.00  0.00     0.210 HD
ENDBRANCH  49  52
ENDBRANCH  47  49
ENDBRANCH  10  43
TORSDOF 12
ENDMDL
MODEL 2
REMARK minimizedAffinity -10.1247749
REMARK CNNscore 0.551473737
REMARK CNNaffinity 7.43643141
REMARK  12 active torsions:
REMARK  status: ('A' for Active; 'I' for Inactive)
REMARK    1  A    between atoms: C2_2  and  O2_4 
REMARK    2  A    between atoms: O2_4  and  C3_5 
REMARK    3  A    between atoms: C4_6  and  O3_7 
REMARK    4  A    between atoms: O3_7  and  C5_8 
REMARK    5  A    between atoms: C11_14  and  O4_15 
REMARK    6  A    between atoms: C14_18  and  C15_19 
REMARK    7  A    between atoms: C19_23  and  C20_24 
REMARK    8  A    between atoms: C20_24  and  O5_27 
REMARK    9  A    between atoms: C35_42  and  C36_43 
REMARK   10  A    between atoms: C36_43  and  O8_44 
REMARK   11  A    between atoms: C37_45  and  O9_46 
REMARK   12  A    between atoms: C38_47  and  O10_48 
ROOT
HETATM    1  C5  UNL     1       0.299  12.606  17.951  1.00  0.00     0.133 C 
HETATM    2  C6  UNL     1       1.113  13.019  16.729  1.00  0.00     0.034 C 
HETATM    3  C7  UNL     1       1.296  11.965  15.628  1.00  0.00     0.012 C 
HETATM    4  C8  UNL     1       0.617  10.583  15.849  1.00  0.00    -0.033 C 
HETATM    5  C9  UNL     1       1.454   9.808  16.884  1.00  0.00     0.016 C 
HETATM    6  C10 UNL     1       0.528   9.777  14.456  1.00  0.00     0.032 C 
HETATM    7  C11 UNL     1       1.895   9.453  13.763  1.00  0.00     0.124 C 
HETATM    8  C12 UNL     1       1.764   8.742  12.398  1.00  0.00     0.038 C 
HETATM    9  C13 UNL     1       0.852   7.534  12.482  1.00  0.00     0.004 C 
HETATM   10  C14 UNL     1       0.600   6.713  11.207  1.00  0.00     0.025 C 
HETATM   11  C23 UNL     1      -0.645   5.883  11.601  1.00  0.00     0.009 C 
HETATM   12  C24 UNL     1      -1.308   6.584  12.803  1.00  0.00     0.011 C 
HETATM   13  C25 UNL     1      -0.558   7.924  12.989  1.00  0.00    -0.032 C 
HETATM   14  C26 UNL     1      -1.265   8.943  12.038  1.00  0.00     0.016 C 
HETATM   15  C27 UNL     1      -0.426   8.496  14.482  1.00  0.00    -0.030 C 
HETATM   16  C28 UNL     1       0.118   7.392  15.444  1.00  0.00     0.016 C 
HETATM   17  C29 UNL     1      -1.813   8.916  15.033  1.00  0.00     0.011 C 
HETATM   18  C30 UNL     1      -1.757   9.653  16.367  1.00  0.00     0.007 C 
HETATM   19  C31 UNL     1      -0.851  10.900  16.322  1.00  0.00     0.004 C 
HETATM   20  C32 UNL     1      -1.003  11.837  17.589  1.00  0.00    -0.017 C 
HETATM   21  C33 UNL     1      -1.518  11.090  18.849  1.00  0.00     0.018 C 
HETATM   22  C34 UNL     1      -2.090  12.899  17.241  1.00  0.00     0.018 C 
ENDROOT
BRANCH   1  23
HETATM   23  O3  UNL     1       1.100  11.822  18.849  1.00  0.00    -0.352 OA
BRANCH  23  24
HETATM   24  C4  UNL     1       1.014  12.214  20.228  1.00  0.00     0.293 C 
HETATM   25  C3  UNL     1       2.216  11.617  20.991  1.00  0.00     0.218 C 
HETATM   26  C38 UNL     1       2.503  12.452  22.235  1.00  0.00     0.183 C 
HETATM   27  C37 UNL     1       2.694  13.946  21.914  1.00  0.00     0.180 C 
HETATM   28  C35 UNL     1       1.999  14.406  20.625  1.00  0.00     0.179 C 
HETATM   29  O7  UNL     1       0.843  13.621  20.321  1.00  0.00    -0.348 OA
BRANCH  25  30
HETATM   30  O2  UNL     1       1.866  10.248  21.364  1.00  0.00    -0.309 OA
BRANCH  30  31
HETATM   31  C2  UNL     1       2.896   9.449  21.730  1.00  0.00     0.255 C 
HETATM   32  C1  UNL     1       2.472   8.486  22.794  1.00  0.00     0.126 C 
HETATM   33  O1  UNL     1       4.025   9.522  21.270  1.00  0.00    -0.266 OA
ENDBRANCH  30  31
ENDBRANCH  25  30
BRANCH  26  34
HETATM   34  O10 UNL     1       3.668  12.006  22.960  1.00  0.00    -0.390 OA
HETATM   35  H64 UNL     1       4.107  11.306  22.440  1.00  0.00     0.210 HD
ENDBRANCH  26  34
BRANCH  27  36
HETATM   36  O9  UNL     1       2.133  14.679  23.023  1.00  0.00    -0.390 OA
HETATM   37  H62 UNL     1       2.759  15.387  23.251  1.00  0.00     0.210 HD
ENDBRANCH  27  36
BRANCH  28  38
HETATM   38  C36 UNL     1       2.955  14.563  19.433  1.00  0.00     0.198 C 
BRANCH  38  39
HETATM   39  O8  UNL     1       3.944  13.539  19.386  1.00  0.00    -0.398 OA
HETATM   40  H60 UNL     1       4.227  13.450  18.460  1.00  0.00     0.209 HD
ENDBRANCH  38  39
ENDBRANCH  28  38
ENDBRANCH  23  24
ENDBRANCH   1  23
BRANCH   7  41
HETATM   41  O4  UNL     1       2.634  10.646  13.515  1.00  0.00    -0.395 OA
HETATM   42  H16 UNL     1       3.508  10.387  13.193  1.00  0.00     0.210 HD
ENDBRANCH   7  41
BRANCH  10  43
HETATM   43  C15 UNL     1       1.779   5.855  10.660  1.00  0.00     0.062 C 
HETATM   44  C16 UNL     1       1.692   4.374  11.049  1.00  0.00     0.046 C 
HETATM   45  C17 UNL     1       3.161   6.419  11.006  1.00  0.00     0.041 C 
HETATM   46  C18 UNL     1       3.403   7.448   9.928  1.00  0.00     0.038 C 
HETATM   47  C19 UNL     1       2.712   6.831   8.716  1.00  0.00     0.156 C 
HETATM   48  O6  UNL     1       1.727   5.903   9.215  1.00  0.00    -0.372 OA
BRANCH  47  49
HETATM   49  C20 UNL     1       2.074   7.852   7.738  1.00  0.00     0.076 C 
HETATM   50  C21 UNL     1       1.784   7.203   6.377  1.00  0.00     0.048 C 
HETATM   51  C22 UNL     1       0.782   8.437   8.328  1.00  0.00     0.048 C 
BRANCH  49  52
HETATM   52  O5  UNL     1       2.995   8.927   7.504  1.00  0.00    -0.388 OA
HETATM   53  H35 UNL     1       2.486   9.690   7.177  1.00  0.00     0.210 HD
ENDBRANCH  49  52
ENDBRANCH  47  49
ENDBRANCH  10  43
TORSDOF 12
ENDMDL
MODEL 3
REMARK minimizedAffinity -8.64053631
REMARK CNNscore 0.542645037
REMARK CNNaffinity 7.23374224
REMARK  12 active torsions:
REMARK  status: ('A' for Active; 'I' for Inactive)
REMARK    1  A    between atoms: C2_2  and  O2_4 
REMARK    2  A    between atoms: O2_4  and  C3_5 
REMARK    3  A    between atoms: C4_6  and  O3_7 
REMARK    4  A    between atoms: O3_7  and  C5_8 
REMARK    5  A    between atoms: C11_14  and  O4_15 
REMARK    6  A    between atoms: C14_18  and  C15_19 
REMARK    7  A    between atoms: C19_23  and  C20_24 
REMARK    8  A    between atoms: C20_24  and  O5_27 
REMARK    9  A    between atoms: C35_42  and  C36_43 
REMARK   10  A    between atoms: C36_43  and  O8_44 
REMARK   11  A    between atoms: C37_45  and  O9_46 
REMARK   12  A    between atoms: C38_47  and  O10_48 
ROOT
HETATM    1  C5  UNL     1      -3.540   7.016  13.254  1.00  0.00     0.133 C 
HETATM    2  C6  UNL     1      -3.919   8.411  12.764  1.00  0.00     0.034 C 
HETATM    3  C7  UNL     1      -3.709   9.572  13.745  1.00  0.00     0.012 C 
HETATM    4  C8  UNL     1      -3.109   9.225  15.138  1.00  0.00    -0.033 C 
HETATM    5  C9  UNL     1      -4.221   8.570  15.978  1.00  0.00     0.016 C 
HETATM    6  C10 UNL     1      -2.552  10.557  15.852  1.00  0.00     0.032 C 
HETATM    7  C11 UNL     1      -3.611  11.679  16.133  1.00  0.00     0.124 C 
HETATM    8  C12 UNL     1      -3.025  12.965  16.754  1.00  0.00     0.038 C 
HETATM    9  C13 UNL     1      -2.164  12.661  17.965  1.00  0.00     0.004 C 
HETATM   10  C14 UNL     1      -1.492  13.830  18.702  1.00  0.00     0.025 C 
HETATM   11  C23 UNL     1      -0.426  13.101  19.554  1.00  0.00     0.009 C 
HETATM   12  C24 UNL     1      -0.207  11.708  18.931  1.00  0.00     0.011 C 
HETATM   13  C25 UNL     1      -1.006  11.697  17.607  1.00  0.00    -0.032 C 
HETATM   14  C26 UNL     1      -0.050  12.301  16.528  1.00  0.00     0.016 C 
HETATM   15  C27 UNL     1      -1.631  10.299  17.132  1.00  0.00    -0.030 C 
HETATM   16  C28 UNL     1      -2.435   9.636  18.296  1.00  0.00     0.016 C 
HETATM   17  C29 UNL     1      -0.509   9.299  16.746  1.00  0.00     0.011 C 
HETATM   18  C30 UNL     1      -1.015   8.015  16.097  1.00  0.00     0.007 C 
HETATM   19  C31 UNL     1      -1.884   8.279  14.851  1.00  0.00     0.004 C 
HETATM   20  C32 UNL     1      -2.175   6.978  13.997  1.00  0.00    -0.017 C 
HETATM   21  C33 UNL     1      -2.083   5.666  14.823  1.00  0.00     0.018 C 
HETATM   22  C34 UNL     1      -1.058   6.886  12.913  1.00  0.00     0.018 C 
ENDROOT
BRANCH   1  23
HETATM   23  O3  UNL     1      -4.573   6.479  14.095  1.00  0.00    -0.352 OA
BRANCH  23  24
HETATM   24  C4  UNL     1      -5.869   6.406  13.480  1.00  0.00     0.293 C 
HETATM   25  C3  UNL     1      -6.270   4.922  13.342  1.00  0.00     0.218 C 
HETATM   26  C38 UNL     1      -7.790   4.803  13.276  1.00  0.00     0.183 C 
HETATM   27  C37 UNL     1      -8.490   5.493  14.461  1.00  0.00     0.180 C 
HETATM   28  C35 UNL     1      -7.672   6.622  15.103  1.00  0.00     0.179 C 
HETATM   29  O7  UNL     1      -6.781   7.245  14.173  1.00  0.00    -0.348 OA
BRANCH  25  30
HETATM   30  O2  UNL     1      -5.664   4.413  12.113  1.00  0.00    -0.309 OA
BRANCH  30  31
HETATM   31  C2  UNL     1      -4.839   3.348  12.253  1.00  0.00     0.255 C 
HETATM   32  C1  UNL     1      -5.366   2.164  11.505  1.00  0.00     0.126 C 
HETATM   33  O1  UNL     1      -3.816   3.349  12.921  1.00  0.00    -0.266 OA
ENDBRANCH  30  31
ENDBRANCH  25  30
BRANCH  26  34
HETATM   34  O10 UNL     1      -8.250   3.436  13.229  1.00  0.00    -0.390 OA
HETATM   35  H64 UNL     1      -7.482   2.847  13.355  1.00  0.00     0.210 HD
ENDBRANCH  26  34
BRANCH  27  36
HETATM   36  O9  UNL     1      -9.716   6.052  13.945  1.00  0.00    -0.390 OA
HETATM   37  H62 UNL     1     -10.422   5.844  14.581  1.00  0.00     0.210 HD
ENDBRANCH  27  36
BRANCH  28  38
HETATM   38  C36 UNL     1      -6.988   6.217  16.418  1.00  0.00     0.198 C 
BRANCH  38  39
HETATM   39  O8  UNL     1      -7.313   7.090  17.494  1.00  0.00    -0.398 OA
HETATM   40  H60 UNL     1      -7.208   6.586  18.320  1.00  0.00     0.209 HD
ENDBRANCH  38  39
ENDBRANCH  28  38
ENDBRANCH  23  24
ENDBRANCH   1  23
BRANCH   7  41
HETATM   41  O4  UNL     1      -4.254  12.082  14.928  1.00  0.00    -0.395 OA
HETATM   42  H16 UNL     1      -4.968  12.688  15.166  1.00  0.00     0.210 HD
ENDBRANCH   7  41
BRANCH  10  43
HETATM   43  C15 UNL     1      -2.408  14.784  19.524  1.00  0.00     0.062 C 
HETATM   44  C16 UNL     1      -3.695  14.117  20.024  1.00  0.00     0.046 C 
HETATM   45  C17 UNL     1      -2.730  16.097  18.804  1.00  0.00     0.041 C 
HETATM   46  C18 UNL     1      -1.536  16.970  19.111  1.00  0.00     0.038 C 
HETATM   47  C19 UNL     1      -1.150  16.525  20.518  1.00  0.00     0.156 C 
HETATM   48  O6  UNL     1      -1.674  15.194  20.701  1.00  0.00    -0.372 OA
BRANCH  47  49
HETATM   49  C20 UNL     1       0.370  16.575  20.825  1.00  0.00     0.076 C 
HETATM   50  C21 UNL     1       1.195  16.519  19.532  1.00  0.00     0.048 C 
HETATM   51  C22 UNL     1       0.723  17.841  21.620  1.00  0.00     0.048 C 
BRANCH  49  52
HETATM   52  O5  UNL     1       0.736  15.429  21.608  1.00  0.00    -0.388 OA
HETATM   53  H35 UNL     1       1.574  15.632  22.059  1.00  0.00     0.210 HD
ENDBRANCH  49  52
ENDBRANCH  47  49
ENDBRANCH  10  43
TORSDOF 12
ENDMDL
MODEL 4
REMARK minimizedAffinity -9.2124958
REMARK CNNscore 0.450563282
REMARK CNNaffinity 7.82141733
REMARK  12 active torsions:
REMARK  status: ('A' for Active; 'I' for Inactive)
REMARK    1  A    between atoms: C2_2  and  O2_4 
REMARK    2  A    between atoms: O2_4  and  C3_5 
REMARK    3  A    between atoms: C4_6  and  O3_7 
REMARK    4  A    between atoms: O3_7  and  C5_8 
REMARK    5  A    between atoms: C11_14  and  O4_15 
REMARK    6  A    between atoms: C14_18  and  C15_19 
REMARK    7  A    between atoms: C19_23  and  C20_24 
REMARK    8  A    between atoms: C20_24  and  O5_27 
REMARK    9  A    between atoms: C35_42  and  C36_43 
REMARK   10  A    between atoms: C36_43  and  O8_44 
REMARK   11  A    between atoms: C37_45  and  O9_46 
REMARK   12  A    between atoms: C38_47  and  O10_48 
ROOT
HETATM    1  C5  UNL     1      -0.278   7.248  13.838  1.00  0.00     0.133 C 
HETATM    2  C6  UNL     1      -0.646   8.093  15.054  1.00  0.00     0.034 C 
HETATM    3  C7  UNL     1      -2.137   8.386  15.269  1.00  0.00     0.012 C 
HETATM    4  C8  UNL     1      -3.136   7.778  14.242  1.00  0.00    -0.033 C 
HETATM    5  C9  UNL     1      -3.045   8.609  12.949  1.00  0.00     0.016 C 
HETATM    6  C10 UNL     1      -4.632   7.800  14.841  1.00  0.00     0.032 C 
HETATM    7  C11 UNL     1      -5.213   9.215  15.185  1.00  0.00     0.124 C 
HETATM    8  C12 UNL     1      -6.620   9.187  15.819  1.00  0.00     0.038 C 
HETATM    9  C13 UNL     1      -7.584   8.343  15.008  1.00  0.00     0.004 C 
HETATM   10  C14 UNL     1      -9.031   8.198  15.504  1.00  0.00     0.025 C 
HETATM   11  C23 UNL     1      -9.531   6.986  14.684  1.00  0.00     0.009 C 
HETATM   12  C24 UNL     1      -8.290   6.228  14.173  1.00  0.00     0.011 C 
HETATM   13  C25 UNL     1      -7.069   6.891  14.852  1.00  0.00    -0.032 C 
HETATM   14  C26 UNL     1      -6.907   6.172  16.230  1.00  0.00     0.016 C 
HETATM   15  C27 UNL     1      -5.692   6.921  14.031  1.00  0.00    -0.030 C 
HETATM   16  C28 UNL     1      -5.926   7.481  12.592  1.00  0.00     0.016 C 
HETATM   17  C29 UNL     1      -5.125   5.488  13.859  1.00  0.00     0.011 C 
HETATM   18  C30 UNL     1      -3.721   5.440  13.264  1.00  0.00     0.007 C 
HETATM   19  C31 UNL     1      -2.704   6.275  14.067  1.00  0.00     0.004 C 
HETATM   20  C32 UNL     1      -1.200   6.011  13.650  1.00  0.00    -0.017 C 
HETATM   21  C33 UNL     1      -1.048   5.481  12.198  1.00  0.00     0.018 C 
HETATM   22  C34 UNL     1      -0.661   4.882  14.580  1.00  0.00     0.018 C 
ENDROOT
BRANCH   1  23
HETATM   23  O3  UNL     1      -0.281   8.050  12.647  1.00  0.00    -0.352 OA
BRANCH  23  24
HETATM   24  C4  UNL     1       1.012   8.521  12.237  1.00  0.00     0.293 C 
HETATM   25  C3  UNL     1       2.070   7.997  13.233  1.00  0.00     0.218 C 
HETATM   26  C38 UNL     1       3.435   7.943  12.554  1.00  0.00     0.183 C 
HETATM   27  C37 UNL     1       3.412   7.136  11.243  1.00  0.00     0.180 C 
HETATM   28  C35 UNL     1       2.035   7.071  10.568  1.00  0.00     0.179 C 
HETATM   29  O7  UNL     1       1.228   8.214  10.868  1.00  0.00    -0.348 OA
BRANCH  25  30
HETATM   30  O2  UNL     1       2.100   8.917  14.369  1.00  0.00    -0.309 OA
BRANCH  30  31
HETATM   31  C2  UNL     1       2.482   8.385  15.554  1.00  0.00     0.255 C 
HETATM   32  C1  UNL     1       2.520   9.434  16.621  1.00  0.00     0.126 C 
HETATM   33  O1  UNL     1       2.780   7.213  15.723  1.00  0.00    -0.266 OA
ENDBRANCH  30  31
ENDBRANCH  25  30
BRANCH  26  34
HETATM   34  O10 UNL     1       4.464   7.384  13.396  1.00  0.00    -0.390 OA
HETATM   35  H64 UNL     1       4.048   7.051  14.214  1.00  0.00     0.210 HD
ENDBRANCH  26  34
BRANCH  27  36
HETATM   36  O9  UNL     1       4.332   7.790  10.343  1.00  0.00    -0.390 OA
HETATM   37  H62 UNL     1       4.866   7.097   9.917  1.00  0.00     0.210 HD
ENDBRANCH  27  36
BRANCH  28  38
HETATM   38  C36 UNL     1       1.303   5.739  10.791  1.00  0.00     0.198 C 
BRANCH  38  39
HETATM   39  O8  UNL     1       2.175   4.617  10.716  1.00  0.00    -0.398 OA
HETATM   40  H60 UNL     1       1.776   3.901  11.241  1.00  0.00     0.209 HD
ENDBRANCH  38  39
ENDBRANCH  28  38
ENDBRANCH  23  24
ENDBRANCH   1  23
BRANCH   7  41
HETATM   41  O4  UNL     1      -4.375   9.895  16.115  1.00  0.00    -0.395 OA
HETATM   42  H16 UNL     1      -4.713  10.795  16.207  1.00  0.00     0.210 HD
ENDBRANCH   7  41
BRANCH  10  43
HETATM   43  C15 UNL     1      -9.955   9.448  15.404  1.00  0.00     0.062 C 
HETATM   44  C16 UNL     1      -9.190  10.777  15.404  1.00  0.00     0.046 C 
HETATM   45  C17 UNL     1     -11.070   9.472  16.454  1.00  0.00     0.041 C 
HETATM   46  C18 UNL     1     -12.153   8.617  15.839  1.00  0.00     0.038 C 
HETATM   47  C19 UNL     1     -12.004   8.910  14.350  1.00  0.00     0.156 C 
HETATM   48  O6  UNL     1     -10.656   9.378  14.141  1.00  0.00    -0.372 OA
BRANCH  47  49
HETATM   49  C20 UNL     1     -12.334   7.717  13.414  1.00  0.00     0.076 C 
HETATM   50  C21 UNL     1     -11.198   7.476  12.409  1.00  0.00     0.048 C 
HETATM   51  C22 UNL     1     -12.595   6.442  14.228  1.00  0.00     0.048 C 
BRANCH  49  52
HETATM   52  O5  UNL     1     -13.512   8.020  12.653  1.00  0.00    -0.388 OA
HETATM   53  H35 UNL     1     -13.886   7.179  12.334  1.00  0.00     0.210 HD
ENDBRANCH  49  52
ENDBRANCH  47  49
ENDBRANCH  10  43
TORSDOF 12
ENDMDL
MODEL 5
REMARK minimizedAffinity -8.8863039
REMARK CNNscore 0.399416804
REMARK CNNaffinity 6.99928713
REMARK  12 active torsions:
REMARK  status: ('A' for Active; 'I' for Inactive)
REMARK    1  A    between atoms: C2_2  and  O2_4 
REMARK    2  A    between atoms: O2_4  and  C3_5 
REMARK    3  A    between atoms: C4_6  and  O3_7 
REMARK    4  A    between atoms: O3_7  and  C5_8 
REMARK    5  A    between atoms: C11_14  and  O4_15 
REMARK    6  A    between atoms: C14_18  and  C15_19 
REMARK    7  A    between atoms: C19_23  and  C20_24 
REMARK    8  A    between atoms: C20_24  and  O5_27 
REMARK    9  A    between atoms: C35_42  and  C36_43 
REMARK   10  A    between atoms: C36_43  and  O8_44 
REMARK   11  A    between atoms: C37_45  and  O9_46 
REMARK   12  A    between atoms: C38_47  and  O10_48 
ROOT
HETATM    1  C5  UNL     1      -4.056   7.198  14.897  1.00  0.00     0.133 C 
HETATM    2  C6  UNL     1      -3.230   6.867  16.137  1.00  0.00     0.034 C 
HETATM    3  C7  UNL     1      -1.725   7.161  16.068  1.00  0.00     0.012 C 
HETATM    4  C8  UNL     1      -1.185   7.789  14.751  1.00  0.00    -0.033 C 
HETATM    5  C9  UNL     1      -1.129   6.677  13.688  1.00  0.00     0.016 C 
HETATM    6  C10 UNL     1       0.274   8.429  14.997  1.00  0.00     0.032 C 
HETATM    7  C11 UNL     1       1.391   7.432  15.461  1.00  0.00     0.124 C 
HETATM    8  C12 UNL     1       2.754   8.095  15.752  1.00  0.00     0.038 C 
HETATM    9  C13 UNL     1       3.203   8.980  14.606  1.00  0.00     0.004 C 
HETATM   10  C14 UNL     1       4.539   9.728  14.733  1.00  0.00     0.025 C 
HETATM   11  C23 UNL     1       4.423  10.787  13.611  1.00  0.00     0.009 C 
HETATM   12  C24 UNL     1       2.929  10.922  13.255  1.00  0.00     0.011 C 
HETATM   13  C25 UNL     1       2.158  10.081  14.299  1.00  0.00    -0.032 C 
HETATM   14  C26 UNL     1       1.925  11.028  15.521  1.00  0.00     0.016 C 
HETATM   15  C27 UNL     1       0.797   9.378  13.823  1.00  0.00    -0.030 C 
HETATM   16  C28 UNL     1       1.027   8.583  12.499  1.00  0.00     0.016 C 
HETATM   17  C29 UNL     1      -0.291  10.440  13.517  1.00  0.00     0.011 C 
HETATM   18  C30 UNL     1      -1.674   9.856  13.249  1.00  0.00     0.007 C 
HETATM   19  C31 UNL     1      -2.176   8.960  14.399  1.00  0.00     0.004 C 
HETATM   20  C32 UNL     1      -3.709   8.584  14.283  1.00  0.00    -0.017 C 
HETATM   21  C33 UNL     1      -4.249   8.642  12.828  1.00  0.00     0.018 C 
HETATM   22  C34 UNL     1      -4.504   9.660  15.083  1.00  0.00     0.018 C 
ENDROOT
BRANCH   1  23
HETATM   23  O3  UNL     1      -3.911   6.169  13.905  1.00  0.00    -0.352 OA
BRANCH  23  24
HETATM   24  C4  UNL     1      -5.118   5.842  13.201  1.00  0.00     0.293 C 
HETATM   25  C3  UNL     1      -5.320   4.312  13.245  1.00  0.00     0.218 C 
HETATM   26  C38 UNL     1      -6.799   3.982  13.069  1.00  0.00     0.183 C 
HETATM   27  C37 UNL     1      -7.695   4.722  14.079  1.00  0.00     0.180 C 
HETATM   28  C35 UNL     1      -7.091   6.027  14.618  1.00  0.00     0.179 C 
HETATM   29  O7  UNL     1      -6.192   6.635  13.686  1.00  0.00    -0.348 OA
BRANCH  25  30
HETATM   30  O2  UNL     1      -4.534   3.731  12.158  1.00  0.00    -0.309 OA
BRANCH  30  31
HETATM   31  C2  UNL     1      -5.211   2.946  11.288  1.00  0.00     0.255 C 
HETATM   32  C1  UNL     1      -4.756   1.524  11.386  1.00  0.00     0.126 C 
HETATM   33  O1  UNL     1      -6.062   3.349  10.509  1.00  0.00    -0.266 OA
ENDBRANCH  30  31
ENDBRANCH  25  30
BRANCH  26  34
HETATM   34  O10 UNL     1      -7.082   2.572  13.182  1.00  0.00    -0.390 OA
HETATM   35  H64 UNL     1      -6.266   2.113  13.456  1.00  0.00     0.210 HD
ENDBRANCH  26  34
BRANCH  27  36
HETATM   36  O9  UNL     1      -8.921   5.038  13.386  1.00  0.00    -0.390 OA
HETATM   37  H62 UNL     1      -9.658   4.824  13.984  1.00  0.00     0.210 HD
ENDBRANCH  27  36
BRANCH  28  38
HETATM   38  C36 UNL     1      -6.501   5.895  16.030  1.00  0.00     0.198 C 
BRANCH  38  39
HETATM   39  O8  UNL     1      -6.956   6.917  16.910  1.00  0.00    -0.398 OA
HETATM   40  H60 UNL     1      -6.895   6.569  17.817  1.00  0.00     0.209 HD
ENDBRANCH  38  39
ENDBRANCH  28  38
ENDBRANCH  23  24
ENDBRANCH   1  23
BRANCH   7  41
HETATM   41  O4  UNL     1       1.011   6.769  16.663  1.00  0.00    -0.395 OA
HETATM   42  H16 UNL     1       1.675   6.091  16.845  1.00  0.00     0.210 HD
ENDBRANCH   7  41
BRANCH  10  43
HETATM   43  C15 UNL     1       5.846   8.883  14.666  1.00  0.00     0.062 C 
HETATM   44  C16 UNL     1       6.429   8.546  16.043  1.00  0.00     0.046 C 
HETATM   45  C17 UNL     1       6.924   9.492  13.762  1.00  0.00     0.041 C 
HETATM   46  C18 UNL     1       6.538   9.015  12.382  1.00  0.00     0.038 C 
HETATM   47  C19 UNL     1       5.950   7.635  12.657  1.00  0.00     0.156 C 
HETATM   48  O6  UNL     1       5.524   7.622  14.035  1.00  0.00    -0.372 OA
BRANCH  47  49
HETATM   49  C20 UNL     1       4.794   7.217  11.711  1.00  0.00     0.076 C 
HETATM   50  C21 UNL     1       4.332   8.401  10.850  1.00  0.00     0.048 C 
HETATM   51  C22 UNL     1       5.224   6.048  10.811  1.00  0.00     0.048 C 
BRANCH  49  52
HETATM   52  O5  UNL     1       3.666   6.798  12.492  1.00  0.00    -0.388 OA
HETATM   53  H35 UNL     1       3.098   6.247  11.925  1.00  0.00     0.210 HD
ENDBRANCH  49  52
ENDBRANCH  47  49
ENDBRANCH  10  43
TORSDOF 12
ENDMDL
MODEL 6
REMARK minimizedAffinity -7.73168516
REMARK CNNscore 0.338056505
REMARK CNNaffinity 6.5994339
REMARK  12 active torsions:
REMARK  status: ('A' for Active; 'I' for Inactive)
REMARK    1  A    between atoms: C2_2  and  O2_4 
REMARK    2  A    between atoms: O2_4  and  C3_5 
REMARK    3  A    between atoms: C4_6  and  O3_7 
REMARK    4  A    between atoms: O3_7  and  C5_8 
REMARK    5  A    between atoms: C11_14  and  O4_15 
REMARK    6  A    between atoms: C14_18  and  C15_19 
REMARK    7  A    between atoms: C19_23  and  C20_24 
REMARK    8  A    between atoms: C20_24  and  O5_27 
REMARK    9  A    between atoms: C35_42  and  C36_43 
REMARK   10  A    between atoms: C36_43  and  O8_44 
REMARK   11  A    between atoms: C37_45  and  O9_46 
REMARK   12  A    between atoms: C38_47  and  O10_48 
ROOT
HETATM    1  C5  UNL     1      -0.987   6.630  13.374  1.00  0.00     0.133 C 
HETATM    2  C6  UNL     1      -0.102   6.353  14.585  1.00  0.00     0.034 C 
HETATM    3  C7  UNL     1       0.144   7.523  15.547  1.00  0.00     0.012 C 
HETATM    4  C8  UNL     1      -0.548   8.876  15.212  1.00  0.00    -0.033 C 
HETATM    5  C9  UNL     1       0.225   9.524  14.049  1.00  0.00     0.016 C 
HETATM    6  C10 UNL     1      -0.555   9.834  16.507  1.00  0.00     0.032 C 
HETATM    7  C11 UNL     1       0.851  10.227  17.078  1.00  0.00     0.124 C 
HETATM    8  C12 UNL     1       0.799  11.088  18.359  1.00  0.00     0.038 C 
HETATM    9  C13 UNL     1      -0.117  12.284  18.193  1.00  0.00     0.004 C 
HETATM   10  C14 UNL     1      -0.294  13.245  19.379  1.00  0.00     0.025 C 
HETATM   11  C23 UNL     1      -1.561  14.032  18.968  1.00  0.00     0.009 C 
HETATM   12  C24 UNL     1      -2.294  13.203  17.895  1.00  0.00     0.011 C 
HETATM   13  C25 UNL     1      -1.555  11.847  17.817  1.00  0.00    -0.032 C 
HETATM   14  C26 UNL     1      -2.202  10.945  18.917  1.00  0.00     0.016 C 
HETATM   15  C27 UNL     1      -1.510  11.110  16.394  1.00  0.00    -0.030 C 
HETATM   16  C28 UNL     1      -1.026  12.095  15.283  1.00  0.00     0.016 C 
HETATM   17  C29 UNL     1      -2.927  10.637  15.976  1.00  0.00     0.011 C 
HETATM   18  C30 UNL     1      -2.949   9.755  14.733  1.00  0.00     0.007 C 
HETATM   19  C31 UNL     1      -2.040   8.516  14.865  1.00  0.00     0.004 C 
HETATM   20  C32 UNL     1      -2.266   7.443  13.723  1.00  0.00    -0.017 C 
HETATM   21  C33 UNL     1      -2.856   8.046  12.419  1.00  0.00     0.018 C 
HETATM   22  C34 UNL     1      -3.330   6.433  14.252  1.00  0.00     0.018 C 
ENDROOT
BRANCH   1  23
HETATM   23  O3  UNL     1      -0.242   7.304  12.348  1.00  0.00    -0.352 OA
BRANCH  23  24
HETATM   24  C4  UNL     1       1.101   6.827  12.172  1.00  0.00     0.293 C 
HETATM   25  C3  UNL     1       1.068   5.564  11.284  1.00  0.00     0.218 C 
HETATM   26  C38 UNL     1       2.417   5.384  10.593  1.00  0.00     0.183 C 
HETATM   27  C37 UNL     1       2.856   6.639   9.816  1.00  0.00     0.180 C 
HETATM   28  C35 UNL     1       2.245   7.947  10.337  1.00  0.00     0.179 C 
HETATM   29  O7  UNL     1       1.938   7.886  11.733  1.00  0.00    -0.348 OA
BRANCH  25  30
HETATM   30  O2  UNL     1       0.781   4.422  12.149  1.00  0.00    -0.309 OA
BRANCH  30  31
HETATM   31  C2  UNL     1      -0.034   3.473  11.632  1.00  0.00     0.255 C 
HETATM   32  C1  UNL     1      -1.470   3.873  11.764  1.00  0.00     0.126 C 
HETATM   33  O1  UNL     1       0.351   2.421  11.145  1.00  0.00    -0.266 OA
ENDBRANCH  30  31
ENDBRANCH  25  30
BRANCH  26  34
HETATM   34  O10 UNL     1       2.441   4.269   9.678  1.00  0.00    -0.390 OA
HETATM   35  H64 UNL     1       1.536   3.908   9.606  1.00  0.00     0.210 HD
ENDBRANCH  26  34
BRANCH  27  36
HETATM   36  O9  UNL     1       4.291   6.721   9.946  1.00  0.00    -0.390 OA
HETATM   37  H62 UNL     1       4.652   6.931   9.067  1.00  0.00     0.210 HD
ENDBRANCH  27  36
BRANCH  28  38
HETATM   38  C36 UNL     1       1.077   8.464   9.483  1.00  0.00     0.198 C 
BRANCH  38  39
HETATM   39  O8  UNL     1       1.014   7.836   8.206  1.00  0.00    -0.398 OA
HETATM   40  H60 UNL     1       0.091   7.884   7.903  1.00  0.00     0.209 HD
ENDBRANCH  38  39
ENDBRANCH  28  38
ENDBRANCH  23  24
ENDBRANCH   1  23
BRANCH   7  41
HETATM   41  O4  UNL     1       1.604   9.065  17.415  1.00  0.00    -0.395 OA
HETATM   42  H16 UNL     1       2.495   9.354  17.654  1.00  0.00     0.210 HD
ENDBRANCH   7  41
BRANCH  10  43
HETATM   43  C15 UNL     1       0.914  14.153  19.756  1.00  0.00     0.062 C 
HETATM   44  C16 UNL     1       1.746  13.612  20.924  1.00  0.00     0.046 C 
HETATM   45  C17 UNL     1       0.528  15.615  20.005  1.00  0.00     0.041 C 
HETATM   46  C18 UNL     1       0.503  16.215  18.620  1.00  0.00     0.038 C 
HETATM   47  C19 UNL     1       1.613  15.451  17.905  1.00  0.00     0.156 C 
HETATM   48  O6  UNL     1       1.798  14.208  18.613  1.00  0.00    -0.372 OA
BRANCH  47  49
HETATM   49  C20 UNL     1       1.367  15.203  16.393  1.00  0.00     0.076 C 
HETATM   50  C21 UNL     1      -0.109  15.423  16.033  1.00  0.00     0.048 C 
HETATM   51  C22 UNL     1       2.259  16.116  15.539  1.00  0.00     0.048 C 
BRANCH  49  52
HETATM   52  O5  UNL     1       1.678  13.838  16.077  1.00  0.00    -0.388 OA
HETATM   53  H35 UNL     1       1.838  13.783  15.119  1.00  0.00     0.210 HD
ENDBRANCH  49  52
ENDBRANCH  47  49
ENDBRANCH  10  43
TORSDOF 12
ENDMDL
MODEL 7
REMARK minimizedAffinity -8.14425087
REMARK CNNscore 0.326199174
REMARK CNNaffinity 6.57924271
REMARK  12 active torsions:
REMARK  status: ('A' for Active; 'I' for Inactive)
REMARK    1  A    between atoms: C2_2  and  O2_4 
REMARK    2  A    between atoms: O2_4  and  C3_5 
REMARK    3  A    between atoms: C4_6  and  O3_7 
REMARK    4  A    between atoms: O3_7  and  C5_8 
REMARK    5  A    between atoms: C11_14  and  O4_15 
REMARK    6  A    between atoms: C14_18  and  C15_19 
REMARK    7  A    between atoms: C19_23  and  C20_24 
REMARK    8  A    between atoms: C20_24  and  O5_27 
REMARK    9  A    between atoms: C35_42  and  C36_43 
REMARK   10  A    between atoms: C36_43  and  O8_44 
REMARK   11  A    between atoms: C37_45  and  O9_46 
REMARK   12  A    between atoms: C38_47  and  O10_48 
ROOT
HETATM    1  C5  UNL     1      -1.621   6.288  13.959  1.00  0.00     0.133 C 
HETATM    2  C6  UNL     1      -0.653   6.394  15.134  1.00  0.00     0.034 C 
HETATM    3  C7  UNL     1      -0.647   7.717  15.911  1.00  0.00     0.012 C 
HETATM    4  C8  UNL     1      -1.642   8.819  15.445  1.00  0.00    -0.033 C 
HETATM    5  C9  UNL     1      -1.079   9.445  14.155  1.00  0.00     0.016 C 
HETATM    6  C10 UNL     1      -1.821   9.930  16.597  1.00  0.00     0.032 C 
HETATM    7  C11 UNL     1      -0.523  10.704  17.014  1.00  0.00     0.124 C 
HETATM    8  C12 UNL     1      -0.724  11.710  18.168  1.00  0.00     0.038 C 
HETATM    9  C13 UNL     1      -1.895  12.636  17.905  1.00  0.00     0.004 C 
HETATM   10  C14 UNL     1      -2.245  13.697  18.961  1.00  0.00     0.025 C 
HETATM   11  C23 UNL     1      -3.672  14.115  18.535  1.00  0.00     0.009 C 
HETATM   12  C24 UNL     1      -4.233  12.997  17.635  1.00  0.00     0.011 C 
HETATM   13  C25 UNL     1      -3.207  11.842  17.690  1.00  0.00    -0.032 C 
HETATM   14  C26 UNL     1      -3.591  10.990  18.943  1.00  0.00     0.016 C 
HETATM   15  C27 UNL     1      -3.046  10.933  16.379  1.00  0.00    -0.030 C 
HETATM   16  C28 UNL     1      -2.840  11.827  15.115  1.00  0.00     0.016 C 
HETATM   17  C29 UNL     1      -4.332  10.103  16.126  1.00  0.00     0.011 C 
HETATM   18  C30 UNL     1      -4.195   9.065  15.016  1.00  0.00     0.007 C 
HETATM   19  C31 UNL     1      -3.023   8.091  15.251  1.00  0.00     0.004 C 
HETATM   20  C32 UNL     1      -3.039   6.840  14.282  1.00  0.00    -0.017 C 
HETATM   21  C33 UNL     1      -3.797   7.100  12.952  1.00  0.00     0.018 C 
HETATM   22  C34 UNL     1      -3.823   5.707  15.013  1.00  0.00     0.018 C 
ENDROOT
BRANCH   1  23
HETATM   23  O3  UNL     1      -1.086   6.952  12.803  1.00  0.00    -0.352 OA
BRANCH  23  24
HETATM   24  C4  UNL     1       0.321   6.754  12.596  1.00  0.00     0.293 C 
HETATM   25  C3  UNL     1       0.517   5.605  11.584  1.00  0.00     0.218 C 
HETATM   26  C38 UNL     1       1.870   5.750  10.894  1.00  0.00     0.183 C 
HETATM   27  C37 UNL     1       2.061   7.137  10.253  1.00  0.00     0.180 C 
HETATM   28  C35 UNL     1       1.221   8.249  10.896  1.00  0.00     0.179 C 
HETATM   29  O7  UNL     1       0.941   7.990  12.275  1.00  0.00    -0.348 OA
BRANCH  25  30
HETATM   30  O2  UNL     1       0.454   4.347  12.326  1.00  0.00    -0.309 OA
BRANCH  30  31
HETATM   31  C2  UNL     1      -0.239   3.343  11.739  1.00  0.00     0.255 C 
HETATM   32  C1  UNL     1      -1.712   3.583  11.837  1.00  0.00     0.126 C 
HETATM   33  O1  UNL     1       0.271   2.361  11.220  1.00  0.00    -0.266 OA
ENDBRANCH  30  31
ENDBRANCH  25  30
BRANCH  26  34
HETATM   34  O10 UNL     1       2.094   4.758   9.871  1.00  0.00    -0.390 OA
HETATM   35  H64 UNL     1       1.272   4.244   9.753  1.00  0.00     0.210 HD
ENDBRANCH  26  34
BRANCH  27  36
HETATM   36  O9  UNL     1       3.457   7.471  10.406  1.00  0.00    -0.390 OA
HETATM   37  H62 UNL     1       3.765   7.832   9.558  1.00  0.00     0.210 HD
ENDBRANCH  27  36
BRANCH  28  38
HETATM   38  C36 UNL     1      -0.029   8.623  10.085  1.00  0.00     0.198 C 
BRANCH  38  39
HETATM   39  O8  UNL     1      -1.024   9.263  10.878  1.00  0.00    -0.398 OA
HETATM   40  H60 UNL     1      -1.562   9.812  10.283  1.00  0.00     0.209 HD
ENDBRANCH  38  39
ENDBRANCH  28  38
ENDBRANCH  23  24
ENDBRANCH   1  23
BRANCH   7  41
HETATM   41  O4  UNL     1       0.488   9.800  17.451  1.00  0.00    -0.395 OA
HETATM   42  H16 UNL     1       1.297  10.311  17.588  1.00  0.00     0.210 HD
ENDBRANCH   7  41
BRANCH  10  43
HETATM   43  C15 UNL     1      -1.264  14.894  19.129  1.00  0.00     0.062 C 
HETATM   44  C16 UNL     1      -0.227  14.686  20.240  1.00  0.00     0.046 C 
HETATM   45  C17 UNL     1      -1.967  16.245  19.301  1.00  0.00     0.041 C 
HETATM   46  C18 UNL     1      -2.257  16.675  17.883  1.00  0.00     0.038 C 
HETATM   47  C19 UNL     1      -1.062  16.120  17.115  1.00  0.00     0.156 C 
HETATM   48  O6  UNL     1      -0.522  15.034  17.896  1.00  0.00    -0.372 OA
BRANCH  47  49
HETATM   49  C20 UNL     1      -1.371  15.665  15.664  1.00  0.00     0.076 C 
HETATM   50  C21 UNL     1      -0.637  14.359  15.328  1.00  0.00     0.048 C 
HETATM   51  C22 UNL     1      -2.883  15.487  15.461  1.00  0.00     0.048 C 
BRANCH  49  52
HETATM   52  O5  UNL     1      -0.903  16.660  14.742  1.00  0.00    -0.388 OA
HETATM   53  H35 UNL     1      -1.377  16.535  13.902  1.00  0.00     0.210 HD
ENDBRANCH  49  52
ENDBRANCH  47  49
ENDBRANCH  10  43
TORSDOF 12
ENDMDL
MODEL 8
REMARK minimizedAffinity -8.34018707
REMARK CNNscore 0.305764169
REMARK CNNaffinity 6.89993525
REMARK  12 active torsions:
REMARK  status: ('A' for Active; 'I' for Inactive)
REMARK    1  A    between atoms: C2_2  and  O2_4 
REMARK    2  A    between atoms: O2_4  and  C3_5 
REMARK    3  A    between atoms: C4_6  and  O3_7 
REMARK    4  A    between atoms: O3_7  and  C5_8 
REMARK    5  A    between atoms: C11_14  and  O4_15 
REMARK    6  A    between atoms: C14_18  and  C15_19 
REMARK    7  A    between atoms: C19_23  and  C20_24 
REMARK    8  A    between atoms: C20_24  and  O5_27 
REMARK    9  A    between atoms: C35_42  and  C36_43 
REMARK   10  A    between atoms: C36_43  and  O8_44 
REMARK   11  A    between atoms: C37_45  and  O9_46 
REMARK   12  A    between atoms: C38_47  and  O10_48 
ROOT
HETATM    1  C5  UNL     1       8.544   9.306  15.976  1.00  0.00     0.133 C 
HETATM    2  C6  UNL     1       7.543   8.226  16.377  1.00  0.00     0.034 C 
HETATM    3  C7  UNL     1       6.336   8.020  15.453  1.00  0.00     0.012 C 
HETATM    4  C8  UNL     1       6.254   8.914  14.182  1.00  0.00    -0.033 C 
HETATM    5  C9  UNL     1       5.815  10.322  14.626  1.00  0.00     0.016 C 
HETATM    6  C10 UNL     1       5.209   8.288  13.127  1.00  0.00     0.032 C 
HETATM    7  C11 UNL     1       3.729   8.152  13.625  1.00  0.00     0.124 C 
HETATM    8  C12 UNL     1       2.776   7.484  12.611  1.00  0.00     0.038 C 
HETATM    9  C13 UNL     1       2.873   8.130  11.242  1.00  0.00     0.004 C 
HETATM   10  C14 UNL     1       1.997   7.580  10.106  1.00  0.00     0.025 C 
HETATM   11  C23 UNL     1       2.673   8.190   8.855  1.00  0.00     0.009 C 
HETATM   12  C24 UNL     1       4.100   8.610   9.259  1.00  0.00     0.011 C 
HETATM   13  C25 UNL     1       4.319   8.073  10.692  1.00  0.00    -0.032 C 
HETATM   14  C26 UNL     1       4.828   6.605  10.524  1.00  0.00     0.016 C 
HETATM   15  C27 UNL     1       5.271   8.925  11.663  1.00  0.00    -0.030 C 
HETATM   16  C28 UNL     1       4.842  10.426  11.670  1.00  0.00     0.016 C 
HETATM   17  C29 UNL     1       6.738   8.888  11.163  1.00  0.00     0.011 C 
HETATM   18  C30 UNL     1       7.742   9.504  12.132  1.00  0.00     0.007 C 
HETATM   19  C31 UNL     1       7.688   8.866  13.535  1.00  0.00     0.004 C 
HETATM   20  C32 UNL     1       8.902   9.276  14.463  1.00  0.00    -0.017 C 
HETATM   21  C33 UNL     1       9.548  10.633  14.069  1.00  0.00     0.018 C 
HETATM   22  C34 UNL     1      10.010   8.197  14.268  1.00  0.00     0.018 C 
ENDROOT
BRANCH   1  23
HETATM   23  O3  UNL     1       8.056  10.606  16.341  1.00  0.00    -0.352 OA
BRANCH  23  24
HETATM   24  C4  UNL     1       7.653  10.731  17.714  1.00  0.00     0.293 C 
HETATM   25  C3  UNL     1       8.762  11.473  18.491  1.00  0.00     0.218 C 
HETATM   26  C38 UNL     1       8.166  12.143  19.726  1.00  0.00     0.183 C 
HETATM   27  C37 UNL     1       6.974  13.057  19.386  1.00  0.00     0.180 C 
HETATM   28  C35 UNL     1       6.246  12.684  18.087  1.00  0.00     0.179 C 
HETATM   29  O7  UNL     1       6.350  11.290  17.787  1.00  0.00    -0.348 OA
BRANCH  25  30
HETATM   30  O2  UNL     1       9.765  10.484  18.881  1.00  0.00    -0.309 OA
BRANCH  30  31
HETATM   31  C2  UNL     1      11.056  10.884  18.805  1.00  0.00     0.255 C 
HETATM   32  C1  UNL     1      11.338  11.530  17.486  1.00  0.00     0.126 C 
HETATM   33  O1  UNL     1      11.885  10.717  19.687  1.00  0.00    -0.266 OA
ENDBRANCH  30  31
ENDBRANCH  25  30
BRANCH  26  34
HETATM   34  O10 UNL     1       9.126  12.928  20.463  1.00  0.00    -0.390 OA
HETATM   35  H64 UNL     1       9.959  12.956  19.955  1.00  0.00     0.210 HD
ENDBRANCH  26  34
BRANCH  27  36
HETATM   36  O9  UNL     1       6.042  12.942  20.482  1.00  0.00    -0.390 OA
HETATM   37  H62 UNL     1       5.741  13.840  20.704  1.00  0.00     0.210 HD
ENDBRANCH  27  36
BRANCH  28  38
HETATM   38  C36 UNL     1       6.607  13.587  16.898  1.00  0.00     0.198 C 
BRANCH  38  39
HETATM   39  O8  UNL     1       5.464  14.195  16.306  1.00  0.00    -0.398 OA
HETATM   40  H60 UNL     1       5.760  15.014  15.873  1.00  0.00     0.209 HD
ENDBRANCH  38  39
ENDBRANCH  28  38
ENDBRANCH  23  24
ENDBRANCH   1  23
BRANCH   7  41
HETATM   41  O4  UNL     1       3.663   7.360  14.807  1.00  0.00    -0.395 OA
HETATM   42  H16 UNL     1       2.754   7.399  15.134  1.00  0.00     0.210 HD
ENDBRANCH   7  41
BRANCH  10  43
HETATM   43  C15 UNL     1       0.465   7.849  10.185  1.00  0.00     0.062 C 
HETATM   44  C16 UNL     1      -0.085   8.619   8.979  1.00  0.00     0.046 C 
HETATM   45  C17 UNL     1       0.025   8.517  11.492  1.00  0.00     0.041 C 
HETATM   46  C18 UNL     1      -0.123   7.358  12.448  1.00  0.00     0.038 C 
HETATM   47  C19 UNL     1      -0.614   6.236  11.539  1.00  0.00     0.156 C 
HETATM   48  O6  UNL     1      -0.208   6.569  10.196  1.00  0.00    -0.372 OA
BRANCH  47  49
HETATM   49  C20 UNL     1      -0.130   4.815  11.934  1.00  0.00     0.076 C 
HETATM   50  C21 UNL     1       0.335   4.779  13.397  1.00  0.00     0.048 C 
HETATM   51  C22 UNL     1      -1.241   3.779  11.709  1.00  0.00     0.048 C 
BRANCH  49  52
HETATM   52  O5  UNL     1       0.999   4.455  11.125  1.00  0.00    -0.388 OA
HETATM   53  H35 UNL     1       1.080   3.485  11.142  1.00  0.00     0.210 HD
ENDBRANCH  49  52
ENDBRANCH  47  49
ENDBRANCH  10  43
TORSDOF 12
ENDMDL
MODEL 9
REMARK minimizedAffinity -8.32557201
REMARK CNNscore 0.302613825
REMARK CNNaffinity 6.66987801
REMARK  12 active torsions:
REMARK  status: ('A' for Active; 'I' for Inactive)
REMARK    1  A    between atoms: C2_2  and  O2_4 
REMARK    2  A    between atoms: O2_4  and  C3_5 
REMARK    3  A    between atoms: C4_6  and  O3_7 
REMARK    4  A    between atoms: O3_7  and  C5_8 
REMARK    5  A    between atoms: C11_14  and  O4_15 
REMARK    6  A    between atoms: C14_18  and  C15_19 
REMARK    7  A    between atoms: C19_23  and  C20_24 
REMARK    8  A    between atoms: C20_24  and  O5_27 
REMARK    9  A    between atoms: C35_42  and  C36_43 
REMARK   10  A    between atoms: C36_43  and  O8_44 
REMARK   11  A    between atoms: C37_45  and  O9_46 
REMARK   12  A    between atoms: C38_47  and  O10_48 
ROOT
HETATM    1  C5  UNL     1       7.246   7.956  12.872  1.00  0.00     0.133 C 
HETATM    2  C6  UNL     1       6.737   7.033  13.975  1.00  0.00     0.034 C 
HETATM    3  C7  UNL     1       5.230   7.066  14.268  1.00  0.00     0.012 C 
HETATM    4  C8  UNL     1       4.359   8.018  13.399  1.00  0.00    -0.033 C 
HETATM    5  C9  UNL     1       4.599   9.456  13.894  1.00  0.00     0.016 C 
HETATM    6  C10 UNL     1       2.804   7.616  13.522  1.00  0.00     0.032 C 
HETATM    7  C11 UNL     1       2.185   7.696  14.959  1.00  0.00     0.124 C 
HETATM    8  C12 UNL     1       0.713   7.237  15.045  1.00  0.00     0.038 C 
HETATM    9  C13 UNL     1      -0.149   7.920  14.001  1.00  0.00     0.004 C 
HETATM   10  C14 UNL     1      -1.643   7.570  13.938  1.00  0.00     0.025 C 
HETATM   11  C23 UNL     1      -2.043   8.120  12.549  1.00  0.00     0.009 C 
HETATM   12  C24 UNL     1      -0.750   8.287  11.727  1.00  0.00     0.011 C 
HETATM   13  C25 UNL     1       0.383   7.658  12.571  1.00  0.00    -0.032 C 
HETATM   14  C26 UNL     1       0.384   6.136  12.213  1.00  0.00     0.016 C 
HETATM   15  C27 UNL     1       1.846   8.300  12.441  1.00  0.00    -0.030 C 
HETATM   16  C28 UNL     1       1.781   9.850  12.628  1.00  0.00     0.016 C 
HETATM   17  C29 UNL     1       2.431   8.052  11.026  1.00  0.00     0.011 C 
HETATM   18  C30 UNL     1       3.894   8.455  10.877  1.00  0.00     0.007 C 
HETATM   19  C31 UNL     1       4.810   7.770  11.912  1.00  0.00     0.004 C 
HETATM   20  C32 UNL     1       6.353   7.938  11.599  1.00  0.00    -0.017 C 
HETATM   21  C33 UNL     1       6.674   9.190  10.738  1.00  0.00     0.018 C 
HETATM   22  C34 UNL     1       6.781   6.705  10.747  1.00  0.00     0.018 C 
ENDROOT
BRANCH   1  23
HETATM   23  O3  UNL     1       7.380   9.300  13.360  1.00  0.00    -0.352 OA
BRANCH  23  24
HETATM   24  C4  UNL     1       8.727   9.795  13.387  1.00  0.00     0.293 C 
HETATM   25  C3  UNL     1       8.715  11.240  13.931  1.00  0.00     0.218 C 
HETATM   26  C38 UNL     1      10.076  11.578  14.530  1.00  0.00     0.183 C 
HETATM   27  C37 UNL     1      10.527  10.556  15.590  1.00  0.00     0.180 C 
HETATM   28  C35 UNL     1       9.902   9.163  15.425  1.00  0.00     0.179 C 
HETATM   29  O7  UNL     1       9.569   8.874  14.064  1.00  0.00    -0.348 OA
BRANCH  25  30
HETATM   30  O2  UNL     1       8.414  12.131  12.811  1.00  0.00    -0.309 OA
BRANCH  30  31
HETATM   31  C2  UNL     1       9.344  12.187  11.829  1.00  0.00     0.255 C 
HETATM   32  C1  UNL     1       9.883  13.575  11.682  1.00  0.00     0.126 C 
HETATM   33  O1  UNL     1       9.679  11.236  11.139  1.00  0.00    -0.266 OA
ENDBRANCH  30  31
ENDBRANCH  25  30
BRANCH  26  34
HETATM   34  O10 UNL     1      10.120  12.887  15.136  1.00  0.00    -0.390 OA
HETATM   35  H64 UNL     1       9.218  13.261  15.130  1.00  0.00     0.210 HD
ENDBRANCH  26  34
BRANCH  27  36
HETATM   36  O9  UNL     1      11.959  10.433  15.460  1.00  0.00    -0.390 OA
HETATM   37  H62 UNL     1      12.335  10.448  16.356  1.00  0.00     0.210 HD
ENDBRANCH  27  36
BRANCH  28  38
HETATM   38  C36 UNL     1       8.749   8.886  16.402  1.00  0.00     0.198 C 
BRANCH  38  39
HETATM   39  O8  UNL     1       8.889   7.637  17.071  1.00  0.00    -0.398 OA
HETATM   40  H60 UNL     1       8.405   7.702  17.913  1.00  0.00     0.209 HD
ENDBRANCH  38  39
ENDBRANCH  28  38
ENDBRANCH  23  24
ENDBRANCH   1  23
BRANCH   7  41
HETATM   41  O4  UNL     1       2.908   6.873  15.869  1.00  0.00    -0.395 OA
HETATM   42  H16 UNL     1       2.561   7.042  16.755  1.00  0.00     0.210 HD
ENDBRANCH   7  41
BRANCH  10  43
HETATM   43  C15 UNL     1      -2.550   8.077  15.098  1.00  0.00     0.062 C 
HETATM   44  C16 UNL     1      -2.186   9.482  15.592  1.00  0.00     0.046 C 
HETATM   45  C17 UNL     1      -2.640   7.102  16.277  1.00  0.00     0.041 C 
HETATM   46  C18 UNL     1      -3.717   6.132  15.853  1.00  0.00     0.038 C 
HETATM   47  C19 UNL     1      -4.666   7.017  15.051  1.00  0.00     0.156 C 
HETATM   48  O6  UNL     1      -3.905   8.155  14.598  1.00  0.00    -0.372 OA
BRANCH  47  49
HETATM   49  C20 UNL     1      -5.374   6.310  13.865  1.00  0.00     0.076 C 
HETATM   50  C21 UNL     1      -4.432   5.310  13.179  1.00  0.00     0.048 C 
HETATM   51  C22 UNL     1      -6.647   5.593  14.340  1.00  0.00     0.048 C 
BRANCH  49  52
HETATM   52  O5  UNL     1      -5.742   7.285  12.879  1.00  0.00    -0.388 OA
HETATM   53  H35 UNL     1      -6.447   6.901  12.328  1.00  0.00     0.210 HD
ENDBRANCH  49  52
ENDBRANCH  47  49
ENDBRANCH  10  43
TORSDOF 12
ENDMDL
