MODEL 1
REMARK minimizedAffinity -7.53293705
REMARK CNNscore 0.832752645
REMARK CNNaffinity 6.23974037
REMARK  8 active torsions:
REMARK  status: ('A' for Active; 'I' for Inactive)
REMARK    1  A    between atoms: C4_4  and  C5_5 
REMARK    2  A    between atoms: C5_5  and  C6_6 
REMARK    3  A    between atoms: C6_6  and  C7_7 
REMARK    4  A    between atoms: C7_7  and  C9_9 
REMARK    5  A    between atoms: C22_22  and  O1_23 
REMARK    6  A    between atoms: C24_25  and  O2_26 
REMARK    7  A    between atoms: C25_27  and  C27_29 
REMARK    8  A    between atoms: C27_29  and  O4_31 
ROOT
HETATM    1  C9  UNL     1     -11.569  44.573 -28.149  1.00  0.00    -0.002 C 
HETATM    2  C10 UNL     1     -11.059  45.914 -27.569  1.00  0.00     0.007 C 
HETATM    3  C11 UNL     1     -12.139  46.405 -26.577  1.00  0.00     0.015 C 
HETATM    4  C12 UNL     1     -13.077  45.195 -26.354  1.00  0.00    -0.005 C 
HETATM    5  C13 UNL     1     -12.412  44.310 -25.254  1.00  0.00     0.021 C 
HETATM    6  C14 UNL     1     -14.512  45.380 -25.876  1.00  0.00    -0.000 C 
HETATM    7  C15 UNL     1     -15.484  44.484 -26.201  1.00  0.00    -0.058 C 
HETATM    8  C16 UNL     1     -15.164  43.296 -27.128  1.00  0.00     0.036 C 
HETATM    9  C17 UNL     1     -13.750  43.212 -27.742  1.00  0.00     0.015 C 
HETATM   10  C18 UNL     1     -13.086  44.588 -27.807  1.00  0.00    -0.028 C 
HETATM   11  C19 UNL     1     -13.875  45.455 -28.833  1.00  0.00     0.016 C 
HETATM   12  C20 UNL     1     -16.970  44.612 -25.721  1.00  0.00     0.011 C 
HETATM   13  C21 UNL     1     -17.744  45.265 -26.892  1.00  0.00     0.023 C 
HETATM   14  C22 UNL     1     -17.610  43.216 -25.376  1.00  0.00     0.133 C 
HETATM   15  C23 UNL     1     -18.957  43.316 -24.663  1.00  0.00     0.065 C 
HETATM   16  C24 UNL     1     -18.882  44.171 -23.410  1.00  0.00     0.139 C 
HETATM   17  C25 UNL     1     -18.374  45.612 -23.678  1.00  0.00     0.072 C 
HETATM   18  C26 UNL     1     -18.229  46.321 -22.310  1.00  0.00     0.030 C 
HETATM   19  C28 UNL     1     -16.986  45.486 -24.406  1.00  0.00     0.029 C 
HETATM   20  C29 UNL     1     -16.252  46.813 -24.625  1.00  0.00     0.090 C 
HETATM   21  C30 UNL     1     -14.816  46.552 -24.997  1.00  0.00     0.157 C 
HETATM   22  O5  UNL     1     -13.928  47.300 -24.596  1.00  0.00    -0.293 OA
ENDROOT
BRANCH   1  23
HETATM   23  C7  UNL     1     -11.123  44.226 -29.601  1.00  0.00    -0.014 C 
HETATM   24  C8  UNL     1     -10.519  42.808 -29.585  1.00  0.00     0.010 C 
BRANCH  23  25
HETATM   25  C6  UNL     1     -10.120  45.212 -30.248  1.00  0.00     0.008 C 
BRANCH  25  26
HETATM   26  C5  UNL     1     -10.776  46.361 -31.033  1.00  0.00     0.028 C 
BRANCH  26  27
HETATM   27  C4  UNL     1     -10.216  47.721 -30.722  1.00  0.00    -0.025 C 
HETATM   28  C2  UNL     1      -9.148  48.330 -31.275  1.00  0.00    -0.091 C 
HETATM   29  C1  UNL     1      -8.749  49.715 -30.835  1.00  0.00     0.042 C 
HETATM   30  C3  UNL     1      -8.254  47.738 -32.329  1.00  0.00     0.042 C 
ENDBRANCH  26  27
ENDBRANCH  25  26
ENDBRANCH  23  25
ENDBRANCH   1  23
BRANCH  14  31
HETATM   31  O1  UNL     1     -17.839  42.441 -26.556  1.00  0.00    -0.394 OA
HETATM   32  H35 UNL     1     -18.136  41.556 -26.278  1.00  0.00     0.210 HD
ENDBRANCH  14  31
BRANCH  17  33
HETATM   33  C27 UNL     1     -19.359  46.480 -24.461  1.00  0.00     0.151 C 
HETATM   34  O3  UNL     1     -19.203  47.651 -24.763  1.00  0.00    -0.649 OA
BRANCH  33  35
HETATM   35  O4  UNL     1     -20.518  45.873 -24.786  1.00  0.00    -0.776 OA
HETATM   36  H43 UNL     1     -21.026  46.585 -25.238  1.00  0.00     0.167 HD
ENDBRANCH  33  35
ENDBRANCH  17  33
BRANCH  16  37
HETATM   37  O2  UNL     1     -20.140  44.134 -22.737  1.00  0.00    -0.394 OA
HETATM   38  H39 UNL     1     -20.779  44.612 -23.304  1.00  0.00     0.210 HD
ENDBRANCH  16  37
TORSDOF 8
ENDMDL
MODEL 2
REMARK minimizedAffinity -7.62357283
REMARK CNNscore 0.714007258
REMARK CNNaffinity 7.05547905
REMARK  8 active torsions:
REMARK  status: ('A' for Active; 'I' for Inactive)
REMARK    1  A    between atoms: C4_4  and  C5_5 
REMARK    2  A    between atoms: C5_5  and  C6_6 
REMARK    3  A    between atoms: C6_6  and  C7_7 
REMARK    4  A    between atoms: C7_7  and  C9_9 
REMARK    5  A    between atoms: C22_22  and  O1_23 
REMARK    6  A    between atoms: C24_25  and  O2_26 
REMARK    7  A    between atoms: C25_27  and  C27_29 
REMARK    8  A    between atoms: C27_29  and  O4_31 
ROOT
HETATM    1  C9  UNL     1       4.265  55.036  -8.537  1.00  0.00    -0.002 C 
HETATM    2  C10 UNL     1       3.515  56.346  -8.199  1.00  0.00     0.007 C 
HETATM    3  C11 UNL     1       2.030  56.110  -8.561  1.00  0.00     0.015 C 
HETATM    4  C12 UNL     1       1.895  54.585  -8.778  1.00  0.00    -0.005 C 
HETATM    5  C13 UNL     1       1.694  53.946  -7.369  1.00  0.00     0.021 C 
HETATM    6  C14 UNL     1       0.769  54.000  -9.623  1.00  0.00    -0.000 C 
HETATM    7  C15 UNL     1       0.924  52.820 -10.284  1.00  0.00    -0.058 C 
HETATM    8  C16 UNL     1       2.278  52.086 -10.252  1.00  0.00     0.036 C 
HETATM    9  C17 UNL     1       3.460  52.770  -9.533  1.00  0.00     0.015 C 
HETATM   10  C18 UNL     1       3.276  54.287  -9.474  1.00  0.00    -0.028 C 
HETATM   11  C19 UNL     1       3.367  54.840 -10.928  1.00  0.00     0.016 C 
HETATM   12  C20 UNL     1      -0.204  52.162 -11.150  1.00  0.00     0.011 C 
HETATM   13  C21 UNL     1       0.093  52.559 -12.617  1.00  0.00     0.023 C 
HETATM   14  C22 UNL     1      -0.221  50.593 -11.019  1.00  0.00     0.133 C 
HETATM   15  C23 UNL     1      -1.456  49.938 -11.632  1.00  0.00     0.065 C 
HETATM   16  C24 UNL     1      -2.748  50.514 -11.079  1.00  0.00     0.139 C 
HETATM   17  C25 UNL     1      -2.872  52.047 -11.276  1.00  0.00     0.072 C 
HETATM   18  C26 UNL     1      -4.163  52.511 -10.560  1.00  0.00     0.030 C 
HETATM   19  C28 UNL     1      -1.595  52.702 -10.633  1.00  0.00     0.029 C 
HETATM   20  C29 UNL     1      -1.606  54.234 -10.599  1.00  0.00     0.090 C 
HETATM   21  C30 UNL     1      -0.533  54.736  -9.669  1.00  0.00     0.157 C 
HETATM   22  O5  UNL     1      -0.728  55.736  -8.982  1.00  0.00    -0.293 OA
ENDROOT
BRANCH   1  23
HETATM   23  C7  UNL     1       5.757  55.176  -8.966  1.00  0.00    -0.014 C 
HETATM   24  C8  UNL     1       6.279  53.772  -9.329  1.00  0.00     0.010 C 
BRANCH  23  25
HETATM   25  C6  UNL     1       6.696  55.827  -7.921  1.00  0.00     0.008 C 
BRANCH  25  26
HETATM   26  C5  UNL     1       6.068  56.009  -6.529  1.00  0.00     0.028 C 
BRANCH  26  27
HETATM   27  C4  UNL     1       6.257  57.379  -5.939  1.00  0.00    -0.025 C 
HETATM   28  C2  UNL     1       7.348  57.880  -5.327  1.00  0.00    -0.091 C 
HETATM   29  C1  UNL     1       7.348  59.296  -4.810  1.00  0.00     0.042 C 
HETATM   30  C3  UNL     1       8.628  57.133  -5.074  1.00  0.00     0.042 C 
ENDBRANCH  26  27
ENDBRANCH  25  26
ENDBRANCH  23  25
ENDBRANCH   1  23
BRANCH  14  31
HETATM   31  O1  UNL     1       0.909  50.003 -11.667  1.00  0.00    -0.394 OA
HETATM   32  H35 UNL     1       0.903  49.050 -11.467  1.00  0.00     0.210 HD
ENDBRANCH  14  31
BRANCH  17  33
HETATM   33  C27 UNL     1      -3.064  52.470 -12.732  1.00  0.00     0.151 C 
HETATM   34  O3  UNL     1      -2.601  51.910 -13.711  1.00  0.00    -0.649 OA
BRANCH  33  35
HETATM   35  O4  UNL     1      -3.775  53.602 -12.907  1.00  0.00    -0.776 OA
HETATM   36  H43 UNL     1      -3.756  53.732 -13.882  1.00  0.00     0.167 HD
ENDBRANCH  33  35
ENDBRANCH  17  33
BRANCH  16  37
HETATM   37  O2  UNL     1      -3.855  49.787 -11.610  1.00  0.00    -0.394 OA
HETATM   38  H39 UNL     1      -3.900  49.997 -12.565  1.00  0.00     0.210 HD
ENDBRANCH  16  37
TORSDOF 8
ENDMDL
MODEL 3
REMARK minimizedAffinity -9.14567757
REMARK CNNscore 0.643481016
REMARK CNNaffinity 6.94275808
REMARK  8 active torsions:
REMARK  status: ('A' for Active; 'I' for Inactive)
REMARK    1  A    between atoms: C4_4  and  C5_5 
REMARK    2  A    between atoms: C5_5  and  C6_6 
REMARK    3  A    between atoms: C6_6  and  C7_7 
REMARK    4  A    between atoms: C7_7  and  C9_9 
REMARK    5  A    between atoms: C22_22  and  O1_23 
REMARK    6  A    between atoms: C24_25  and  O2_26 
REMARK    7  A    between atoms: C25_27  and  C27_29 
REMARK    8  A    between atoms: C27_29  and  O4_31 
ROOT
HETATM    1  C9  UNL     1      -0.579  50.169 -21.351  1.00  0.00    -0.002 C 
HETATM    2  C10 UNL     1      -0.707  49.695 -19.883  1.00  0.00     0.007 C 
HETATM    3  C11 UNL     1      -2.004  48.856 -19.802  1.00  0.00     0.015 C 
HETATM    4  C12 UNL     1      -2.413  48.585 -21.268  1.00  0.00    -0.005 C 
HETATM    5  C13 UNL     1      -1.593  47.344 -21.741  1.00  0.00     0.021 C 
HETATM    6  C14 UNL     1      -3.853  48.253 -21.642  1.00  0.00    -0.000 C 
HETATM    7  C15 UNL     1      -4.351  48.561 -22.871  1.00  0.00    -0.058 C 
HETATM    8  C16 UNL     1      -3.484  49.325 -23.889  1.00  0.00     0.036 C 
HETATM    9  C17 UNL     1      -2.087  49.805 -23.440  1.00  0.00     0.015 C 
HETATM   10  C18 UNL     1      -2.010  49.960 -21.921  1.00  0.00    -0.028 C 
HETATM   11  C19 UNL     1      -2.946  51.136 -21.510  1.00  0.00     0.016 C 
HETATM   12  C20 UNL     1      -5.815  48.225 -23.316  1.00  0.00     0.011 C 
HETATM   13  C21 UNL     1      -6.636  49.521 -23.105  1.00  0.00     0.023 C 
HETATM   14  C22 UNL     1      -5.896  47.788 -24.827  1.00  0.00     0.133 C 
HETATM   15  C23 UNL     1      -7.250  47.206 -25.227  1.00  0.00     0.065 C 
HETATM   16  C24 UNL     1      -7.666  46.050 -24.335  1.00  0.00     0.139 C 
HETATM   17  C25 UNL     1      -7.733  46.427 -22.831  1.00  0.00     0.072 C 
HETATM   18  C26 UNL     1      -8.042  45.135 -22.036  1.00  0.00     0.030 C 
HETATM   19  C28 UNL     1      -6.329  47.017 -22.439  1.00  0.00     0.029 C 
HETATM   20  C29 UNL     1      -6.151  47.314 -20.946  1.00  0.00     0.090 C 
HETATM   21  C30 UNL     1      -4.694  47.533 -20.635  1.00  0.00     0.157 C 
HETATM   22  O5  UNL     1      -4.224  47.141 -19.570  1.00  0.00    -0.293 OA
ENDROOT
BRANCH   1  23
HETATM   23  C7  UNL     1       0.138  51.533 -21.584  1.00  0.00    -0.014 C 
HETATM   24  C8  UNL     1      -0.002  52.368 -20.296  1.00  0.00     0.010 C 
BRANCH  23  25
HETATM   25  C6  UNL     1      -0.365  52.357 -22.795  1.00  0.00     0.008 C 
BRANCH  25  26
HETATM   26  C5  UNL     1       0.676  52.543 -23.913  1.00  0.00     0.028 C 
BRANCH  26  27
HETATM   27  C4  UNL     1       0.174  52.199 -25.287  1.00  0.00    -0.025 C 
HETATM   28  C2  UNL     1       0.864  51.679 -26.322  1.00  0.00    -0.091 C 
HETATM   29  C1  UNL     1       0.173  51.389 -27.629  1.00  0.00     0.042 C 
HETATM   30  C3  UNL     1       2.333  51.355 -26.317  1.00  0.00     0.042 C 
ENDBRANCH  26  27
ENDBRANCH  25  26
ENDBRANCH  23  25
ENDBRANCH   1  23
BRANCH  14  31
HETATM   31  O1  UNL     1      -5.660  48.893 -25.703  1.00  0.00    -0.394 OA
HETATM   32  H35 UNL     1      -5.619  48.548 -26.613  1.00  0.00     0.210 HD
ENDBRANCH  14  31
BRANCH  17  33
HETATM   33  C27 UNL     1      -8.876  47.379 -22.482  1.00  0.00     0.151 C 
HETATM   34  O3  UNL     1      -9.137  47.813 -21.373  1.00  0.00    -0.649 OA
BRANCH  33  35
HETATM   35  O4  UNL     1      -9.680  47.706 -23.514  1.00  0.00    -0.776 OA
HETATM   36  H43 UNL     1     -10.363  48.277 -23.096  1.00  0.00     0.167 HD
ENDBRANCH  33  35
ENDBRANCH  17  33
BRANCH  16  37
HETATM   37  O2  UNL     1      -8.880  45.486 -24.828  1.00  0.00    -0.394 OA
HETATM   38  H39 UNL     1      -9.582  46.153 -24.683  1.00  0.00     0.210 HD
ENDBRANCH  16  37
TORSDOF 8
ENDMDL
MODEL 4
REMARK minimizedAffinity -7.05249071
REMARK CNNscore 0.593034863
REMARK CNNaffinity 5.72251844
REMARK  8 active torsions:
REMARK  status: ('A' for Active; 'I' for Inactive)
REMARK    1  A    between atoms: C4_4  and  C5_5 
REMARK    2  A    between atoms: C5_5  and  C6_6 
REMARK    3  A    between atoms: C6_6  and  C7_7 
REMARK    4  A    between atoms: C7_7  and  C9_9 
REMARK    5  A    between atoms: C22_22  and  O1_23 
REMARK    6  A    between atoms: C24_25  and  O2_26 
REMARK    7  A    between atoms: C25_27  and  C27_29 
REMARK    8  A    between atoms: C27_29  and  O4_31 
ROOT
HETATM    1  C9  UNL     1     -10.349  45.191 -25.317  1.00  0.00    -0.002 C 
HETATM    2  C10 UNL     1     -10.186  46.462 -24.449  1.00  0.00     0.007 C 
HETATM    3  C11 UNL     1     -11.592  46.808 -23.905  1.00  0.00     0.015 C 
HETATM    4  C12 UNL     1     -12.463  45.561 -24.188  1.00  0.00    -0.005 C 
HETATM    5  C13 UNL     1     -12.211  44.563 -23.015  1.00  0.00     0.021 C 
HETATM    6  C14 UNL     1     -13.981  45.658 -24.284  1.00  0.00    -0.000 C 
HETATM    7  C15 UNL     1     -14.695  44.789 -25.050  1.00  0.00    -0.058 C 
HETATM    8  C16 UNL     1     -13.970  43.729 -25.901  1.00  0.00     0.036 C 
HETATM    9  C17 UNL     1     -12.427  43.748 -25.927  1.00  0.00     0.015 C 
HETATM   10  C18 UNL     1     -11.879  45.135 -25.587  1.00  0.00    -0.028 C 
HETATM   11  C19 UNL     1     -12.273  46.104 -26.741  1.00  0.00     0.016 C 
HETATM   12  C20 UNL     1     -16.257  44.829 -25.170  1.00  0.00     0.011 C 
HETATM   13  C21 UNL     1     -16.568  45.603 -26.475  1.00  0.00     0.023 C 
HETATM   14  C22 UNL     1     -16.889  43.389 -25.247  1.00  0.00     0.133 C 
HETATM   15  C23 UNL     1     -18.409  43.375 -25.102  1.00  0.00     0.065 C 
HETATM   16  C24 UNL     1     -18.872  44.073 -23.835  1.00  0.00     0.139 C 
HETATM   17  C25 UNL     1     -18.396  45.545 -23.734  1.00  0.00     0.072 C 
HETATM   18  C26 UNL     1     -18.829  46.087 -22.351  1.00  0.00     0.030 C 
HETATM   19  C28 UNL     1     -16.829  45.536 -23.880  1.00  0.00     0.029 C 
HETATM   20  C29 UNL     1     -16.155  46.895 -23.659  1.00  0.00     0.090 C 
HETATM   21  C30 UNL     1     -14.672  46.709 -23.474  1.00  0.00     0.157 C 
HETATM   22  O5  UNL     1     -14.054  47.421 -22.686  1.00  0.00    -0.293 OA
ENDROOT
BRANCH   1  23
HETATM   23  C7  UNL     1      -9.362  45.032 -26.513  1.00  0.00    -0.014 C 
HETATM   24  C8  UNL     1      -9.127  43.524 -26.734  1.00  0.00     0.010 C 
BRANCH  23  25
HETATM   25  C6  UNL     1      -8.001  45.754 -26.359  1.00  0.00     0.008 C 
BRANCH  25  26
HETATM   26  C5  UNL     1      -7.891  47.074 -27.143  1.00  0.00     0.028 C 
BRANCH  26  27
HETATM   27  C4  UNL     1      -6.517  47.682 -27.139  1.00  0.00    -0.025 C 
HETATM   28  C2  UNL     1      -5.653  47.800 -28.167  1.00  0.00    -0.091 C 
HETATM   29  C1  UNL     1      -4.314  48.461 -27.964  1.00  0.00     0.042 C 
HETATM   30  C3  UNL     1      -5.887  47.302 -29.566  1.00  0.00     0.042 C 
ENDBRANCH  26  27
ENDBRANCH  25  26
ENDBRANCH  23  25
ENDBRANCH   1  23
BRANCH  14  31
HETATM   31  O1  UNL     1     -16.600  42.758 -26.497  1.00  0.00    -0.394 OA
HETATM   32  H35 UNL     1     -16.922  41.840 -26.449  1.00  0.00     0.210 HD
ENDBRANCH  14  31
BRANCH  17  33
HETATM   33  C27 UNL     1     -19.062  46.482 -24.742  1.00  0.00     0.151 C 
HETATM   34  O3  UNL     1     -18.905  47.689 -24.815  1.00  0.00    -0.649 OA
BRANCH  33  35
HETATM   35  O4  UNL     1     -19.938  45.889 -25.577  1.00  0.00    -0.776 OA
HETATM   36  H43 UNL     1     -20.286  46.639 -26.110  1.00  0.00     0.167 HD
ENDBRANCH  33  35
ENDBRANCH  17  33
BRANCH  16  37
HETATM   37  O2  UNL     1     -20.286  43.929 -23.707  1.00  0.00    -0.394 OA
HETATM   38  H39 UNL     1     -20.691  44.460 -24.424  1.00  0.00     0.210 HD
ENDBRANCH  16  37
TORSDOF 8
ENDMDL
MODEL 5
REMARK minimizedAffinity -7.55303144
REMARK CNNscore 0.514072895
REMARK CNNaffinity 6.59787607
REMARK  8 active torsions:
REMARK  status: ('A' for Active; 'I' for Inactive)
REMARK    1  A    between atoms: C4_4  and  C5_5 
REMARK    2  A    between atoms: C5_5  and  C6_6 
REMARK    3  A    between atoms: C6_6  and  C7_7 
REMARK    4  A    between atoms: C7_7  and  C9_9 
REMARK    5  A    between atoms: C22_22  and  O1_23 
REMARK    6  A    between atoms: C24_25  and  O2_26 
REMARK    7  A    between atoms: C25_27  and  C27_29 
REMARK    8  A    between atoms: C27_29  and  O4_31 
ROOT
HETATM    1  C9  UNL     1       5.999  55.736  -8.317  1.00  0.00    -0.002 C 
HETATM    2  C10 UNL     1       6.679  54.506  -8.965  1.00  0.00     0.007 C 
HETATM    3  C11 UNL     1       5.557  53.691  -9.651  1.00  0.00     0.015 C 
HETATM    4  C12 UNL     1       4.324  54.625  -9.675  1.00  0.00    -0.005 C 
HETATM    5  C13 UNL     1       4.480  55.542 -10.928  1.00  0.00     0.021 C 
HETATM    6  C14 UNL     1       2.910  54.070  -9.785  1.00  0.00    -0.000 C 
HETATM    7  C15 UNL     1       1.847  54.739  -9.260  1.00  0.00    -0.058 C 
HETATM    8  C16 UNL     1       2.065  56.045  -8.472  1.00  0.00     0.036 C 
HETATM    9  C17 UNL     1       3.516  56.509  -8.222  1.00  0.00     0.015 C 
HETATM   10  C18 UNL     1       4.496  55.337  -8.280  1.00  0.00    -0.028 C 
HETATM   11  C19 UNL     1       4.202  54.402  -7.070  1.00  0.00     0.016 C 
HETATM   12  C20 UNL     1       0.370  54.226  -9.361  1.00  0.00     0.011 C 
HETATM   13  C21 UNL     1       0.069  53.515  -8.019  1.00  0.00     0.023 C 
HETATM   14  C22 UNL     1      -0.658  55.399  -9.580  1.00  0.00     0.133 C 
HETATM   15  C23 UNL     1      -2.064  54.926  -9.943  1.00  0.00     0.065 C 
HETATM   16  C24 UNL     1      -2.068  54.007 -11.152  1.00  0.00     0.139 C 
HETATM   17  C25 UNL     1      -1.172  52.753 -10.974  1.00  0.00     0.072 C 
HETATM   18  C26 UNL     1      -1.172  51.981 -12.315  1.00  0.00     0.030 C 
HETATM   19  C28 UNL     1       0.271  53.262 -10.608  1.00  0.00     0.029 C 
HETATM   20  C29 UNL     1       1.340  52.167 -10.535  1.00  0.00     0.090 C 
HETATM   21  C30 UNL     1       2.712  52.788 -10.530  1.00  0.00     0.157 C 
HETATM   22  O5  UNL     1       3.642  52.235 -11.112  1.00  0.00    -0.293 OA
ENDROOT
BRANCH   1  23
HETATM   23  C7  UNL     1       6.664  56.302  -7.026  1.00  0.00    -0.014 C 
HETATM   24  C8  UNL     1       7.039  55.109  -6.124  1.00  0.00     0.010 C 
BRANCH  23  25
HETATM   25  C6  UNL     1       5.812  57.315  -6.222  1.00  0.00     0.008 C 
BRANCH  25  26
HETATM   26  C5  UNL     1       6.496  57.853  -4.953  1.00  0.00     0.028 C 
BRANCH  26  27
HETATM   27  C4  UNL     1       7.818  58.524  -5.200  1.00  0.00    -0.025 C 
HETATM   28  C2  UNL     1       8.216  59.751  -4.814  1.00  0.00    -0.091 C 
HETATM   29  C1  UNL     1       9.600  60.244  -5.149  1.00  0.00     0.042 C 
HETATM   30  C3  UNL     1       7.377  60.744  -4.057  1.00  0.00     0.042 C 
ENDBRANCH  26  27
ENDBRANCH  25  26
ENDBRANCH  23  25
ENDBRANCH   1  23
BRANCH  14  31
HETATM   31  O1  UNL     1      -0.796  56.199  -8.403  1.00  0.00    -0.394 OA
HETATM   32  H35 UNL     1      -1.358  56.963  -8.626  1.00  0.00     0.210 HD
ENDBRANCH  14  31
BRANCH  17  33
HETATM   33  C27 UNL     1      -1.706  51.751  -9.951  1.00  0.00     0.151 C 
HETATM   34  O3  UNL     1      -1.290  50.619  -9.768  1.00  0.00    -0.649 OA
BRANCH  33  35
HETATM   35  O4  UNL     1      -2.769  52.176  -9.239  1.00  0.00    -0.776 OA
HETATM   36  H43 UNL     1      -2.990  51.398  -8.678  1.00  0.00     0.167 HD
ENDBRANCH  33  35
ENDBRANCH  17  33
BRANCH  16  37
HETATM   37  O2  UNL     1      -3.415  53.691 -11.501  1.00  0.00    -0.394 OA
HETATM   38  H39 UNL     1      -3.769  53.128 -10.782  1.00  0.00     0.210 HD
ENDBRANCH  16  37
TORSDOF 8
ENDMDL
MODEL 6
REMARK minimizedAffinity -7.30467653
REMARK CNNscore 0.469100147
REMARK CNNaffinity 6.46064425
REMARK  8 active torsions:
REMARK  status: ('A' for Active; 'I' for Inactive)
REMARK    1  A    between atoms: C4_4  and  C5_5 
REMARK    2  A    between atoms: C5_5  and  C6_6 
REMARK    3  A    between atoms: C6_6  and  C7_7 
REMARK    4  A    between atoms: C7_7  and  C9_9 
REMARK    5  A    between atoms: C22_22  and  O1_23 
REMARK    6  A    between atoms: C24_25  and  O2_26 
REMARK    7  A    between atoms: C25_27  and  C27_29 
REMARK    8  A    between atoms: C27_29  and  O4_31 
ROOT
HETATM    1  C9  UNL     1      -1.239  53.243 -11.469  1.00  0.00    -0.002 C 
HETATM    2  C10 UNL     1      -0.245  52.471 -12.370  1.00  0.00     0.007 C 
HETATM    3  C11 UNL     1      -0.930  51.134 -12.738  1.00  0.00     0.015 C 
HETATM    4  C12 UNL     1      -2.412  51.302 -12.329  1.00  0.00    -0.005 C 
HETATM    5  C13 UNL     1      -3.122  52.037 -13.509  1.00  0.00     0.021 C 
HETATM    6  C14 UNL     1      -3.299  50.096 -12.045  1.00  0.00    -0.000 C 
HETATM    7  C15 UNL     1      -4.349  50.181 -11.182  1.00  0.00    -0.058 C 
HETATM    8  C16 UNL     1      -4.617  51.489 -10.414  1.00  0.00     0.036 C 
HETATM    9  C17 UNL     1      -3.613  52.650 -10.582  1.00  0.00     0.015 C 
HETATM   10  C18 UNL     1      -2.236  52.141 -11.008  1.00  0.00    -0.028 C 
HETATM   11  C19 UNL     1      -1.641  51.317  -9.828  1.00  0.00     0.016 C 
HETATM   12  C20 UNL     1      -5.306  48.981 -10.868  1.00  0.00     0.011 C 
HETATM   13  C21 UNL     1      -4.793  48.358  -9.546  1.00  0.00     0.023 C 
HETATM   14  C22 UNL     1      -6.802  49.438 -10.691  1.00  0.00     0.133 C 
HETATM   15  C23 UNL     1      -7.798  48.281 -10.644  1.00  0.00     0.065 C 
HETATM   16  C24 UNL     1      -7.678  47.370 -11.853  1.00  0.00     0.139 C 
HETATM   17  C25 UNL     1      -6.258  46.772 -12.035  1.00  0.00     0.072 C 
HETATM   18  C26 UNL     1      -6.249  45.975 -13.361  1.00  0.00     0.030 C 
HETATM   19  C28 UNL     1      -5.251  47.979 -12.087  1.00  0.00     0.029 C 
HETATM   20  C29 UNL     1      -3.803  47.594 -12.410  1.00  0.00     0.090 C 
HETATM   21  C30 UNL     1      -3.014  48.823 -12.777  1.00  0.00     0.157 C 
HETATM   22  O5  UNL     1      -2.148  48.765 -13.647  1.00  0.00    -0.293 OA
ENDROOT
BRANCH   1  23
HETATM   23  C7  UNL     1      -0.620  54.198 -10.404  1.00  0.00    -0.014 C 
HETATM   24  C8  UNL     1      -1.527  55.440 -10.297  1.00  0.00     0.010 C 
BRANCH  23  25
HETATM   25  C6  UNL     1       0.840  54.640 -10.670  1.00  0.00     0.008 C 
BRANCH  25  26
HETATM   26  C5  UNL     1       1.556  55.236  -9.445  1.00  0.00     0.028 C 
BRANCH  26  27
HETATM   27  C4  UNL     1       3.038  54.987  -9.414  1.00  0.00    -0.025 C 
HETATM   28  C2  UNL     1       3.996  55.561 -10.167  1.00  0.00    -0.091 C 
HETATM   29  C1  UNL     1       5.443  55.186  -9.975  1.00  0.00     0.042 C 
HETATM   30  C3  UNL     1       3.763  56.580 -11.249  1.00  0.00     0.042 C 
ENDBRANCH  26  27
ENDBRANCH  25  26
ENDBRANCH  23  25
ENDBRANCH   1  23
BRANCH  14  31
HETATM   31  O1  UNL     1      -6.984  50.173  -9.477  1.00  0.00    -0.394 OA
HETATM   32  H35 UNL     1      -7.895  50.517  -9.471  1.00  0.00     0.210 HD
ENDBRANCH  14  31
BRANCH  17  33
HETATM   33  C27 UNL     1      -5.876  45.749 -10.965  1.00  0.00     0.151 C 
HETATM   34  O3  UNL     1      -6.412  45.609  -9.879  1.00  0.00    -0.649 OA
BRANCH  33  35
HETATM   35  O4  UNL     1      -4.808  44.983 -11.266  1.00  0.00    -0.776 OA
HETATM   36  H43 UNL     1      -4.693  44.430 -10.460  1.00  0.00     0.167 HD
ENDBRANCH  33  35
ENDBRANCH  17  33
BRANCH  16  37
HETATM   37  O2  UNL     1      -8.703  46.378 -11.800  1.00  0.00    -0.394 OA
HETATM   38  H39 UNL     1      -8.491  45.791 -11.046  1.00  0.00     0.210 HD
ENDBRANCH  16  37
TORSDOF 8
ENDMDL
MODEL 7
REMARK minimizedAffinity -7.28891468
REMARK CNNscore 0.460572749
REMARK CNNaffinity 6.60637617
REMARK  8 active torsions:
REMARK  status: ('A' for Active; 'I' for Inactive)
REMARK    1  A    between atoms: C4_4  and  C5_5 
REMARK    2  A    between atoms: C5_5  and  C6_6 
REMARK    3  A    between atoms: C6_6  and  C7_7 
REMARK    4  A    between atoms: C7_7  and  C9_9 
REMARK    5  A    between atoms: C22_22  and  O1_23 
REMARK    6  A    between atoms: C24_25  and  O2_26 
REMARK    7  A    between atoms: C25_27  and  C27_29 
REMARK    8  A    between atoms: C27_29  and  O4_31 
ROOT
HETATM    1  C9  UNL     1      -2.032  52.952  -9.628  1.00  0.00    -0.002 C 
HETATM    2  C10 UNL     1      -2.848  54.076 -10.310  1.00  0.00     0.007 C 
HETATM    3  C11 UNL     1      -3.216  53.560 -11.721  1.00  0.00     0.015 C 
HETATM    4  C12 UNL     1      -2.904  52.046 -11.702  1.00  0.00    -0.005 C 
HETATM    5  C13 UNL     1      -4.146  51.339 -11.075  1.00  0.00     0.021 C 
HETATM    6  C14 UNL     1      -2.637  51.274 -12.988  1.00  0.00    -0.000 C 
HETATM    7  C15 UNL     1      -1.843  50.168 -12.995  1.00  0.00    -0.058 C 
HETATM    8  C16 UNL     1      -1.131  49.717 -11.706  1.00  0.00     0.036 C 
HETATM    9  C17 UNL     1      -1.273  50.602 -10.449  1.00  0.00     0.015 C 
HETATM   10  C18 UNL     1      -1.600  52.049 -10.818  1.00  0.00    -0.028 C 
HETATM   11  C19 UNL     1      -0.362  52.652 -11.547  1.00  0.00     0.016 C 
HETATM   12  C20 UNL     1      -1.551  49.325 -14.283  1.00  0.00     0.011 C 
HETATM   13  C21 UNL     1      -0.183  49.816 -14.817  1.00  0.00     0.023 C 
HETATM   14  C22 UNL     1      -1.479  47.781 -13.984  1.00  0.00     0.133 C 
HETATM   15  C23 UNL     1      -1.457  46.911 -15.239  1.00  0.00     0.065 C 
HETATM   16  C24 UNL     1      -2.629  47.202 -16.161  1.00  0.00     0.139 C 
HETATM   17  C25 UNL     1      -2.706  48.686 -16.608  1.00  0.00     0.072 C 
HETATM   18  C26 UNL     1      -4.005  48.862 -17.431  1.00  0.00     0.030 C 
HETATM   19  C28 UNL     1      -2.734  49.562 -15.302  1.00  0.00     0.029 C 
HETATM   20  C29 UNL     1      -2.957  51.060 -15.538  1.00  0.00     0.090 C 
HETATM   21  C30 UNL     1      -3.313  51.737 -14.240  1.00  0.00     0.157 C 
HETATM   22  O5  UNL     1      -4.127  52.658 -14.227  1.00  0.00    -0.293 OA
ENDROOT
BRANCH   1  23
HETATM   23  C7  UNL     1      -0.961  53.399  -8.587  1.00  0.00    -0.014 C 
HETATM   24  C8  UNL     1      -1.499  53.066  -7.182  1.00  0.00     0.010 C 
BRANCH  23  25
HETATM   25  C6  UNL     1      -0.550  54.891  -8.648  1.00  0.00     0.008 C 
BRANCH  25  26
HETATM   26  C5  UNL     1       0.683  55.175  -9.522  1.00  0.00     0.028 C 
BRANCH  26  27
HETATM   27  C4  UNL     1       1.848  55.761  -8.776  1.00  0.00    -0.025 C 
HETATM   28  C2  UNL     1       2.998  56.253  -9.277  1.00  0.00    -0.091 C 
HETATM   29  C1  UNL     1       4.050  56.817  -8.357  1.00  0.00     0.042 C 
HETATM   30  C3  UNL     1       3.372  56.288 -10.733  1.00  0.00     0.042 C 
ENDBRANCH  26  27
ENDBRANCH  25  26
ENDBRANCH  23  25
ENDBRANCH   1  23
BRANCH  14  31
HETATM   31  O1  UNL     1      -0.301  47.446 -13.245  1.00  0.00    -0.394 OA
HETATM   32  H35 UNL     1      -0.360  46.506 -13.000  1.00  0.00     0.210 HD
ENDBRANCH  14  31
BRANCH  17  33
HETATM   33  C27 UNL     1      -1.585  49.105 -17.559  1.00  0.00     0.151 C 
HETATM   34  O3  UNL     1      -1.134  50.230 -17.687  1.00  0.00    -0.649 OA
BRANCH  33  35
HETATM   35  O4  UNL     1      -1.114  48.121 -18.351  1.00  0.00    -0.776 OA
HETATM   36  H43 UNL     1      -0.445  48.581 -18.908  1.00  0.00     0.167 HD
ENDBRANCH  33  35
ENDBRANCH  17  33
BRANCH  16  37
HETATM   37  O2  UNL     1      -2.608  46.286 -17.254  1.00  0.00    -0.394 OA
HETATM   38  H39 UNL     1      -1.826  46.510 -17.798  1.00  0.00     0.210 HD
ENDBRANCH  16  37
TORSDOF 8
ENDMDL
MODEL 8
REMARK minimizedAffinity -7.74288082
REMARK CNNscore 0.451855749
REMARK CNNaffinity 6.45084
REMARK  8 active torsions:
REMARK  status: ('A' for Active; 'I' for Inactive)
REMARK    1  A    between atoms: C4_4  and  C5_5 
REMARK    2  A    between atoms: C5_5  and  C6_6 
REMARK    3  A    between atoms: C6_6  and  C7_7 
REMARK    4  A    between atoms: C7_7  and  C9_9 
REMARK    5  A    between atoms: C22_22  and  O1_23 
REMARK    6  A    between atoms: C24_25  and  O2_26 
REMARK    7  A    between atoms: C25_27  and  C27_29 
REMARK    8  A    between atoms: C27_29  and  O4_31 
ROOT
HETATM    1  C9  UNL     1      -3.985  49.008 -22.631  1.00  0.00    -0.002 C 
HETATM    2  C10 UNL     1      -4.619  48.612 -23.986  1.00  0.00     0.007 C 
HETATM    3  C11 UNL     1      -6.073  48.181 -23.684  1.00  0.00     0.015 C 
HETATM    4  C12 UNL     1      -6.351  48.649 -22.236  1.00  0.00    -0.005 C 
HETATM    5  C13 UNL     1      -6.771  50.150 -22.323  1.00  0.00     0.021 C 
HETATM    6  C14 UNL     1      -7.436  48.000 -21.386  1.00  0.00    -0.000 C 
HETATM    7  C15 UNL     1      -7.341  47.965 -20.029  1.00  0.00    -0.058 C 
HETATM    8  C16 UNL     1      -6.088  48.519 -19.325  1.00  0.00     0.036 C 
HETATM    9  C17 UNL     1      -4.922  49.021 -20.203  1.00  0.00     0.015 C 
HETATM   10  C18 UNL     1      -4.944  48.370 -21.587  1.00  0.00    -0.028 C 
HETATM   11  C19 UNL     1      -4.636  46.853 -21.409  1.00  0.00     0.016 C 
HETATM   12  C20 UNL     1      -8.435  47.329 -19.104  1.00  0.00     0.011 C 
HETATM   13  C21 UNL     1      -7.939  45.900 -18.772  1.00  0.00     0.023 C 
HETATM   14  C22 UNL     1      -8.638  48.142 -17.771  1.00  0.00     0.133 C 
HETATM   15  C23 UNL     1      -9.864  47.712 -16.969  1.00  0.00     0.065 C 
HETATM   16  C24 UNL     1     -11.137  47.756 -17.797  1.00  0.00     0.139 C 
HETATM   17  C25 UNL     1     -11.070  46.879 -19.075  1.00  0.00     0.072 C 
HETATM   18  C26 UNL     1     -12.372  47.116 -19.877  1.00  0.00     0.030 C 
HETATM   19  C28 UNL     1      -9.805  47.342 -19.888  1.00  0.00     0.029 C 
HETATM   20  C29 UNL     1      -9.651  46.687 -21.265  1.00  0.00     0.090 C 
HETATM   21  C30 UNL     1      -8.636  47.441 -22.082  1.00  0.00     0.157 C 
HETATM   22  O5  UNL     1      -8.794  47.573 -23.294  1.00  0.00    -0.293 OA
ENDROOT
BRANCH   1  23
HETATM   23  C7  UNL     1      -2.449  48.784 -22.487  1.00  0.00    -0.014 C 
HETATM   24  C8  UNL     1      -2.182  48.230 -21.073  1.00  0.00     0.010 C 
BRANCH  23  25
HETATM   25  C6  UNL     1      -1.564  50.031 -22.733  1.00  0.00     0.008 C 
BRANCH  25  26
HETATM   26  C5  UNL     1      -0.730  50.467 -21.516  1.00  0.00     0.028 C 
BRANCH  26  27
HETATM   27  C4  UNL     1       0.046  51.738 -21.722  1.00  0.00    -0.025 C 
HETATM   28  C2  UNL     1       0.437  52.637 -20.797  1.00  0.00    -0.091 C 
HETATM   29  C1  UNL     1       1.228  53.853 -21.204  1.00  0.00     0.042 C 
HETATM   30  C3  UNL     1       0.137  52.561 -19.326  1.00  0.00     0.042 C 
ENDBRANCH  26  27
ENDBRANCH  25  26
ENDBRANCH  23  25
ENDBRANCH   1  23
BRANCH  14  31
HETATM   31  O1  UNL     1      -7.517  47.998 -16.895  1.00  0.00    -0.394 OA
HETATM   32  H35 UNL     1      -7.649  48.599 -16.140  1.00  0.00     0.210 HD
ENDBRANCH  14  31
BRANCH  17  33
HETATM   33  C27 UNL     1     -11.056  45.377 -18.795  1.00  0.00     0.151 C 
HETATM   34  O3  UNL     1     -11.059  44.489 -19.631  1.00  0.00    -0.649 OA
BRANCH  33  35
HETATM   35  O4  UNL     1     -11.098  45.040 -17.490  1.00  0.00    -0.776 OA
HETATM   36  H43 UNL     1     -11.124  44.057 -17.511  1.00  0.00     0.167 HD
ENDBRANCH  33  35
ENDBRANCH  17  33
BRANCH  16  37
HETATM   37  O2  UNL     1     -12.254  47.449 -16.963  1.00  0.00    -0.394 OA
HETATM   38  H39 UNL     1     -12.172  46.505 -16.715  1.00  0.00     0.210 HD
ENDBRANCH  16  37
TORSDOF 8
ENDMDL
MODEL 9
REMARK minimizedAffinity -9.53195286
REMARK CNNscore 0.448395759
REMARK CNNaffinity 6.86711645
REMARK  8 active torsions:
REMARK  status: ('A' for Active; 'I' for Inactive)
REMARK    1  A    between atoms: C4_4  and  C5_5 
REMARK    2  A    between atoms: C5_5  and  C6_6 
REMARK    3  A    between atoms: C6_6  and  C7_7 
REMARK    4  A    between atoms: C7_7  and  C9_9 
REMARK    5  A    between atoms: C22_22  and  O1_23 
REMARK    6  A    between atoms: C24_25  and  O2_26 
REMARK    7  A    between atoms: C25_27  and  C27_29 
REMARK    8  A    between atoms: C27_29  and  O4_31 
ROOT
HETATM    1  C9  UNL     1      -1.231  50.983 -23.075  1.00  0.00    -0.002 C 
HETATM    2  C10 UNL     1      -0.615  52.397 -23.201  1.00  0.00     0.007 C 
HETATM    3  C11 UNL     1       0.012  52.730 -21.827  1.00  0.00     0.015 C 
HETATM    4  C12 UNL     1       0.042  51.392 -21.051  1.00  0.00    -0.005 C 
HETATM    5  C13 UNL     1       1.332  50.640 -21.503  1.00  0.00     0.021 C 
HETATM    6  C14 UNL     1       0.096  51.358 -19.529  1.00  0.00    -0.000 C 
HETATM    7  C15 UNL     1      -0.428  50.316 -18.828  1.00  0.00    -0.058 C 
HETATM    8  C16 UNL     1      -1.160  49.177 -19.564  1.00  0.00     0.036 C 
HETATM    9  C17 UNL     1      -1.357  49.305 -21.090  1.00  0.00     0.015 C 
HETATM   10  C18 UNL     1      -1.319  50.767 -21.537  1.00  0.00    -0.028 C 
HETATM   11  C19 UNL     1      -2.572  51.482 -20.950  1.00  0.00     0.016 C 
HETATM   12  C20 UNL     1      -0.383  50.218 -17.265  1.00  0.00     0.011 C 
HETATM   13  C21 UNL     1      -1.759  50.722 -16.763  1.00  0.00     0.023 C 
HETATM   14  C22 UNL     1      -0.144  48.745 -16.764  1.00  0.00     0.133 C 
HETATM   15  C23 UNL     1       0.166  48.645 -15.272  1.00  0.00     0.065 C 
HETATM   16  C24 UNL     1       1.338  49.522 -14.867  1.00  0.00     0.139 C 
HETATM   17  C25 UNL     1       1.134  51.020 -15.215  1.00  0.00     0.072 C 
HETATM   18  C26 UNL     1       2.444  51.766 -14.866  1.00  0.00     0.030 C 
HETATM   19  C28 UNL     1       0.823  51.100 -16.755  1.00  0.00     0.029 C 
HETATM   20  C29 UNL     1       0.734  52.522 -17.319  1.00  0.00     0.090 C 
HETATM   21  C30 UNL     1       0.786  52.482 -18.823  1.00  0.00     0.157 C 
HETATM   22  O5  UNL     1       1.369  53.368 -19.445  1.00  0.00    -0.293 OA
ENDROOT
BRANCH   1  23
HETATM   23  C7  UNL     1      -2.483  50.686 -23.955  1.00  0.00    -0.014 C 
HETATM   24  C8  UNL     1      -2.700  49.160 -23.969  1.00  0.00     0.010 C 
BRANCH  23  25
HETATM   25  C6  UNL     1      -2.421  51.216 -25.409  1.00  0.00     0.008 C 
BRANCH  25  26
HETATM   26  C5  UNL     1      -1.521  50.393 -26.347  1.00  0.00     0.028 C 
BRANCH  26  27
HETATM   27  C4  UNL     1      -0.050  50.641 -26.167  1.00  0.00    -0.025 C 
HETATM   28  C2  UNL     1       0.788  51.316 -26.979  1.00  0.00    -0.091 C 
HETATM   29  C1  UNL     1       2.242  51.470 -26.614  1.00  0.00     0.042 C 
HETATM   30  C3  UNL     1       0.412  51.952 -28.288  1.00  0.00     0.042 C 
ENDBRANCH  26  27
ENDBRANCH  25  26
ENDBRANCH  23  25
ENDBRANCH   1  23
BRANCH  14  31
HETATM   31  O1  UNL     1      -1.293  47.923 -16.990  1.00  0.00    -0.394 OA
HETATM   32  H35 UNL     1      -1.054  47.008 -16.759  1.00  0.00     0.210 HD
ENDBRANCH  14  31
BRANCH  17  33
HETATM   33  C27 UNL     1       0.060  51.709 -14.373  1.00  0.00     0.151 C 
HETATM   34  O3  UNL     1      -1.044  51.264 -14.111  1.00  0.00    -0.649 OA
BRANCH  33  35
HETATM   35  O4  UNL     1       0.381  52.946 -13.943  1.00  0.00    -0.776 OA
HETATM   36  H43 UNL     1      -0.430  53.237 -13.467  1.00  0.00     0.167 HD
ENDBRANCH  33  35
ENDBRANCH  17  33
BRANCH  16  37
HETATM   37  O2  UNL     1       1.641  49.300 -13.491  1.00  0.00    -0.394 OA
HETATM   38  H39 UNL     1       0.893  49.662 -12.974  1.00  0.00     0.210 HD
ENDBRANCH  16  37
TORSDOF 8
ENDMDL
