MODEL 1
REMARK minimizedAffinity -6.40647459
REMARK CNNscore 0.440602034
REMARK CNNaffinity 5.70205688
REMARK  4 active torsions:
REMARK  status: ('A' for Active; 'I' for Inactive)
REMARK    1  A    between atoms: C2_2  and  C3_3 
REMARK    2  A    between atoms: C6_6  and  O1_7 
REMARK    3  A    between atoms: C7_8  and  C8_9 
REMARK    4  A    between atoms: C26_32  and  O6_33 
ROOT
HETATM    1  C3  UNL     1     -21.720   2.238  16.127  1.00  0.00     0.008 C 
HETATM    2  C4  UNL     1     -20.931   1.088  16.729  1.00  0.00    -0.023 C 
HETATM    3  C5  UNL     1     -21.088  -0.230  16.514  1.00  0.00     0.004 C 
HETATM    4  C6  UNL     1     -20.326  -1.346  17.198  1.00  0.00     0.174 C 
HETATM    5  C7  UNL     1     -19.887  -2.482  16.223  1.00  0.00     0.187 C 
HETATM    6  O2  UNL     1     -18.735  -2.060  15.466  1.00  0.00    -0.308 OA
HETATM    7  C12 UNL     1     -18.656  -2.522  14.181  1.00  0.00     0.276 C 
HETATM    8  O3  UNL     1     -19.519  -3.200  13.632  1.00  0.00    -0.264 OA
HETATM    9  C13 UNL     1     -17.258  -2.221  13.565  1.00  0.00     0.095 A 
HETATM   10  C14 UNL     1     -17.345  -2.190  12.018  1.00  0.00     0.036 C 
HETATM   11  C15 UNL     1     -16.500  -3.495  13.885  1.00  0.00     0.003 A 
HETATM   12  C16 UNL     1     -15.342  -3.739  14.498  1.00  0.00     0.072 A 
HETATM   13  C17 UNL     1     -14.372  -2.815  15.082  1.00  0.00     0.245 A 
HETATM   14  O4  UNL     1     -13.335  -3.281  15.556  1.00  0.00    -0.268 OA
HETATM   15  N1  UNL     1     -14.583  -1.488  15.126  1.00  0.00    -0.320 N 
HETATM   16  C18 UNL     1     -15.572  -0.620  14.738  1.00  0.00     0.098 A 
HETATM   17  C19 UNL     1     -16.713  -0.882  14.080  1.00  0.00     0.045 A 
HETATM   18  C20 UNL     1     -17.661   0.267  13.812  1.00  0.00     0.194 A 
HETATM   19  O5  UNL     1     -18.764   0.036  13.335  1.00  0.00    -0.287 OA
HETATM   20  C21 UNL     1     -17.289   1.658  14.130  1.00  0.00     0.046 A 
HETATM   21  C22 UNL     1     -16.094   1.893  14.791  1.00  0.00     0.032 A 
HETATM   22  C23 UNL     1     -15.694   3.201  15.124  1.00  0.00     0.026 A 
HETATM   23  C24 UNL     1     -16.488   4.306  14.799  1.00  0.00    -0.027 A 
HETATM   24  C25 UNL     1     -16.025   5.684  15.177  1.00  0.00     0.051 C 
HETATM   25  C26 UNL     1     -17.684   4.073  14.116  1.00  0.00     0.086 A 
HETATM   26  C27 UNL     1     -18.092   2.763  13.797  1.00  0.00     0.059 A 
HETATM   27  C28 UNL     1     -19.353   2.627  13.039  1.00  0.00     0.163 C 
HETATM   28  O7  UNL     1     -19.290   2.728  11.813  1.00  0.00    -0.292 OA
HETATM   29  C29 UNL     1     -20.645   2.321  13.780  1.00  0.00     0.084 C 
HETATM   30  C30 UNL     1     -20.821   3.010  15.137  1.00  0.00     0.016 C 
HETATM   31  C31 UNL     1     -15.218   0.780  15.151  1.00  0.00     0.210 A 
HETATM   32  O8  UNL     1     -14.180   0.988  15.778  1.00  0.00    -0.285 OA
HETATM   33  H24 UNL     1     -13.803  -1.026  15.602  1.00  0.00     0.169 HD
ENDROOT
BRANCH   5  34
HETATM   34  C8  UNL     1     -19.449  -3.713  16.992  1.00  0.00     0.010 C 
HETATM   35  C9  UNL     1     -18.262  -3.942  17.590  1.00  0.00    -0.089 C 
HETATM   36  C10 UNL     1     -17.089  -3.000  17.573  1.00  0.00     0.042 C 
HETATM   37  C11 UNL     1     -18.023  -5.212  18.364  1.00  0.00     0.042 C 
ENDBRANCH   5  34
BRANCH   4  38
HETATM   38  O1  UNL     1     -19.212  -0.796  17.911  1.00  0.00    -0.389 OA
HETATM   39  H10 UNL     1     -18.879  -1.501  18.492  1.00  0.00     0.210 HD
ENDBRANCH   4  38
BRANCH   1  40
HETATM   40  C2  UNL     1     -23.095   1.901  15.510  1.00  0.00     0.004 C 
HETATM   41  C1  UNL     1     -23.463   0.427  15.638  1.00  0.00     0.006 C 
ENDBRANCH   1  40
BRANCH  25  42
HETATM   42  O6  UNL     1     -18.506   5.114  13.776  1.00  0.00    -0.359 OA
HETATM   43  H29 UNL     1     -17.989   5.931  13.693  1.00  0.00     0.217 HD
ENDBRANCH  25  42
TORSDOF 4
ENDMDL
MODEL 2
REMARK minimizedAffinity -7.34529448
REMARK CNNscore 0.438367188
REMARK CNNaffinity 6.4843812
REMARK  4 active torsions:
REMARK  status: ('A' for Active; 'I' for Inactive)
REMARK    1  A    between atoms: C2_2  and  C3_3 
REMARK    2  A    between atoms: C6_6  and  O1_7 
REMARK    3  A    between atoms: C7_8  and  C8_9 
REMARK    4  A    between atoms: C26_32  and  O6_33 
ROOT
HETATM    1  C3  UNL     1       0.535  16.903   0.209  1.00  0.00     0.008 C 
HETATM    2  C4  UNL     1       0.365  15.734  -0.747  1.00  0.00    -0.023 C 
HETATM    3  C5  UNL     1      -0.031  15.763  -2.032  1.00  0.00     0.004 C 
HETATM    4  C6  UNL     1      -0.261  14.562  -2.925  1.00  0.00     0.174 C 
HETATM    5  C7  UNL     1       0.301  14.748  -4.369  1.00  0.00     0.187 C 
HETATM    6  O2  UNL     1       1.731  14.564  -4.365  1.00  0.00    -0.308 OA
HETATM    7  C12 UNL     1       2.439  15.335  -5.245  1.00  0.00     0.276 C 
HETATM    8  O3  UNL     1       1.947  16.196  -5.968  1.00  0.00    -0.264 OA
HETATM    9  C13 UNL     1       3.920  14.861  -5.335  1.00  0.00     0.095 A 
HETATM   10  C14 UNL     1       4.828  16.017  -5.826  1.00  0.00     0.036 C 
HETATM   11  C15 UNL     1       3.863  13.891  -6.499  1.00  0.00     0.003 A 
HETATM   12  C16 UNL     1       4.236  12.620  -6.649  1.00  0.00     0.072 A 
HETATM   13  C17 UNL     1       4.861  11.704  -5.698  1.00  0.00     0.245 A 
HETATM   14  O4  UNL     1       5.163  10.576  -6.088  1.00  0.00    -0.268 OA
HETATM   15  N1  UNL     1       5.100  12.050  -4.421  1.00  0.00    -0.320 N 
HETATM   16  C18 UNL     1       4.906  13.156  -3.632  1.00  0.00     0.098 A 
HETATM   17  C19 UNL     1       4.414  14.357  -3.972  1.00  0.00     0.045 A 
HETATM   18  C20 UNL     1       4.263  15.399  -2.884  1.00  0.00     0.194 A 
HETATM   19  O5  UNL     1       3.695  16.453  -3.137  1.00  0.00    -0.287 OA
HETATM   20  C21 UNL     1       4.771  15.163  -1.520  1.00  0.00     0.046 A 
HETATM   21  C22 UNL     1       5.292  13.917  -1.211  1.00  0.00     0.032 A 
HETATM   22  C23 UNL     1       5.785  13.636   0.077  1.00  0.00     0.026 A 
HETATM   23  C24 UNL     1       5.766  14.604   1.087  1.00  0.00    -0.027 A 
HETATM   24  C25 UNL     1       6.298  14.261   2.449  1.00  0.00     0.051 C 
HETATM   25  C26 UNL     1       5.259  15.867   0.772  1.00  0.00     0.086 A 
HETATM   26  C27 UNL     1       4.751  16.144  -0.512  1.00  0.00     0.059 A 
HETATM   27  C28 UNL     1       4.274  17.521  -0.756  1.00  0.00     0.163 C 
HETATM   28  O7  UNL     1       5.112  18.359  -1.088  1.00  0.00    -0.292 OA
HETATM   29  C29 UNL     1       2.790  17.833  -0.640  1.00  0.00     0.084 C 
HETATM   30  C30 UNL     1       2.039  17.117   0.488  1.00  0.00     0.016 C 
HETATM   31  C31 UNL     1       5.346  12.866  -2.225  1.00  0.00     0.210 A 
HETATM   32  O8  UNL     1       5.766  11.747  -1.934  1.00  0.00    -0.285 OA
HETATM   33  H24 UNL     1       5.511  11.259  -3.915  1.00  0.00     0.169 HD
ENDROOT
BRANCH   5  34
HETATM   34  C8  UNL     1      -0.251  13.690  -5.303  1.00  0.00     0.010 C 
HETATM   35  C9  UNL     1      -1.421  13.702  -5.975  1.00  0.00    -0.089 C 
HETATM   36  C10 UNL     1      -2.456  14.790  -5.890  1.00  0.00     0.042 C 
HETATM   37  C11 UNL     1      -1.781  12.579  -6.912  1.00  0.00     0.042 C 
ENDBRANCH   5  34
BRANCH   4  38
HETATM   38  O1  UNL     1       0.269  13.390  -2.295  1.00  0.00    -0.389 OA
HETATM   39  H10 UNL     1      -0.076  12.628  -2.791  1.00  0.00     0.210 HD
ENDBRANCH   4  38
BRANCH   1  40
HETATM   40  C2  UNL     1      -0.174  18.223  -0.161  1.00  0.00     0.004 C 
HETATM   41  C1  UNL     1      -1.665  18.212   0.159  1.00  0.00     0.006 C 
ENDBRANCH   1  40
BRANCH  25  42
HETATM   42  O6  UNL     1       5.209  16.854   1.719  1.00  0.00    -0.359 OA
HETATM   43  H29 UNL     1       5.890  16.700   2.394  1.00  0.00     0.217 HD
ENDBRANCH  25  42
TORSDOF 4
ENDMDL
MODEL 3
REMARK minimizedAffinity -6.13999319
REMARK CNNscore 0.314831525
REMARK CNNaffinity 6.01893187
REMARK  4 active torsions:
REMARK  status: ('A' for Active; 'I' for Inactive)
REMARK    1  A    between atoms: C2_2  and  C3_3 
REMARK    2  A    between atoms: C6_6  and  O1_7 
REMARK    3  A    between atoms: C7_8  and  C8_9 
REMARK    4  A    between atoms: C26_32  and  O6_33 
ROOT
HETATM    1  C3  UNL     1     -12.259 -11.087  27.816  1.00  0.00     0.008 C 
HETATM    2  C4  UNL     1     -13.086 -10.596  26.640  1.00  0.00    -0.023 C 
HETATM    3  C5  UNL     1     -14.202 -11.141  26.124  1.00  0.00     0.004 C 
HETATM    4  C6  UNL     1     -14.950 -10.658  24.900  1.00  0.00     0.174 C 
HETATM    5  C7  UNL     1     -16.500 -10.662  25.081  1.00  0.00     0.187 C 
HETATM    6  O2  UNL     1     -16.904  -9.523  25.867  1.00  0.00    -0.308 OA
HETATM    7  C12 UNL     1     -17.976  -9.712  26.695  1.00  0.00     0.276 C 
HETATM    8  O3  UNL     1     -18.553 -10.783  26.851  1.00  0.00    -0.264 OA
HETATM    9  C13 UNL     1     -18.474  -8.358  27.281  1.00  0.00     0.095 A 
HETATM   10  C14 UNL     1     -19.244  -8.593  28.605  1.00  0.00     0.036 C 
HETATM   11  C15 UNL     1     -19.540  -7.961  26.278  1.00  0.00     0.003 A 
HETATM   12  C16 UNL     1     -19.749  -6.863  25.553  1.00  0.00     0.072 A 
HETATM   13  C17 UNL     1     -18.990  -5.616  25.493  1.00  0.00     0.245 A 
HETATM   14  O4  UNL     1     -19.413  -4.710  24.774  1.00  0.00    -0.268 OA
HETATM   15  N1  UNL     1     -17.848  -5.437  26.181  1.00  0.00    -0.320 N 
HETATM   16  C18 UNL     1     -17.073  -6.176  27.040  1.00  0.00     0.098 A 
HETATM   17  C19 UNL     1     -17.296  -7.406  27.529  1.00  0.00     0.045 A 
HETATM   18  C20 UNL     1     -16.246  -8.013  28.434  1.00  0.00     0.194 A 
HETATM   19  O5  UNL     1     -16.359  -9.180  28.786  1.00  0.00    -0.287 OA
HETATM   20  C21 UNL     1     -15.080  -7.233  28.888  1.00  0.00     0.046 A 
HETATM   21  C22 UNL     1     -14.893  -5.958  28.378  1.00  0.00     0.032 A 
HETATM   22  C23 UNL     1     -13.794  -5.172  28.772  1.00  0.00     0.026 A 
HETATM   23  C24 UNL     1     -12.855  -5.651  29.691  1.00  0.00    -0.027 A 
HETATM   24  C25 UNL     1     -11.694  -4.781  30.081  1.00  0.00     0.051 C 
HETATM   25  C26 UNL     1     -13.050  -6.928  30.222  1.00  0.00     0.086 A 
HETATM   26  C27 UNL     1     -14.142  -7.721  29.815  1.00  0.00     0.059 A 
HETATM   27  C28 UNL     1     -14.282  -9.041  30.464  1.00  0.00     0.163 C 
HETATM   28  O7  UNL     1     -14.870  -9.079  31.545  1.00  0.00    -0.292 OA
HETATM   29  C29 UNL     1     -13.753 -10.282  29.763  1.00  0.00     0.084 C 
HETATM   30  C30 UNL     1     -12.434 -10.113  29.003  1.00  0.00     0.016 C 
HETATM   31  C31 UNL     1     -15.845  -5.399  27.419  1.00  0.00     0.210 A 
HETATM   32  O8  UNL     1     -15.652  -4.286  26.933  1.00  0.00    -0.285 OA
HETATM   33  H24 UNL     1     -17.457  -4.513  25.976  1.00  0.00     0.169 HD
ENDROOT
BRANCH   5  34
HETATM   34  C8  UNL     1     -17.200 -10.512  23.744  1.00  0.00     0.010 C 
HETATM   35  C9  UNL     1     -17.414  -9.382  23.040  1.00  0.00    -0.089 C 
HETATM   36  C10 UNL     1     -17.018  -8.000  23.480  1.00  0.00     0.042 C 
HETATM   37  C11 UNL     1     -18.083  -9.433  21.691  1.00  0.00     0.042 C 
ENDBRANCH   5  34
BRANCH   4  38
HETATM   38  O1  UNL     1     -14.462  -9.366  24.519  1.00  0.00    -0.389 OA
HETATM   39  H10 UNL     1     -14.812  -9.188  23.630  1.00  0.00     0.210 HD
ENDBRANCH   4  38
BRANCH   1  40
HETATM   40  C2  UNL     1     -12.451 -12.557  28.246  1.00  0.00     0.004 C 
HETATM   41  C1  UNL     1     -11.478 -13.512  27.564  1.00  0.00     0.006 C 
ENDBRANCH   1  40
BRANCH  25  42
HETATM   42  O6  UNL     1     -12.162  -7.453  31.121  1.00  0.00    -0.359 OA
HETATM   43  H29 UNL     1     -11.708  -6.738  31.594  1.00  0.00     0.217 HD
ENDBRANCH  25  42
TORSDOF 4
ENDMDL
MODEL 4
REMARK minimizedAffinity -6.20904016
REMARK CNNscore 0.305239171
REMARK CNNaffinity 6.08551741
REMARK  4 active torsions:
REMARK  status: ('A' for Active; 'I' for Inactive)
REMARK    1  A    between atoms: C2_2  and  C3_3 
REMARK    2  A    between atoms: C6_6  and  O1_7 
REMARK    3  A    between atoms: C7_8  and  C8_9 
REMARK    4  A    between atoms: C26_32  and  O6_33 
ROOT
HETATM    1  C3  UNL     1     -16.731   0.430  28.147  1.00  0.00     0.008 C 
HETATM    2  C4  UNL     1     -17.474   0.702  26.851  1.00  0.00    -0.023 C 
HETATM    3  C5  UNL     1     -18.539   1.501  26.654  1.00  0.00     0.004 C 
HETATM    4  C6  UNL     1     -19.296   1.680  25.356  1.00  0.00     0.174 C 
HETATM    5  C7  UNL     1     -19.665   3.166  25.055  1.00  0.00     0.187 C 
HETATM    6  O2  UNL     1     -18.506   3.868  24.562  1.00  0.00    -0.308 OA
HETATM    7  C12 UNL     1     -18.403   5.184  24.917  1.00  0.00     0.276 C 
HETATM    8  O3  UNL     1     -19.184   5.766  25.665  1.00  0.00    -0.264 OA
HETATM    9  C13 UNL     1     -17.270   5.891  24.117  1.00  0.00     0.095 A 
HETATM   10  C14 UNL     1     -16.763   7.138  24.885  1.00  0.00     0.036 C 
HETATM   11  C15 UNL     1     -18.033   6.451  22.931  1.00  0.00     0.003 A 
HETATM   12  C16 UNL     1     -17.873   6.350  21.612  1.00  0.00     0.072 A 
HETATM   13  C17 UNL     1     -16.855   5.645  20.837  1.00  0.00     0.245 A 
HETATM   14  O4  UNL     1     -16.885   5.741  19.610  1.00  0.00    -0.268 OA
HETATM   15  N1  UNL     1     -15.906   4.891  21.420  1.00  0.00    -0.320 N 
HETATM   16  C18 UNL     1     -15.558   4.535  22.699  1.00  0.00     0.098 A 
HETATM   17  C19 UNL     1     -16.103   4.929  23.861  1.00  0.00     0.045 A 
HETATM   18  C20 UNL     1     -15.550   4.342  25.142  1.00  0.00     0.194 A 
HETATM   19  O5  UNL     1     -16.112   4.580  26.203  1.00  0.00    -0.287 OA
HETATM   20  C21 UNL     1     -14.358   3.474  25.137  1.00  0.00     0.046 A 
HETATM   21  C22 UNL     1     -13.810   3.104  23.919  1.00  0.00     0.032 A 
HETATM   22  C23 UNL     1     -12.676   2.272  23.856  1.00  0.00     0.026 A 
HETATM   23  C24 UNL     1     -12.065   1.793  25.019  1.00  0.00    -0.027 A 
HETATM   24  C25 UNL     1     -10.859   0.904  24.907  1.00  0.00     0.051 C 
HETATM   25  C26 UNL     1     -12.603   2.180  26.248  1.00  0.00     0.086 A 
HETATM   26  C27 UNL     1     -13.748   2.999  26.311  1.00  0.00     0.059 A 
HETATM   27  C28 UNL     1     -14.215   3.384  27.659  1.00  0.00     0.163 C 
HETATM   28  O7  UNL     1     -13.687   4.366  28.181  1.00  0.00    -0.292 OA
HETATM   29  C29 UNL     1     -15.343   2.602  28.314  1.00  0.00     0.084 C 
HETATM   30  C30 UNL     1     -15.335   1.088  28.080  1.00  0.00     0.016 C 
HETATM   31  C31 UNL     1     -14.400   3.579  22.668  1.00  0.00     0.210 A 
HETATM   32  O8  UNL     1     -13.939   3.211  21.588  1.00  0.00    -0.285 OA
HETATM   33  H24 UNL     1     -15.315   4.458  20.705  1.00  0.00     0.169 HD
ENDROOT
BRANCH   5  34
HETATM   34  C8  UNL     1     -20.703   3.252  23.953  1.00  0.00     0.010 C 
HETATM   35  C9  UNL     1     -22.046   3.268  24.076  1.00  0.00    -0.089 C 
HETATM   36  C10 UNL     1     -22.798   3.159  25.373  1.00  0.00     0.042 C 
HETATM   37  C11 UNL     1     -22.926   3.418  22.862  1.00  0.00     0.042 C 
ENDBRANCH   5  34
BRANCH   4  38
HETATM   38  O1  UNL     1     -18.553   1.089  24.283  1.00  0.00    -0.389 OA
HETATM   39  H10 UNL     1     -19.155   1.041  23.521  1.00  0.00     0.210 HD
ENDBRANCH   4  38
BRANCH   1  40
HETATM   40  C2  UNL     1     -17.463   0.771  29.463  1.00  0.00     0.004 C 
HETATM   41  C1  UNL     1     -16.832   0.115  30.686  1.00  0.00     0.006 C 
ENDBRANCH   1  40
BRANCH  25  42
HETATM   42  O6  UNL     1     -12.052   1.739  27.421  1.00  0.00    -0.359 OA
HETATM   43  H29 UNL     1     -11.114   1.526  27.287  1.00  0.00     0.217 HD
ENDBRANCH  25  42
TORSDOF 4
ENDMDL
MODEL 5
REMARK minimizedAffinity -6.45458508
REMARK CNNscore 0.245749831
REMARK CNNaffinity 5.67612886
REMARK  4 active torsions:
REMARK  status: ('A' for Active; 'I' for Inactive)
REMARK    1  A    between atoms: C2_2  and  C3_3 
REMARK    2  A    between atoms: C6_6  and  O1_7 
REMARK    3  A    between atoms: C7_8  and  C8_9 
REMARK    4  A    between atoms: C26_32  and  O6_33 
ROOT
HETATM    1  C3  UNL     1      14.694  -1.892   3.048  1.00  0.00     0.008 C 
HETATM    2  C4  UNL     1      14.327  -2.820   1.903  1.00  0.00    -0.023 C 
HETATM    3  C5  UNL     1      15.125  -3.292   0.928  1.00  0.00     0.004 C 
HETATM    4  C6  UNL     1      14.695  -4.154  -0.240  1.00  0.00     0.174 C 
HETATM    5  C7  UNL     1      15.687  -5.320  -0.546  1.00  0.00     0.187 C 
HETATM    6  O2  UNL     1      15.497  -6.386   0.406  1.00  0.00    -0.308 OA
HETATM    7  C12 UNL     1      16.619  -7.080   0.765  1.00  0.00     0.276 C 
HETATM    8  O3  UNL     1      17.754  -6.810   0.385  1.00  0.00    -0.264 OA
HETATM    9  C13 UNL     1      16.250  -8.355   1.578  1.00  0.00     0.095 A 
HETATM   10  C14 UNL     1      17.446  -8.800   2.458  1.00  0.00     0.036 C 
HETATM   11  C15 UNL     1      16.163  -9.403   0.485  1.00  0.00     0.003 A 
HETATM   12  C16 UNL     1      15.220 -10.274   0.126  1.00  0.00     0.072 A 
HETATM   13  C17 UNL     1      13.901 -10.524   0.703  1.00  0.00     0.245 A 
HETATM   14  O4  UNL     1      13.217 -11.428   0.223  1.00  0.00    -0.268 OA
HETATM   15  N1  UNL     1      13.414  -9.794   1.722  1.00  0.00    -0.320 N 
HETATM   16  C18 UNL     1      13.840  -8.737   2.488  1.00  0.00     0.098 A 
HETATM   17  C19 UNL     1      15.022  -8.102   2.462  1.00  0.00     0.045 A 
HETATM   18  C20 UNL     1      15.218  -6.925   3.395  1.00  0.00     0.194 A 
HETATM   19  O5  UNL     1      16.231  -6.246   3.300  1.00  0.00    -0.287 OA
HETATM   20  C21 UNL     1      14.204  -6.570   4.405  1.00  0.00     0.046 A 
HETATM   21  C22 UNL     1      13.004  -7.262   4.415  1.00  0.00     0.032 A 
HETATM   22  C23 UNL     1      11.999  -6.959   5.353  1.00  0.00     0.026 A 
HETATM   23  C24 UNL     1      12.179  -5.952   6.306  1.00  0.00    -0.027 A 
HETATM   24  C25 UNL     1      11.079  -5.658   7.287  1.00  0.00     0.051 C 
HETATM   25  C26 UNL     1      13.395  -5.265   6.311  1.00  0.00     0.086 A 
HETATM   26  C27 UNL     1      14.395  -5.557   5.361  1.00  0.00     0.059 A 
HETATM   27  C28 UNL     1      15.660  -4.803   5.476  1.00  0.00     0.163 C 
HETATM   28  O7  UNL     1      16.508  -5.235   6.256  1.00  0.00    -0.292 OA
HETATM   29  C29 UNL     1      15.883  -3.575   4.606  1.00  0.00     0.084 C 
HETATM   30  C30 UNL     1      14.659  -2.683   4.375  1.00  0.00     0.016 C 
HETATM   31  C31 UNL     1      12.759  -8.331   3.448  1.00  0.00     0.210 A 
HETATM   32  O8  UNL     1      11.675  -8.913   3.430  1.00  0.00    -0.285 OA
HETATM   33  H24 UNL     1      12.467 -10.105   1.954  1.00  0.00     0.169 HD
ENDROOT
BRANCH   5  34
HETATM   34  C8  UNL     1      15.406  -5.924  -1.907  1.00  0.00     0.010 C 
HETATM   35  C9  UNL     1      15.797  -5.469  -3.115  1.00  0.00    -0.089 C 
HETATM   36  C10 UNL     1      16.581  -4.207  -3.353  1.00  0.00     0.042 C 
HETATM   37  C11 UNL     1      15.472  -6.239  -4.369  1.00  0.00     0.042 C 
ENDBRANCH   5  34
BRANCH   4  38
HETATM   38  O1  UNL     1      13.364  -4.633  -0.018  1.00  0.00    -0.389 OA
HETATM   39  H10 UNL     1      13.056  -5.000  -0.863  1.00  0.00     0.210 HD
ENDBRANCH   4  38
BRANCH   1  40
HETATM   40  C2  UNL     1      15.995  -1.074   2.903  1.00  0.00     0.004 C 
HETATM   41  C1  UNL     1      15.754   0.430   2.848  1.00  0.00     0.006 C 
ENDBRANCH   1  40
BRANCH  25  42
HETATM   42  O6  UNL     1      13.628  -4.265   7.216  1.00  0.00    -0.359 OA
HETATM   43  H29 UNL     1      13.084  -4.402   8.008  1.00  0.00     0.217 HD
ENDBRANCH  25  42
TORSDOF 4
ENDMDL
MODEL 6
REMARK minimizedAffinity -6.63227224
REMARK CNNscore 0.225372061
REMARK CNNaffinity 5.75315046
REMARK  4 active torsions:
REMARK  status: ('A' for Active; 'I' for Inactive)
REMARK    1  A    between atoms: C2_2  and  C3_3 
REMARK    2  A    between atoms: C6_6  and  O1_7 
REMARK    3  A    between atoms: C7_8  and  C8_9 
REMARK    4  A    between atoms: C26_32  and  O6_33 
ROOT
HETATM    1  C3  UNL     1       6.505  17.228  -7.044  1.00  0.00     0.008 C 
HETATM    2  C4  UNL     1       7.018  17.298  -5.616  1.00  0.00    -0.023 C 
HETATM    3  C5  UNL     1       6.726  18.211  -4.672  1.00  0.00     0.004 C 
HETATM    4  C6  UNL     1       7.324  18.285  -3.283  1.00  0.00     0.174 C 
HETATM    5  C7  UNL     1       6.272  18.597  -2.174  1.00  0.00     0.187 C 
HETATM    6  O2  UNL     1       5.516  17.409  -1.866  1.00  0.00    -0.308 OA
HETATM    7  C12 UNL     1       4.204  17.599  -1.531  1.00  0.00     0.276 C 
HETATM    8  O3  UNL     1       3.634  18.686  -1.542  1.00  0.00    -0.264 OA
HETATM    9  C13 UNL     1       3.576  16.289  -0.970  1.00  0.00     0.095 A 
HETATM   10  C14 UNL     1       2.036  16.312  -1.143  1.00  0.00     0.036 C 
HETATM   11  C15 UNL     1       3.800  16.454   0.521  1.00  0.00     0.003 A 
HETATM   12  C16 UNL     1       4.371  15.686   1.449  1.00  0.00     0.072 A 
HETATM   13  C17 UNL     1       4.988  14.367   1.331  1.00  0.00     0.245 A 
HETATM   14  O4  UNL     1       5.409  13.827   2.354  1.00  0.00    -0.268 OA
HETATM   15  N1  UNL     1       5.118  13.740   0.149  1.00  0.00    -0.320 N 
HETATM   16  C18 UNL     1       4.806  14.002  -1.162  1.00  0.00     0.098 A 
HETATM   17  C19 UNL     1       4.159  15.059  -1.678  1.00  0.00     0.045 A 
HETATM   18  C20 UNL     1       3.984  15.122  -3.180  1.00  0.00     0.194 A 
HETATM   19  O5  UNL     1       3.518  16.134  -3.688  1.00  0.00    -0.287 OA
HETATM   20  C21 UNL     1       4.377  13.996  -4.047  1.00  0.00     0.046 A 
HETATM   21  C22 UNL     1       5.024  12.912  -3.476  1.00  0.00     0.032 A 
HETATM   22  C23 UNL     1       5.427  11.813  -4.257  1.00  0.00     0.026 A 
HETATM   23  C24 UNL     1       5.188  11.778  -5.635  1.00  0.00    -0.027 A 
HETATM   24  C25 UNL     1       5.639  10.588  -6.433  1.00  0.00     0.051 C 
HETATM   25  C26 UNL     1       4.519  12.861  -6.211  1.00  0.00     0.086 A 
HETATM   26  C27 UNL     1       4.130  13.969  -5.431  1.00  0.00     0.059 A 
HETATM   27  C28 UNL     1       3.394  15.044  -6.126  1.00  0.00     0.163 C 
HETATM   28  O7  UNL     1       2.176  14.910  -6.245  1.00  0.00    -0.292 OA
HETATM   29  C29 UNL     1       4.144  16.275  -6.612  1.00  0.00     0.084 C 
HETATM   30  C30 UNL     1       5.544  16.027  -7.182  1.00  0.00     0.016 C 
HETATM   31  C31 UNL     1       5.296  12.886  -2.040  1.00  0.00     0.210 A 
HETATM   32  O8  UNL     1       5.911  11.943  -1.543  1.00  0.00    -0.285 OA
HETATM   33  H24 UNL     1       5.604  12.847   0.277  1.00  0.00     0.169 HD
ENDROOT
BRANCH   5  34
HETATM   34  C8  UNL     1       6.954  19.001  -0.881  1.00  0.00     0.010 C 
HETATM   35  C9  UNL     1       7.500  18.200   0.055  1.00  0.00    -0.089 C 
HETATM   36  C10 UNL     1       7.502  16.696   0.014  1.00  0.00     0.042 C 
HETATM   37  C11 UNL     1       8.192  18.785   1.259  1.00  0.00     0.042 C 
ENDBRANCH   5  34
BRANCH   4  38
HETATM   38  O1  UNL     1       8.044  17.077  -3.008  1.00  0.00    -0.389 OA
HETATM   39  H10 UNL     1       8.573  17.246  -2.210  1.00  0.00     0.210 HD
ENDBRANCH   4  38
BRANCH   1  40
HETATM   40  C2  UNL     1       5.900  18.518  -7.639  1.00  0.00     0.004 C 
HETATM   41  C1  UNL     1       6.937  19.413  -8.308  1.00  0.00     0.006 C 
ENDBRANCH   1  40
BRANCH  25  42
HETATM   42  O6  UNL     1       4.262  12.888  -7.554  1.00  0.00    -0.359 OA
HETATM   43  H29 UNL     1       4.217  11.982  -7.901  1.00  0.00     0.217 HD
ENDBRANCH  25  42
TORSDOF 4
ENDMDL
MODEL 7
REMARK minimizedAffinity -6.31665468
REMARK CNNscore 0.221115425
REMARK CNNaffinity 5.5700202
REMARK  4 active torsions:
REMARK  status: ('A' for Active; 'I' for Inactive)
REMARK    1  A    between atoms: C2_2  and  C3_3 
REMARK    2  A    between atoms: C6_6  and  O1_7 
REMARK    3  A    between atoms: C7_8  and  C8_9 
REMARK    4  A    between atoms: C26_32  and  O6_33 
ROOT
HETATM    1  C3  UNL     1      14.667  -1.920   1.542  1.00  0.00     0.008 C 
HETATM    2  C4  UNL     1      14.413  -2.680   2.832  1.00  0.00    -0.023 C 
HETATM    3  C5  UNL     1      14.670  -3.973   3.100  1.00  0.00     0.004 C 
HETATM    4  C6  UNL     1      14.327  -4.708   4.378  1.00  0.00     0.174 C 
HETATM    5  C7  UNL     1      15.470  -5.645   4.878  1.00  0.00     0.187 C 
HETATM    6  O2  UNL     1      16.500  -4.864   5.516  1.00  0.00    -0.308 OA
HETATM    7  C12 UNL     1      17.781  -5.316   5.362  1.00  0.00     0.276 C 
HETATM    8  O3  UNL     1      18.100  -6.283   4.677  1.00  0.00    -0.264 OA
HETATM    9  C13 UNL     1      18.759  -4.553   6.304  1.00  0.00     0.095 A 
HETATM   10  C14 UNL     1      20.204  -4.618   5.749  1.00  0.00     0.036 C 
HETATM   11  C15 UNL     1      18.773  -5.452   7.526  1.00  0.00     0.003 A 
HETATM   12  C16 UNL     1      18.549  -5.235   8.822  1.00  0.00     0.072 A 
HETATM   13  C17 UNL     1      18.211  -4.000   9.526  1.00  0.00     0.245 A 
HETATM   14  O4  UNL     1      18.101  -4.039  10.752  1.00  0.00    -0.268 OA
HETATM   15  N1  UNL     1      18.007  -2.839   8.879  1.00  0.00    -0.320 N 
HETATM   16  C18 UNL     1      18.020  -2.405   7.577  1.00  0.00     0.098 A 
HETATM   17  C19 UNL     1      18.330  -3.089   6.464  1.00  0.00     0.045 A 
HETATM   18  C20 UNL     1      18.218  -2.374   5.135  1.00  0.00     0.194 A 
HETATM   19  O5  UNL     1      18.364  -3.008   4.098  1.00  0.00    -0.287 OA
HETATM   20  C21 UNL     1      17.921  -0.931   5.062  1.00  0.00     0.046 A 
HETATM   21  C22 UNL     1      17.628  -0.253   6.234  1.00  0.00     0.032 A 
HETATM   22  C23 UNL     1      17.330   1.123   6.221  1.00  0.00     0.026 A 
HETATM   23  C24 UNL     1      17.323   1.851   5.027  1.00  0.00    -0.027 A 
HETATM   24  C25 UNL     1      16.997   3.317   5.057  1.00  0.00     0.051 C 
HETATM   25  C26 UNL     1      17.638   1.174   3.846  1.00  0.00     0.086 A 
HETATM   26  C27 UNL     1      17.919  -0.207   3.857  1.00  0.00     0.059 A 
HETATM   27  C28 UNL     1      18.279  -0.821   2.562  1.00  0.00     0.163 C 
HETATM   28  O7  UNL     1      19.457  -0.752   2.212  1.00  0.00    -0.292 OA
HETATM   29  C29 UNL     1      17.214  -1.545   1.753  1.00  0.00     0.084 C 
HETATM   30  C30 UNL     1      15.818  -0.913   1.762  1.00  0.00     0.016 C 
HETATM   31  C31 UNL     1      17.626  -0.957   7.515  1.00  0.00     0.210 A 
HETATM   32  O8  UNL     1      17.320  -0.362   8.548  1.00  0.00    -0.285 OA
HETATM   33  H24 UNL     1      17.750  -2.107   9.547  1.00  0.00     0.169 HD
ENDROOT
BRANCH   5  34
HETATM   34  C8  UNL     1      14.959  -6.603   5.937  1.00  0.00     0.010 C 
HETATM   35  C9  UNL     1      14.271  -7.749   5.758  1.00  0.00    -0.089 C 
HETATM   36  C10 UNL     1      13.829  -8.296   4.429  1.00  0.00     0.042 C 
HETATM   37  C11 UNL     1      13.893  -8.609   6.936  1.00  0.00     0.042 C 
ENDBRANCH   5  34
BRANCH   4  38
HETATM   38  O1  UNL     1      13.936  -3.765   5.382  1.00  0.00    -0.389 OA
HETATM   39  H10 UNL     1      13.533  -4.277   6.103  1.00  0.00     0.210 HD
ENDBRANCH   4  38
BRANCH   1  40
HETATM   40  C2  UNL     1      14.874  -2.757   0.261  1.00  0.00     0.004 C 
HETATM   41  C1  UNL     1      16.292  -2.665  -0.291  1.00  0.00     0.006 C 
ENDBRANCH   1  40
BRANCH  25  42
HETATM   42  O6  UNL     1      17.641   1.831   2.645  1.00  0.00    -0.359 OA
HETATM   43  H29 UNL     1      17.812   2.776   2.786  1.00  0.00     0.217 HD
ENDBRANCH  25  42
TORSDOF 4
ENDMDL
MODEL 8
REMARK minimizedAffinity -6.11282492
REMARK CNNscore 0.211632654
REMARK CNNaffinity 5.21666479
REMARK  4 active torsions:
REMARK  status: ('A' for Active; 'I' for Inactive)
REMARK    1  A    between atoms: C2_2  and  C3_3 
REMARK    2  A    between atoms: C6_6  and  O1_7 
REMARK    3  A    between atoms: C7_8  and  C8_9 
REMARK    4  A    between atoms: C26_32  and  O6_33 
ROOT
HETATM    1  C3  UNL     1     -17.312  -6.876  16.903  1.00  0.00     0.008 C 
HETATM    2  C4  UNL     1     -18.159  -5.649  16.615  1.00  0.00    -0.023 C 
HETATM    3  C5  UNL     1     -18.366  -4.579  17.404  1.00  0.00     0.004 C 
HETATM    4  C6  UNL     1     -19.284  -3.412  17.107  1.00  0.00     0.174 C 
HETATM    5  C7  UNL     1     -18.662  -2.028  17.471  1.00  0.00     0.187 C 
HETATM    6  O2  UNL     1     -17.713  -1.636  16.458  1.00  0.00    -0.308 OA
HETATM    7  C12 UNL     1     -16.626  -0.930  16.893  1.00  0.00     0.276 C 
HETATM    8  O3  UNL     1     -16.386  -0.677  18.069  1.00  0.00    -0.264 OA
HETATM    9  C13 UNL     1     -15.826  -0.343  15.693  1.00  0.00     0.095 A 
HETATM   10  C14 UNL     1     -14.356  -0.075  16.103  1.00  0.00     0.036 C 
HETATM   11  C15 UNL     1     -16.446   1.034  15.553  1.00  0.00     0.003 A 
HETATM   12  C16 UNL     1     -16.999   1.688  14.532  1.00  0.00     0.072 A 
HETATM   13  C17 UNL     1     -17.189   1.277  13.142  1.00  0.00     0.245 A 
HETATM   14  O4  UNL     1     -17.687   2.086  12.359  1.00  0.00    -0.268 OA
HETATM   15  N1  UNL     1     -16.850   0.052  12.705  1.00  0.00    -0.320 N 
HETATM   16  C18 UNL     1     -16.307  -1.088  13.245  1.00  0.00     0.098 A 
HETATM   17  C19 UNL     1     -15.863  -1.299  14.494  1.00  0.00     0.045 A 
HETATM   18  C20 UNL     1     -15.347  -2.679  14.841  1.00  0.00     0.194 A 
HETATM   19  O5  UNL     1     -15.062  -2.937  16.003  1.00  0.00    -0.287 OA
HETATM   20  C21 UNL     1     -15.197  -3.724  13.812  1.00  0.00     0.046 A 
HETATM   21  C22 UNL     1     -15.647  -3.463  12.528  1.00  0.00     0.032 A 
HETATM   22  C23 UNL     1     -15.535  -4.427  11.509  1.00  0.00     0.026 A 
HETATM   23  C24 UNL     1     -14.964  -5.679  11.757  1.00  0.00    -0.027 A 
HETATM   24  C25 UNL     1     -14.866  -6.681  10.642  1.00  0.00     0.051 C 
HETATM   25  C26 UNL     1     -14.491  -5.939  13.046  1.00  0.00     0.086 A 
HETATM   26  C27 UNL     1     -14.619  -4.979  14.070  1.00  0.00     0.059 A 
HETATM   27  C28 UNL     1     -14.052  -5.335  15.388  1.00  0.00     0.163 C 
HETATM   28  O7  UNL     1     -12.853  -5.121  15.564  1.00  0.00    -0.292 OA
HETATM   29  C29 UNL     1     -14.963  -5.892  16.471  1.00  0.00     0.084 C 
HETATM   30  C30 UNL     1     -16.059  -6.853  15.999  1.00  0.00     0.016 C 
HETATM   31  C31 UNL     1     -16.247  -2.169  12.204  1.00  0.00     0.210 A 
HETATM   32  O8  UNL     1     -16.688  -1.957  11.075  1.00  0.00    -0.285 OA
HETATM   33  H24 UNL     1     -17.093  -0.046  11.715  1.00  0.00     0.169 HD
ENDROOT
BRANCH   5  34
HETATM   34  C8  UNL     1     -19.724  -0.946  17.486  1.00  0.00     0.010 C 
HETATM   35  C9  UNL     1     -20.253  -0.286  16.436  1.00  0.00    -0.089 C 
HETATM   36  C10 UNL     1     -19.848  -0.477  15.000  1.00  0.00     0.042 C 
HETATM   37  C11 UNL     1     -21.350   0.727  16.638  1.00  0.00     0.042 C 
ENDBRANCH   5  34
BRANCH   4  38
HETATM   38  O1  UNL     1     -19.697  -3.466  15.736  1.00  0.00    -0.389 OA
HETATM   39  H10 UNL     1     -20.431  -2.836  15.643  1.00  0.00     0.210 HD
ENDBRANCH   4  38
BRANCH   1  40
HETATM   40  C2  UNL     1     -16.949  -7.152  18.378  1.00  0.00     0.004 C 
HETATM   41  C1  UNL     1     -18.030  -7.924  19.125  1.00  0.00     0.006 C 
ENDBRANCH   1  40
BRANCH  25  42
HETATM   42  O6  UNL     1     -13.928  -7.148  13.352  1.00  0.00    -0.359 OA
HETATM   43  H29 UNL     1     -13.557  -7.553  12.551  1.00  0.00     0.217 HD
ENDBRANCH  25  42
TORSDOF 4
ENDMDL
MODEL 9
REMARK minimizedAffinity -6.18513727
REMARK CNNscore 0.203595459
REMARK CNNaffinity 5.82574224
REMARK  4 active torsions:
REMARK  status: ('A' for Active; 'I' for Inactive)
REMARK    1  A    between atoms: C2_2  and  C3_3 
REMARK    2  A    between atoms: C6_6  and  O1_7 
REMARK    3  A    between atoms: C7_8  and  C8_9 
REMARK    4  A    between atoms: C26_32  and  O6_33 
ROOT
HETATM    1  C3  UNL     1      -4.350  19.250   3.180  1.00  0.00     0.008 C 
HETATM    2  C4  UNL     1      -2.872  19.101   3.496  1.00  0.00    -0.023 C 
HETATM    3  C5  UNL     1      -2.301  18.395   4.489  1.00  0.00     0.004 C 
HETATM    4  C6  UNL     1      -0.823  18.339   4.813  1.00  0.00     0.174 C 
HETATM    5  C7  UNL     1      -0.319  16.902   5.151  1.00  0.00     0.187 C 
HETATM    6  O2  UNL     1      -0.157  16.141   3.938  1.00  0.00    -0.308 OA
HETATM    7  C12 UNL     1      -0.432  14.804   4.024  1.00  0.00     0.276 C 
HETATM    8  O3  UNL     1      -0.859  14.245   5.030  1.00  0.00    -0.264 OA
HETATM    9  C13 UNL     1       0.030  14.055   2.739  1.00  0.00     0.095 A 
HETATM   10  C14 UNL     1      -0.766  12.737   2.567  1.00  0.00     0.036 C 
HETATM   11  C15 UNL     1       1.429  13.615   3.125  1.00  0.00     0.003 A 
HETATM   12  C16 UNL     1       2.625  13.770   2.556  1.00  0.00     0.072 A 
HETATM   13  C17 UNL     1       2.996  14.435   1.309  1.00  0.00     0.245 A 
HETATM   14  O4  UNL     1       4.176  14.404   0.961  1.00  0.00    -0.268 OA
HETATM   15  N1  UNL     1       2.097  15.085   0.549  1.00  0.00    -0.320 N 
HETATM   16  C18 UNL     1       0.751  15.349   0.598  1.00  0.00     0.098 A 
HETATM   17  C19 UNL     1      -0.156  14.938   1.498  1.00  0.00     0.045 A 
HETATM   18  C20 UNL     1      -1.583  15.417   1.341  1.00  0.00     0.194 A 
HETATM   19  O5  UNL     1      -2.399  15.168   2.218  1.00  0.00    -0.287 OA
HETATM   20  C21 UNL     1      -2.007  16.192   0.160  1.00  0.00     0.046 A 
HETATM   21  C22 UNL     1      -1.046  16.581  -0.760  1.00  0.00     0.032 A 
HETATM   22  C23 UNL     1      -1.394  17.327  -1.901  1.00  0.00     0.026 A 
HETATM   23  C24 UNL     1      -2.720  17.700  -2.146  1.00  0.00    -0.027 A 
HETATM   24  C25 UNL     1      -3.048  18.500  -3.374  1.00  0.00     0.051 C 
HETATM   25  C26 UNL     1      -3.693  17.293  -1.230  1.00  0.00     0.086 A 
HETATM   26  C27 UNL     1      -3.342  16.560  -0.079  1.00  0.00     0.059 A 
HETATM   27  C28 UNL     1      -4.450  16.143   0.806  1.00  0.00     0.163 C 
HETATM   28  O7  UNL     1      -5.038  15.100   0.523  1.00  0.00    -0.292 OA
HETATM   29  C29 UNL     1      -4.780  16.974   2.037  1.00  0.00     0.084 C 
HETATM   30  C30 UNL     1      -4.669  18.493   1.871  1.00  0.00     0.016 C 
HETATM   31  C31 UNL     1       0.356  16.216  -0.564  1.00  0.00     0.210 A 
HETATM   32  O8  UNL     1       1.213  16.601  -1.358  1.00  0.00    -0.285 OA
HETATM   33  H24 UNL     1       2.563  15.508  -0.259  1.00  0.00     0.169 HD
ENDROOT
BRANCH   5  34
HETATM   34  C8  UNL     1       1.052  16.949   5.797  1.00  0.00     0.010 C 
HETATM   35  C9  UNL     1       1.351  16.997   7.111  1.00  0.00    -0.089 C 
HETATM   36  C10 UNL     1       0.343  17.054   8.227  1.00  0.00     0.042 C 
HETATM   37  C11 UNL     1       2.785  16.981   7.575  1.00  0.00     0.042 C 
ENDBRANCH   5  34
BRANCH   4  38
HETATM   38  O1  UNL     1      -0.076  18.926   3.740  1.00  0.00    -0.389 OA
HETATM   39  H10 UNL     1       0.828  19.057   4.071  1.00  0.00     0.210 HD
ENDBRANCH   4  38
BRANCH   1  40
HETATM   40  C2  UNL     1      -5.349  18.899   4.304  1.00  0.00     0.004 C 
HETATM   41  C1  UNL     1      -4.959  17.647   5.082  1.00  0.00     0.006 C 
ENDBRANCH   1  40
BRANCH  25  42
HETATM   42  O6  UNL     1      -5.007  17.632  -1.412  1.00  0.00    -0.359 OA
HETATM   43  H29 UNL     1      -5.183  17.780  -2.355  1.00  0.00     0.217 HD
ENDBRANCH  25  42
TORSDOF 4
ENDMDL
