MODEL 1
REMARK minimizedAffinity -7.08656502
REMARK CNNscore 0.912373722
REMARK CNNaffinity 7.26960897
REMARK  8 active torsions:
REMARK  status: ('A' for Active; 'I' for Inactive)
REMARK    1  A    between atoms: C2_2  and  C3_3 
REMARK    2  A    between atoms: C2_2  and  C9_11 
REMARK    3  A    between atoms: C3_3  and  C4_4 
REMARK    4  A    between atoms: C4_4  and  C5_5 
REMARK    5  A    between atoms: C5_5  and  O1_6 
REMARK    6  A    between atoms: C5_5  and  C6_7 
REMARK    7  A    between atoms: C6_7  and  O2_10 
REMARK    8  A    between atoms: C30_34  and  O5_35 
ROOT
HETATM    1  C9  UNL     1      -1.672  52.650 -10.204  1.00  0.00    -0.001 C 
HETATM    2  C10 UNL     1      -1.152  51.195 -10.358  1.00  0.00     0.007 C 
HETATM    3  C11 UNL     1       0.339  51.182  -9.978  1.00  0.00     0.015 C 
HETATM    4  C12 UNL     1       0.591  52.540  -9.303  1.00  0.00    -0.009 C 
HETATM    5  C13 UNL     1       0.163  52.401  -7.808  1.00  0.00     0.021 C 
HETATM    6  C14 UNL     1       2.008  53.118  -9.307  1.00  0.00    -0.032 C 
HETATM    7  C15 UNL     1       2.194  54.463  -9.195  1.00  0.00     0.002 C 
HETATM    8  C16 UNL     1       0.965  55.310  -8.975  1.00  0.00     0.157 C 
HETATM    9  O3  UNL     1       1.030  56.363  -8.342  1.00  0.00    -0.293 OA
HETATM   10  C17 UNL     1      -0.396  54.838  -9.482  1.00  0.00     0.094 C 
HETATM   11  C18 UNL     1      -0.338  53.471 -10.171  1.00  0.00    -0.022 C 
HETATM   12  C19 UNL     1       0.177  53.672 -11.632  1.00  0.00     0.017 C 
HETATM   13  C20 UNL     1       3.605  55.089  -9.290  1.00  0.00    -0.008 C 
HETATM   14  C21 UNL     1       3.866  55.215 -10.818  1.00  0.00     0.021 C 
HETATM   15  C22 UNL     1       3.846  56.513  -8.711  1.00  0.00     0.022 C 
HETATM   16  C23 UNL     1       4.294  56.500  -7.260  1.00  0.00     0.080 C 
HETATM   17  C24 UNL     1       5.671  55.867  -7.192  1.00  0.00     0.135 C 
HETATM   18  O4  UNL     1       6.535  56.333  -6.449  1.00  0.00    -0.297 OA
HETATM   19  C25 UNL     1       5.932  54.626  -8.073  1.00  0.00     0.018 C 
HETATM   20  C26 UNL     1       6.883  55.022  -9.208  1.00  0.00     0.023 C 
HETATM   21  C27 UNL     1       6.654  53.586  -7.185  1.00  0.00     0.023 C 
HETATM   22  C28 UNL     1       4.553  54.068  -8.546  1.00  0.00     0.016 C 
HETATM   23  C29 UNL     1       4.586  52.737  -9.317  1.00  0.00     0.043 C 
HETATM   24  C30 UNL     1       3.168  52.144  -9.442  1.00  0.00     0.149 C 
ENDROOT
BRANCH   1  25
HETATM   25  C2  UNL     1      -2.786  53.020 -11.233  1.00  0.00    -0.014 C 
HETATM   26  C1  UNL     1      -4.050  53.540 -10.530  1.00  0.00     0.010 C 
BRANCH  25  27
HETATM   27  C3  UNL     1      -3.224  51.821 -12.124  1.00  0.00     0.007 C 
BRANCH  27  28
HETATM   28  C4  UNL     1      -2.597  51.779 -13.528  1.00  0.00     0.035 C 
BRANCH  28  29
HETATM   29  C5  UNL     1      -2.248  50.342 -13.964  1.00  0.00     0.151 C 
BRANCH  29  30
HETATM   30  O1  UNL     1      -3.420  49.537 -13.764  1.00  0.00    -0.393 OA
HETATM   31  H10 UNL     1      -3.953  49.637 -14.578  1.00  0.00     0.210 HD
ENDBRANCH  29  30
BRANCH  29  32
HETATM   32  C6  UNL     1      -1.805  50.212 -15.452  1.00  0.00     0.076 C 
HETATM   33  C7  UNL     1      -1.474  48.771 -15.855  1.00  0.00     0.048 C 
HETATM   34  C8  UNL     1      -2.890  50.762 -16.386  1.00  0.00     0.048 C 
BRANCH  32  35
HETATM   35  O2  UNL     1      -0.643  51.036 -15.654  1.00  0.00    -0.388 OA
HETATM   36  H17 UNL     1       0.131  50.563 -15.302  1.00  0.00     0.210 HD
ENDBRANCH  32  35
ENDBRANCH  29  32
ENDBRANCH  28  29
ENDBRANCH  27  28
ENDBRANCH  25  27
ENDBRANCH   1  25
BRANCH  24  37
HETATM   37  O5  UNL     1       3.034  51.153  -8.425  1.00  0.00    -0.391 OA
HETATM   38  H48 UNL     1       3.115  51.601  -7.565  1.00  0.00     0.210 HD
ENDBRANCH  24  37
TORSDOF 8
ENDMDL
MODEL 2
REMARK minimizedAffinity -7.64737368
REMARK CNNscore 0.849624693
REMARK CNNaffinity 7.13309097
REMARK  8 active torsions:
REMARK  status: ('A' for Active; 'I' for Inactive)
REMARK    1  A    between atoms: C2_2  and  C3_3 
REMARK    2  A    between atoms: C2_2  and  C9_11 
REMARK    3  A    between atoms: C3_3  and  C4_4 
REMARK    4  A    between atoms: C4_4  and  C5_5 
REMARK    5  A    between atoms: C5_5  and  O1_6 
REMARK    6  A    between atoms: C5_5  and  C6_7 
REMARK    7  A    between atoms: C6_7  and  O2_10 
REMARK    8  A    between atoms: C30_34  and  O5_35 
ROOT
HETATM    1  C9  UNL     1       5.003  55.892  -8.310  1.00  0.00    -0.001 C 
HETATM    2  C10 UNL     1       5.837  55.030  -9.297  1.00  0.00     0.007 C 
HETATM    3  C11 UNL     1       4.858  54.184 -10.130  1.00  0.00     0.015 C 
HETATM    4  C12 UNL     1       3.472  54.789  -9.854  1.00  0.00    -0.009 C 
HETATM    5  C13 UNL     1       3.300  56.009 -10.812  1.00  0.00     0.021 C 
HETATM    6  C14 UNL     1       2.232  53.909 -10.029  1.00  0.00    -0.032 C 
HETATM    7  C15 UNL     1       1.088  54.202  -9.348  1.00  0.00     0.002 C 
HETATM    8  C16 UNL     1       1.089  55.460  -8.514  1.00  0.00     0.157 C 
HETATM    9  O3  UNL     1       0.052  56.093  -8.327  1.00  0.00    -0.293 OA
HETATM   10  C17 UNL     1       2.397  56.002  -7.942  1.00  0.00     0.094 C 
HETATM   11  C18 UNL     1       3.617  55.161  -8.330  1.00  0.00    -0.022 C 
HETATM   12  C19 UNL     1       3.681  53.915  -7.390  1.00  0.00     0.017 C 
HETATM   13  C20 UNL     1      -0.151  53.283  -9.428  1.00  0.00    -0.008 C 
HETATM   14  C21 UNL     1       0.137  52.158  -8.392  1.00  0.00     0.021 C 
HETATM   15  C22 UNL     1      -1.547  53.852  -9.041  1.00  0.00     0.022 C 
HETATM   16  C23 UNL     1      -2.299  54.442 -10.221  1.00  0.00     0.080 C 
HETATM   17  C24 UNL     1      -2.645  53.316 -11.178  1.00  0.00     0.135 C 
HETATM   18  O4  UNL     1      -3.744  53.281 -11.730  1.00  0.00    -0.297 OA
HETATM   19  C25 UNL     1      -1.568  52.238 -11.432  1.00  0.00     0.018 C 
HETATM   20  C26 UNL     1      -2.012  50.934 -10.762  1.00  0.00     0.023 C 
HETATM   21  C27 UNL     1      -1.520  52.000 -12.959  1.00  0.00     0.023 C 
HETATM   22  C28 UNL     1      -0.198  52.793 -10.929  1.00  0.00     0.016 C 
HETATM   23  C29 UNL     1       1.038  51.928 -11.229  1.00  0.00     0.043 C 
HETATM   24  C30 UNL     1       2.335  52.721 -10.973  1.00  0.00     0.149 C 
ENDROOT
BRANCH   1  25
HETATM   25  C2  UNL     1       5.726  56.149  -6.951  1.00  0.00    -0.014 C 
HETATM   26  C1  UNL     1       5.604  57.619  -6.518  1.00  0.00     0.010 C 
BRANCH  25  27
HETATM   27  C3  UNL     1       7.245  55.812  -6.989  1.00  0.00     0.007 C 
BRANCH  27  28
HETATM   28  C4  UNL     1       7.920  55.650  -5.616  1.00  0.00     0.035 C 
BRANCH  28  29
HETATM   29  C5  UNL     1       9.111  56.611  -5.438  1.00  0.00     0.151 C 
BRANCH  29  30
HETATM   30  O1  UNL     1       8.635  57.754  -4.714  1.00  0.00    -0.393 OA
HETATM   31  H10 UNL     1       8.706  57.518  -3.768  1.00  0.00     0.210 HD
ENDBRANCH  29  30
BRANCH  29  32
HETATM   32  C6  UNL     1      10.319  56.001  -4.666  1.00  0.00     0.076 C 
HETATM   33  C7  UNL     1      10.788  56.876  -3.499  1.00  0.00     0.048 C 
HETATM   34  C8  UNL     1       9.969  54.603  -4.140  1.00  0.00     0.048 C 
BRANCH  32  35
HETATM   35  O2  UNL     1      11.408  55.824  -5.590  1.00  0.00    -0.388 OA
HETATM   36  H17 UNL     1      11.834  56.688  -5.728  1.00  0.00     0.210 HD
ENDBRANCH  32  35
ENDBRANCH  29  32
ENDBRANCH  28  29
ENDBRANCH  27  28
ENDBRANCH  25  27
ENDBRANCH   1  25
BRANCH  24  37
HETATM   37  O5  UNL     1       2.792  53.201 -12.237  1.00  0.00    -0.391 OA
HETATM   38  H48 UNL     1       2.114  53.805 -12.586  1.00  0.00     0.210 HD
ENDBRANCH  24  37
TORSDOF 8
ENDMDL
MODEL 3
REMARK minimizedAffinity -7.24451399
REMARK CNNscore 0.844196677
REMARK CNNaffinity 7.30284929
REMARK  8 active torsions:
REMARK  status: ('A' for Active; 'I' for Inactive)
REMARK    1  A    between atoms: C2_2  and  C3_3 
REMARK    2  A    between atoms: C2_2  and  C9_11 
REMARK    3  A    between atoms: C3_3  and  C4_4 
REMARK    4  A    between atoms: C4_4  and  C5_5 
REMARK    5  A    between atoms: C5_5  and  O1_6 
REMARK    6  A    between atoms: C5_5  and  C6_7 
REMARK    7  A    between atoms: C6_7  and  O2_10 
REMARK    8  A    between atoms: C30_34  and  O5_35 
ROOT
HETATM    1  C9  UNL     1      -1.882  52.478  -9.981  1.00  0.00    -0.001 C 
HETATM    2  C10 UNL     1      -1.292  51.054 -10.174  1.00  0.00     0.007 C 
HETATM    3  C11 UNL     1       0.218  51.124  -9.881  1.00  0.00     0.015 C 
HETATM    4  C12 UNL     1       0.432  52.492  -9.213  1.00  0.00    -0.009 C 
HETATM    5  C13 UNL     1       0.100  52.323  -7.696  1.00  0.00     0.021 C 
HETATM    6  C14 UNL     1       1.812  53.148  -9.295  1.00  0.00    -0.032 C 
HETATM    7  C15 UNL     1       1.929  54.502  -9.183  1.00  0.00     0.002 C 
HETATM    8  C16 UNL     1       0.670  55.277  -8.887  1.00  0.00     0.157 C 
HETATM    9  O3  UNL     1       0.712  56.329  -8.252  1.00  0.00    -0.293 OA
HETATM   10  C17 UNL     1      -0.690  54.731  -9.318  1.00  0.00     0.094 C 
HETATM   11  C18 UNL     1      -0.596  53.372 -10.019  1.00  0.00    -0.022 C 
HETATM   12  C19 UNL     1      -0.179  53.607 -11.505  1.00  0.00     0.017 C 
HETATM   13  C20 UNL     1       3.294  55.205  -9.355  1.00  0.00    -0.008 C 
HETATM   14  C21 UNL     1       3.459  55.352 -10.896  1.00  0.00     0.021 C 
HETATM   15  C22 UNL     1       3.489  56.639  -8.782  1.00  0.00     0.022 C 
HETATM   16  C23 UNL     1       4.020  56.645  -7.359  1.00  0.00     0.080 C 
HETATM   17  C24 UNL     1       5.433  56.091  -7.375  1.00  0.00     0.135 C 
HETATM   18  O4  UNL     1       6.311  56.602  -6.681  1.00  0.00    -0.297 OA
HETATM   19  C25 UNL     1       5.711  54.870  -8.279  1.00  0.00     0.018 C 
HETATM   20  C26 UNL     1       6.571  55.323  -9.464  1.00  0.00     0.023 C 
HETATM   21  C27 UNL     1       6.540  53.869  -7.442  1.00  0.00     0.023 C 
HETATM   22  C28 UNL     1       4.339  54.237  -8.675  1.00  0.00     0.016 C 
HETATM   23  C29 UNL     1       4.402  52.913  -9.457  1.00  0.00     0.043 C 
HETATM   24  C30 UNL     1       3.015  52.242  -9.504  1.00  0.00     0.149 C 
ENDROOT
BRANCH   1  25
HETATM   25  C2  UNL     1      -3.073  52.789 -10.940  1.00  0.00    -0.014 C 
HETATM   26  C1  UNL     1      -3.814  54.069 -10.521  1.00  0.00     0.010 C 
BRANCH  25  27
HETATM   27  C3  UNL     1      -4.132  51.649 -10.995  1.00  0.00     0.007 C 
BRANCH  27  28
HETATM   28  C4  UNL     1      -4.164  50.718  -9.771  1.00  0.00     0.035 C 
BRANCH  28  29
HETATM   29  C5  UNL     1      -5.321  49.702  -9.845  1.00  0.00     0.151 C 
BRANCH  29  30
HETATM   30  O1  UNL     1      -6.412  50.344 -10.521  1.00  0.00    -0.393 OA
HETATM   31  H10 UNL     1      -6.251  50.205 -11.476  1.00  0.00     0.210 HD
ENDBRANCH  29  30
BRANCH  29  32
HETATM   32  C6  UNL     1      -4.973  48.386 -10.602  1.00  0.00     0.076 C 
HETATM   33  C7  UNL     1      -3.475  48.066 -10.590  1.00  0.00     0.048 C 
HETATM   34  C8  UNL     1      -5.747  47.203 -10.005  1.00  0.00     0.048 C 
BRANCH  32  35
HETATM   35  O2  UNL     1      -5.416  48.512 -11.965  1.00  0.00    -0.388 OA
HETATM   36  H17 UNL     1      -4.767  49.052 -12.448  1.00  0.00     0.210 HD
ENDBRANCH  32  35
ENDBRANCH  29  32
ENDBRANCH  28  29
ENDBRANCH  27  28
ENDBRANCH  25  27
ENDBRANCH   1  25
BRANCH  24  37
HETATM   37  O5  UNL     1       2.995  51.241  -8.487  1.00  0.00    -0.391 OA
HETATM   38  H48 UNL     1       3.102  51.689  -7.630  1.00  0.00     0.210 HD
ENDBRANCH  24  37
TORSDOF 8
ENDMDL
MODEL 4
REMARK minimizedAffinity -7.19167042
REMARK CNNscore 0.778693497
REMARK CNNaffinity 6.95512438
REMARK  8 active torsions:
REMARK  status: ('A' for Active; 'I' for Inactive)
REMARK    1  A    between atoms: C2_2  and  C3_3 
REMARK    2  A    between atoms: C2_2  and  C9_11 
REMARK    3  A    between atoms: C3_3  and  C4_4 
REMARK    4  A    between atoms: C4_4  and  C5_5 
REMARK    5  A    between atoms: C5_5  and  O1_6 
REMARK    6  A    between atoms: C5_5  and  C6_7 
REMARK    7  A    between atoms: C6_7  and  O2_10 
REMARK    8  A    between atoms: C30_34  and  O5_35 
ROOT
HETATM    1  C9  UNL     1      -1.459  53.209  -9.653  1.00  0.00    -0.001 C 
HETATM    2  C10 UNL     1      -0.669  51.874  -9.599  1.00  0.00     0.007 C 
HETATM    3  C11 UNL     1       0.659  52.139  -8.868  1.00  0.00     0.015 C 
HETATM    4  C12 UNL     1       0.491  53.525  -8.225  1.00  0.00    -0.009 C 
HETATM    5  C13 UNL     1      -0.263  53.321  -6.873  1.00  0.00     0.021 C 
HETATM    6  C14 UNL     1       1.739  54.355  -7.915  1.00  0.00    -0.032 C 
HETATM    7  C15 UNL     1       1.650  55.712  -7.832  1.00  0.00     0.002 C 
HETATM    8  C16 UNL     1       0.275  56.319  -7.962  1.00  0.00     0.157 C 
HETATM    9  O3  UNL     1      -0.006  57.370  -7.389  1.00  0.00    -0.293 OA
HETATM   10  C17 UNL     1      -0.811  55.600  -8.759  1.00  0.00     0.094 C 
HETATM   11  C18 UNL     1      -0.343  54.262  -9.341  1.00  0.00    -0.022 C 
HETATM   12  C19 UNL     1       0.475  54.544 -10.641  1.00  0.00     0.017 C 
HETATM   13  C20 UNL     1       2.906  56.587  -7.614  1.00  0.00    -0.008 C 
HETATM   14  C21 UNL     1       3.512  56.748  -9.038  1.00  0.00     0.021 C 
HETATM   15  C22 UNL     1       2.740  58.036  -7.071  1.00  0.00     0.022 C 
HETATM   16  C23 UNL     1       2.808  58.116  -5.556  1.00  0.00     0.080 C 
HETATM   17  C24 UNL     1       4.215  57.749  -5.121  1.00  0.00     0.135 C 
HETATM   18  O4  UNL     1       4.771  58.372  -4.217  1.00  0.00    -0.297 OA
HETATM   19  C25 UNL     1       4.903  56.571  -5.846  1.00  0.00     0.018 C 
HETATM   20  C26 UNL     1       6.020  57.128  -6.735  1.00  0.00     0.023 C 
HETATM   21  C27 UNL     1       5.553  55.689  -4.756  1.00  0.00     0.023 C 
HETATM   22  C28 UNL     1       3.805  55.764  -6.610  1.00  0.00     0.016 C 
HETATM   23  C29 UNL     1       4.264  54.457  -7.279  1.00  0.00     0.043 C 
HETATM   24  C30 UNL     1       3.050  53.611  -7.713  1.00  0.00     0.149 C 
ENDROOT
BRANCH   1  25
HETATM   25  C2  UNL     1      -2.331  53.359 -10.939  1.00  0.00    -0.014 C 
HETATM   26  C1  UNL     1      -3.781  53.739 -10.596  1.00  0.00     0.010 C 
BRANCH  25  27
HETATM   27  C3  UNL     1      -2.392  52.061 -11.796  1.00  0.00     0.007 C 
BRANCH  27  28
HETATM   28  C4  UNL     1      -1.646  52.121 -13.140  1.00  0.00     0.035 C 
BRANCH  28  29
HETATM   29  C5  UNL     1      -0.579  51.015 -13.260  1.00  0.00     0.151 C 
BRANCH  29  30
HETATM   30  O1  UNL     1      -1.027  50.095 -14.266  1.00  0.00    -0.393 OA
HETATM   31  H10 UNL     1      -0.718  50.462 -15.118  1.00  0.00     0.210 HD
ENDBRANCH  29  30
BRANCH  29  32
HETATM   32  C6  UNL     1       0.838  51.531 -13.653  1.00  0.00     0.076 C 
HETATM   33  C7  UNL     1       1.809  51.579 -12.469  1.00  0.00     0.048 C 
HETATM   34  C8  UNL     1       1.438  50.657 -14.763  1.00  0.00     0.048 C 
BRANCH  32  35
HETATM   35  O2  UNL     1       0.705  52.852 -14.207  1.00  0.00    -0.388 OA
HETATM   36  H17 UNL     1       0.596  53.481 -13.473  1.00  0.00     0.210 HD
ENDBRANCH  32  35
ENDBRANCH  29  32
ENDBRANCH  28  29
ENDBRANCH  27  28
ENDBRANCH  25  27
ENDBRANCH   1  25
BRANCH  24  37
HETATM   37  O5  UNL     1       2.845  52.620  -6.707  1.00  0.00    -0.391 OA
HETATM   38  H48 UNL     1       2.629  53.081  -5.878  1.00  0.00     0.210 HD
ENDBRANCH  24  37
TORSDOF 8
ENDMDL
MODEL 5
REMARK minimizedAffinity -7.47304916
REMARK CNNscore 0.662101269
REMARK CNNaffinity 5.98683167
REMARK  8 active torsions:
REMARK  status: ('A' for Active; 'I' for Inactive)
REMARK    1  A    between atoms: C2_2  and  C3_3 
REMARK    2  A    between atoms: C2_2  and  C9_11 
REMARK    3  A    between atoms: C3_3  and  C4_4 
REMARK    4  A    between atoms: C4_4  and  C5_5 
REMARK    5  A    between atoms: C5_5  and  O1_6 
REMARK    6  A    between atoms: C5_5  and  C6_7 
REMARK    7  A    between atoms: C6_7  and  O2_10 
REMARK    8  A    between atoms: C30_34  and  O5_35 
ROOT
HETATM    1  C9  UNL     1       6.217  66.586 -35.800  1.00  0.00    -0.001 C 
HETATM    2  C10 UNL     1       7.262  67.661 -36.205  1.00  0.00     0.007 C 
HETATM    3  C11 UNL     1       6.546  68.712 -37.072  1.00  0.00     0.015 C 
HETATM    4  C12 UNL     1       5.047  68.422 -36.896  1.00  0.00    -0.009 C 
HETATM    5  C13 UNL     1       4.589  69.130 -35.582  1.00  0.00     0.021 C 
HETATM    6  C14 UNL     1       4.074  68.855 -37.995  1.00  0.00    -0.032 C 
HETATM    7  C15 UNL     1       2.881  68.213 -38.139  1.00  0.00     0.002 C 
HETATM    8  C16 UNL     1       2.546  67.150 -37.123  1.00  0.00     0.157 C 
HETATM    9  O3  UNL     1       1.379  66.917 -36.816  1.00  0.00    -0.293 OA
HETATM   10  C17 UNL     1       3.662  66.390 -36.409  1.00  0.00     0.094 C 
HETATM   11  C18 UNL     1       5.063  66.848 -36.826  1.00  0.00    -0.022 C 
HETATM   12  C19 UNL     1       5.423  66.171 -38.187  1.00  0.00     0.017 C 
HETATM   13  C20 UNL     1       1.917  68.562 -39.296  1.00  0.00    -0.008 C 
HETATM   14  C21 UNL     1       2.461  67.750 -40.507  1.00  0.00     0.021 C 
HETATM   15  C22 UNL     1       0.415  68.171 -39.179  1.00  0.00     0.022 C 
HETATM   16  C23 UNL     1      -0.439  69.262 -38.558  1.00  0.00     0.080 C 
HETATM   17  C24 UNL     1      -0.469  70.444 -39.508  1.00  0.00     0.135 C 
HETATM   18  O4  UNL     1      -1.513  71.069 -39.694  1.00  0.00    -0.297 OA
HETATM   19  C25 UNL     1       0.851  70.829 -40.212  1.00  0.00     0.018 C 
HETATM   20  C26 UNL     1       0.739  70.463 -41.696  1.00  0.00     0.023 C 
HETATM   21  C27 UNL     1       0.987  72.365 -40.107  1.00  0.00     0.023 C 
HETATM   22  C28 UNL     1       2.025  70.129 -39.457  1.00  0.00     0.016 C 
HETATM   23  C29 UNL     1       3.446  70.505 -39.912  1.00  0.00     0.043 C 
HETATM   24  C30 UNL     1       4.493  70.006 -38.897  1.00  0.00     0.149 C 
ENDROOT
BRANCH   1  25
HETATM   25  C2  UNL     1       6.825  65.154 -35.664  1.00  0.00    -0.014 C 
HETATM   26  C1  UNL     1       8.102  65.003 -36.505  1.00  0.00     0.010 C 
BRANCH  25  27
HETATM   27  C3  UNL     1       5.850  64.027 -36.113  1.00  0.00     0.007 C 
BRANCH  27  28
HETATM   28  C4  UNL     1       5.898  62.739 -35.273  1.00  0.00     0.035 C 
BRANCH  28  29
HETATM   29  C5  UNL     1       5.806  63.029 -33.761  1.00  0.00     0.151 C 
BRANCH  29  30
HETATM   30  O1  UNL     1       6.808  64.009 -33.451  1.00  0.00    -0.393 OA
HETATM   31  H10 UNL     1       6.393  64.877 -33.626  1.00  0.00     0.210 HD
ENDBRANCH  29  30
BRANCH  29  32
HETATM   32  C6  UNL     1       4.421  63.569 -33.294  1.00  0.00     0.076 C 
HETATM   33  C7  UNL     1       3.793  62.723 -32.182  1.00  0.00     0.048 C 
HETATM   34  C8  UNL     1       4.545  65.021 -32.816  1.00  0.00     0.048 C 
BRANCH  32  35
HETATM   35  O2  UNL     1       3.535  63.591 -34.427  1.00  0.00    -0.388 OA
HETATM   36  H17 UNL     1       3.216  62.685 -34.582  1.00  0.00     0.210 HD
ENDBRANCH  32  35
ENDBRANCH  29  32
ENDBRANCH  28  29
ENDBRANCH  27  28
ENDBRANCH  25  27
ENDBRANCH   1  25
BRANCH  24  37
HETATM   37  O5  UNL     1       4.839  71.114 -38.067  1.00  0.00    -0.391 OA
HETATM   38  H48 UNL     1       4.037  71.385 -37.588  1.00  0.00     0.210 HD
ENDBRANCH  24  37
TORSDOF 8
ENDMDL
MODEL 6
REMARK minimizedAffinity -9.26664066
REMARK CNNscore 0.650051892
REMARK CNNaffinity 7.25171089
REMARK  8 active torsions:
REMARK  status: ('A' for Active; 'I' for Inactive)
REMARK    1  A    between atoms: C2_2  and  C3_3 
REMARK    2  A    between atoms: C2_2  and  C9_11 
REMARK    3  A    between atoms: C3_3  and  C4_4 
REMARK    4  A    between atoms: C4_4  and  C5_5 
REMARK    5  A    between atoms: C5_5  and  O1_6 
REMARK    6  A    between atoms: C5_5  and  C6_7 
REMARK    7  A    between atoms: C6_7  and  O2_10 
REMARK    8  A    between atoms: C30_34  and  O5_35 
ROOT
HETATM    1  C9  UNL     1      -4.164  50.062 -25.096  1.00  0.00    -0.001 C 
HETATM    2  C10 UNL     1      -5.561  49.631 -24.573  1.00  0.00     0.007 C 
HETATM    3  C11 UNL     1      -5.492  49.565 -23.037  1.00  0.00     0.015 C 
HETATM    4  C12 UNL     1      -4.174  50.264 -22.667  1.00  0.00    -0.009 C 
HETATM    5  C13 UNL     1      -4.456  51.799 -22.633  1.00  0.00     0.021 C 
HETATM    6  C14 UNL     1      -3.494  49.909 -21.342  1.00  0.00    -0.032 C 
HETATM    7  C15 UNL     1      -2.151  50.088 -21.197  1.00  0.00     0.002 C 
HETATM    8  C16 UNL     1      -1.416  50.729 -22.349  1.00  0.00     0.157 C 
HETATM    9  O3  UNL     1      -0.412  51.412 -22.154  1.00  0.00    -0.293 OA
HETATM   10  C17 UNL     1      -1.948  50.590 -23.774  1.00  0.00     0.094 C 
HETATM   11  C18 UNL     1      -3.251  49.788 -23.853  1.00  0.00    -0.022 C 
HETATM   12  C19 UNL     1      -2.903  48.267 -23.795  1.00  0.00     0.017 C 
HETATM   13  C20 UNL     1      -1.417  49.653 -19.908  1.00  0.00    -0.008 C 
HETATM   14  C21 UNL     1      -1.157  48.132 -20.110  1.00  0.00     0.021 C 
HETATM   15  C22 UNL     1      -0.026  50.269 -19.579  1.00  0.00     0.022 C 
HETATM   16  C23 UNL     1      -0.116  51.523 -18.728  1.00  0.00     0.080 C 
HETATM   17  C24 UNL     1      -0.648  51.136 -17.361  1.00  0.00     0.135 C 
HETATM   18  O4  UNL     1      -0.177  51.640 -16.342  1.00  0.00    -0.297 OA
HETATM   19  C25 UNL     1      -1.797  50.104 -17.307  1.00  0.00     0.018 C 
HETATM   20  C26 UNL     1      -1.247  48.787 -16.749  1.00  0.00     0.023 C 
HETATM   21  C27 UNL     1      -2.844  50.648 -16.308  1.00  0.00     0.023 C 
HETATM   22  C28 UNL     1      -2.418  49.996 -18.736  1.00  0.00     0.016 C 
HETATM   23  C29 UNL     1      -3.681  49.126 -18.864  1.00  0.00     0.043 C 
HETATM   24  C30 UNL     1      -4.366  49.357 -20.225  1.00  0.00     0.149 C 
ENDROOT
BRANCH   1  25
HETATM   25  C2  UNL     1      -3.801  49.434 -26.478  1.00  0.00    -0.014 C 
HETATM   26  C1  UNL     1      -2.668  48.403 -26.349  1.00  0.00     0.010 C 
BRANCH  25  27
HETATM   27  C3  UNL     1      -3.338  50.486 -27.529  1.00  0.00     0.007 C 
BRANCH  27  28
HETATM   28  C4  UNL     1      -1.903  51.010 -27.350  1.00  0.00     0.035 C 
BRANCH  28  29
HETATM   29  C5  UNL     1      -1.844  52.550 -27.353  1.00  0.00     0.151 C 
BRANCH  29  30
HETATM   30  O1  UNL     1      -2.724  53.015 -26.319  1.00  0.00    -0.393 OA
HETATM   31  H10 UNL     1      -2.193  53.013 -25.498  1.00  0.00     0.210 HD
ENDBRANCH  29  30
BRANCH  29  32
HETATM   32  C6  UNL     1      -0.424  53.139 -27.099  1.00  0.00     0.076 C 
HETATM   33  C7  UNL     1      -0.034  53.147 -25.617  1.00  0.00     0.048 C 
HETATM   34  C8  UNL     1       0.631  52.359 -27.894  1.00  0.00     0.048 C 
BRANCH  32  35
HETATM   35  O2  UNL     1      -0.392  54.487 -27.601  1.00  0.00    -0.388 OA
HETATM   36  H17 UNL     1      -0.832  55.064 -26.953  1.00  0.00     0.210 HD
ENDBRANCH  32  35
ENDBRANCH  29  32
ENDBRANCH  28  29
ENDBRANCH  27  28
ENDBRANCH  25  27
ENDBRANCH   1  25
BRANCH  24  37
HETATM   37  O5  UNL     1      -5.438  50.273 -20.009  1.00  0.00    -0.391 OA
HETATM   38  H48 UNL     1      -5.052  51.112 -19.702  1.00  0.00     0.210 HD
ENDBRANCH  24  37
TORSDOF 8
ENDMDL
MODEL 7
REMARK minimizedAffinity -7.72117043
REMARK CNNscore 0.595313609
REMARK CNNaffinity 6.36322784
REMARK  8 active torsions:
REMARK  status: ('A' for Active; 'I' for Inactive)
REMARK    1  A    between atoms: C2_2  and  C3_3 
REMARK    2  A    between atoms: C2_2  and  C9_11 
REMARK    3  A    between atoms: C3_3  and  C4_4 
REMARK    4  A    between atoms: C4_4  and  C5_5 
REMARK    5  A    between atoms: C5_5  and  O1_6 
REMARK    6  A    between atoms: C5_5  and  C6_7 
REMARK    7  A    between atoms: C6_7  and  O2_10 
REMARK    8  A    between atoms: C30_34  and  O5_35 
ROOT
HETATM    1  C9  UNL     1     -12.979  45.681 -27.068  1.00  0.00    -0.001 C 
HETATM    2  C10 UNL     1     -13.388  44.453 -27.926  1.00  0.00     0.007 C 
HETATM    3  C11 UNL     1     -12.292  44.228 -28.983  1.00  0.00     0.015 C 
HETATM    4  C12 UNL     1     -11.115  45.108 -28.531  1.00  0.00    -0.009 C 
HETATM    5  C13 UNL     1     -10.314  44.299 -27.464  1.00  0.00     0.021 C 
HETATM    6  C14 UNL     1     -10.104  45.587 -29.576  1.00  0.00    -0.032 C 
HETATM    7  C15 UNL     1      -9.380  46.720 -29.353  1.00  0.00     0.002 C 
HETATM    8  C16 UNL     1      -9.558  47.396 -28.016  1.00  0.00     0.157 C 
HETATM    9  O3  UNL     1      -8.637  48.030 -27.503  1.00  0.00    -0.293 OA
HETATM   10  C17 UNL     1     -10.869  47.248 -27.248  1.00  0.00     0.094 C 
HETATM   11  C18 UNL     1     -11.890  46.359 -27.966  1.00  0.00    -0.022 C 
HETATM   12  C19 UNL     1     -12.592  47.205 -29.074  1.00  0.00     0.017 C 
HETATM   13  C20 UNL     1      -8.420  47.283 -30.426  1.00  0.00    -0.008 C 
HETATM   14  C21 UNL     1      -9.344  48.101 -31.375  1.00  0.00     0.021 C 
HETATM   15  C22 UNL     1      -7.293  48.267 -29.998  1.00  0.00     0.022 C 
HETATM   16  C23 UNL     1      -5.990  47.567 -29.652  1.00  0.00     0.080 C 
HETATM   17  C24 UNL     1      -5.434  46.942 -30.918  1.00  0.00     0.135 C 
HETATM   18  O4  UNL     1      -4.227  46.987 -31.157  1.00  0.00    -0.297 OA
HETATM   19  C25 UNL     1      -6.431  46.250 -31.872  1.00  0.00     0.018 C 
HETATM   20  C26 UNL     1      -6.578  47.107 -33.134  1.00  0.00     0.023 C 
HETATM   21  C27 UNL     1      -5.801  44.899 -32.281  1.00  0.00     0.023 C 
HETATM   22  C28 UNL     1      -7.763  46.010 -31.091  1.00  0.00     0.016 C 
HETATM   23  C29 UNL     1      -8.842  45.193 -31.821  1.00  0.00     0.043 C 
HETATM   24  C30 UNL     1      -9.953  44.761 -30.844  1.00  0.00     0.149 C 
ENDROOT
BRANCH   1  25
HETATM   25  C2  UNL     1     -14.197  46.515 -26.562  1.00  0.00    -0.014 C 
HETATM   26  C1  UNL     1     -14.016  46.944 -25.096  1.00  0.00     0.010 C 
BRANCH  25  27
HETATM   27  C3  UNL     1     -15.547  45.744 -26.645  1.00  0.00     0.007 C 
BRANCH  27  28
HETATM   28  C4  UNL     1     -16.382  45.734 -25.354  1.00  0.00     0.035 C 
BRANCH  28  29
HETATM   29  C5  UNL     1     -17.894  45.635 -25.641  1.00  0.00     0.151 C 
BRANCH  29  30
HETATM   30  O1  UNL     1     -18.222  44.241 -25.729  1.00  0.00    -0.393 OA
HETATM   31  H10 UNL     1     -18.395  43.950 -24.811  1.00  0.00     0.210 HD
ENDBRANCH  29  30
BRANCH  29  32
HETATM   32  C6  UNL     1     -18.799  46.291 -24.556  1.00  0.00     0.076 C 
HETATM   33  C7  UNL     1     -20.181  45.639 -24.453  1.00  0.00     0.048 C 
HETATM   34  C8  UNL     1     -18.113  46.242 -23.184  1.00  0.00     0.048 C 
BRANCH  32  35
HETATM   35  O2  UNL     1     -18.958  47.685 -24.877  1.00  0.00    -0.388 OA
HETATM   36  H17 UNL     1     -19.620  47.760 -25.586  1.00  0.00     0.210 HD
ENDBRANCH  32  35
ENDBRANCH  29  32
ENDBRANCH  28  29
ENDBRANCH  27  28
ENDBRANCH  25  27
ENDBRANCH   1  25
BRANCH  24  37
HETATM   37  O5  UNL     1      -9.680  43.414 -30.463  1.00  0.00    -0.391 OA
HETATM   38  H48 UNL     1      -8.827  43.406 -29.996  1.00  0.00     0.210 HD
ENDBRANCH  24  37
TORSDOF 8
ENDMDL
MODEL 8
REMARK minimizedAffinity -7.13100719
REMARK CNNscore 0.577340364
REMARK CNNaffinity 6.1455121
REMARK  8 active torsions:
REMARK  status: ('A' for Active; 'I' for Inactive)
REMARK    1  A    between atoms: C2_2  and  C3_3 
REMARK    2  A    between atoms: C2_2  and  C9_11 
REMARK    3  A    between atoms: C3_3  and  C4_4 
REMARK    4  A    between atoms: C4_4  and  C5_5 
REMARK    5  A    between atoms: C5_5  and  O1_6 
REMARK    6  A    between atoms: C5_5  and  C6_7 
REMARK    7  A    between atoms: C6_7  and  O2_10 
REMARK    8  A    between atoms: C30_34  and  O5_35 
ROOT
HETATM    1  C9  UNL     1     -12.985  45.299 -27.013  1.00  0.00    -0.001 C 
HETATM    2  C10 UNL     1     -13.142  43.900 -27.667  1.00  0.00     0.007 C 
HETATM    3  C11 UNL     1     -11.977  43.705 -28.654  1.00  0.00     0.015 C 
HETATM    4  C12 UNL     1     -10.987  44.835 -28.330  1.00  0.00    -0.009 C 
HETATM    5  C13 UNL     1     -10.110  44.355 -27.131  1.00  0.00     0.021 C 
HETATM    6  C14 UNL     1     -10.024  45.312 -29.421  1.00  0.00    -0.032 C 
HETATM    7  C15 UNL     1      -9.511  46.573 -29.372  1.00  0.00     0.002 C 
HETATM    8  C16 UNL     1      -9.861  47.410 -28.166  1.00  0.00     0.157 C 
HETATM    9  O3  UNL     1      -9.085  48.266 -27.747  1.00  0.00    -0.293 OA
HETATM   10  C17 UNL     1     -11.163  47.160 -27.407  1.00  0.00     0.094 C 
HETATM   11  C18 UNL     1     -11.985  46.006 -27.990  1.00  0.00    -0.022 C 
HETATM   12  C19 UNL     1     -12.769  46.533 -29.234  1.00  0.00     0.017 C 
HETATM   13  C20 UNL     1      -8.612  47.118 -30.504  1.00  0.00    -0.008 C 
HETATM   14  C21 UNL     1      -9.615  47.605 -31.590  1.00  0.00     0.021 C 
HETATM   15  C22 UNL     1      -7.687  48.337 -30.222  1.00  0.00     0.022 C 
HETATM   16  C23 UNL     1      -6.302  47.937 -29.743  1.00  0.00     0.080 C 
HETATM   17  C24 UNL     1      -5.591  47.227 -30.880  1.00  0.00     0.135 C 
HETATM   18  O4  UNL     1      -4.399  47.442 -31.102  1.00  0.00    -0.297 OA
HETATM   19  C25 UNL     1      -6.413  46.231 -31.727  1.00  0.00     0.018 C 
HETATM   20  C26 UNL     1      -6.644  46.840 -33.114  1.00  0.00     0.023 C 
HETATM   21  C27 UNL     1      -5.547  44.962 -31.899  1.00  0.00     0.023 C 
HETATM   22  C28 UNL     1      -7.720  45.890 -30.941  1.00  0.00     0.016 C 
HETATM   23  C29 UNL     1      -8.612  44.794 -31.548  1.00  0.00     0.043 C 
HETATM   24  C30 UNL     1      -9.678  44.335 -30.534  1.00  0.00     0.149 C 
ENDROOT
BRANCH   1  25
HETATM   25  C2  UNL     1     -14.348  45.979 -26.672  1.00  0.00    -0.014 C 
HETATM   26  C1  UNL     1     -14.266  46.779 -25.362  1.00  0.00     0.010 C 
BRANCH  25  27
HETATM   27  C3  UNL     1     -15.518  44.964 -26.510  1.00  0.00     0.007 C 
BRANCH  27  28
HETATM   28  C4  UNL     1     -16.518  44.919 -27.678  1.00  0.00     0.035 C 
BRANCH  28  29
HETATM   29  C5  UNL     1     -17.881  44.339 -27.251  1.00  0.00     0.151 C 
BRANCH  29  30
HETATM   30  O1  UNL     1     -18.830  45.415 -27.269  1.00  0.00    -0.393 OA
HETATM   31  H10 UNL     1     -19.158  45.465 -28.189  1.00  0.00     0.210 HD
ENDBRANCH  29  30
BRANCH  29  32
HETATM   32  C6  UNL     1     -18.409  43.196 -28.170  1.00  0.00     0.076 C 
HETATM   33  C7  UNL     1     -19.937  43.164 -28.269  1.00  0.00     0.048 C 
HETATM   34  C8  UNL     1     -17.814  43.322 -29.579  1.00  0.00     0.048 C 
BRANCH  32  35
HETATM   35  O2  UNL     1     -17.944  41.939 -27.646  1.00  0.00    -0.388 OA
HETATM   36  H17 UNL     1     -18.508  41.697 -26.891  1.00  0.00     0.210 HD
ENDBRANCH  32  35
ENDBRANCH  29  32
ENDBRANCH  28  29
ENDBRANCH  27  28
ENDBRANCH  25  27
ENDBRANCH   1  25
BRANCH  24  37
HETATM   37  O5  UNL     1      -9.201  43.132 -29.934  1.00  0.00    -0.391 OA
HETATM   38  H48 UNL     1      -8.381  43.346 -29.456  1.00  0.00     0.210 HD
ENDBRANCH  24  37
TORSDOF 8
ENDMDL
MODEL 9
REMARK minimizedAffinity -7.82609129
REMARK CNNscore 0.544900417
REMARK CNNaffinity 6.10651731
REMARK  8 active torsions:
REMARK  status: ('A' for Active; 'I' for Inactive)
REMARK    1  A    between atoms: C2_2  and  C3_3 
REMARK    2  A    between atoms: C2_2  and  C9_11 
REMARK    3  A    between atoms: C3_3  and  C4_4 
REMARK    4  A    between atoms: C4_4  and  C5_5 
REMARK    5  A    between atoms: C5_5  and  O1_6 
REMARK    6  A    between atoms: C5_5  and  C6_7 
REMARK    7  A    between atoms: C6_7  and  O2_10 
REMARK    8  A    between atoms: C30_34  and  O5_35 
ROOT
HETATM    1  C9  UNL     1     -13.468  46.290 -27.831  1.00  0.00    -0.001 C 
HETATM    2  C10 UNL     1     -13.003  47.272 -26.722  1.00  0.00     0.007 C 
HETATM    3  C11 UNL     1     -11.577  47.736 -27.067  1.00  0.00     0.015 C 
HETATM    4  C12 UNL     1     -11.352  47.285 -28.520  1.00  0.00    -0.009 C 
HETATM    5  C13 UNL     1     -11.979  48.374 -29.446  1.00  0.00     0.021 C 
HETATM    6  C14 UNL     1      -9.920  47.056 -29.010  1.00  0.00    -0.032 C 
HETATM    7  C15 UNL     1      -9.686  46.212 -30.055  1.00  0.00     0.002 C 
HETATM    8  C16 UNL     1     -10.891  45.614 -30.737  1.00  0.00     0.157 C 
HETATM    9  O3  UNL     1     -10.859  45.325 -31.932  1.00  0.00    -0.293 OA
HETATM   10  C17 UNL     1     -12.194  45.418 -29.966  1.00  0.00     0.094 C 
HETATM   11  C18 UNL     1     -12.112  45.905 -28.515  1.00  0.00    -0.022 C 
HETATM   12  C19 UNL     1     -11.400  44.808 -27.662  1.00  0.00     0.017 C 
HETATM   13  C20 UNL     1      -8.247  45.885 -30.515  1.00  0.00    -0.008 C 
HETATM   14  C21 UNL     1      -7.781  44.761 -29.546  1.00  0.00     0.021 C 
HETATM   15  C22 UNL     1      -8.016  45.319 -31.946  1.00  0.00     0.022 C 
HETATM   16  C23 UNL     1      -7.764  46.400 -32.982  1.00  0.00     0.080 C 
HETATM   17  C24 UNL     1      -6.440  47.068 -32.663  1.00  0.00     0.135 C 
HETATM   18  O4  UNL     1      -5.660  47.370 -33.565  1.00  0.00    -0.297 OA
HETATM   19  C25 UNL     1      -6.125  47.358 -31.179  1.00  0.00     0.018 C 
HETATM   20  C26 UNL     1      -5.015  46.406 -30.719  1.00  0.00     0.023 C 
HETATM   21  C27 UNL     1      -5.577  48.802 -31.107  1.00  0.00     0.023 C 
HETATM   22  C28 UNL     1      -7.455  47.244 -30.369  1.00  0.00     0.016 C 
HETATM   23  C29 UNL     1      -7.385  47.645 -28.886  1.00  0.00     0.043 C 
HETATM   24  C30 UNL     1      -8.800  47.794 -28.293  1.00  0.00     0.149 C 
ENDROOT
BRANCH   1  25
HETATM   25  C2  UNL     1     -14.418  45.168 -27.306  1.00  0.00    -0.014 C 
HETATM   26  C1  UNL     1     -15.351  44.655 -28.415  1.00  0.00     0.010 C 
BRANCH  25  27
HETATM   27  C3  UNL     1     -15.326  45.632 -26.129  1.00  0.00     0.007 C 
BRANCH  27  28
HETATM   28  C4  UNL     1     -16.658  44.877 -25.985  1.00  0.00     0.035 C 
BRANCH  28  29
HETATM   29  C5  UNL     1     -17.873  45.816 -26.111  1.00  0.00     0.151 C 
BRANCH  29  30
HETATM   30  O1  UNL     1     -18.638  45.378 -27.244  1.00  0.00    -0.393 OA
HETATM   31  H10 UNL     1     -19.234  44.679 -26.908  1.00  0.00     0.210 HD
ENDBRANCH  29  30
BRANCH  29  32
HETATM   32  C6  UNL     1     -18.803  45.835 -24.862  1.00  0.00     0.076 C 
HETATM   33  C7  UNL     1     -19.390  44.460 -24.530  1.00  0.00     0.048 C 
HETATM   34  C8  UNL     1     -18.048  46.371 -23.638  1.00  0.00     0.048 C 
BRANCH  32  35
HETATM   35  O2  UNL     1     -19.879  46.759 -25.108  1.00  0.00    -0.388 OA
HETATM   36  H17 UNL     1     -20.531  46.321 -25.682  1.00  0.00     0.210 HD
ENDBRANCH  32  35
ENDBRANCH  29  32
ENDBRANCH  28  29
ENDBRANCH  27  28
ENDBRANCH  25  27
ENDBRANCH   1  25
BRANCH  24  37
HETATM   37  O5  UNL     1      -9.115  49.185 -28.297  1.00  0.00    -0.391 OA
HETATM   38  H48 UNL     1      -9.126  49.482 -29.224  1.00  0.00     0.210 HD
ENDBRANCH  24  37
TORSDOF 8
ENDMDL
