MODEL 1
REMARK minimizedAffinity -8.86250782
REMARK CNNscore 0.441150188
REMARK CNNaffinity 6.1038475
REMARK  11 active torsions:
REMARK  status: ('A' for Active; 'I' for Inactive)
REMARK    1  A    between atoms: C2_2  and  C4_4 
REMARK    2  A    between atoms: C4_4  and  C6_6 
REMARK    3  A    between atoms: C7_7  and  C8_8 
REMARK    4  A    between atoms: C8_8  and  C10_10 
REMARK    5  A    between atoms: C24_24  and  O1_25 
REMARK    6  A    between atoms: O1_25  and  C25_26 
REMARK    7  A    between atoms: C26_28  and  C27_29 
REMARK    8  A    between atoms: C27_29  and  O3_30 
REMARK    9  A    between atoms: C28_31  and  O4_32 
REMARK   10  A    between atoms: C29_33  and  O5_34 
REMARK   11  A    between atoms: C30_35  and  O6_36 
ROOT
HETATM    1  C10 UNL     1      -6.701  47.256 -27.906  1.00  0.00     0.002 C 
HETATM    2  C11 UNL     1      -6.623  47.575 -26.390  1.00  0.00     0.006 C 
HETATM    3  C12 UNL     1      -8.006  47.239 -25.802  1.00  0.00     0.009 C 
HETATM    4  C13 UNL     1      -8.753  46.580 -26.957  1.00  0.00     0.041 C 
HETATM    5  C14 UNL     1      -8.225  47.295 -28.224  1.00  0.00    -0.029 C 
HETATM    6  C15 UNL     1      -8.758  48.730 -28.401  1.00  0.00     0.016 C 
HETATM    7  C16 UNL     1      -8.640  46.440 -29.446  1.00  0.00     0.037 C 
HETATM    8  C17 UNL     1     -10.082  45.980 -29.376  1.00  0.00    -0.019 C 
HETATM    9  C18 UNL     1     -10.827  45.985 -28.248  1.00  0.00    -0.030 C 
HETATM   10  C19 UNL     1     -10.277  46.427 -26.878  1.00  0.00     0.142 C 
HETATM   11  C20 UNL     1     -11.087  47.603 -26.374  1.00  0.00     0.018 C 
HETATM   12  C21 UNL     1     -12.404  47.358 -26.283  1.00  0.00     0.014 C 
HETATM   13  C22 UNL     1     -12.770  45.939 -26.684  1.00  0.00     0.127 C 
HETATM   14  C23 UNL     1     -14.246  45.609 -26.425  1.00  0.00     0.078 C 
HETATM   15  C24 UNL     1     -14.693  44.263 -27.038  1.00  0.00     0.128 C 
HETATM   16  C31 UNL     1     -13.525  43.398 -27.522  1.00  0.00     0.033 C 
HETATM   17  C32 UNL     1     -12.557  44.114 -28.478  1.00  0.00     0.020 C 
HETATM   18  C33 UNL     1     -12.324  45.616 -28.158  1.00  0.00     0.021 C 
HETATM   19  C34 UNL     1     -13.098  46.491 -29.174  1.00  0.00     0.024 C 
HETATM   20  O7  UNL     1     -11.997  45.101 -25.775  1.00  0.00    -0.223 OA
HETATM   21  O8  UNL     1     -10.530  45.326 -25.965  1.00  0.00    -0.219 OA
ENDROOT
BRANCH  15  22
HETATM   22  O1  UNL     1     -15.610  44.573 -28.099  1.00  0.00    -0.353 OA
BRANCH  22  23
HETATM   23  C25 UNL     1     -16.984  44.278 -27.800  1.00  0.00     0.292 C 
HETATM   24  O2  UNL     1     -17.443  45.052 -26.697  1.00  0.00    -0.348 OA
HETATM   25  C26 UNL     1     -18.878  44.978 -26.570  1.00  0.00     0.179 C 
HETATM   26  C28 UNL     1     -19.431  43.556 -26.856  1.00  0.00     0.180 C 
HETATM   27  C29 UNL     1     -18.355  42.475 -26.638  1.00  0.00     0.183 C 
HETATM   28  C30 UNL     1     -17.046  42.790 -27.395  1.00  0.00     0.204 C 
BRANCH  25  29
HETATM   29  C27 UNL     1     -19.240  45.484 -25.168  1.00  0.00     0.198 C 
BRANCH  29  30
HETATM   30  O3  UNL     1     -19.964  46.708 -25.232  1.00  0.00    -0.398 OA
HETATM   31  H39 UNL     1     -19.685  47.238 -24.462  1.00  0.00     0.209 HD
ENDBRANCH  29  30
ENDBRANCH  25  29
BRANCH  26  32
HETATM   32  O4  UNL     1     -19.850  43.513 -28.234  1.00  0.00    -0.390 OA
HETATM   33  H41 UNL     1     -20.259  42.641 -28.385  1.00  0.00     0.210 HD
ENDBRANCH  26  32
BRANCH  27  34
HETATM   34  O5  UNL     1     -18.104  42.315 -25.233  1.00  0.00    -0.390 OA
HETATM   35  H43 UNL     1     -17.505  43.026 -24.941  1.00  0.00     0.210 HD
ENDBRANCH  27  34
BRANCH  28  36
HETATM   36  O6  UNL     1     -16.911  41.958 -28.557  1.00  0.00    -0.388 OA
HETATM   37  H45 UNL     1     -16.059  42.211 -28.961  1.00  0.00     0.210 HD
ENDBRANCH  28  36
ENDBRANCH  22  23
ENDBRANCH  15  22
BRANCH   1  38
HETATM   38  C8  UNL     1      -5.714  48.020 -28.826  1.00  0.00     0.008 C 
HETATM   39  C9  UNL     1      -5.552  47.263 -30.151  1.00  0.00     0.014 C 
BRANCH  38  40
HETATM   40  C7  UNL     1      -4.327  48.268 -28.274  1.00  0.00    -0.026 C 
HETATM   41  C6  UNL     1      -4.078  48.681 -27.018  1.00  0.00    -0.026 C 
BRANCH  41  42
HETATM   42  C4  UNL     1      -2.734  48.995 -26.379  1.00  0.00     0.007 C 
HETATM   43  C5  UNL     1      -2.889  48.901 -24.854  1.00  0.00     0.014 C 
BRANCH  42  44
HETATM   44  C2  UNL     1      -2.047  50.320 -26.835  1.00  0.00    -0.015 C 
HETATM   45  C1  UNL     1      -0.790  50.613 -25.999  1.00  0.00     0.010 C 
HETATM   46  C3  UNL     1      -2.969  51.547 -26.803  1.00  0.00     0.010 C 
ENDBRANCH  42  44
ENDBRANCH  41  42
ENDBRANCH  38  40
ENDBRANCH   1  38
TORSDOF 11
ENDMDL
MODEL 2
REMARK minimizedAffinity -9.90210247
REMARK CNNscore 0.3508766
REMARK CNNaffinity 6.99746132
REMARK  11 active torsions:
REMARK  status: ('A' for Active; 'I' for Inactive)
REMARK    1  A    between atoms: C2_2  and  C4_4 
REMARK    2  A    between atoms: C4_4  and  C6_6 
REMARK    3  A    between atoms: C7_7  and  C8_8 
REMARK    4  A    between atoms: C8_8  and  C10_10 
REMARK    5  A    between atoms: C24_24  and  O1_25 
REMARK    6  A    between atoms: O1_25  and  C25_26 
REMARK    7  A    between atoms: C26_28  and  C27_29 
REMARK    8  A    between atoms: C27_29  and  O3_30 
REMARK    9  A    between atoms: C28_31  and  O4_32 
REMARK   10  A    between atoms: C29_33  and  O5_34 
REMARK   11  A    between atoms: C30_35  and  O6_36 
ROOT
HETATM    1  C10 UNL     1      -0.606  50.336 -21.857  1.00  0.00     0.002 C 
HETATM    2  C11 UNL     1      -0.441  49.377 -20.649  1.00  0.00     0.006 C 
HETATM    3  C12 UNL     1      -1.759  48.589 -20.535  1.00  0.00     0.009 C 
HETATM    4  C13 UNL     1      -2.548  48.998 -21.775  1.00  0.00     0.041 C 
HETATM    5  C14 UNL     1      -2.148  50.472 -22.025  1.00  0.00    -0.029 C 
HETATM    6  C15 UNL     1      -2.769  51.467 -21.026  1.00  0.00     0.016 C 
HETATM    7  C16 UNL     1      -2.599  50.838 -23.460  1.00  0.00     0.037 C 
HETATM    8  C17 UNL     1      -4.006  50.367 -23.769  1.00  0.00    -0.019 C 
HETATM    9  C18 UNL     1      -4.670  49.435 -23.050  1.00  0.00    -0.030 C 
HETATM   10  C19 UNL     1      -4.052  48.706 -21.841  1.00  0.00     0.142 C 
HETATM   11  C20 UNL     1      -4.888  48.989 -20.610  1.00  0.00     0.018 C 
HETATM   12  C21 UNL     1      -6.181  48.648 -20.740  1.00  0.00     0.014 C 
HETATM   13  C22 UNL     1      -6.495  48.030 -22.091  1.00  0.00     0.127 C 
HETATM   14  C23 UNL     1      -7.930  47.492 -22.180  1.00  0.00     0.078 C 
HETATM   15  C24 UNL     1      -8.345  47.076 -23.610  1.00  0.00     0.128 C 
HETATM   16  C31 UNL     1      -7.167  47.006 -24.587  1.00  0.00     0.033 C 
HETATM   17  C32 UNL     1      -6.308  48.279 -24.640  1.00  0.00     0.020 C 
HETATM   18  C33 UNL     1      -6.135  49.002 -23.276  1.00  0.00     0.021 C 
HETATM   19  C34 UNL     1      -7.024  50.269 -23.241  1.00  0.00     0.024 C 
HETATM   20  O7  UNL     1      -5.617  46.869 -22.165  1.00  0.00    -0.223 OA
HETATM   21  O8  UNL     1      -4.181  47.286 -22.114  1.00  0.00    -0.219 OA
ENDROOT
BRANCH  15  22
HETATM   22  O1  UNL     1      -9.348  48.009 -24.040  1.00  0.00    -0.353 OA
BRANCH  22  23
HETATM   23  C25 UNL     1      -9.794  47.817 -25.392  1.00  0.00     0.292 C 
HETATM   24  O2  UNL     1      -9.349  46.565 -25.902  1.00  0.00    -0.348 OA
HETATM   25  C26 UNL     1     -10.020  46.238 -27.138  1.00  0.00     0.179 C 
HETATM   26  C28 UNL     1     -10.211  47.473 -28.058  1.00  0.00     0.180 C 
HETATM   27  C29 UNL     1      -9.186  48.579 -27.744  1.00  0.00     0.183 C 
HETATM   28  C30 UNL     1      -9.147  48.932 -26.241  1.00  0.00     0.204 C 
BRANCH  25  29
HETATM   29  C27 UNL     1      -9.219  45.116 -27.810  1.00  0.00     0.198 C 
BRANCH  29  30
HETATM   30  O3  UNL     1      -8.601  44.273 -26.843  1.00  0.00    -0.398 OA
HETATM   31  H39 UNL     1      -7.743  43.999 -27.219  1.00  0.00     0.209 HD
ENDBRANCH  29  30
ENDBRANCH  25  29
BRANCH  26  32
HETATM   32  O4  UNL     1     -11.534  47.997 -27.827  1.00  0.00    -0.390 OA
HETATM   33  H41 UNL     1     -11.670  48.728 -28.458  1.00  0.00     0.210 HD
ENDBRANCH  26  32
BRANCH  27  34
HETATM   34  O5  UNL     1      -7.885  48.182 -28.208  1.00  0.00    -0.390 OA
HETATM   35  H43 UNL     1      -7.493  47.577 -27.552  1.00  0.00     0.210 HD
ENDBRANCH  27  34
BRANCH  28  36
HETATM   36  O6  UNL     1      -9.802  50.185 -25.990  1.00  0.00    -0.388 OA
HETATM   37  H45 UNL     1      -9.717  50.335 -25.029  1.00  0.00     0.210 HD
ENDBRANCH  28  36
ENDBRANCH  22  23
ENDBRANCH  15  22
BRANCH   1  38
HETATM   38  C8  UNL     1       0.272  51.614 -21.849  1.00  0.00     0.008 C 
HETATM   39  C9  UNL     1      -0.124  52.506 -20.663  1.00  0.00     0.014 C 
BRANCH  38  40
HETATM   40  C7  UNL     1       0.230  52.473 -23.094  1.00  0.00    -0.026 C 
HETATM   41  C6  UNL     1       0.501  52.021 -24.332  1.00  0.00    -0.026 C 
BRANCH  41  42
HETATM   42  C4  UNL     1       0.527  52.802 -25.636  1.00  0.00     0.007 C 
HETATM   43  C5  UNL     1      -0.918  52.972 -26.127  1.00  0.00     0.014 C 
BRANCH  42  44
HETATM   44  C2  UNL     1       1.481  52.261 -26.746  1.00  0.00    -0.015 C 
HETATM   45  C1  UNL     1       0.692  51.778 -27.973  1.00  0.00     0.010 C 
HETATM   46  C3  UNL     1       2.416  51.137 -26.274  1.00  0.00     0.010 C 
ENDBRANCH  42  44
ENDBRANCH  41  42
ENDBRANCH  38  40
ENDBRANCH   1  38
TORSDOF 11
ENDMDL
MODEL 3
REMARK minimizedAffinity -10.5559492
REMARK CNNscore 0.31703189
REMARK CNNaffinity 6.55462456
REMARK  11 active torsions:
REMARK  status: ('A' for Active; 'I' for Inactive)
REMARK    1  A    between atoms: C2_2  and  C4_4 
REMARK    2  A    between atoms: C4_4  and  C6_6 
REMARK    3  A    between atoms: C7_7  and  C8_8 
REMARK    4  A    between atoms: C8_8  and  C10_10 
REMARK    5  A    between atoms: C24_24  and  O1_25 
REMARK    6  A    between atoms: O1_25  and  C25_26 
REMARK    7  A    between atoms: C26_28  and  C27_29 
REMARK    8  A    between atoms: C27_29  and  O3_30 
REMARK    9  A    between atoms: C28_31  and  O4_32 
REMARK   10  A    between atoms: C29_33  and  O5_34 
REMARK   11  A    between atoms: C30_35  and  O6_36 
ROOT
HETATM    1  C10 UNL     1      -8.793  48.163 -19.312  1.00  0.00     0.002 C 
HETATM    2  C11 UNL     1      -7.878  48.162 -18.059  1.00  0.00     0.006 C 
HETATM    3  C12 UNL     1      -6.473  48.564 -18.545  1.00  0.00     0.009 C 
HETATM    4  C13 UNL     1      -6.679  48.948 -20.007  1.00  0.00     0.041 C 
HETATM    5  C14 UNL     1      -7.804  48.007 -20.504  1.00  0.00    -0.029 C 
HETATM    6  C15 UNL     1      -7.353  46.550 -20.716  1.00  0.00     0.016 C 
HETATM    7  C16 UNL     1      -8.329  48.580 -21.843  1.00  0.00     0.037 C 
HETATM    8  C17 UNL     1      -7.214  48.996 -22.780  1.00  0.00    -0.019 C 
HETATM    9  C18 UNL     1      -5.933  49.196 -22.395  1.00  0.00    -0.030 C 
HETATM   10  C19 UNL     1      -5.463  49.062 -20.934  1.00  0.00     0.142 C 
HETATM   11  C20 UNL     1      -4.400  47.986 -20.851  1.00  0.00     0.018 C 
HETATM   12  C21 UNL     1      -3.345  48.200 -21.656  1.00  0.00     0.014 C 
HETATM   13  C22 UNL     1      -3.457  49.494 -22.444  1.00  0.00     0.127 C 
HETATM   14  C23 UNL     1      -2.184  49.820 -23.236  1.00  0.00     0.078 C 
HETATM   15  C24 UNL     1      -2.356  50.996 -24.223  1.00  0.00     0.128 C 
HETATM   16  C31 UNL     1      -3.653  51.783 -24.009  1.00  0.00     0.033 C 
HETATM   17  C32 UNL     1      -4.925  50.921 -23.994  1.00  0.00     0.020 C 
HETATM   18  C33 UNL     1      -4.753  49.524 -23.336  1.00  0.00     0.021 C 
HETATM   19  C34 UNL     1      -4.694  48.435 -24.434  1.00  0.00     0.024 C 
HETATM   20  O7  UNL     1      -3.577  50.525 -21.421  1.00  0.00    -0.223 OA
HETATM   21  O8  UNL     1      -4.812  50.317 -20.600  1.00  0.00    -0.219 OA
ENDROOT
BRANCH  15  22
HETATM   22  O1  UNL     1      -2.272  50.445 -25.547  1.00  0.00    -0.353 OA
BRANCH  22  23
HETATM   23  C25 UNL     1      -1.295  51.075 -26.390  1.00  0.00     0.292 C 
HETATM   24  O2  UNL     1       0.026  50.759 -25.964  1.00  0.00    -0.348 OA
HETATM   25  C26 UNL     1       1.000  51.145 -26.957  1.00  0.00     0.179 C 
HETATM   26  C28 UNL     1       0.662  52.502 -27.629  1.00  0.00     0.180 C 
HETATM   27  C29 UNL     1      -0.244  53.369 -26.734  1.00  0.00     0.183 C 
HETATM   28  C30 UNL     1      -1.490  52.599 -26.241  1.00  0.00     0.204 C 
BRANCH  25  29
HETATM   29  C27 UNL     1       2.373  51.147 -26.273  1.00  0.00     0.198 C 
BRANCH  29  30
HETATM   30  O3  UNL     1       3.400  51.532 -27.181  1.00  0.00    -0.398 OA
HETATM   31  H39 UNL     1       4.192  51.013 -26.944  1.00  0.00     0.209 HD
ENDBRANCH  29  30
ENDBRANCH  25  29
BRANCH  26  32
HETATM   32  O4  UNL     1      -0.039  52.225 -28.858  1.00  0.00    -0.390 OA
HETATM   33  H41 UNL     1      -0.185  53.079 -29.306  1.00  0.00     0.210 HD
ENDBRANCH  26  32
BRANCH  27  34
HETATM   34  O5  UNL     1       0.512  53.877 -25.624  1.00  0.00    -0.390 OA
HETATM   35  H43 UNL     1       0.579  53.178 -24.947  1.00  0.00     0.210 HD
ENDBRANCH  27  34
BRANCH  28  36
HETATM   36  O6  UNL     1      -2.666  53.017 -26.951  1.00  0.00    -0.388 OA
HETATM   37  H45 UNL     1      -3.399  52.497 -26.569  1.00  0.00     0.210 HD
ENDBRANCH  28  36
ENDBRANCH  22  23
ENDBRANCH  15  22
BRANCH   1  38
HETATM   38  C8  UNL     1     -10.053  47.261 -19.248  1.00  0.00     0.008 C 
HETATM   39  C9  UNL     1     -10.573  47.000 -20.669  1.00  0.00     0.014 C 
BRANCH  38  40
HETATM   40  C7  UNL     1     -11.215  47.777 -18.429  1.00  0.00    -0.026 C 
HETATM   41  C6  UNL     1     -12.452  47.247 -18.457  1.00  0.00    -0.026 C 
BRANCH  41  42
HETATM   42  C4  UNL     1     -13.693  47.709 -17.709  1.00  0.00     0.007 C 
HETATM   43  C5  UNL     1     -14.157  46.570 -16.791  1.00  0.00     0.014 C 
BRANCH  42  44
HETATM   44  C2  UNL     1     -14.849  48.289 -18.584  1.00  0.00    -0.015 C 
HETATM   45  C1  UNL     1     -15.478  49.527 -17.926  1.00  0.00     0.010 C 
HETATM   46  C3  UNL     1     -15.955  47.275 -18.911  1.00  0.00     0.010 C 
ENDBRANCH  42  44
ENDBRANCH  41  42
ENDBRANCH  38  40
ENDBRANCH   1  38
TORSDOF 11
ENDMDL
MODEL 4
REMARK minimizedAffinity -8.75744534
REMARK CNNscore 0.278277606
REMARK CNNaffinity 5.77251768
REMARK  11 active torsions:
REMARK  status: ('A' for Active; 'I' for Inactive)
REMARK    1  A    between atoms: C2_2  and  C4_4 
REMARK    2  A    between atoms: C4_4  and  C6_6 
REMARK    3  A    between atoms: C7_7  and  C8_8 
REMARK    4  A    between atoms: C8_8  and  C10_10 
REMARK    5  A    between atoms: C24_24  and  O1_25 
REMARK    6  A    between atoms: O1_25  and  C25_26 
REMARK    7  A    between atoms: C26_28  and  C27_29 
REMARK    8  A    between atoms: C27_29  and  O3_30 
REMARK    9  A    between atoms: C28_31  and  O4_32 
REMARK   10  A    between atoms: C29_33  and  O5_34 
REMARK   11  A    between atoms: C30_35  and  O6_36 
ROOT
HETATM    1  C10 UNL     1      -7.239  47.000 -29.288  1.00  0.00     0.002 C 
HETATM    2  C11 UNL     1      -6.798  45.517 -29.393  1.00  0.00     0.006 C 
HETATM    3  C12 UNL     1      -7.965  44.675 -28.845  1.00  0.00     0.009 C 
HETATM    4  C13 UNL     1      -9.083  45.687 -28.619  1.00  0.00     0.041 C 
HETATM    5  C14 UNL     1      -8.354  46.988 -28.201  1.00  0.00    -0.029 C 
HETATM    6  C15 UNL     1      -7.788  46.955 -26.769  1.00  0.00     0.016 C 
HETATM    7  C16 UNL     1      -9.371  48.149 -28.323  1.00  0.00     0.037 C 
HETATM    8  C17 UNL     1     -10.723  47.808 -27.729  1.00  0.00    -0.019 C 
HETATM    9  C18 UNL     1     -11.135  46.551 -27.452  1.00  0.00    -0.030 C 
HETATM   10  C19 UNL     1     -10.284  45.301 -27.749  1.00  0.00     0.142 C 
HETATM   11  C20 UNL     1     -10.019  44.563 -26.453  1.00  0.00     0.018 C 
HETATM   12  C21 UNL     1     -11.132  44.213 -25.787  1.00  0.00     0.014 C 
HETATM   13  C22 UNL     1     -12.404  44.621 -26.510  1.00  0.00     0.127 C 
HETATM   14  C23 UNL     1     -13.671  44.080 -25.834  1.00  0.00     0.078 C 
HETATM   15  C24 UNL     1     -14.978  44.672 -26.410  1.00  0.00     0.128 C 
HETATM   16  C31 UNL     1     -14.770  45.445 -27.715  1.00  0.00     0.033 C 
HETATM   17  C32 UNL     1     -13.687  46.534 -27.644  1.00  0.00     0.020 C 
HETATM   18  C33 UNL     1     -12.463  46.173 -26.758  1.00  0.00     0.021 C 
HETATM   19  C34 UNL     1     -12.544  46.945 -25.419  1.00  0.00     0.024 C 
HETATM   20  O7  UNL     1     -12.311  43.950 -27.801  1.00  0.00    -0.223 OA
HETATM   21  O8  UNL     1     -11.114  44.429 -28.562  1.00  0.00    -0.219 OA
ENDROOT
BRANCH  15  22
HETATM   22  O1  UNL     1     -15.551  45.494 -25.381  1.00  0.00    -0.353 OA
BRANCH  22  23
HETATM   23  C25 UNL     1     -16.852  45.074 -24.943  1.00  0.00     0.292 C 
HETATM   24  O2  UNL     1     -17.659  44.678 -26.048  1.00  0.00    -0.348 OA
HETATM   25  C26 UNL     1     -18.849  43.994 -25.604  1.00  0.00     0.179 C 
HETATM   26  C28 UNL     1     -19.466  44.630 -24.330  1.00  0.00     0.180 C 
HETATM   27  C29 UNL     1     -19.049  46.106 -24.175  1.00  0.00     0.183 C 
HETATM   28  C30 UNL     1     -17.521  46.298 -24.281  1.00  0.00     0.204 C 
BRANCH  25  29
HETATM   29  C27 UNL     1     -19.827  43.966 -26.785  1.00  0.00     0.198 C 
BRANCH  29  30
HETATM   30  O3  UNL     1     -19.134  43.982 -28.029  1.00  0.00    -0.398 OA
HETATM   31  H39 UNL     1     -19.679  44.506 -28.647  1.00  0.00     0.209 HD
ENDBRANCH  29  30
ENDBRANCH  25  29
BRANCH  26  32
HETATM   32  O4  UNL     1     -18.980  43.896 -23.189  1.00  0.00    -0.390 OA
HETATM   33  H41 UNL     1     -19.425  44.258 -22.401  1.00  0.00     0.210 HD
ENDBRANCH  26  32
BRANCH  27  34
HETATM   34  O5  UNL     1     -19.732  46.908 -25.152  1.00  0.00    -0.390 OA
HETATM   35  H43 UNL     1     -19.265  46.825 -26.003  1.00  0.00     0.210 HD
ENDBRANCH  27  34
BRANCH  28  36
HETATM   36  O6  UNL     1     -16.941  46.536 -22.990  1.00  0.00    -0.388 OA
HETATM   37  H45 UNL     1     -15.987  46.660 -23.151  1.00  0.00     0.210 HD
ENDBRANCH  28  36
ENDBRANCH  22  23
ENDBRANCH  15  22
BRANCH   1  38
HETATM   38  C8  UNL     1      -6.106  48.054 -29.200  1.00  0.00     0.008 C 
HETATM   39  C9  UNL     1      -5.270  48.022 -30.488  1.00  0.00     0.014 C 
BRANCH  38  40
HETATM   40  C7  UNL     1      -5.147  47.924 -28.036  1.00  0.00    -0.026 C 
HETATM   41  C6  UNL     1      -4.124  48.766 -27.805  1.00  0.00    -0.026 C 
BRANCH  41  42
HETATM   42  C4  UNL     1      -3.086  48.705 -26.695  1.00  0.00     0.007 C 
HETATM   43  C5  UNL     1      -3.810  48.437 -25.369  1.00  0.00     0.014 C 
BRANCH  42  44
HETATM   44  C2  UNL     1      -2.095  49.908 -26.610  1.00  0.00    -0.015 C 
HETATM   45  C1  UNL     1      -1.874  50.346 -25.153  1.00  0.00     0.010 C 
HETATM   46  C3  UNL     1      -2.518  51.127 -27.443  1.00  0.00     0.010 C 
ENDBRANCH  42  44
ENDBRANCH  41  42
ENDBRANCH  38  40
ENDBRANCH   1  38
TORSDOF 11
ENDMDL
MODEL 5
REMARK minimizedAffinity -9.04288006
REMARK CNNscore 0.233952686
REMARK CNNaffinity 6.39631987
REMARK  11 active torsions:
REMARK  status: ('A' for Active; 'I' for Inactive)
REMARK    1  A    between atoms: C2_2  and  C4_4 
REMARK    2  A    between atoms: C4_4  and  C6_6 
REMARK    3  A    between atoms: C7_7  and  C8_8 
REMARK    4  A    between atoms: C8_8  and  C10_10 
REMARK    5  A    between atoms: C24_24  and  O1_25 
REMARK    6  A    between atoms: O1_25  and  C25_26 
REMARK    7  A    between atoms: C26_28  and  C27_29 
REMARK    8  A    between atoms: C27_29  and  O3_30 
REMARK    9  A    between atoms: C28_31  and  O4_32 
REMARK   10  A    between atoms: C29_33  and  O5_34 
REMARK   11  A    between atoms: C30_35  and  O6_36 
ROOT
HETATM    1  C10 UNL     1      -2.463  48.140 -21.795  1.00  0.00     0.002 C 
HETATM    2  C11 UNL     1      -2.816  47.468 -20.442  1.00  0.00     0.006 C 
HETATM    3  C12 UNL     1      -4.276  46.993 -20.559  1.00  0.00     0.009 C 
HETATM    4  C13 UNL     1      -4.638  47.250 -22.018  1.00  0.00     0.041 C 
HETATM    5  C14 UNL     1      -3.846  48.525 -22.399  1.00  0.00    -0.029 C 
HETATM    6  C15 UNL     1      -4.418  49.821 -21.794  1.00  0.00     0.016 C 
HETATM    7  C16 UNL     1      -3.856  48.633 -23.943  1.00  0.00     0.037 C 
HETATM    8  C17 UNL     1      -5.226  48.380 -24.539  1.00  0.00    -0.019 C 
HETATM    9  C18 UNL     1      -6.242  47.781 -23.879  1.00  0.00    -0.030 C 
HETATM   10  C19 UNL     1      -6.111  47.243 -22.442  1.00  0.00     0.142 C 
HETATM   11  C20 UNL     1      -7.112  47.954 -21.554  1.00  0.00     0.018 C 
HETATM   12  C21 UNL     1      -8.384  47.845 -21.971  1.00  0.00     0.014 C 
HETATM   13  C22 UNL     1      -8.522  47.006 -23.230  1.00  0.00     0.127 C 
HETATM   14  C23 UNL     1      -9.985  46.745 -23.613  1.00  0.00     0.078 C 
HETATM   15  C24 UNL     1     -10.152  46.101 -25.008  1.00  0.00     0.128 C 
HETATM   16  C31 UNL     1      -8.836  45.587 -25.600  1.00  0.00     0.033 C 
HETATM   17  C32 UNL     1      -7.704  46.626 -25.634  1.00  0.00     0.020 C 
HETATM   18  C33 UNL     1      -7.677  47.595 -24.419  1.00  0.00     0.021 C 
HETATM   19  C34 UNL     1      -8.215  48.982 -24.847  1.00  0.00     0.024 C 
HETATM   20  O7  UNL     1      -7.960  45.713 -22.860  1.00  0.00    -0.223 OA
HETATM   21  O8  UNL     1      -6.515  45.849 -22.491  1.00  0.00    -0.219 OA
ENDROOT
BRANCH  15  22
HETATM   22  O1  UNL     1     -10.773  47.084 -25.850  1.00  0.00    -0.353 OA
BRANCH  22  23
HETATM   23  C25 UNL     1     -11.984  46.642 -26.483  1.00  0.00     0.292 C 
HETATM   24  O2  UNL     1     -11.853  45.305 -26.954  1.00  0.00    -0.348 OA
HETATM   25  C26 UNL     1     -13.135  44.757 -27.330  1.00  0.00     0.179 C 
HETATM   26  C28 UNL     1     -14.038  45.793 -28.052  1.00  0.00     0.180 C 
HETATM   27  C29 UNL     1     -13.207  46.917 -28.700  1.00  0.00     0.183 C 
HETATM   28  C30 UNL     1     -12.211  47.556 -27.706  1.00  0.00     0.204 C 
BRANCH  25  29
HETATM   29  C27 UNL     1     -12.867  43.509 -28.180  1.00  0.00     0.198 C 
BRANCH  29  30
HETATM   30  O3  UNL     1     -11.853  43.754 -29.150  1.00  0.00    -0.398 OA
HETATM   31  H39 UNL     1     -12.097  43.243 -29.945  1.00  0.00     0.209 HD
ENDBRANCH  29  30
ENDBRANCH  25  29
BRANCH  26  32
HETATM   32  O4  UNL     1     -14.913  46.379 -27.069  1.00  0.00    -0.390 OA
HETATM   33  H41 UNL     1     -15.522  46.975 -27.542  1.00  0.00     0.210 HD
ENDBRANCH  26  32
BRANCH  27  34
HETATM   34  O5  UNL     1     -12.519  46.410 -29.854  1.00  0.00    -0.390 OA
HETATM   35  H43 UNL     1     -11.720  45.936 -29.557  1.00  0.00     0.210 HD
ENDBRANCH  27  34
BRANCH  28  36
HETATM   36  O6  UNL     1     -12.670  48.846 -27.277  1.00  0.00    -0.388 OA
HETATM   37  H45 UNL     1     -11.981  49.180 -26.671  1.00  0.00     0.210 HD
ENDBRANCH  28  36
ENDBRANCH  22  23
ENDBRANCH  15  22
BRANCH   1  38
HETATM   38  C8  UNL     1      -1.327  49.194 -21.768  1.00  0.00     0.008 C 
HETATM   39  C9  UNL     1      -0.945  49.503 -20.313  1.00  0.00     0.014 C 
BRANCH  38  40
HETATM   40  C7  UNL     1      -1.611  50.515 -22.450  1.00  0.00    -0.026 C 
HETATM   41  C6  UNL     1      -1.185  50.831 -23.687  1.00  0.00    -0.026 C 
BRANCH  41  42
HETATM   42  C4  UNL     1      -1.379  52.135 -24.446  1.00  0.00     0.007 C 
HETATM   43  C5  UNL     1      -2.865  52.514 -24.384  1.00  0.00     0.014 C 
BRANCH  42  44
HETATM   44  C2  UNL     1      -0.805  52.180 -25.896  1.00  0.00    -0.015 C 
HETATM   45  C1  UNL     1      -0.079  50.872 -26.249  1.00  0.00     0.010 C 
HETATM   46  C3  UNL     1       0.136  53.365 -26.161  1.00  0.00     0.010 C 
ENDBRANCH  42  44
ENDBRANCH  41  42
ENDBRANCH  38  40
ENDBRANCH   1  38
TORSDOF 11
ENDMDL
MODEL 6
REMARK minimizedAffinity -8.12895012
REMARK CNNscore 0.21636945
REMARK CNNaffinity 5.43716669
REMARK  11 active torsions:
REMARK  status: ('A' for Active; 'I' for Inactive)
REMARK    1  A    between atoms: C2_2  and  C4_4 
REMARK    2  A    between atoms: C4_4  and  C6_6 
REMARK    3  A    between atoms: C7_7  and  C8_8 
REMARK    4  A    between atoms: C8_8  and  C10_10 
REMARK    5  A    between atoms: C24_24  and  O1_25 
REMARK    6  A    between atoms: O1_25  and  C25_26 
REMARK    7  A    between atoms: C26_28  and  C27_29 
REMARK    8  A    between atoms: C27_29  and  O3_30 
REMARK    9  A    between atoms: C28_31  and  O4_32 
REMARK   10  A    between atoms: C29_33  and  O5_34 
REMARK   11  A    between atoms: C30_35  and  O6_36 
ROOT
HETATM    1  C10 UNL     1      -7.080  46.207 -29.858  1.00  0.00     0.002 C 
HETATM    2  C11 UNL     1      -6.480  47.085 -28.729  1.00  0.00     0.006 C 
HETATM    3  C12 UNL     1      -7.598  47.278 -27.687  1.00  0.00     0.009 C 
HETATM    4  C13 UNL     1      -8.721  46.366 -28.170  1.00  0.00     0.041 C 
HETATM    5  C14 UNL     1      -8.617  46.402 -29.715  1.00  0.00    -0.029 C 
HETATM    6  C15 UNL     1      -9.111  47.719 -30.344  1.00  0.00     0.016 C 
HETATM    7  C16 UNL     1      -9.460  45.225 -30.263  1.00  0.00     0.037 C 
HETATM    8  C17 UNL     1     -10.815  45.112 -29.593  1.00  0.00    -0.019 C 
HETATM    9  C18 UNL     1     -11.134  45.707 -28.422  1.00  0.00    -0.030 C 
HETATM   10  C19 UNL     1     -10.134  46.547 -27.604  1.00  0.00     0.142 C 
HETATM   11  C20 UNL     1     -10.670  47.957 -27.462  1.00  0.00     0.018 C 
HETATM   12  C21 UNL     1     -11.891  48.021 -26.902  1.00  0.00     0.014 C 
HETATM   13  C22 UNL     1     -12.436  46.657 -26.518  1.00  0.00     0.127 C 
HETATM   14  C23 UNL     1     -13.752  46.743 -25.733  1.00  0.00     0.078 C 
HETATM   15  C24 UNL     1     -14.444  45.375 -25.538  1.00  0.00     0.128 C 
HETATM   16  C31 UNL     1     -13.550  44.185 -25.902  1.00  0.00     0.033 C 
HETATM   17  C32 UNL     1     -12.928  44.263 -27.305  1.00  0.00     0.020 C 
HETATM   18  C33 UNL     1     -12.529  45.694 -27.759  1.00  0.00     0.021 C 
HETATM   19  C34 UNL     1     -13.558  46.219 -28.790  1.00  0.00     0.024 C 
HETATM   20  O7  UNL     1     -11.443  46.124 -25.594  1.00  0.00    -0.223 OA
HETATM   21  O8  UNL     1     -10.117  45.973 -26.271  1.00  0.00    -0.219 OA
ENDROOT
BRANCH  15  22
HETATM   22  O1  UNL     1     -15.649  45.401 -26.319  1.00  0.00    -0.353 OA
BRANCH  22  23
HETATM   23  C25 UNL     1     -16.810  45.844 -25.600  1.00  0.00     0.292 C 
HETATM   24  O2  UNL     1     -16.657  45.629 -24.201  1.00  0.00    -0.348 OA
HETATM   25  C26 UNL     1     -17.679  46.320 -23.453  1.00  0.00     0.179 C 
HETATM   26  C28 UNL     1     -19.069  46.259 -24.141  1.00  0.00     0.180 C 
HETATM   27  C29 UNL     1     -19.177  45.053 -25.094  1.00  0.00     0.183 C 
HETATM   28  C30 UNL     1     -17.996  44.983 -26.086  1.00  0.00     0.204 C 
BRANCH  25  29
HETATM   29  C27 UNL     1     -17.691  45.726 -22.039  1.00  0.00     0.198 C 
BRANCH  29  30
HETATM   30  O3  UNL     1     -18.950  45.927 -21.405  1.00  0.00    -0.398 OA
HETATM   31  H39 UNL     1     -18.766  46.077 -20.458  1.00  0.00     0.209 HD
ENDBRANCH  29  30
ENDBRANCH  25  29
BRANCH  26  32
HETATM   32  O4  UNL     1     -19.236  47.466 -24.910  1.00  0.00    -0.390 OA
HETATM   33  H41 UNL     1     -20.138  47.450 -25.281  1.00  0.00     0.210 HD
ENDBRANCH  26  32
BRANCH  27  34
HETATM   34  O5  UNL     1     -19.275  43.839 -24.333  1.00  0.00    -0.390 OA
HETATM   35  H43 UNL     1     -18.381  43.581 -24.044  1.00  0.00     0.210 HD
ENDBRANCH  27  34
BRANCH  28  36
HETATM   36  O6  UNL     1     -18.401  45.400 -27.399  1.00  0.00    -0.388 OA
HETATM   37  H45 UNL     1     -17.606  45.310 -27.958  1.00  0.00     0.210 HD
ENDBRANCH  28  36
ENDBRANCH  22  23
ENDBRANCH  15  22
BRANCH   1  38
HETATM   38  C8  UNL     1      -6.425  46.339 -31.257  1.00  0.00     0.008 C 
HETATM   39  C9  UNL     1      -7.496  46.705 -32.296  1.00  0.00     0.014 C 
BRANCH  38  40
HETATM   40  C7  UNL     1      -5.687  45.125 -31.778  1.00  0.00    -0.026 C 
HETATM   41  C6  UNL     1      -6.260  43.926 -31.985  1.00  0.00    -0.026 C 
BRANCH  41  42
HETATM   42  C4  UNL     1      -5.605  42.639 -32.465  1.00  0.00     0.007 C 
HETATM   43  C5  UNL     1      -4.124  42.926 -32.748  1.00  0.00     0.014 C 
BRANCH  42  44
HETATM   44  C2  UNL     1      -6.314  41.904 -33.645  1.00  0.00    -0.015 C 
HETATM   45  C1  UNL     1      -5.343  41.657 -34.811  1.00  0.00     0.010 C 
HETATM   46  C3  UNL     1      -7.562  42.626 -34.174  1.00  0.00     0.010 C 
ENDBRANCH  42  44
ENDBRANCH  41  42
ENDBRANCH  38  40
ENDBRANCH   1  38
TORSDOF 11
ENDMDL
MODEL 7
REMARK minimizedAffinity -8.15685081
REMARK CNNscore 0.205213085
REMARK CNNaffinity 5.80962801
REMARK  11 active torsions:
REMARK  status: ('A' for Active; 'I' for Inactive)
REMARK    1  A    between atoms: C2_2  and  C4_4 
REMARK    2  A    between atoms: C4_4  and  C6_6 
REMARK    3  A    between atoms: C7_7  and  C8_8 
REMARK    4  A    between atoms: C8_8  and  C10_10 
REMARK    5  A    between atoms: C24_24  and  O1_25 
REMARK    6  A    between atoms: O1_25  and  C25_26 
REMARK    7  A    between atoms: C26_28  and  C27_29 
REMARK    8  A    between atoms: C27_29  and  O3_30 
REMARK    9  A    between atoms: C28_31  and  O4_32 
REMARK   10  A    between atoms: C29_33  and  O5_34 
REMARK   11  A    between atoms: C30_35  and  O6_36 
ROOT
HETATM    1  C10 UNL     1      -7.885  48.076 -28.911  1.00  0.00     0.002 C 
HETATM    2  C11 UNL     1      -8.525  48.457 -30.272  1.00  0.00     0.006 C 
HETATM    3  C12 UNL     1     -10.020  48.104 -30.164  1.00  0.00     0.009 C 
HETATM    4  C13 UNL     1     -10.206  47.707 -28.703  1.00  0.00     0.041 C 
HETATM    5  C14 UNL     1      -8.869  47.033 -28.307  1.00  0.00    -0.029 C 
HETATM    6  C15 UNL     1      -8.680  45.624 -28.901  1.00  0.00     0.016 C 
HETATM    7  C16 UNL     1      -8.833  46.947 -26.762  1.00  0.00     0.037 C 
HETATM    8  C17 UNL     1     -10.139  46.454 -26.172  1.00  0.00    -0.019 C 
HETATM    9  C18 UNL     1     -11.314  46.432 -26.840  1.00  0.00    -0.030 C 
HETATM   10  C19 UNL     1     -11.471  46.949 -28.283  1.00  0.00     0.142 C 
HETATM   11  C20 UNL     1     -11.950  45.816 -29.167  1.00  0.00     0.018 C 
HETATM   12  C21 UNL     1     -13.096  45.250 -28.754  1.00  0.00     0.014 C 
HETATM   13  C22 UNL     1     -13.660  45.904 -27.504  1.00  0.00     0.127 C 
HETATM   14  C23 UNL     1     -15.048  45.368 -27.127  1.00  0.00     0.078 C 
HETATM   15  C24 UNL     1     -15.535  45.842 -25.739  1.00  0.00     0.128 C 
HETATM   16  C31 UNL     1     -14.683  46.970 -25.149  1.00  0.00     0.033 C 
HETATM   17  C32 UNL     1     -13.177  46.671 -25.102  1.00  0.00     0.020 C 
HETATM   18  C33 UNL     1     -12.641  45.849 -26.306  1.00  0.00     0.021 C 
HETATM   19  C34 UNL     1     -12.382  44.388 -25.866  1.00  0.00     0.024 C 
HETATM   20  O7  UNL     1     -13.849  47.298 -27.885  1.00  0.00    -0.223 OA
HETATM   21  O8  UNL     1     -12.542  47.930 -28.249  1.00  0.00    -0.219 OA
ENDROOT
BRANCH  15  22
HETATM   22  O1  UNL     1     -15.561  44.685 -24.889  1.00  0.00    -0.353 OA
BRANCH  22  23
HETATM   23  C25 UNL     1     -16.831  44.435 -24.268  1.00  0.00     0.292 C 
HETATM   24  O2  UNL     1     -17.874  45.135 -24.939  1.00  0.00    -0.348 OA
HETATM   25  C26 UNL     1     -19.172  44.674 -24.509  1.00  0.00     0.179 C 
HETATM   26  C28 UNL     1     -19.230  44.387 -22.985  1.00  0.00     0.180 C 
HETATM   27  C29 UNL     1     -18.149  45.172 -22.218  1.00  0.00     0.183 C 
HETATM   28  C30 UNL     1     -16.743  44.981 -22.827  1.00  0.00     0.204 C 
BRANCH  25  29
HETATM   29  C27 UNL     1     -20.200  45.721 -24.956  1.00  0.00     0.198 C 
BRANCH  29  30
HETATM   30  O3  UNL     1     -19.648  47.032 -24.920  1.00  0.00    -0.398 OA
HETATM   31  H39 UNL     1     -20.369  47.632 -24.649  1.00  0.00     0.209 HD
ENDBRANCH  29  30
ENDBRANCH  25  29
BRANCH  26  32
HETATM   32  O4  UNL     1     -18.997  42.978 -22.790  1.00  0.00    -0.390 OA
HETATM   33  H41 UNL     1     -19.104  42.796 -21.839  1.00  0.00     0.210 HD
ENDBRANCH  26  32
BRANCH  27  34
HETATM   34  O5  UNL     1     -18.500  46.565 -22.175  1.00  0.00    -0.390 OA
HETATM   35  H43 UNL     1     -18.251  46.974 -23.024  1.00  0.00     0.210 HD
ENDBRANCH  27  34
BRANCH  28  36
HETATM   36  O6  UNL     1     -15.947  44.103 -22.016  1.00  0.00    -0.388 OA
HETATM   37  H45 UNL     1     -15.080  44.052 -22.461  1.00  0.00     0.210 HD
ENDBRANCH  28  36
ENDBRANCH  22  23
ENDBRANCH  15  22
BRANCH   1  38
HETATM   38  C8  UNL     1      -6.365  47.766 -28.925  1.00  0.00     0.008 C 
HETATM   39  C9  UNL     1      -6.140  46.308 -29.350  1.00  0.00     0.014 C 
BRANCH  38  40
HETATM   40  C7  UNL     1      -5.618  47.980 -27.627  1.00  0.00    -0.026 C 
HETATM   41  C6  UNL     1      -4.552  48.790 -27.495  1.00  0.00    -0.026 C 
BRANCH  41  42
HETATM   42  C4  UNL     1      -3.709  49.044 -26.255  1.00  0.00     0.007 C 
HETATM   43  C5  UNL     1      -2.252  48.684 -26.577  1.00  0.00     0.014 C 
BRANCH  42  44
HETATM   44  C2  UNL     1      -4.215  48.388 -24.932  1.00  0.00    -0.015 C 
HETATM   45  C1  UNL     1      -5.499  49.066 -24.429  1.00  0.00     0.010 C 
HETATM   46  C3  UNL     1      -3.175  48.376 -23.802  1.00  0.00     0.010 C 
ENDBRANCH  42  44
ENDBRANCH  41  42
ENDBRANCH  38  40
ENDBRANCH   1  38
TORSDOF 11
ENDMDL
MODEL 8
REMARK minimizedAffinity -8.03208923
REMARK CNNscore 0.202287987
REMARK CNNaffinity 6.15952826
REMARK  11 active torsions:
REMARK  status: ('A' for Active; 'I' for Inactive)
REMARK    1  A    between atoms: C2_2  and  C4_4 
REMARK    2  A    between atoms: C4_4  and  C6_6 
REMARK    3  A    between atoms: C7_7  and  C8_8 
REMARK    4  A    between atoms: C8_8  and  C10_10 
REMARK    5  A    between atoms: C24_24  and  O1_25 
REMARK    6  A    between atoms: O1_25  and  C25_26 
REMARK    7  A    between atoms: C26_28  and  C27_29 
REMARK    8  A    between atoms: C27_29  and  O3_30 
REMARK    9  A    between atoms: C28_31  and  O4_32 
REMARK   10  A    between atoms: C29_33  and  O5_34 
REMARK   11  A    between atoms: C30_35  and  O6_36 
ROOT
HETATM    1  C10 UNL     1      -3.017  49.873 -22.871  1.00  0.00     0.002 C 
HETATM    2  C11 UNL     1      -3.465  49.095 -24.136  1.00  0.00     0.006 C 
HETATM    3  C12 UNL     1      -4.750  48.338 -23.751  1.00  0.00     0.009 C 
HETATM    4  C13 UNL     1      -5.080  48.850 -22.352  1.00  0.00     0.041 C 
HETATM    5  C14 UNL     1      -3.702  49.114 -21.697  1.00  0.00    -0.029 C 
HETATM    6  C15 UNL     1      -2.945  47.833 -21.295  1.00  0.00     0.016 C 
HETATM    7  C16 UNL     1      -3.946  49.980 -20.438  1.00  0.00     0.037 C 
HETATM    8  C17 UNL     1      -5.105  49.482 -19.599  1.00  0.00    -0.019 C 
HETATM    9  C18 UNL     1      -6.050  48.624 -20.044  1.00  0.00    -0.030 C 
HETATM   10  C19 UNL     1      -6.081  48.078 -21.484  1.00  0.00     0.142 C 
HETATM   11  C20 UNL     1      -5.974  46.567 -21.444  1.00  0.00     0.018 C 
HETATM   12  C21 UNL     1      -6.927  45.973 -20.707  1.00  0.00     0.014 C 
HETATM   13  C22 UNL     1      -7.910  46.962 -20.106  1.00  0.00     0.127 C 
HETATM   14  C23 UNL     1      -9.089  46.276 -19.403  1.00  0.00     0.078 C 
HETATM   15  C24 UNL     1      -9.970  47.249 -18.586  1.00  0.00     0.128 C 
HETATM   16  C31 UNL     1      -9.672  48.724 -18.872  1.00  0.00     0.033 C 
HETATM   17  C32 UNL     1      -8.192  49.113 -18.731  1.00  0.00     0.020 C 
HETATM   18  C33 UNL     1      -7.188  48.020 -19.191  1.00  0.00     0.021 C 
HETATM   19  C34 UNL     1      -6.555  47.340 -17.953  1.00  0.00     0.024 C 
HETATM   20  O7  UNL     1      -8.469  47.656 -21.260  1.00  0.00    -0.223 OA
HETATM   21  O8  UNL     1      -7.399  48.387 -22.008  1.00  0.00    -0.219 OA
ENDROOT
BRANCH  15  22
HETATM   22  O1  UNL     1      -9.780  46.919 -17.201  1.00  0.00    -0.353 OA
BRANCH  22  23
HETATM   23  C25 UNL     1     -10.561  45.804 -16.745  1.00  0.00     0.292 C 
HETATM   24  O2  UNL     1     -11.953  46.104 -16.788  1.00  0.00    -0.348 OA
HETATM   25  C26 UNL     1     -12.748  44.914 -16.608  1.00  0.00     0.179 C 
HETATM   26  C28 UNL     1     -12.153  43.952 -15.545  1.00  0.00     0.180 C 
HETATM   27  C29 UNL     1     -11.239  44.698 -14.554  1.00  0.00     0.183 C 
HETATM   28  C30 UNL     1     -10.174  45.557 -15.271  1.00  0.00     0.204 C 
BRANCH  25  29
HETATM   29  C27 UNL     1     -14.174  45.364 -16.268  1.00  0.00     0.198 C 
BRANCH  29  30
HETATM   30  O3  UNL     1     -14.165  46.519 -15.435  1.00  0.00    -0.398 OA
HETATM   31  H39 UNL     1     -14.923  46.430 -14.826  1.00  0.00     0.209 HD
ENDBRANCH  29  30
ENDBRANCH  25  29
BRANCH  26  32
HETATM   32  O4  UNL     1     -11.367  42.961 -16.235  1.00  0.00    -0.390 OA
HETATM   33  H41 UNL     1     -11.055  42.323 -15.568  1.00  0.00     0.210 HD
ENDBRANCH  26  32
BRANCH  27  34
HETATM   34  O5  UNL     1     -12.035  45.505 -13.672  1.00  0.00    -0.390 OA
HETATM   35  H43 UNL     1     -12.272  46.330 -14.135  1.00  0.00     0.210 HD
ENDBRANCH  27  34
BRANCH  28  36
HETATM   36  O6  UNL     1      -8.881  44.938 -15.200  1.00  0.00    -0.388 OA
HETATM   37  H45 UNL     1      -8.274  45.549 -15.659  1.00  0.00     0.210 HD
ENDBRANCH  28  36
ENDBRANCH  22  23
ENDBRANCH  15  22
BRANCH   1  38
HETATM   38  C8  UNL     1      -1.510  50.223 -22.772  1.00  0.00     0.008 C 
HETATM   39  C9  UNL     1      -1.165  50.617 -21.329  1.00  0.00     0.014 C 
BRANCH  38  40
HETATM   40  C7  UNL     1      -1.011  51.330 -23.675  1.00  0.00    -0.026 C 
HETATM   41  C6  UNL     1      -0.378  51.122 -24.844  1.00  0.00    -0.026 C 
BRANCH  41  42
HETATM   42  C4  UNL     1       0.196  52.155 -25.802  1.00  0.00     0.007 C 
HETATM   43  C5  UNL     1       0.049  53.542 -25.162  1.00  0.00     0.014 C 
BRANCH  42  44
HETATM   44  C2  UNL     1      -0.338  52.107 -27.268  1.00  0.00    -0.015 C 
HETATM   45  C1  UNL     1      -1.538  51.155 -27.392  1.00  0.00     0.010 C 
HETATM   46  C3  UNL     1       0.723  51.719 -28.308  1.00  0.00     0.010 C 
ENDBRANCH  42  44
ENDBRANCH  41  42
ENDBRANCH  38  40
ENDBRANCH   1  38
TORSDOF 11
ENDMDL
MODEL 9
REMARK minimizedAffinity -8.44738483
REMARK CNNscore 0.195340469
REMARK CNNaffinity 5.61992121
REMARK  11 active torsions:
REMARK  status: ('A' for Active; 'I' for Inactive)
REMARK    1  A    between atoms: C2_2  and  C4_4 
REMARK    2  A    between atoms: C4_4  and  C6_6 
REMARK    3  A    between atoms: C7_7  and  C8_8 
REMARK    4  A    between atoms: C8_8  and  C10_10 
REMARK    5  A    between atoms: C24_24  and  O1_25 
REMARK    6  A    between atoms: O1_25  and  C25_26 
REMARK    7  A    between atoms: C26_28  and  C27_29 
REMARK    8  A    between atoms: C27_29  and  O3_30 
REMARK    9  A    between atoms: C28_31  and  O4_32 
REMARK   10  A    between atoms: C29_33  and  O5_34 
REMARK   11  A    between atoms: C30_35  and  O6_36 
ROOT
HETATM    1  C10 UNL     1      -7.544  46.403 -29.269  1.00  0.00     0.002 C 
HETATM    2  C11 UNL     1      -7.084  44.968 -28.903  1.00  0.00     0.006 C 
HETATM    3  C12 UNL     1      -8.304  44.264 -28.283  1.00  0.00     0.009 C 
HETATM    4  C13 UNL     1      -9.448  45.254 -28.481  1.00  0.00     0.041 C 
HETATM    5  C14 UNL     1      -8.784  46.648 -28.361  1.00  0.00    -0.029 C 
HETATM    6  C15 UNL     1      -8.399  47.035 -26.920  1.00  0.00     0.016 C 
HETATM    7  C16 UNL     1      -9.785  47.687 -28.920  1.00  0.00     0.037 C 
HETATM    8  C17 UNL     1     -11.198  47.470 -28.417  1.00  0.00    -0.019 C 
HETATM    9  C18 UNL     1     -11.634  46.323 -27.850  1.00  0.00    -0.030 C 
HETATM   10  C19 UNL     1     -10.745  45.075 -27.684  1.00  0.00     0.142 C 
HETATM   11  C20 UNL     1     -10.637  44.736 -26.212  1.00  0.00     0.018 C 
HETATM   12  C21 UNL     1     -11.822  44.540 -25.610  1.00  0.00     0.014 C 
HETATM   13  C22 UNL     1     -12.998  44.680 -26.561  1.00  0.00     0.127 C 
HETATM   14  C23 UNL     1     -14.335  44.296 -25.914  1.00  0.00     0.078 C 
HETATM   15  C24 UNL     1     -15.564  44.652 -26.781  1.00  0.00     0.128 C 
HETATM   16  C31 UNL     1     -15.201  45.042 -28.217  1.00  0.00     0.033 C 
HETATM   17  C32 UNL     1     -14.142  46.150 -28.327  1.00  0.00     0.020 C 
HETATM   18  C33 UNL     1     -13.035  46.099 -27.239  1.00  0.00     0.021 C 
HETATM   19  C34 UNL     1     -13.285  47.207 -26.188  1.00  0.00     0.024 C 
HETATM   20  O7  UNL     1     -12.742  43.682 -27.593  1.00  0.00    -0.223 OA
HETATM   21  O8  UNL     1     -11.463  43.980 -28.312  1.00  0.00    -0.219 OA
ENDROOT
BRANCH  15  22
HETATM   22  O1  UNL     1     -16.265  45.704 -26.098  1.00  0.00    -0.353 OA
BRANCH  22  23
HETATM   23  C25 UNL     1     -17.476  45.284 -25.451  1.00  0.00     0.292 C 
HETATM   24  O2  UNL     1     -17.195  44.434 -24.344  1.00  0.00    -0.348 OA
HETATM   25  C26 UNL     1     -18.368  44.241 -23.525  1.00  0.00     0.179 C 
HETATM   26  C28 UNL     1     -19.664  44.087 -24.363  1.00  0.00     0.180 C 
HETATM   27  C29 UNL     1     -19.360  43.606 -25.795  1.00  0.00     0.183 C 
HETATM   28  C30 UNL     1     -18.279  44.467 -26.485  1.00  0.00     0.204 C 
BRANCH  25  29
HETATM   29  C27 UNL     1     -18.099  43.032 -22.621  1.00  0.00     0.198 C 
BRANCH  29  30
HETATM   30  O3  UNL     1     -16.756  43.029 -22.149  1.00  0.00    -0.398 OA
HETATM   31  H39 UNL     1     -16.477  42.095 -22.101  1.00  0.00     0.209 HD
ENDBRANCH  29  30
ENDBRANCH  25  29
BRANCH  26  32
HETATM   32  O4  UNL     1     -20.298  45.379 -24.440  1.00  0.00    -0.390 OA
HETATM   33  H41 UNL     1     -21.145  45.259 -24.909  1.00  0.00     0.210 HD
ENDBRANCH  26  32
BRANCH  27  34
HETATM   34  O5  UNL     1     -18.970  42.224 -25.771  1.00  0.00    -0.390 OA
HETATM   35  H43 UNL     1     -18.032  42.170 -25.511  1.00  0.00     0.210 HD
ENDBRANCH  27  34
BRANCH  28  36
HETATM   36  O6  UNL     1     -18.865  45.345 -27.458  1.00  0.00    -0.388 OA
HETATM   37  H45 UNL     1     -18.118  45.834 -27.852  1.00  0.00     0.210 HD
ENDBRANCH  28  36
ENDBRANCH  22  23
ENDBRANCH  15  22
BRANCH   1  38
HETATM   38  C8  UNL     1      -6.436  47.485 -29.348  1.00  0.00     0.008 C 
HETATM   39  C9  UNL     1      -5.466  47.149 -30.489  1.00  0.00     0.014 C 
BRANCH  38  40
HETATM   40  C7  UNL     1      -5.608  47.700 -28.100  1.00  0.00    -0.026 C 
HETATM   41  C6  UNL     1      -4.498  48.459 -28.052  1.00  0.00    -0.026 C 
BRANCH  41  42
HETATM   42  C4  UNL     1      -3.576  48.707 -26.868  1.00  0.00     0.007 C 
HETATM   43  C5  UNL     1      -4.316  48.303 -25.586  1.00  0.00     0.014 C 
BRANCH  42  44
HETATM   44  C2  UNL     1      -2.942  50.131 -26.776  1.00  0.00    -0.015 C 
HETATM   45  C1  UNL     1      -3.074  50.887 -28.107  1.00  0.00     0.010 C 
HETATM   46  C3  UNL     1      -1.469  50.133 -26.339  1.00  0.00     0.010 C 
ENDBRANCH  42  44
ENDBRANCH  41  42
ENDBRANCH  38  40
ENDBRANCH   1  38
TORSDOF 11
ENDMDL
