MODEL 1
REMARK minimizedAffinity -9.48305511
REMARK  6 active torsions:
REMARK  status: ('A' for Active; 'I' for Inactive)
REMARK    1  A    between atoms: C3_3  and  C4_4 
REMARK    2  A    between atoms: C4_4  and  O2_6 
REMARK    3  A    between atoms: O2_6  and  C5_7 
REMARK    4  A    between atoms: C5_7  and  C6_8 
REMARK    5  A    between atoms: C6_8  and  C7_9 
REMARK    6  A    between atoms: C13_15  and  C14_16 
ROOT
HETATM    1  C1  UNL     1       2.282   5.576  10.063  1.00  0.00     0.069 C 
HETATM    2  C2  UNL     1       1.838   6.061  11.419  1.00  0.00     0.018 C 
HETATM    3  C3  UNL     1       0.811   5.535  12.125  1.00  0.00     0.052 C 
HETATM    4  C13 UNL     1       0.399   6.079  13.490  1.00  0.00     0.104 C 
HETATM    5  C23 UNL     1       1.416   7.088  14.026  1.00  0.00     0.024 C 
HETATM    6  C24 UNL     1       2.428   7.553  13.263  1.00  0.00     0.020 C 
HETATM    7  C25 UNL     1       3.456   8.536  13.768  1.00  0.00     0.058 C 
HETATM    8  C26 UNL     1       3.558   8.536  15.288  1.00  0.00     0.014 C 
HETATM    9  C27 UNL     1       2.185   8.651  15.928  1.00  0.00     0.084 C 
HETATM   10  C28 UNL     1       1.260   7.564  15.429  1.00  0.00     0.158 C 
HETATM   11  O5  UNL     1       0.357   7.125  16.140  1.00  0.00    -0.293 OA
HETATM   12  N1  UNL     1       2.578   7.101  11.964  1.00  0.00    -0.362 N 
HETATM   13  H24 UNL     1       3.398   7.409  11.445  1.00  0.00     0.165 HD
ENDROOT
BRANCH   4  14
HETATM   14  C14 UNL     1      -1.000   6.674  13.415  1.00  0.00     0.029 A 
HETATM   15  C15 UNL     1      -1.380   7.677  12.608  1.00  0.00     0.154 A 
HETATM   16  O3  UNL     1      -2.625   8.253  12.535  1.00  0.00    -0.321 OA
HETATM   17  C16 UNL     1      -3.583   7.806  13.408  1.00  0.00     0.089 A 
HETATM   18  C17 UNL     1      -4.828   8.434  13.370  1.00  0.00     0.040 A 
HETATM   19  C21 UNL     1      -3.357   6.760  14.303  1.00  0.00     0.050 A 
HETATM   20  C18 UNL     1      -5.844   8.012  14.231  1.00  0.00     0.026 A 
HETATM   21  C19 UNL     1      -5.611   6.964  15.125  1.00  0.00     0.035 A 
HETATM   22 CL1  UNL     1      -6.869   6.448  16.180  1.00  0.00    -0.084 Cl
HETATM   23  C20 UNL     1      -4.370   6.332  15.167  1.00  0.00     0.042 A 
HETATM   24  C22 UNL     1      -2.039   6.105  14.311  1.00  0.00     0.194 A 
HETATM   25  O4  UNL     1      -1.837   5.120  15.007  1.00  0.00    -0.287 OA
ENDBRANCH   4  14
BRANCH   3  26
HETATM   26  C4  UNL     1       0.018   4.410  11.595  1.00  0.00     0.292 C 
HETATM   27  O1  UNL     1       0.365   3.243  11.655  1.00  0.00    -0.259 OA
BRANCH  26  28
HETATM   28  O2  UNL     1      -1.120   4.901  11.049  1.00  0.00    -0.317 OA
BRANCH  28  29
HETATM   29  C5  UNL     1      -2.160   3.931  10.861  1.00  0.00     0.183 C 
BRANCH  29  30
HETATM   30  C6  UNL     1      -2.739   3.581  12.230  1.00  0.00     0.065 C 
BRANCH  30  31
HETATM   31  C7  UNL     1      -4.160   3.088  12.137  1.00  0.00    -0.056 A 
HETATM   32  C8  UNL     1      -5.206   3.832  12.701  1.00  0.00     0.007 A 
HETATM   33  C9  UNL     1      -6.525   3.388  12.599  1.00  0.00     0.001 A 
HETATM   34  C10 UNL     1      -6.810   2.197  11.932  1.00  0.00     0.000 A 
HETATM   35  C11 UNL     1      -5.777   1.449  11.370  1.00  0.00     0.001 A 
HETATM   36  C12 UNL     1      -4.457   1.893  11.469  1.00  0.00     0.007 A 
ENDBRANCH  30  31
ENDBRANCH  29  30
ENDBRANCH  28  29
ENDBRANCH  26  28
ENDBRANCH   3  26
TORSDOF 6
ENDMDL
MODEL 2
REMARK minimizedAffinity -9.20038319
REMARK  6 active torsions:
REMARK  status: ('A' for Active; 'I' for Inactive)
REMARK    1  A    between atoms: C3_3  and  C4_4 
REMARK    2  A    between atoms: C4_4  and  O2_6 
REMARK    3  A    between atoms: O2_6  and  C5_7 
REMARK    4  A    between atoms: C5_7  and  C6_8 
REMARK    5  A    between atoms: C6_8  and  C7_9 
REMARK    6  A    between atoms: C13_15  and  C14_16 
ROOT
HETATM    1  C1  UNL     1      -0.626   3.907  12.172  1.00  0.00     0.069 C 
HETATM    2  C2  UNL     1      -1.714   4.881  12.545  1.00  0.00     0.018 C 
HETATM    3  C3  UNL     1      -1.572   6.226  12.552  1.00  0.00     0.052 C 
HETATM    4  C13 UNL     1      -2.708   7.162  12.953  1.00  0.00     0.104 C 
HETATM    5  C23 UNL     1      -4.033   6.411  13.101  1.00  0.00     0.024 C 
HETATM    6  C24 UNL     1      -4.096   5.063  13.064  1.00  0.00     0.020 C 
HETATM    7  C25 UNL     1      -5.389   4.294  13.190  1.00  0.00     0.058 C 
HETATM    8  C26 UNL     1      -6.603   5.144  12.836  1.00  0.00     0.014 C 
HETATM    9  C27 UNL     1      -6.570   6.475  13.566  1.00  0.00     0.084 C 
HETATM   10  C28 UNL     1      -5.276   7.211  13.298  1.00  0.00     0.158 C 
HETATM   11  O5  UNL     1      -5.232   8.440  13.305  1.00  0.00    -0.293 OA
HETATM   12  N1  UNL     1      -2.943   4.324  12.869  1.00  0.00    -0.362 N 
HETATM   13  H24 UNL     1      -3.037   3.315  12.765  1.00  0.00     0.165 HD
ENDROOT
BRANCH   4  14
HETATM   14  C14 UNL     1      -2.343   7.914  14.226  1.00  0.00     0.029 A 
HETATM   15  C15 UNL     1      -2.333   7.395  15.464  1.00  0.00     0.154 A 
HETATM   16  O3  UNL     1      -2.033   8.052  16.633  1.00  0.00    -0.321 OA
HETATM   17  C16 UNL     1      -1.763   9.394  16.555  1.00  0.00     0.089 A 
HETATM   18  C17 UNL     1      -1.517  10.067  17.752  1.00  0.00     0.040 A 
HETATM   19  C21 UNL     1      -1.718  10.084  15.345  1.00  0.00     0.050 A 
HETATM   20  C18 UNL     1      -1.228  11.434  17.731  1.00  0.00     0.026 A 
HETATM   21  C19 UNL     1      -1.184  12.120  16.514  1.00  0.00     0.035 A 
HETATM   22 CL1  UNL     1      -0.823  13.802  16.497  1.00  0.00    -0.084 Cl
HETATM   23  C20 UNL     1      -1.428  11.452  15.316  1.00  0.00     0.042 A 
HETATM   24  C22 UNL     1      -1.967   9.344  14.096  1.00  0.00     0.194 A 
HETATM   25  O4  UNL     1      -1.834   9.893  13.011  1.00  0.00    -0.287 OA
ENDBRANCH   4  14
BRANCH   3  26
HETATM   26  C4  UNL     1      -0.293   6.860  12.186  1.00  0.00     0.292 C 
HETATM   27  O1  UNL     1       0.618   7.062  12.971  1.00  0.00    -0.259 OA
BRANCH  26  28
HETATM   28  O2  UNL     1      -0.321   7.165  10.867  1.00  0.00    -0.317 OA
BRANCH  28  29
HETATM   29  C5  UNL     1       0.259   8.435  10.534  1.00  0.00     0.183 C 
BRANCH  29  30
HETATM   30  C6  UNL     1       1.749   8.226  10.278  1.00  0.00     0.065 C 
BRANCH  30  31
HETATM   31  C7  UNL     1       2.007   7.453   9.011  1.00  0.00    -0.056 A 
HETATM   32  C8  UNL     1       2.718   6.245   9.050  1.00  0.00     0.007 A 
HETATM   33  C9  UNL     1       2.940   5.517   7.880  1.00  0.00     0.001 A 
HETATM   34  C10 UNL     1       2.454   5.989   6.662  1.00  0.00     0.000 A 
HETATM   35  C11 UNL     1       1.748   7.191   6.612  1.00  0.00     0.001 A 
HETATM   36  C12 UNL     1       1.523   7.919   7.782  1.00  0.00     0.007 A 
ENDBRANCH  30  31
ENDBRANCH  29  30
ENDBRANCH  28  29
ENDBRANCH  26  28
ENDBRANCH   3  26
TORSDOF 6
ENDMDL
MODEL 3
REMARK minimizedAffinity -9.10575581
REMARK  6 active torsions:
REMARK  status: ('A' for Active; 'I' for Inactive)
REMARK    1  A    between atoms: C3_3  and  C4_4 
REMARK    2  A    between atoms: C4_4  and  O2_6 
REMARK    3  A    between atoms: O2_6  and  C5_7 
REMARK    4  A    between atoms: C5_7  and  C6_8 
REMARK    5  A    between atoms: C6_8  and  C7_9 
REMARK    6  A    between atoms: C13_15  and  C14_16 
ROOT
HETATM    1  C1  UNL     1      -2.336   7.042  16.034  1.00  0.00     0.069 C 
HETATM    2  C2  UNL     1      -1.153   7.743  15.415  1.00  0.00     0.018 C 
HETATM    3  C3  UNL     1      -1.065   8.095  14.112  1.00  0.00     0.052 C 
HETATM    4  C13 UNL     1       0.166   8.792  13.540  1.00  0.00     0.104 C 
HETATM    5  C23 UNL     1       1.130   9.233  14.643  1.00  0.00     0.024 C 
HETATM    6  C24 UNL     1       0.962   8.854  15.928  1.00  0.00     0.020 C 
HETATM    7  C25 UNL     1       1.886   9.286  17.042  1.00  0.00     0.058 C 
HETATM    8  C26 UNL     1       2.659  10.552  16.694  1.00  0.00     0.014 C 
HETATM    9  C27 UNL     1       3.307  10.437  15.325  1.00  0.00     0.084 C 
HETATM   10  C28 UNL     1       2.283  10.097  14.265  1.00  0.00     0.158 C 
HETATM   11  O5  UNL     1       2.428  10.470  13.101  1.00  0.00    -0.293 OA
HETATM   12  N1  UNL     1      -0.115   8.061  16.280  1.00  0.00    -0.362 N 
HETATM   13  H24 UNL     1      -0.257   7.863  17.268  1.00  0.00     0.165 HD
ENDROOT
BRANCH   4  14
HETATM   14  C14 UNL     1       0.851   7.891  12.521  1.00  0.00     0.029 A 
HETATM   15  C15 UNL     1       1.630   6.836  12.810  1.00  0.00     0.154 A 
HETATM   16  O3  UNL     1       2.282   6.021  11.917  1.00  0.00    -0.321 OA
HETATM   17  C16 UNL     1       2.182   6.331  10.585  1.00  0.00     0.089 A 
HETATM   18  C17 UNL     1       2.894   5.535   9.688  1.00  0.00     0.040 A 
HETATM   19  C21 UNL     1       1.402   7.386  10.114  1.00  0.00     0.050 A 
HETATM   20  C18 UNL     1       2.822   5.801   8.317  1.00  0.00     0.026 A 
HETATM   21  C19 UNL     1       2.038   6.860   7.852  1.00  0.00     0.035 A 
HETATM   22 CL1  UNL     1       1.951   7.179   6.163  1.00  0.00    -0.084 Cl
HETATM   23  C20 UNL     1       1.325   7.658   8.744  1.00  0.00     0.042 A 
HETATM   24  C22 UNL     1       0.650   8.201  11.083  1.00  0.00     0.194 A 
HETATM   25  O4  UNL     1      -0.125   9.067  10.700  1.00  0.00    -0.287 OA
ENDBRANCH   4  14
BRANCH   3  26
HETATM   26  C4  UNL     1      -2.157   7.802  13.167  1.00  0.00     0.292 C 
HETATM   27  O1  UNL     1      -2.979   8.623  12.797  1.00  0.00    -0.259 OA
BRANCH  26  28
HETATM   28  O2  UNL     1      -2.078   6.500  12.803  1.00  0.00    -0.317 OA
BRANCH  28  29
HETATM   29  C5  UNL     1      -3.297   5.759  12.965  1.00  0.00     0.183 C 
BRANCH  29  30
HETATM   30  C6  UNL     1      -3.246   4.550  12.034  1.00  0.00     0.065 C 
BRANCH  30  31
HETATM   31  C7  UNL     1      -4.523   3.750  12.071  1.00  0.00    -0.056 A 
HETATM   32  C8  UNL     1      -4.620   2.537  11.373  1.00  0.00     0.007 A 
HETATM   33  C9  UNL     1      -5.794   1.784  11.422  1.00  0.00     0.001 A 
HETATM   34  C10 UNL     1      -6.881   2.237  12.168  1.00  0.00     0.000 A 
HETATM   35  C11 UNL     1      -6.796   3.443  12.863  1.00  0.00     0.001 A 
HETATM   36  C12 UNL     1      -5.621   4.196  12.817  1.00  0.00     0.007 A 
ENDBRANCH  30  31
ENDBRANCH  29  30
ENDBRANCH  28  29
ENDBRANCH  26  28
ENDBRANCH   3  26
TORSDOF 6
ENDMDL
MODEL 4
REMARK minimizedAffinity -8.87883282
REMARK  6 active torsions:
REMARK  status: ('A' for Active; 'I' for Inactive)
REMARK    1  A    between atoms: C3_3  and  C4_4 
REMARK    2  A    between atoms: C4_4  and  O2_6 
REMARK    3  A    between atoms: O2_6  and  C5_7 
REMARK    4  A    between atoms: C5_7  and  C6_8 
REMARK    5  A    between atoms: C6_8  and  C7_9 
REMARK    6  A    between atoms: C13_15  and  C14_16 
ROOT
HETATM    1  C1  UNL     1      -0.163   8.605  10.051  1.00  0.00     0.069 C 
HETATM    2  C2  UNL     1      -0.664   8.352  11.450  1.00  0.00     0.018 C 
HETATM    3  C3  UNL     1      -0.684   7.141  12.051  1.00  0.00     0.052 C 
HETATM    4  C13 UNL     1      -1.217   6.945  13.467  1.00  0.00     0.104 C 
HETATM    5  C23 UNL     1      -1.481   8.283  14.162  1.00  0.00     0.024 C 
HETATM    6  C24 UNL     1      -1.423   9.455  13.494  1.00  0.00     0.020 C 
HETATM    7  C25 UNL     1      -1.662  10.792  14.155  1.00  0.00     0.058 C 
HETATM    8  C26 UNL     1      -1.450  10.738  15.663  1.00  0.00     0.014 C 
HETATM    9  C27 UNL     1      -2.200   9.570  16.278  1.00  0.00     0.084 C 
HETATM   10  C28 UNL     1      -1.818   8.266  15.613  1.00  0.00     0.158 C 
HETATM   11  O5  UNL     1      -1.847   7.205  16.235  1.00  0.00    -0.293 OA
HETATM   12  N1  UNL     1      -1.098   9.469  12.150  1.00  0.00    -0.362 N 
HETATM   13  H24 UNL     1      -0.982  10.374  11.698  1.00  0.00     0.165 HD
ENDROOT
BRANCH   4  14
HETATM   14  C14 UNL     1      -2.462   6.069  13.442  1.00  0.00     0.029 A 
HETATM   15  C15 UNL     1      -2.477   4.730  13.540  1.00  0.00     0.154 A 
HETATM   16  O3  UNL     1      -3.578   3.910  13.494  1.00  0.00    -0.321 OA
HETATM   17  C16 UNL     1      -4.798   4.497  13.274  1.00  0.00     0.089 A 
HETATM   18  C17 UNL     1      -5.904   3.654  13.171  1.00  0.00     0.040 A 
HETATM   19  C21 UNL     1      -4.960   5.877  13.164  1.00  0.00     0.050 A 
HETATM   20  C18 UNL     1      -7.173   4.199  12.955  1.00  0.00     0.026 A 
HETATM   21  C19 UNL     1      -7.328   5.584  12.845  1.00  0.00     0.035 A 
HETATM   22 CL1  UNL     1      -8.894   6.248  12.584  1.00  0.00    -0.084 Cl
HETATM   23  C20 UNL     1      -6.226   6.430  12.949  1.00  0.00     0.042 A 
HETATM   24  C22 UNL     1      -3.776   6.744  13.292  1.00  0.00     0.194 A 
HETATM   25  O4  UNL     1      -3.894   7.962  13.305  1.00  0.00    -0.287 OA
ENDBRANCH   4  14
BRANCH   3  26
HETATM   26  C4  UNL     1      -0.205   5.934  11.353  1.00  0.00     0.292 C 
HETATM   27  O1  UNL     1      -0.920   5.197  10.695  1.00  0.00    -0.259 OA
BRANCH  26  28
HETATM   28  O2  UNL     1       1.125   5.805  11.573  1.00  0.00    -0.317 OA
BRANCH  28  29
HETATM   29  C5  UNL     1       1.754   4.750  10.831  1.00  0.00     0.183 C 
BRANCH  29  30
HETATM   30  C6  UNL     1       3.127   5.241  10.378  1.00  0.00     0.065 C 
BRANCH  30  31
HETATM   31  C7  UNL     1       3.030   6.402   9.423  1.00  0.00    -0.056 A 
HETATM   32  C8  UNL     1       2.276   6.291   8.246  1.00  0.00     0.007 A 
HETATM   33  C9  UNL     1       2.168   7.372   7.370  1.00  0.00     0.001 A 
HETATM   34  C10 UNL     1       2.811   8.574   7.663  1.00  0.00     0.000 A 
HETATM   35  C11 UNL     1       3.565   8.694   8.830  1.00  0.00     0.001 A 
HETATM   36  C12 UNL     1       3.673   7.614   9.708  1.00  0.00     0.007 A 
ENDBRANCH  30  31
ENDBRANCH  29  30
ENDBRANCH  28  29
ENDBRANCH  26  28
ENDBRANCH   3  26
TORSDOF 6
ENDMDL
MODEL 5
REMARK minimizedAffinity -8.83014965
REMARK  6 active torsions:
REMARK  status: ('A' for Active; 'I' for Inactive)
REMARK    1  A    between atoms: C3_3  and  C4_4 
REMARK    2  A    between atoms: C4_4  and  O2_6 
REMARK    3  A    between atoms: O2_6  and  C5_7 
REMARK    4  A    between atoms: C5_7  and  C6_8 
REMARK    5  A    between atoms: C6_8  and  C7_9 
REMARK    6  A    between atoms: C13_15  and  C14_16 
ROOT
HETATM    1  C1  UNL     1      -2.493   9.602  17.249  1.00  0.00     0.069 C 
HETATM    2  C2  UNL     1      -2.721   8.605  16.141  1.00  0.00     0.018 C 
HETATM    3  C3  UNL     1      -1.736   7.961  15.474  1.00  0.00     0.052 C 
HETATM    4  C13 UNL     1      -2.029   6.971  14.350  1.00  0.00     0.104 C 
HETATM    5  C23 UNL     1      -3.521   6.644  14.260  1.00  0.00     0.024 C 
HETATM    6  C24 UNL     1      -4.444   7.323  14.975  1.00  0.00     0.020 C 
HETATM    7  C25 UNL     1      -5.920   7.013  14.921  1.00  0.00     0.058 C 
HETATM    8  C26 UNL     1      -6.196   5.596  14.431  1.00  0.00     0.014 C 
HETATM    9  C27 UNL     1      -5.426   5.299  13.157  1.00  0.00     0.084 C 
HETATM   10  C28 UNL     1      -3.946   5.547  13.345  1.00  0.00     0.158 C 
HETATM   11  O5  UNL     1      -3.110   4.905  12.710  1.00  0.00    -0.293 OA
HETATM   12  N1  UNL     1      -4.046   8.331  15.834  1.00  0.00    -0.362 N 
HETATM   13  H24 UNL     1      -4.757   8.766  16.418  1.00  0.00     0.165 HD
ENDROOT
BRANCH   4  14
HETATM   14  C14 UNL     1      -1.489   7.501  13.030  1.00  0.00     0.029 A 
HETATM   15  C15 UNL     1      -1.936   8.590  12.384  1.00  0.00     0.154 A 
HETATM   16  O3  UNL     1      -1.488   9.080  11.181  1.00  0.00    -0.321 OA
HETATM   17  C16 UNL     1      -0.515   8.367  10.529  1.00  0.00     0.089 A 
HETATM   18  C17 UNL     1      -0.106   8.837   9.281  1.00  0.00     0.040 A 
HETATM   19  C21 UNL     1       0.068   7.221  11.068  1.00  0.00     0.050 A 
HETATM   20  C18 UNL     1       0.889   8.154   8.575  1.00  0.00     0.026 A 
HETATM   21  C19 UNL     1       1.469   7.006   9.122  1.00  0.00     0.035 A 
HETATM   22 CL1  UNL     1       2.696   6.174   8.248  1.00  0.00    -0.084 Cl
HETATM   23  C20 UNL     1       1.065   6.534  10.368  1.00  0.00     0.042 A 
HETATM   24  C22 UNL     1      -0.373   6.756  12.394  1.00  0.00     0.194 A 
HETATM   25  O4  UNL     1       0.188   5.818  12.943  1.00  0.00    -0.287 OA
ENDBRANCH   4  14
BRANCH   3  26
HETATM   26  C4  UNL     1      -0.317   8.201  15.789  1.00  0.00     0.292 C 
HETATM   27  O1  UNL     1       0.387   7.420  16.408  1.00  0.00    -0.259 OA
BRANCH  26  28
HETATM   28  O2  UNL     1       0.042   9.405  15.284  1.00  0.00    -0.317 OA
BRANCH  28  29
HETATM   29  C5  UNL     1       1.360   9.839  15.651  1.00  0.00     0.183 C 
BRANCH  29  30
HETATM   30  C6  UNL     1       1.235  11.169  16.390  1.00  0.00     0.065 C 
BRANCH  30  31
HETATM   31  C7  UNL     1       1.327  11.001  17.884  1.00  0.00    -0.056 A 
HETATM   32  C8  UNL     1       0.202  11.218  18.693  1.00  0.00     0.007 A 
HETATM   33  C9  UNL     1       0.280  11.043  20.075  1.00  0.00     0.001 A 
HETATM   34  C10 UNL     1       1.482  10.649  20.662  1.00  0.00     0.000 A 
HETATM   35  C11 UNL     1       2.606  10.432  19.867  1.00  0.00     0.001 A 
HETATM   36  C12 UNL     1       2.530  10.605  18.483  1.00  0.00     0.007 A 
ENDBRANCH  30  31
ENDBRANCH  29  30
ENDBRANCH  28  29
ENDBRANCH  26  28
ENDBRANCH   3  26
TORSDOF 6
ENDMDL
MODEL 6
REMARK minimizedAffinity -8.76702976
REMARK  6 active torsions:
REMARK  status: ('A' for Active; 'I' for Inactive)
REMARK    1  A    between atoms: C3_3  and  C4_4 
REMARK    2  A    between atoms: C4_4  and  O2_6 
REMARK    3  A    between atoms: O2_6  and  C5_7 
REMARK    4  A    between atoms: C5_7  and  C6_8 
REMARK    5  A    between atoms: C6_8  and  C7_9 
REMARK    6  A    between atoms: C13_15  and  C14_16 
ROOT
HETATM    1  C1  UNL     1       2.931   7.490  15.467  1.00  0.00     0.069 C 
HETATM    2  C2  UNL     1       2.418   7.351  14.056  1.00  0.00     0.018 C 
HETATM    3  C3  UNL     1       1.110   7.291  13.717  1.00  0.00     0.052 C 
HETATM    4  C13 UNL     1       0.651   7.136  12.270  1.00  0.00     0.104 C 
HETATM    5  C23 UNL     1       1.814   7.299  11.289  1.00  0.00     0.024 C 
HETATM    6  C24 UNL     1       3.095   7.370  11.708  1.00  0.00     0.020 C 
HETATM    7  C25 UNL     1       4.262   7.548  10.766  1.00  0.00     0.058 C 
HETATM    8  C26 UNL     1       3.840   8.148   9.430  1.00  0.00     0.014 C 
HETATM    9  C27 UNL     1       2.648   7.407   8.850  1.00  0.00     0.084 C 
HETATM   10  C28 UNL     1       1.500   7.370   9.834  1.00  0.00     0.158 C 
HETATM   11  O5  UNL     1       0.333   7.332   9.445  1.00  0.00    -0.293 OA
HETATM   12  N1  UNL     1       3.383   7.317  13.060  1.00  0.00    -0.362 N 
HETATM   13  H24 UNL     1       4.350   7.456  13.346  1.00  0.00     0.165 HD
ENDROOT
BRANCH   4  14
HETATM   14  C14 UNL     1      -0.058   5.802  12.086  1.00  0.00     0.029 A 
HETATM   15  C15 UNL     1       0.538   4.631  11.813  1.00  0.00     0.154 A 
HETATM   16  O3  UNL     1      -0.075   3.417  11.616  1.00  0.00    -0.321 OA
HETATM   17  C16 UNL     1      -1.445   3.386  11.645  1.00  0.00     0.089 A 
HETATM   18  C17 UNL     1      -2.063   2.163  11.386  1.00  0.00     0.040 A 
HETATM   19  C21 UNL     1      -2.217   4.512  11.929  1.00  0.00     0.050 A 
HETATM   20  C18 UNL     1      -3.457   2.072  11.412  1.00  0.00     0.026 A 
HETATM   21  C19 UNL     1      -4.226   3.204  11.696  1.00  0.00     0.035 A 
HETATM   22 CL1  UNL     1      -5.942   3.082  11.729  1.00  0.00    -0.084 Cl
HETATM   23  C20 UNL     1      -3.613   4.428  11.957  1.00  0.00     0.042 A 
HETATM   24  C22 UNL     1      -1.538   5.787  12.213  1.00  0.00     0.194 A 
HETATM   25  O4  UNL     1      -2.177   6.768  12.567  1.00  0.00    -0.287 OA
ENDBRANCH   4  14
BRANCH   3  26
HETATM   26  C4  UNL     1       0.053   7.353  14.742  1.00  0.00     0.292 C 
HETATM   27  O1  UNL     1      -0.315   6.397  15.403  1.00  0.00    -0.259 OA
BRANCH  26  28
HETATM   28  O2  UNL     1      -0.415   8.622  14.807  1.00  0.00    -0.317 OA
BRANCH  28  29
HETATM   29  C5  UNL     1      -1.483   8.820  15.745  1.00  0.00     0.183 C 
BRANCH  29  30
HETATM   30  C6  UNL     1      -2.685   9.378  14.988  1.00  0.00     0.065 C 
BRANCH  30  31
HETATM   31  C7  UNL     1      -3.911   8.517  15.151  1.00  0.00    -0.056 A 
HETATM   32  C8  UNL     1      -3.786   7.129  15.311  1.00  0.00     0.007 A 
HETATM   33  C9  UNL     1      -4.918   6.332  15.483  1.00  0.00     0.001 A 
HETATM   34  C10 UNL     1      -6.185   6.914  15.497  1.00  0.00     0.000 A 
HETATM   35  C11 UNL     1      -6.320   8.292  15.338  1.00  0.00     0.001 A 
HETATM   36  C12 UNL     1      -5.188   9.092  15.168  1.00  0.00     0.007 A 
ENDBRANCH  30  31
ENDBRANCH  29  30
ENDBRANCH  28  29
ENDBRANCH  26  28
ENDBRANCH   3  26
TORSDOF 6
ENDMDL
MODEL 7
REMARK minimizedAffinity -8.65247154
REMARK  6 active torsions:
REMARK  status: ('A' for Active; 'I' for Inactive)
REMARK    1  A    between atoms: C3_3  and  C4_4 
REMARK    2  A    between atoms: C4_4  and  O2_6 
REMARK    3  A    between atoms: O2_6  and  C5_7 
REMARK    4  A    between atoms: C5_7  and  C6_8 
REMARK    5  A    between atoms: C6_8  and  C7_9 
REMARK    6  A    between atoms: C13_15  and  C14_16 
ROOT
HETATM    1  C1  UNL     1       3.035   7.329  15.639  1.00  0.00     0.069 C 
HETATM    2  C2  UNL     1       2.443   7.440  14.257  1.00  0.00     0.018 C 
HETATM    3  C3  UNL     1       1.136   7.674  13.998  1.00  0.00     0.052 C 
HETATM    4  C13 UNL     1       0.592   7.762  12.575  1.00  0.00     0.104 C 
HETATM    5  C23 UNL     1       1.718   7.792  11.540  1.00  0.00     0.024 C 
HETATM    6  C24 UNL     1       3.005   7.566  11.882  1.00  0.00     0.020 C 
HETATM    7  C25 UNL     1       4.141   7.606  10.887  1.00  0.00     0.058 C 
HETATM    8  C26 UNL     1       3.791   8.412   9.642  1.00  0.00     0.014 C 
HETATM    9  C27 UNL     1       2.449   7.984   9.074  1.00  0.00     0.084 C 
HETATM   10  C28 UNL     1       1.361   8.073  10.121  1.00  0.00     0.158 C 
HETATM   11  O5  UNL     1       0.195   8.306   9.806  1.00  0.00    -0.293 OA
HETATM   12  N1  UNL     1       3.336   7.319  13.202  1.00  0.00    -0.362 N 
HETATM   13  H24 UNL     1       4.323   7.235  13.437  1.00  0.00     0.165 HD
ENDROOT
BRANCH   4  14
HETATM   14  C14 UNL     1      -0.381   6.620  12.315  1.00  0.00     0.029 A 
HETATM   15  C15 UNL     1      -1.716   6.687  12.444  1.00  0.00     0.154 A 
HETATM   16  O3  UNL     1      -2.617   5.670  12.243  1.00  0.00    -0.321 OA
HETATM   17  C16 UNL     1      -2.118   4.433  11.925  1.00  0.00     0.089 A 
HETATM   18  C17 UNL     1      -3.034   3.392  11.779  1.00  0.00     0.040 A 
HETATM   19  C21 UNL     1      -0.757   4.196  11.738  1.00  0.00     0.050 A 
HETATM   20  C18 UNL     1      -2.581   2.111  11.446  1.00  0.00     0.026 A 
HETATM   21  C19 UNL     1      -1.215   1.881  11.261  1.00  0.00     0.035 A 
HETATM   22 CL1  UNL     1      -0.666   0.303  10.848  1.00  0.00    -0.084 Cl
HETATM   23  C20 UNL     1      -0.296   2.918  11.405  1.00  0.00     0.042 A 
HETATM   24  C22 UNL     1       0.186   5.317  11.884  1.00  0.00     0.194 A 
HETATM   25  O4  UNL     1       1.373   5.171  11.627  1.00  0.00    -0.287 OA
ENDBRANCH   4  14
BRANCH   3  26
HETATM   26  C4  UNL     1       0.159   7.838  15.090  1.00  0.00     0.292 C 
HETATM   27  O1  UNL     1       0.154   7.166  16.108  1.00  0.00    -0.259 OA
BRANCH  26  28
HETATM   28  O2  UNL     1      -0.697   8.833  14.761  1.00  0.00    -0.317 OA
BRANCH  28  29
HETATM   29  C5  UNL     1      -1.654   9.161  15.779  1.00  0.00     0.183 C 
BRANCH  29  30
HETATM   30  C6  UNL     1      -2.392   7.883  16.168  1.00  0.00     0.065 C 
BRANCH  30  31
HETATM   31  C7  UNL     1      -3.577   7.616  15.276  1.00  0.00    -0.056 A 
HETATM   32  C8  UNL     1      -4.053   8.614  14.412  1.00  0.00     0.007 A 
HETATM   33  C9  UNL     1      -5.137   8.362  13.570  1.00  0.00     0.001 A 
HETATM   34  C10 UNL     1      -5.756   7.113  13.584  1.00  0.00     0.000 A 
HETATM   35  C11 UNL     1      -5.292   6.115  14.441  1.00  0.00     0.001 A 
HETATM   36  C12 UNL     1      -4.206   6.364  15.283  1.00  0.00     0.007 A 
ENDBRANCH  30  31
ENDBRANCH  29  30
ENDBRANCH  28  29
ENDBRANCH  26  28
ENDBRANCH   3  26
TORSDOF 6
ENDMDL
MODEL 8
REMARK minimizedAffinity -8.65002537
REMARK  6 active torsions:
REMARK  status: ('A' for Active; 'I' for Inactive)
REMARK    1  A    between atoms: C3_3  and  C4_4 
REMARK    2  A    between atoms: C4_4  and  O2_6 
REMARK    3  A    between atoms: O2_6  and  C5_7 
REMARK    4  A    between atoms: C5_7  and  C6_8 
REMARK    5  A    between atoms: C6_8  and  C7_9 
REMARK    6  A    between atoms: C13_15  and  C14_16 
ROOT
HETATM    1  C1  UNL     1       3.767   7.687  13.955  1.00  0.00     0.069 C 
HETATM    2  C2  UNL     1       2.776   7.865  12.833  1.00  0.00     0.018 C 
HETATM    3  C3  UNL     1       1.555   8.431  12.970  1.00  0.00     0.052 C 
HETATM    4  C13 UNL     1       0.588   8.572  11.798  1.00  0.00     0.104 C 
HETATM    5  C23 UNL     1       1.258   8.224  10.467  1.00  0.00     0.024 C 
HETATM    6  C24 UNL     1       2.491   7.677  10.413  1.00  0.00     0.020 C 
HETATM    7  C25 UNL     1       3.186   7.338   9.116  1.00  0.00     0.058 C 
HETATM    8  C26 UNL     1       2.626   8.125   7.938  1.00  0.00     0.014 C 
HETATM    9  C27 UNL     1       1.110   8.046   7.898  1.00  0.00     0.084 C 
HETATM   10  C28 UNL     1       0.507   8.498   9.210  1.00  0.00     0.158 C 
HETATM   11  O5  UNL     1      -0.605   9.021   9.249  1.00  0.00    -0.293 OA
HETATM   12  N1  UNL     1       3.191   7.435  11.581  1.00  0.00    -0.362 N 
HETATM   13  H24 UNL     1       4.149   7.099  11.500  1.00  0.00     0.165 HD
ENDROOT
BRANCH   4  14
HETATM   14  C14 UNL     1      -0.655   7.726  12.040  1.00  0.00     0.029 A 
HETATM   15  C15 UNL     1      -1.809   8.167  12.565  1.00  0.00     0.154 A 
HETATM   16  O3  UNL     1      -2.938   7.425  12.820  1.00  0.00    -0.321 OA
HETATM   17  C16 UNL     1      -2.883   6.079  12.566  1.00  0.00     0.089 A 
HETATM   18  C17 UNL     1      -4.011   5.322  12.881  1.00  0.00     0.040 A 
HETATM   19  C21 UNL     1      -1.764   5.463  12.007  1.00  0.00     0.050 A 
HETATM   20  C18 UNL     1      -4.014   3.946  12.636  1.00  0.00     0.026 A 
HETATM   21  C19 UNL     1      -2.889   3.335  12.076  1.00  0.00     0.035 A 
HETATM   22 CL1  UNL     1      -2.901   1.641  11.773  1.00  0.00    -0.084 Cl
HETATM   23  C20 UNL     1      -1.760   4.087  11.758  1.00  0.00     0.042 A 
HETATM   24  C22 UNL     1      -0.592   6.289  11.671  1.00  0.00     0.194 A 
HETATM   25  O4  UNL     1       0.365   5.803  11.085  1.00  0.00    -0.287 OA
ENDBRANCH   4  14
BRANCH   3  26
HETATM   26  C4  UNL     1       1.086   8.928  14.276  1.00  0.00     0.292 C 
HETATM   27  O1  UNL     1       0.719   8.207  15.189  1.00  0.00    -0.259 OA
BRANCH  26  28
HETATM   28  O2  UNL     1       1.136  10.281  14.270  1.00  0.00    -0.317 OA
BRANCH  28  29
HETATM   29  C5  UNL     1       0.780  10.899  15.515  1.00  0.00     0.183 C 
BRANCH  29  30
HETATM   30  C6  UNL     1       2.023  10.942  16.399  1.00  0.00     0.065 C 
BRANCH  30  31
HETATM   31  C7  UNL     1       1.681  10.887  17.865  1.00  0.00    -0.056 A 
HETATM   32  C8  UNL     1       0.352  11.034  18.289  1.00  0.00     0.007 A 
HETATM   33  C9  UNL     1       0.030  10.963  19.645  1.00  0.00     0.001 A 
HETATM   34  C10 UNL     1       1.032  10.745  20.589  1.00  0.00     0.000 A 
HETATM   35  C11 UNL     1       2.357  10.601  20.179  1.00  0.00     0.001 A 
HETATM   36  C12 UNL     1       2.681  10.669  18.822  1.00  0.00     0.007 A 
ENDBRANCH  30  31
ENDBRANCH  29  30
ENDBRANCH  28  29
ENDBRANCH  26  28
ENDBRANCH   3  26
TORSDOF 6
ENDMDL
MODEL 9
REMARK minimizedAffinity -8.6345253
REMARK  6 active torsions:
REMARK  status: ('A' for Active; 'I' for Inactive)
REMARK    1  A    between atoms: C3_3  and  C4_4 
REMARK    2  A    between atoms: C4_4  and  O2_6 
REMARK    3  A    between atoms: O2_6  and  C5_7 
REMARK    4  A    between atoms: C5_7  and  C6_8 
REMARK    5  A    between atoms: C6_8  and  C7_9 
REMARK    6  A    between atoms: C13_15  and  C14_16 
ROOT
HETATM    1  C1  UNL     1       4.107   8.047  13.941  1.00  0.00     0.069 C 
HETATM    2  C2  UNL     1       3.049   8.077  12.868  1.00  0.00     0.018 C 
HETATM    3  C3  UNL     1       1.766   8.459  13.065  1.00  0.00     0.052 C 
HETATM    4  C13 UNL     1       0.735   8.456  11.940  1.00  0.00     0.104 C 
HETATM    5  C23 UNL     1       1.386   8.210  10.578  1.00  0.00     0.024 C 
HETATM    6  C24 UNL     1       2.681   7.849  10.462  1.00  0.00     0.020 C 
HETATM    7  C25 UNL     1       3.357   7.616   9.132  1.00  0.00     0.058 C 
HETATM    8  C26 UNL     1       2.633   8.312   7.986  1.00  0.00     0.014 C 
HETATM    9  C27 UNL     1       1.144   8.012   8.017  1.00  0.00     0.084 C 
HETATM   10  C28 UNL     1       0.544   8.371   9.358  1.00  0.00     0.158 C 
HETATM   11  O5  UNL     1      -0.630   8.726   9.453  1.00  0.00    -0.293 OA
HETATM   12  N1  UNL     1       3.464   7.713  11.595  1.00  0.00    -0.362 N 
HETATM   13  H24 UNL     1       4.455   7.520  11.468  1.00  0.00     0.165 HD
ENDROOT
BRANCH   4  14
HETATM   14  C14 UNL     1      -0.358   7.438  12.234  1.00  0.00     0.029 A 
HETATM   15  C15 UNL     1      -0.232   6.105  12.130  1.00  0.00     0.154 A 
HETATM   16  O3  UNL     1      -1.205   5.163  12.363  1.00  0.00    -0.321 OA
HETATM   17  C16 UNL     1      -2.459   5.612  12.687  1.00  0.00     0.089 A 
HETATM   18  C17 UNL     1      -3.455   4.653  12.865  1.00  0.00     0.040 A 
HETATM   19  C21 UNL     1      -2.756   6.964  12.850  1.00  0.00     0.050 A 
HETATM   20  C18 UNL     1      -4.751   5.053  13.204  1.00  0.00     0.026 A 
HETATM   21  C19 UNL     1      -5.041   6.411  13.366  1.00  0.00     0.035 A 
HETATM   22 CL1  UNL     1      -6.638   6.896  13.788  1.00  0.00    -0.084 Cl
HETATM   23  C20 UNL     1      -4.049   7.373  13.191  1.00  0.00     0.042 A 
HETATM   24  C22 UNL     1      -1.680   7.954  12.671  1.00  0.00     0.194 A 
HETATM   25  O4  UNL     1      -1.878   9.138  12.907  1.00  0.00    -0.287 OA
ENDBRANCH   4  14
BRANCH   3  26
HETATM   26  C4  UNL     1       1.292   8.882  14.395  1.00  0.00     0.292 C 
HETATM   27  O1  UNL     1       0.971   8.110  15.283  1.00  0.00    -0.259 OA
BRANCH  26  28
HETATM   28  O2  UNL     1       1.278  10.235  14.441  1.00  0.00    -0.317 OA
BRANCH  28  29
HETATM   29  C5  UNL     1       0.649  10.788  15.606  1.00  0.00     0.183 C 
BRANCH  29  30
HETATM   30  C6  UNL     1       1.724  11.466  16.452  1.00  0.00     0.065 C 
BRANCH  30  31
HETATM   31  C7  UNL     1       1.576  11.153  17.918  1.00  0.00    -0.056 A 
HETATM   32  C8  UNL     1       2.687  10.751  18.674  1.00  0.00     0.007 A 
HETATM   33  C9  UNL     1       2.556  10.481  20.036  1.00  0.00     0.001 A 
HETATM   34  C10 UNL     1       1.314  10.609  20.656  1.00  0.00     0.000 A 
HETATM   35  C11 UNL     1       0.203  11.006  19.914  1.00  0.00     0.001 A 
HETATM   36  C12 UNL     1       0.332  11.279  18.551  1.00  0.00     0.007 A 
ENDBRANCH  30  31
ENDBRANCH  29  30
ENDBRANCH  28  29
ENDBRANCH  26  28
ENDBRANCH   3  26
TORSDOF 6
ENDMDL
