MODEL 1
REMARK minimizedAffinity -8.93215752
REMARK CNNscore 0.789868534
REMARK CNNaffinity 7.20258093
REMARK  15 active torsions:
REMARK  status: ('A' for Active; 'I' for Inactive)
REMARK    1  A    between atoms: O1_2  and  C2_3 
REMARK    2  A    between atoms: C6_8  and  C7_9 
REMARK    3  A    between atoms: C7_9  and  O3_11 
REMARK    4  A    between atoms: C8_12  and  C9_13 
REMARK    5  A    between atoms: C9_13  and  C10_14 
REMARK    6  A    between atoms: C10_14  and  N2_15 
REMARK       I    between atoms: N2_15  and  C11_16 
REMARK    7  A    between atoms: C11_16  and  C12_18 
REMARK    8  A    between atoms: C12_18  and  C13_19 
REMARK    9  A    between atoms: C13_19  and  C14_20 
REMARK   10  A    between atoms: C14_20  and  O6_22 
REMARK   11  A    between atoms: O6_22  and  C15_23 
REMARK   12  A    between atoms: C15_23  and  C16_24 
REMARK   13  A    between atoms: C16_24  and  C17_26 
REMARK   14  A    between atoms: C17_26  and  O8_27 
REMARK   15  A    between atoms: C32_43  and  O10_44 
ROOT
HETATM    1  O6  UNL     1       1.382  51.124 -14.044  1.00  0.00    -0.314 OA
ENDROOT
BRANCH   1   2
HETATM    2  C14 UNL     1       1.851  51.522 -15.250  1.00  0.00     0.259 C 
HETATM    3  O5  UNL     1       2.976  51.986 -15.421  1.00  0.00    -0.265 OA
BRANCH   2   4
HETATM    4  C13 UNL     1       0.842  51.362 -16.366  1.00  0.00     0.120 C 
BRANCH   4   5
HETATM    5  C12 UNL     1       1.043  52.321 -17.535  1.00  0.00     0.112 C 
BRANCH   5   6
HETATM    6  C11 UNL     1       0.312  51.858 -18.781  1.00  0.00     0.218 C 
HETATM    7  N2  UNL     1       0.327  52.796 -19.790  1.00  0.00    -0.361 N 
HETATM    8  H12 UNL     1       0.525  53.755 -19.531  1.00  0.00     0.162 HD
HETATM    9  O4  UNL     1      -0.204  50.752 -18.885  1.00  0.00    -0.274 OA
BRANCH   7  10
HETATM   10  C10 UNL     1      -0.450  52.597 -21.003  1.00  0.00     0.127 C 
BRANCH  10  11
HETATM   11  C9  UNL     1       0.415  52.228 -22.208  1.00  0.00     0.061 C 
BRANCH  11  12
HETATM   12  C8  UNL     1      -0.383  51.942 -23.451  1.00  0.00    -0.011 A 
HETATM   13  C6  UNL     1      -0.400  52.670 -24.640  1.00  0.00     0.114 A 
HETATM   14  N1  UNL     1      -1.275  52.027 -25.488  1.00  0.00    -0.350 N 
HETATM   15  C5  UNL     1      -1.830  50.924 -24.893  1.00  0.00     0.043 A 
HETATM   16  H6  UNL     1      -1.482  52.344 -26.427  1.00  0.00     0.166 HD
HETATM   17  C4  UNL     1      -2.761  50.005 -25.387  1.00  0.00     0.033 A 
HETATM   18  C36 UNL     1      -1.294  50.843 -23.612  1.00  0.00     0.002 A 
HETATM   19  C3  UNL     1      -3.163  48.963 -24.542  1.00  0.00     0.039 A 
HETATM   20  C2  UNL     1      -2.651  48.848 -23.251  1.00  0.00     0.069 A 
HETATM   21  C37 UNL     1      -1.713  49.780 -22.783  1.00  0.00     0.051 A 
BRANCH  13  22
HETATM   22  C7  UNL     1       0.277  53.859 -25.075  1.00  0.00     0.194 C 
HETATM   23  O2  UNL     1       0.141  54.415 -26.153  1.00  0.00    -0.645 OA
BRANCH  22  24
HETATM   24  O3  UNL     1       1.129  54.343 -24.151  1.00  0.00    -0.772 OA
HETATM   25  H7  UNL     1       1.500  55.138 -24.587  1.00  0.00     0.167 HD
ENDBRANCH  22  24
ENDBRANCH  13  22
BRANCH  20  26
HETATM   26  O1  UNL     1      -2.975  47.873 -22.344  1.00  0.00    -0.356 OA
HETATM   27  C1  UNL     1      -1.899  47.255 -21.649  1.00  0.00     0.210 C 
ENDBRANCH  20  26
ENDBRANCH  11  12
ENDBRANCH  10  11
ENDBRANCH   7  10
ENDBRANCH   5   6
ENDBRANCH   4   5
ENDBRANCH   2   4
ENDBRANCH   1   2
BRANCH   1  28
HETATM   28  C15 UNL     1       1.083  52.152 -13.108  1.00  0.00     0.260 C 
BRANCH  28  29
HETATM   29  C16 UNL     1       1.245  51.686 -11.673  1.00  0.00     0.185 C 
HETATM   30  O7  UNL     1       0.694  50.642 -11.310  1.00  0.00    -0.292 OA
BRANCH  29  31
HETATM   31  C17 UNL     1       2.195  52.491 -10.737  1.00  0.00     0.128 C 
HETATM   32  C18 UNL     1       3.232  53.312 -11.570  1.00  0.00     0.047 C 
HETATM   33  C19 UNL     1       3.417  54.664 -10.854  1.00  0.00     0.009 C 
HETATM   34  C20 UNL     1       2.673  54.505  -9.532  1.00  0.00     0.002 C 
HETATM   35  C21 UNL     1       2.283  55.774  -8.759  1.00  0.00    -0.002 C 
HETATM   36  C34 UNL     1       1.467  53.606  -9.902  1.00  0.00     0.001 C 
HETATM   37  C22 UNL     1       3.528  56.622  -8.446  1.00  0.00     0.010 C 
HETATM   38  C31 UNL     1       1.562  55.366  -7.432  1.00  0.00     0.031 C 
HETATM   39  C23 UNL     1       3.177  57.853  -7.622  1.00  0.00     0.035 C 
HETATM   40  C24 UNL     1       2.438  57.489  -6.357  1.00  0.00    -0.068 C 
HETATM   41  C25 UNL     1       2.873  57.947  -5.171  1.00  0.00     0.053 C 
HETATM   42  C29 UNL     1       1.188  56.610  -6.529  1.00  0.00    -0.014 C 
HETATM   43  C26 UNL     1       2.110  57.717  -3.924  1.00  0.00     0.149 C 
HETATM   44  O9  UNL     1       2.589  58.062  -2.847  1.00  0.00    -0.293 OA
HETATM   45  C27 UNL     1       0.727  57.130  -4.047  1.00  0.00     0.084 C 
HETATM   46  C28 UNL     1       0.712  56.075  -5.143  1.00  0.00     0.022 C 
HETATM   47  C30 UNL     1       0.076  57.508  -7.123  1.00  0.00     0.020 C 
HETATM   48  C32 UNL     1       0.412  54.342  -7.662  1.00  0.00     0.124 C 
HETATM   49  C33 UNL     1       0.813  53.162  -8.574  1.00  0.00     0.045 C 
HETATM   50  C35 UNL     1       0.427  54.335 -10.798  1.00  0.00     0.019 C 
BRANCH  31  51
HETATM   51  O8  UNL     1       2.989  51.649  -9.904  1.00  0.00    -0.381 OA
HETATM   52  H19 UNL     1       2.426  51.198  -9.243  1.00  0.00     0.211 HD
ENDBRANCH  31  51
BRANCH  48  53
HETATM   53  O10 UNL     1      -0.742  54.969  -8.199  1.00  0.00    -0.395 OA
HETATM   54  H40 UNL     1      -1.471  54.327  -8.184  1.00  0.00     0.210 HD
ENDBRANCH  48  53
ENDBRANCH  29  31
ENDBRANCH  28  29
ENDBRANCH   1  28
TORSDOF 15
ENDMDL
MODEL 2
REMARK minimizedAffinity -9.17130852
REMARK CNNscore 0.487501442
REMARK CNNaffinity 6.18798828
REMARK  15 active torsions:
REMARK  status: ('A' for Active; 'I' for Inactive)
REMARK    1  A    between atoms: O1_2  and  C2_3 
REMARK    2  A    between atoms: C6_8  and  C7_9 
REMARK    3  A    between atoms: C7_9  and  O3_11 
REMARK    4  A    between atoms: C8_12  and  C9_13 
REMARK    5  A    between atoms: C9_13  and  C10_14 
REMARK    6  A    between atoms: C10_14  and  N2_15 
REMARK       I    between atoms: N2_15  and  C11_16 
REMARK    7  A    between atoms: C11_16  and  C12_18 
REMARK    8  A    between atoms: C12_18  and  C13_19 
REMARK    9  A    between atoms: C13_19  and  C14_20 
REMARK   10  A    between atoms: C14_20  and  O6_22 
REMARK   11  A    between atoms: O6_22  and  C15_23 
REMARK   12  A    between atoms: C15_23  and  C16_24 
REMARK   13  A    between atoms: C16_24  and  C17_26 
REMARK   14  A    between atoms: C17_26  and  O8_27 
REMARK   15  A    between atoms: C32_43  and  O10_44 
ROOT
HETATM    1  O6  UNL     1      -9.076  46.451 -23.253  1.00  0.00    -0.314 OA
ENDROOT
BRANCH   1   2
HETATM    2  C14 UNL     1     -10.386  46.728 -23.453  1.00  0.00     0.259 C 
HETATM    3  O5  UNL     1     -10.805  47.369 -24.414  1.00  0.00    -0.265 OA
BRANCH   2   4
HETATM    4  C13 UNL     1     -11.284  46.192 -22.360  1.00  0.00     0.120 C 
BRANCH   4   5
HETATM    5  C12 UNL     1     -11.848  47.262 -21.430  1.00  0.00     0.112 C 
BRANCH   5   6
HETATM    6  C11 UNL     1     -13.361  47.341 -21.508  1.00  0.00     0.218 C 
HETATM    7  N2  UNL     1     -13.900  46.423 -22.381  1.00  0.00    -0.361 N 
HETATM    8  H12 UNL     1     -13.283  46.025 -23.079  1.00  0.00     0.162 HD
HETATM    9  O4  UNL     1     -14.028  48.118 -20.835  1.00  0.00    -0.274 OA
BRANCH   7  10
HETATM   10  C10 UNL     1     -15.318  46.448 -22.705  1.00  0.00     0.127 C 
BRANCH  10  11
HETATM   11  C9  UNL     1     -15.626  47.267 -23.959  1.00  0.00     0.061 C 
BRANCH  11  12
HETATM   12  C8  UNL     1     -16.310  46.472 -25.038  1.00  0.00    -0.011 A 
HETATM   13  C6  UNL     1     -17.673  46.213 -25.172  1.00  0.00     0.114 A 
HETATM   14  N1  UNL     1     -17.823  45.450 -26.309  1.00  0.00    -0.350 N 
HETATM   15  C5  UNL     1     -16.616  45.198 -26.906  1.00  0.00     0.043 A 
HETATM   16  H6  UNL     1     -18.717  45.116 -26.646  1.00  0.00     0.166 HD
HETATM   17  C4  UNL     1     -16.315  44.466 -28.060  1.00  0.00     0.033 A 
HETATM   18  C36 UNL     1     -15.644  45.823 -26.133  1.00  0.00     0.002 A 
HETATM   19  C3  UNL     1     -14.971  44.366 -28.439  1.00  0.00     0.039 A 
HETATM   20  C2  UNL     1     -13.967  44.976 -27.689  1.00  0.00     0.069 A 
HETATM   21  C37 UNL     1     -14.297  45.710 -26.540  1.00  0.00     0.051 A 
BRANCH  13  22
HETATM   22  C7  UNL     1     -18.824  46.575 -24.393  1.00  0.00     0.194 C 
HETATM   23  O2  UNL     1     -18.861  46.718 -23.181  1.00  0.00    -0.645 OA
BRANCH  22  24
HETATM   24  O3  UNL     1     -19.928  46.753 -25.143  1.00  0.00    -0.772 OA
HETATM   25  H7  UNL     1     -20.608  46.994 -24.481  1.00  0.00     0.167 HD
ENDBRANCH  22  24
ENDBRANCH  13  22
BRANCH  20  26
HETATM   26  O1  UNL     1     -12.626  44.940 -27.967  1.00  0.00    -0.356 OA
HETATM   27  C1  UNL     1     -12.238  45.197 -29.312  1.00  0.00     0.210 C 
ENDBRANCH  20  26
ENDBRANCH  11  12
ENDBRANCH  10  11
ENDBRANCH   7  10
ENDBRANCH   5   6
ENDBRANCH   4   5
ENDBRANCH   2   4
ENDBRANCH   1   2
BRANCH   1  28
HETATM   28  C15 UNL     1      -8.377  47.300 -22.352  1.00  0.00     0.260 C 
BRANCH  28  29
HETATM   29  C16 UNL     1      -7.456  48.267 -23.072  1.00  0.00     0.185 C 
HETATM   30  O7  UNL     1      -7.307  48.164 -24.295  1.00  0.00    -0.292 OA
BRANCH  29  31
HETATM   31  C17 UNL     1      -6.813  49.426 -22.253  1.00  0.00     0.128 C 
HETATM   32  C18 UNL     1      -7.281  49.379 -20.762  1.00  0.00     0.047 C 
HETATM   33  C19 UNL     1      -6.066  49.763 -19.896  1.00  0.00     0.009 C 
HETATM   34  C20 UNL     1      -5.014  50.232 -20.895  1.00  0.00     0.002 C 
HETATM   35  C21 UNL     1      -3.547  50.283 -20.437  1.00  0.00    -0.002 C 
HETATM   36  C34 UNL     1      -5.250  49.321 -22.124  1.00  0.00     0.001 C 
HETATM   37  C22 UNL     1      -3.396  51.189 -19.203  1.00  0.00     0.010 C 
HETATM   38  C31 UNL     1      -2.661  50.818 -21.609  1.00  0.00     0.031 C 
HETATM   39  C23 UNL     1      -1.942  51.310 -18.769  1.00  0.00     0.035 C 
HETATM   40  C24 UNL     1      -1.057  51.780 -19.898  1.00  0.00    -0.068 C 
HETATM   41  C25 UNL     1      -0.243  52.834 -19.718  1.00  0.00     0.053 C 
HETATM   42  C29 UNL     1      -1.140  50.977 -21.206  1.00  0.00    -0.014 C 
HETATM   43  C26 UNL     1       0.727  53.251 -20.754  1.00  0.00     0.149 C 
HETATM   44  O9  UNL     1       1.381  54.277 -20.595  1.00  0.00    -0.293 OA
HETATM   45  C27 UNL     1       0.923  52.338 -21.937  1.00  0.00     0.084 C 
HETATM   46  C28 UNL     1      -0.413  51.743 -22.355  1.00  0.00     0.022 C 
HETATM   47  C30 UNL     1      -0.409  49.634 -20.966  1.00  0.00     0.020 C 
HETATM   48  C32 UNL     1      -2.920  50.068 -22.949  1.00  0.00     0.124 C 
HETATM   49  C33 UNL     1      -4.418  49.909 -23.286  1.00  0.00     0.045 C 
HETATM   50  C35 UNL     1      -4.845  47.843 -21.865  1.00  0.00     0.019 C 
BRANCH  31  51
HETATM   51  O8  UNL     1      -7.214  50.714 -22.717  1.00  0.00    -0.381 OA
HETATM   52  H19 UNL     1      -6.837  50.888 -23.602  1.00  0.00     0.211 HD
ENDBRANCH  31  51
BRANCH  48  53
HETATM   53  O10 UNL     1      -2.307  48.788 -22.954  1.00  0.00    -0.395 OA
HETATM   54  H40 UNL     1      -2.368  48.426 -23.854  1.00  0.00     0.210 HD
ENDBRANCH  48  53
ENDBRANCH  29  31
ENDBRANCH  28  29
ENDBRANCH   1  28
TORSDOF 15
ENDMDL
MODEL 3
REMARK minimizedAffinity -9.19936371
REMARK CNNscore 0.457639337
REMARK CNNaffinity 6.9055481
REMARK  15 active torsions:
REMARK  status: ('A' for Active; 'I' for Inactive)
REMARK    1  A    between atoms: O1_2  and  C2_3 
REMARK    2  A    between atoms: C6_8  and  C7_9 
REMARK    3  A    between atoms: C7_9  and  O3_11 
REMARK    4  A    between atoms: C8_12  and  C9_13 
REMARK    5  A    between atoms: C9_13  and  C10_14 
REMARK    6  A    between atoms: C10_14  and  N2_15 
REMARK       I    between atoms: N2_15  and  C11_16 
REMARK    7  A    between atoms: C11_16  and  C12_18 
REMARK    8  A    between atoms: C12_18  and  C13_19 
REMARK    9  A    between atoms: C13_19  and  C14_20 
REMARK   10  A    between atoms: C14_20  and  O6_22 
REMARK   11  A    between atoms: O6_22  and  C15_23 
REMARK   12  A    between atoms: C15_23  and  C16_24 
REMARK   13  A    between atoms: C16_24  and  C17_26 
REMARK   14  A    between atoms: C17_26  and  O8_27 
REMARK   15  A    between atoms: C32_43  and  O10_44 
ROOT
HETATM    1  O6  UNL     1      -4.572  48.560 -28.907  1.00  0.00    -0.314 OA
ENDROOT
BRANCH   1   2
HETATM    2  C14 UNL     1      -3.824  48.953 -27.849  1.00  0.00     0.259 C 
HETATM    3  O5  UNL     1      -3.589  48.235 -26.881  1.00  0.00    -0.265 OA
BRANCH   2   4
HETATM    4  C13 UNL     1      -3.326  50.377 -27.966  1.00  0.00     0.120 C 
BRANCH   4   5
HETATM    5  C12 UNL     1      -2.021  50.648 -27.225  1.00  0.00     0.112 C 
BRANCH   5   6
HETATM    6  C11 UNL     1      -2.263  51.146 -25.812  1.00  0.00     0.218 C 
HETATM    7  N2  UNL     1      -1.132  51.101 -25.028  1.00  0.00    -0.361 N 
HETATM    8  H12 UNL     1      -0.379  50.493 -25.330  1.00  0.00     0.162 HD
HETATM    9  O4  UNL     1      -3.344  51.576 -25.428  1.00  0.00    -0.274 OA
BRANCH   7  10
HETATM   10  C10 UNL     1      -1.201  51.392 -23.604  1.00  0.00     0.127 C 
BRANCH  10  11
HETATM   11  C9  UNL     1      -1.312  50.132 -22.746  1.00  0.00     0.061 C 
BRANCH  11  12
HETATM   12  C8  UNL     1      -1.116  50.392 -21.277  1.00  0.00    -0.011 A 
HETATM   13  C6  UNL     1      -1.674  49.695 -20.206  1.00  0.00     0.114 A 
HETATM   14  N1  UNL     1      -1.207  50.293 -19.056  1.00  0.00    -0.350 N 
HETATM   15  C5  UNL     1      -0.383  51.350 -19.340  1.00  0.00     0.043 A 
HETATM   16  H6  UNL     1      -1.456  49.987 -18.123  1.00  0.00     0.166 HD
HETATM   17  C4  UNL     1       0.291  52.225 -18.481  1.00  0.00     0.033 A 
HETATM   18  C36 UNL     1      -0.306  51.443 -20.725  1.00  0.00     0.002 A 
HETATM   19  C3  UNL     1       1.071  53.235 -19.057  1.00  0.00     0.039 A 
HETATM   20  C2  UNL     1       1.172  53.363 -20.441  1.00  0.00     0.069 A 
HETATM   21  C37 UNL     1       0.492  52.467 -21.279  1.00  0.00     0.051 A 
BRANCH  13  22
HETATM   22  C7  UNL     1      -2.566  48.573 -20.121  1.00  0.00     0.194 C 
HETATM   23  O2  UNL     1      -3.740  48.606 -19.786  1.00  0.00    -0.645 OA
BRANCH  22  24
HETATM   24  O3  UNL     1      -1.976  47.410 -20.453  1.00  0.00    -0.772 OA
HETATM   25  H7  UNL     1      -2.700  46.758 -20.351  1.00  0.00     0.167 HD
ENDBRANCH  22  24
ENDBRANCH  13  22
BRANCH  20  26
HETATM   26  O1  UNL     1       1.903  54.311 -21.107  1.00  0.00    -0.356 OA
HETATM   27  C1  UNL     1       1.504  54.615 -22.439  1.00  0.00     0.210 C 
ENDBRANCH  20  26
ENDBRANCH  11  12
ENDBRANCH  10  11
ENDBRANCH   7  10
ENDBRANCH   5   6
ENDBRANCH   4   5
ENDBRANCH   2   4
ENDBRANCH   1   2
BRANCH   1  28
HETATM   28  C15 UNL     1      -5.790  47.889 -28.610  1.00  0.00     0.260 C 
BRANCH  28  29
HETATM   29  C16 UNL     1      -6.732  47.855 -29.799  1.00  0.00     0.185 C 
HETATM   30  O7  UNL     1      -6.315  47.450 -30.890  1.00  0.00    -0.292 OA
BRANCH  29  31
HETATM   31  C17 UNL     1      -8.226  48.231 -29.570  1.00  0.00     0.128 C 
HETATM   32  C18 UNL     1      -9.049  48.066 -30.888  1.00  0.00     0.047 C 
HETATM   33  C19 UNL     1     -10.426  47.499 -30.492  1.00  0.00     0.009 C 
HETATM   34  C20 UNL     1     -10.445  47.562 -28.969  1.00  0.00     0.002 C 
HETATM   35  C21 UNL     1     -11.469  46.697 -28.217  1.00  0.00    -0.002 C 
HETATM   36  C34 UNL     1      -8.976  47.272 -28.576  1.00  0.00     0.001 C 
HETATM   37  C22 UNL     1     -12.899  47.029 -28.674  1.00  0.00     0.010 C 
HETATM   38  C31 UNL     1     -11.323  46.948 -26.680  1.00  0.00     0.031 C 
HETATM   39  C23 UNL     1     -13.937  46.232 -27.896  1.00  0.00     0.035 C 
HETATM   40  C24 UNL     1     -13.788  46.421 -26.406  1.00  0.00    -0.068 C 
HETATM   41  C25 UNL     1     -14.849  46.783 -25.666  1.00  0.00     0.053 C 
HETATM   42  C29 UNL     1     -12.390  46.153 -25.824  1.00  0.00    -0.014 C 
HETATM   43  C26 UNL     1     -14.776  46.859 -24.190  1.00  0.00     0.149 C 
HETATM   44  O9  UNL     1     -15.735  47.290 -23.557  1.00  0.00    -0.293 OA
HETATM   45  C27 UNL     1     -13.537  46.322 -23.522  1.00  0.00     0.084 C 
HETATM   46  C28 UNL     1     -12.312  46.670 -24.354  1.00  0.00     0.022 C 
HETATM   47  C30 UNL     1     -12.180  44.620 -25.823  1.00  0.00     0.020 C 
HETATM   48  C32 UNL     1      -9.851  46.827 -26.187  1.00  0.00     0.124 C 
HETATM   49  C33 UNL     1      -8.842  47.592 -27.070  1.00  0.00     0.045 C 
HETATM   50  C35 UNL     1      -8.559  45.801 -28.854  1.00  0.00     0.019 C 
BRANCH  31  51
HETATM   51  O8  UNL     1      -8.398  49.599 -29.206  1.00  0.00    -0.381 OA
HETATM   52  H19 UNL     1      -8.033  49.761 -28.314  1.00  0.00     0.211 HD
ENDBRANCH  31  51
BRANCH  48  53
HETATM   53  O10 UNL     1      -9.446  45.470 -26.092  1.00  0.00    -0.395 OA
HETATM   54  H40 UNL     1      -8.584  45.441 -25.644  1.00  0.00     0.210 HD
ENDBRANCH  48  53
ENDBRANCH  29  31
ENDBRANCH  28  29
ENDBRANCH   1  28
TORSDOF 15
ENDMDL
MODEL 4
REMARK minimizedAffinity -10.1861143
REMARK CNNscore 0.454380631
REMARK CNNaffinity 6.90729523
REMARK  15 active torsions:
REMARK  status: ('A' for Active; 'I' for Inactive)
REMARK    1  A    between atoms: O1_2  and  C2_3 
REMARK    2  A    between atoms: C6_8  and  C7_9 
REMARK    3  A    between atoms: C7_9  and  O3_11 
REMARK    4  A    between atoms: C8_12  and  C9_13 
REMARK    5  A    between atoms: C9_13  and  C10_14 
REMARK    6  A    between atoms: C10_14  and  N2_15 
REMARK       I    between atoms: N2_15  and  C11_16 
REMARK    7  A    between atoms: C11_16  and  C12_18 
REMARK    8  A    between atoms: C12_18  and  C13_19 
REMARK    9  A    between atoms: C13_19  and  C14_20 
REMARK   10  A    between atoms: C14_20  and  O6_22 
REMARK   11  A    between atoms: O6_22  and  C15_23 
REMARK   12  A    between atoms: C15_23  and  C16_24 
REMARK   13  A    between atoms: C16_24  and  C17_26 
REMARK   14  A    between atoms: C17_26  and  O8_27 
REMARK   15  A    between atoms: C32_43  and  O10_44 
ROOT
HETATM    1  O6  UNL     1      -3.146  50.181 -27.511  1.00  0.00    -0.314 OA
ENDROOT
BRANCH   1   2
HETATM    2  C14 UNL     1      -3.247  48.964 -26.925  1.00  0.00     0.259 C 
HETATM    3  O5  UNL     1      -2.428  48.529 -26.119  1.00  0.00    -0.265 OA
BRANCH   2   4
HETATM    4  C13 UNL     1      -4.457  48.180 -27.383  1.00  0.00     0.120 C 
BRANCH   4   5
HETATM    5  C12 UNL     1      -4.856  48.431 -28.834  1.00  0.00     0.112 C 
BRANCH   5   6
HETATM    6  C11 UNL     1      -6.233  47.879 -29.148  1.00  0.00     0.218 C 
HETATM    7  N2  UNL     1      -7.241  48.548 -28.490  1.00  0.00    -0.361 N 
HETATM    8  H12 UNL     1      -6.984  49.094 -27.676  1.00  0.00     0.162 HD
HETATM    9  O4  UNL     1      -6.424  46.958 -29.933  1.00  0.00    -0.274 OA
BRANCH   7  10
HETATM   10  C10 UNL     1      -8.613  48.068 -28.544  1.00  0.00     0.127 C 
BRANCH  10  11
HETATM   11  C9  UNL     1      -8.949  47.103 -27.408  1.00  0.00     0.061 C 
BRANCH  11  12
HETATM   12  C8  UNL     1     -10.206  46.312 -27.649  1.00  0.00    -0.011 A 
HETATM   13  C6  UNL     1     -11.480  46.560 -27.142  1.00  0.00     0.114 A 
HETATM   14  N1  UNL     1     -12.305  45.574 -27.636  1.00  0.00    -0.350 N 
HETATM   15  C5  UNL     1     -11.614  44.695 -28.430  1.00  0.00     0.043 A 
HETATM   16  H6  UNL     1     -13.293  45.510 -27.426  1.00  0.00     0.166 HD
HETATM   17  C4  UNL     1     -12.057  43.559 -29.116  1.00  0.00     0.033 A 
HETATM   18  C36 UNL     1     -10.293  45.127 -28.458  1.00  0.00     0.002 A 
HETATM   19  C3  UNL     1     -11.115  42.834 -29.857  1.00  0.00     0.039 A 
HETATM   20  C2  UNL     1      -9.780  43.233 -29.907  1.00  0.00     0.069 A 
HETATM   21  C37 UNL     1      -9.365  44.381 -29.216  1.00  0.00     0.051 A 
BRANCH  13  22
HETATM   22  C7  UNL     1     -12.014  47.573 -26.275  1.00  0.00     0.194 C 
HETATM   23  O2  UNL     1     -12.581  47.388 -25.210  1.00  0.00    -0.645 OA
BRANCH  22  24
HETATM   24  O3  UNL     1     -11.835  48.819 -26.754  1.00  0.00    -0.772 OA
HETATM   25  H7  UNL     1     -12.240  49.382 -26.063  1.00  0.00     0.167 HD
ENDBRANCH  22  24
ENDBRANCH  13  22
BRANCH  20  26
HETATM   26  O1  UNL     1      -8.780  42.599 -30.596  1.00  0.00    -0.356 OA
HETATM   27  C1  UNL     1      -8.537  43.037 -31.927  1.00  0.00     0.210 C 
ENDBRANCH  20  26
ENDBRANCH  11  12
ENDBRANCH  10  11
ENDBRANCH   7  10
ENDBRANCH   5   6
ENDBRANCH   4   5
ENDBRANCH   2   4
ENDBRANCH   1   2
BRANCH   1  28
HETATM   28  C15 UNL     1      -1.856  50.780 -27.513  1.00  0.00     0.260 C 
BRANCH  28  29
HETATM   29  C16 UNL     1      -1.763  51.948 -26.550  1.00  0.00     0.185 C 
HETATM   30  O7  UNL     1      -2.552  52.893 -26.666  1.00  0.00    -0.292 OA
BRANCH  29  31
HETATM   31  C17 UNL     1      -0.742  51.862 -25.378  1.00  0.00     0.128 C 
HETATM   32  C18 UNL     1       0.066  53.193 -25.244  1.00  0.00     0.047 C 
HETATM   33  C19 UNL     1       0.253  53.458 -23.737  1.00  0.00     0.009 C 
HETATM   34  C20 UNL     1      -0.242  52.185 -23.058  1.00  0.00     0.002 C 
HETATM   35  C21 UNL     1      -0.602  52.248 -21.566  1.00  0.00    -0.002 C 
HETATM   36  C34 UNL     1      -1.410  51.723 -23.962  1.00  0.00     0.001 C 
HETATM   37  C22 UNL     1       0.600  52.732 -20.738  1.00  0.00     0.010 C 
HETATM   38  C31 UNL     1      -1.051  50.830 -21.085  1.00  0.00     0.031 C 
HETATM   39  C23 UNL     1       0.290  52.741 -19.247  1.00  0.00     0.035 C 
HETATM   40  C24 UNL     1      -0.191  51.393 -18.767  1.00  0.00    -0.068 C 
HETATM   41  C25 UNL     1       0.397  50.809 -17.709  1.00  0.00     0.053 C 
HETATM   42  C29 UNL     1      -1.372  50.779 -19.536  1.00  0.00    -0.014 C 
HETATM   43  C26 UNL     1      -0.121  49.550 -17.131  1.00  0.00     0.149 C 
HETATM   44  O9  UNL     1       0.501  48.995 -16.230  1.00  0.00    -0.293 OA
HETATM   45  C27 UNL     1      -1.450  49.044 -17.632  1.00  0.00     0.084 C 
HETATM   46  C28 UNL     1      -1.559  49.284 -19.130  1.00  0.00     0.022 C 
HETATM   47  C30 UNL     1      -2.641  51.566 -19.131  1.00  0.00     0.020 C 
HETATM   48  C32 UNL     1      -2.131  50.194 -22.009  1.00  0.00     0.124 C 
HETATM   49  C33 UNL     1      -1.791  50.294 -23.512  1.00  0.00     0.045 C 
HETATM   50  C35 UNL     1      -2.646  52.662 -23.874  1.00  0.00     0.019 C 
BRANCH  31  51
HETATM   51  O8  UNL     1       0.251  50.858 -25.587  1.00  0.00    -0.381 OA
HETATM   52  H19 UNL     1      -0.152  49.968 -25.541  1.00  0.00     0.211 HD
ENDBRANCH  31  51
BRANCH  48  53
HETATM   53  O10 UNL     1      -3.408  50.770 -21.785  1.00  0.00    -0.395 OA
HETATM   54  H40 UNL     1      -4.067  50.244 -22.271  1.00  0.00     0.210 HD
ENDBRANCH  48  53
ENDBRANCH  29  31
ENDBRANCH  28  29
ENDBRANCH   1  28
TORSDOF 15
ENDMDL
MODEL 5
REMARK minimizedAffinity -9.43375492
REMARK CNNscore 0.43380335
REMARK CNNaffinity 7.33592176
REMARK  15 active torsions:
REMARK  status: ('A' for Active; 'I' for Inactive)
REMARK    1  A    between atoms: O1_2  and  C2_3 
REMARK    2  A    between atoms: C6_8  and  C7_9 
REMARK    3  A    between atoms: C7_9  and  O3_11 
REMARK    4  A    between atoms: C8_12  and  C9_13 
REMARK    5  A    between atoms: C9_13  and  C10_14 
REMARK    6  A    between atoms: C10_14  and  N2_15 
REMARK       I    between atoms: N2_15  and  C11_16 
REMARK    7  A    between atoms: C11_16  and  C12_18 
REMARK    8  A    between atoms: C12_18  and  C13_19 
REMARK    9  A    between atoms: C13_19  and  C14_20 
REMARK   10  A    between atoms: C14_20  and  O6_22 
REMARK   11  A    between atoms: O6_22  and  C15_23 
REMARK   12  A    between atoms: C15_23  and  C16_24 
REMARK   13  A    between atoms: C16_24  and  C17_26 
REMARK   14  A    between atoms: C17_26  and  O8_27 
REMARK   15  A    between atoms: C32_43  and  O10_44 
ROOT
HETATM    1  O6  UNL     1      -4.039  49.162 -28.693  1.00  0.00    -0.314 OA
ENDROOT
BRANCH   1   2
HETATM    2  C14 UNL     1      -3.484  49.580 -27.531  1.00  0.00     0.259 C 
HETATM    3  O5  UNL     1      -2.932  50.669 -27.396  1.00  0.00    -0.265 OA
BRANCH   2   4
HETATM    4  C13 UNL     1      -3.587  48.559 -26.419  1.00  0.00     0.120 C 
BRANCH   4   5
HETATM    5  C12 UNL     1      -4.398  49.025 -25.214  1.00  0.00     0.112 C 
BRANCH   5   6
HETATM    6  C11 UNL     1      -3.508  49.458 -24.064  1.00  0.00     0.218 C 
HETATM    7  N2  UNL     1      -4.212  49.703 -22.906  1.00  0.00    -0.361 N 
HETATM    8  H12 UNL     1      -5.207  49.873 -22.993  1.00  0.00     0.162 HD
HETATM    9  O4  UNL     1      -2.290  49.543 -24.153  1.00  0.00    -0.274 OA
BRANCH   7  10
HETATM   10  C10 UNL     1      -3.554  50.274 -21.741  1.00  0.00     0.127 C 
BRANCH  10  11
HETATM   11  C9  UNL     1      -2.041  50.060 -21.750  1.00  0.00     0.061 C 
BRANCH  11  12
HETATM   12  C8  UNL     1      -1.282  51.125 -21.006  1.00  0.00    -0.011 A 
HETATM   13  C6  UNL     1      -1.279  51.368 -19.633  1.00  0.00     0.114 A 
HETATM   14  N1  UNL     1      -0.439  52.439 -19.420  1.00  0.00    -0.350 N 
HETATM   15  C5  UNL     1       0.089  52.902 -20.597  1.00  0.00     0.043 A 
HETATM   16  H6  UNL     1      -0.250  52.831 -18.506  1.00  0.00     0.166 HD
HETATM   17  C4  UNL     1       0.969  53.964 -20.835  1.00  0.00     0.033 A 
HETATM   18  C36 UNL     1      -0.421  52.103 -21.613  1.00  0.00     0.002 A 
HETATM   19  C3  UNL     1       1.342  54.220 -22.160  1.00  0.00     0.039 A 
HETATM   20  C2  UNL     1       0.849  53.443 -23.207  1.00  0.00     0.069 A 
HETATM   21  C37 UNL     1      -0.026  52.380 -22.939  1.00  0.00     0.051 A 
BRANCH  13  22
HETATM   22  C7  UNL     1      -1.944  50.745 -18.523  1.00  0.00     0.194 C 
HETATM   23  O2  UNL     1      -1.771  49.605 -18.124  1.00  0.00    -0.645 OA
BRANCH  22  24
HETATM   24  O3  UNL     1      -2.830  51.560 -17.920  1.00  0.00    -0.772 OA
HETATM   25  H7  UNL     1      -3.187  51.003 -17.198  1.00  0.00     0.167 HD
ENDBRANCH  22  24
ENDBRANCH  13  22
BRANCH  20  26
HETATM   26  O1  UNL     1       1.145  53.606 -24.534  1.00  0.00    -0.356 OA
HETATM   27  C1  UNL     1       1.000  52.466 -25.373  1.00  0.00     0.210 C 
ENDBRANCH  20  26
ENDBRANCH  11  12
ENDBRANCH  10  11
ENDBRANCH   7  10
ENDBRANCH   5   6
ENDBRANCH   4   5
ENDBRANCH   2   4
ENDBRANCH   1   2
BRANCH   1  28
HETATM   28  C15 UNL     1      -4.985  48.104 -28.602  1.00  0.00     0.260 C 
BRANCH  28  29
HETATM   29  C16 UNL     1      -5.634  47.796 -29.938  1.00  0.00     0.185 C 
HETATM   30  O7  UNL     1      -4.937  47.372 -30.866  1.00  0.00    -0.292 OA
BRANCH  29  31
HETATM   31  C17 UNL     1      -7.181  47.926 -30.056  1.00  0.00     0.128 C 
HETATM   32  C18 UNL     1      -7.688  47.334 -31.411  1.00  0.00     0.047 C 
HETATM   33  C19 UNL     1      -9.020  46.616 -31.120  1.00  0.00     0.009 C 
HETATM   34  C20 UNL     1      -9.357  46.997 -29.682  1.00  0.00     0.002 C 
HETATM   35  C21 UNL     1     -10.376  46.134 -28.920  1.00  0.00    -0.002 C 
HETATM   36  C34 UNL     1      -7.972  47.077 -28.995  1.00  0.00     0.001 C 
HETATM   37  C22 UNL     1     -11.716  46.088 -29.672  1.00  0.00     0.010 C 
HETATM   38  C31 UNL     1     -10.582  46.728 -27.488  1.00  0.00     0.031 C 
HETATM   39  C23 UNL     1     -12.765  45.294 -28.905  1.00  0.00     0.035 C 
HETATM   40  C24 UNL     1     -12.949  45.819 -27.502  1.00  0.00    -0.068 C 
HETATM   41  C25 UNL     1     -14.179  46.125 -27.056  1.00  0.00     0.053 C 
HETATM   42  C29 UNL     1     -11.675  45.948 -26.652  1.00  0.00    -0.014 C 
HETATM   43  C26 UNL     1     -14.419  46.524 -25.652  1.00  0.00     0.149 C 
HETATM   44  O9  UNL     1     -15.538  46.892 -25.309  1.00  0.00    -0.293 OA
HETATM   45  C27 UNL     1     -13.276  46.383 -24.679  1.00  0.00     0.084 C 
HETATM   46  C28 UNL     1     -11.972  46.770 -25.359  1.00  0.00     0.022 C 
HETATM   47  C30 UNL     1     -11.251  44.517 -26.243  1.00  0.00     0.020 C 
HETATM   48  C32 UNL     1      -9.239  46.992 -26.746  1.00  0.00     0.124 C 
HETATM   49  C33 UNL     1      -8.193  47.728 -27.611  1.00  0.00     0.045 C 
HETATM   50  C35 UNL     1      -7.299  45.685 -28.835  1.00  0.00     0.019 C 
BRANCH  31  51
HETATM   51  O8  UNL     1      -7.620  49.283 -30.069  1.00  0.00    -0.381 OA
HETATM   52  H19 UNL     1      -7.471  49.697 -29.196  1.00  0.00     0.211 HD
ENDBRANCH  31  51
BRANCH  48  53
HETATM   53  O10 UNL     1      -8.671  45.786 -26.259  1.00  0.00    -0.395 OA
HETATM   54  H40 UNL     1      -7.922  46.015 -25.682  1.00  0.00     0.210 HD
ENDBRANCH  48  53
ENDBRANCH  29  31
ENDBRANCH  28  29
ENDBRANCH   1  28
TORSDOF 15
ENDMDL
MODEL 6
REMARK minimizedAffinity -10.0542212
REMARK CNNscore 0.427653164
REMARK CNNaffinity 6.84317398
REMARK  15 active torsions:
REMARK  status: ('A' for Active; 'I' for Inactive)
REMARK    1  A    between atoms: O1_2  and  C2_3 
REMARK    2  A    between atoms: C6_8  and  C7_9 
REMARK    3  A    between atoms: C7_9  and  O3_11 
REMARK    4  A    between atoms: C8_12  and  C9_13 
REMARK    5  A    between atoms: C9_13  and  C10_14 
REMARK    6  A    between atoms: C10_14  and  N2_15 
REMARK       I    between atoms: N2_15  and  C11_16 
REMARK    7  A    between atoms: C11_16  and  C12_18 
REMARK    8  A    between atoms: C12_18  and  C13_19 
REMARK    9  A    between atoms: C13_19  and  C14_20 
REMARK   10  A    between atoms: C14_20  and  O6_22 
REMARK   11  A    between atoms: O6_22  and  C15_23 
REMARK   12  A    between atoms: C15_23  and  C16_24 
REMARK   13  A    between atoms: C16_24  and  C17_26 
REMARK   14  A    between atoms: C17_26  and  O8_27 
REMARK   15  A    between atoms: C32_43  and  O10_44 
ROOT
HETATM    1  O6  UNL     1      -7.209  47.651 -26.976  1.00  0.00    -0.314 OA
ENDROOT
BRANCH   1   2
HETATM    2  C14 UNL     1      -6.748  47.800 -25.711  1.00  0.00     0.259 C 
HETATM    3  O5  UNL     1      -7.446  47.642 -24.713  1.00  0.00    -0.265 OA
BRANCH   2   4
HETATM    4  C13 UNL     1      -5.292  48.205 -25.650  1.00  0.00     0.120 C 
BRANCH   4   5
HETATM    5  C12 UNL     1      -4.606  48.286 -27.010  1.00  0.00     0.112 C 
BRANCH   5   6
HETATM    6  C11 UNL     1      -3.660  49.469 -27.099  1.00  0.00     0.218 C 
HETATM    7  N2  UNL     1      -3.375  50.019 -25.869  1.00  0.00    -0.361 N 
HETATM    8  H12 UNL     1      -4.012  49.815 -25.108  1.00  0.00     0.162 HD
HETATM    9  O4  UNL     1      -3.176  49.864 -28.152  1.00  0.00    -0.274 OA
BRANCH   7  10
HETATM   10  C10 UNL     1      -2.610  51.252 -25.764  1.00  0.00     0.127 C 
BRANCH  10  11
HETATM   11  C9  UNL     1      -1.124  51.008 -25.502  1.00  0.00     0.061 C 
BRANCH  11  12
HETATM   12  C8  UNL     1      -0.375  52.252 -25.108  1.00  0.00    -0.011 A 
HETATM   13  C6  UNL     1       0.050  53.290 -25.935  1.00  0.00     0.114 A 
HETATM   14  N1  UNL     1       0.688  54.206 -25.129  1.00  0.00    -0.350 N 
HETATM   15  C5  UNL     1       0.703  53.798 -23.821  1.00  0.00     0.043 A 
HETATM   16  H6  UNL     1       1.100  55.065 -25.472  1.00  0.00     0.166 HD
HETATM   17  C4  UNL     1       1.247  54.413 -22.689  1.00  0.00     0.033 A 
HETATM   18  C36 UNL     1       0.046  52.573 -23.772  1.00  0.00     0.002 A 
HETATM   19  C3  UNL     1       1.119  53.755 -21.460  1.00  0.00     0.039 A 
HETATM   20  C2  UNL     1       0.470  52.524 -21.370  1.00  0.00     0.069 A 
HETATM   21  C37 UNL     1      -0.073  51.932 -22.520  1.00  0.00     0.051 A 
BRANCH  13  22
HETATM   22  C7  UNL     1      -0.059  53.529 -27.347  1.00  0.00     0.194 C 
HETATM   23  O2  UNL     1      -0.745  54.385 -27.884  1.00  0.00    -0.645 OA
BRANCH  22  24
HETATM   24  O3  UNL     1       0.693  52.687 -28.080  1.00  0.00    -0.772 OA
HETATM   25  H7  UNL     1       0.516  52.976 -28.999  1.00  0.00     0.167 HD
ENDBRANCH  22  24
ENDBRANCH  13  22
BRANCH  20  26
HETATM   26  O1  UNL     1       0.290  51.795 -20.224  1.00  0.00    -0.356 OA
HETATM   27  C1  UNL     1      -0.180  50.461 -20.376  1.00  0.00     0.210 C 
ENDBRANCH  20  26
ENDBRANCH  11  12
ENDBRANCH  10  11
ENDBRANCH   7  10
ENDBRANCH   5   6
ENDBRANCH   4   5
ENDBRANCH   2   4
ENDBRANCH   1   2
BRANCH   1  28
HETATM   28  C15 UNL     1      -8.531  47.145 -27.115  1.00  0.00     0.260 C 
BRANCH  28  29
HETATM   29  C16 UNL     1      -8.984  47.113 -28.563  1.00  0.00     0.185 C 
HETATM   30  O7  UNL     1      -8.143  46.968 -29.457  1.00  0.00    -0.292 OA
BRANCH  29  31
HETATM   31  C17 UNL     1     -10.512  47.155 -28.861  1.00  0.00     0.128 C 
HETATM   32  C18 UNL     1     -10.866  46.248 -30.084  1.00  0.00     0.047 C 
HETATM   33  C19 UNL     1     -12.212  45.568 -29.767  1.00  0.00     0.009 C 
HETATM   34  C20 UNL     1     -12.703  46.258 -28.498  1.00  0.00     0.002 C 
HETATM   35  C21 UNL     1     -13.785  45.558 -27.661  1.00  0.00    -0.002 C 
HETATM   36  C34 UNL     1     -11.399  46.545 -27.715  1.00  0.00     0.001 C 
HETATM   37  C22 UNL     1     -15.038  45.290 -28.512  1.00  0.00     0.010 C 
HETATM   38  C31 UNL     1     -14.149  46.459 -26.436  1.00  0.00     0.031 C 
HETATM   39  C23 UNL     1     -16.152  44.657 -27.689  1.00  0.00     0.035 C 
HETATM   40  C24 UNL     1     -16.490  45.485 -26.472  1.00  0.00    -0.068 C 
HETATM   41  C25 UNL     1     -17.764  45.839 -26.235  1.00  0.00     0.053 C 
HETATM   42  C29 UNL     1     -15.314  45.853 -25.553  1.00  0.00    -0.014 C 
HETATM   43  C26 UNL     1     -18.155  46.543 -24.993  1.00  0.00     0.149 C 
HETATM   44  O9  UNL     1     -19.309  46.939 -24.859  1.00  0.00    -0.293 OA
HETATM   45  C27 UNL     1     -17.119  46.672 -23.906  1.00  0.00     0.084 C 
HETATM   46  C28 UNL     1     -15.755  46.940 -24.524  1.00  0.00     0.022 C 
HETATM   47  C30 UNL     1     -14.917  44.572 -24.781  1.00  0.00     0.020 C 
HETATM   48  C32 UNL     1     -12.894  46.936 -25.646  1.00  0.00     0.124 C 
HETATM   49  C33 UNL     1     -11.772  47.490 -26.550  1.00  0.00     0.045 C 
HETATM   50  C35 UNL     1     -10.730  45.253 -27.168  1.00  0.00     0.019 C 
BRANCH  31  51
HETATM   51  O8  UNL     1     -10.964  48.455 -29.234  1.00  0.00    -0.381 OA
HETATM   52  H19 UNL     1     -10.912  49.064 -28.471  1.00  0.00     0.211 HD
ENDBRANCH  31  51
BRANCH  48  53
HETATM   53  O10 UNL     1     -12.366  45.897 -24.837  1.00  0.00    -0.395 OA
HETATM   54  H40 UNL     1     -11.685  46.280 -24.258  1.00  0.00     0.210 HD
ENDBRANCH  48  53
ENDBRANCH  29  31
ENDBRANCH  28  29
ENDBRANCH   1  28
TORSDOF 15
ENDMDL
MODEL 7
REMARK minimizedAffinity -9.391366
REMARK CNNscore 0.379870474
REMARK CNNaffinity 6.9391942
REMARK  15 active torsions:
REMARK  status: ('A' for Active; 'I' for Inactive)
REMARK    1  A    between atoms: O1_2  and  C2_3 
REMARK    2  A    between atoms: C6_8  and  C7_9 
REMARK    3  A    between atoms: C7_9  and  O3_11 
REMARK    4  A    between atoms: C8_12  and  C9_13 
REMARK    5  A    between atoms: C9_13  and  C10_14 
REMARK    6  A    between atoms: C10_14  and  N2_15 
REMARK       I    between atoms: N2_15  and  C11_16 
REMARK    7  A    between atoms: C11_16  and  C12_18 
REMARK    8  A    between atoms: C12_18  and  C13_19 
REMARK    9  A    between atoms: C13_19  and  C14_20 
REMARK   10  A    between atoms: C14_20  and  O6_22 
REMARK   11  A    between atoms: O6_22  and  C15_23 
REMARK   12  A    between atoms: C15_23  and  C16_24 
REMARK   13  A    between atoms: C16_24  and  C17_26 
REMARK   14  A    between atoms: C17_26  and  O8_27 
REMARK   15  A    between atoms: C32_43  and  O10_44 
ROOT
HETATM    1  O6  UNL     1      -1.486  50.440 -24.516  1.00  0.00    -0.314 OA
ENDROOT
BRANCH   1   2
HETATM    2  C14 UNL     1      -2.446  50.363 -25.468  1.00  0.00     0.259 C 
HETATM    3  O5  UNL     1      -3.120  51.325 -25.831  1.00  0.00    -0.265 OA
BRANCH   2   4
HETATM    4  C13 UNL     1      -2.626  48.968 -26.024  1.00  0.00     0.120 C 
BRANCH   4   5
HETATM    5  C12 UNL     1      -4.061  48.453 -25.976  1.00  0.00     0.112 C 
BRANCH   5   6
HETATM    6  C11 UNL     1      -4.606  48.161 -27.362  1.00  0.00     0.218 C 
HETATM    7  N2  UNL     1      -5.978  48.039 -27.382  1.00  0.00    -0.361 N 
HETATM    8  H12 UNL     1      -6.442  47.848 -26.501  1.00  0.00     0.162 HD
HETATM    9  O4  UNL     1      -3.899  48.081 -28.358  1.00  0.00    -0.274 OA
BRANCH   7  10
HETATM   10  C10 UNL     1      -6.669  47.609 -28.587  1.00  0.00     0.127 C 
BRANCH  10  11
HETATM   11  C9  UNL     1      -7.938  48.415 -28.863  1.00  0.00     0.061 C 
BRANCH  11  12
HETATM   12  C8  UNL     1      -9.177  47.801 -28.268  1.00  0.00    -0.011 A 
HETATM   13  C6  UNL     1      -9.773  48.100 -27.044  1.00  0.00     0.114 A 
HETATM   14  N1  UNL     1     -10.880  47.288 -26.932  1.00  0.00    -0.350 N 
HETATM   15  C5  UNL     1     -11.016  46.473 -28.025  1.00  0.00     0.043 A 
HETATM   16  H6  UNL     1     -11.503  47.295 -26.134  1.00  0.00     0.166 HD
HETATM   17  C4  UNL     1     -11.982  45.503 -28.313  1.00  0.00     0.033 A 
HETATM   18  C36 UNL     1      -9.961  46.766 -28.883  1.00  0.00     0.002 A 
HETATM   19  C3  UNL     1     -11.868  44.804 -29.521  1.00  0.00     0.039 A 
HETATM   20  C2  UNL     1     -10.823  45.067 -30.406  1.00  0.00     0.069 A 
HETATM   21  C37 UNL     1      -9.872  46.050 -30.096  1.00  0.00     0.051 A 
BRANCH  13  22
HETATM   22  C7  UNL     1      -9.449  49.022 -25.992  1.00  0.00     0.194 C 
HETATM   23  O2  UNL     1      -8.680  48.820 -25.065  1.00  0.00    -0.645 OA
BRANCH  22  24
HETATM   24  O3  UNL     1     -10.099  50.195 -26.105  1.00  0.00    -0.772 OA
HETATM   25  H7  UNL     1      -9.776  50.703 -25.333  1.00  0.00     0.167 HD
ENDBRANCH  22  24
ENDBRANCH  13  22
BRANCH  20  26
HETATM   26  O1  UNL     1     -10.616  44.445 -31.609  1.00  0.00    -0.356 OA
HETATM   27  C1  UNL     1     -11.186  45.057 -32.759  1.00  0.00     0.210 C 
ENDBRANCH  20  26
ENDBRANCH  11  12
ENDBRANCH  10  11
ENDBRANCH   7  10
ENDBRANCH   5   6
ENDBRANCH   4   5
ENDBRANCH   2   4
ENDBRANCH   1   2
BRANCH   1  28
HETATM   28  C15 UNL     1      -1.905  50.232 -23.173  1.00  0.00     0.260 C 
BRANCH  28  29
HETATM   29  C16 UNL     1      -1.768  51.485 -22.328  1.00  0.00     0.185 C 
HETATM   30  O7  UNL     1      -2.661  52.339 -22.363  1.00  0.00    -0.292 OA
BRANCH  29  31
HETATM   31  C17 UNL     1      -0.553  51.595 -21.361  1.00  0.00     0.128 C 
HETATM   32  C18 UNL     1      -0.139  53.088 -21.156  1.00  0.00     0.047 C 
HETATM   33  C19 UNL     1       0.260  53.247 -19.676  1.00  0.00     0.009 C 
HETATM   34  C20 UNL     1       0.284  51.823 -19.129  1.00  0.00     0.002 C 
HETATM   35  C21 UNL     1       0.222  51.627 -17.606  1.00  0.00    -0.002 C 
HETATM   36  C34 UNL     1      -0.864  51.122 -19.895  1.00  0.00     0.001 C 
HETATM   37  C22 UNL     1       1.380  52.367 -16.916  1.00  0.00     0.010 C 
HETATM   38  C31 UNL     1       0.291  50.099 -17.281  1.00  0.00     0.031 C 
HETATM   39  C23 UNL     1       1.380  52.135 -15.412  1.00  0.00     0.035 C 
HETATM   40  C24 UNL     1       1.399  50.664 -15.072  1.00  0.00    -0.068 C 
HETATM   41  C25 UNL     1       2.323  50.183 -14.223  1.00  0.00     0.053 C 
HETATM   42  C29 UNL     1       0.308  49.801 -15.728  1.00  0.00    -0.014 C 
HETATM   43  C26 UNL     1       2.301  48.775 -13.769  1.00  0.00     0.149 C 
HETATM   44  O9  UNL     1       3.218  48.348 -13.074  1.00  0.00    -0.293 OA
HETATM   45  C27 UNL     1       1.095  47.944 -14.123  1.00  0.00     0.084 C 
HETATM   46  C28 UNL     1       0.629  48.287 -15.530  1.00  0.00     0.022 C 
HETATM   47  C30 UNL     1      -1.024  50.124 -15.010  1.00  0.00     0.020 C 
HETATM   48  C32 UNL     1      -0.729  49.262 -18.108  1.00  0.00     0.124 C 
HETATM   49  C33 UNL     1      -0.734  49.608 -19.612  1.00  0.00     0.045 C 
HETATM   50  C35 UNL     1      -2.269  51.630 -19.468  1.00  0.00     0.019 C 
BRANCH  31  51
HETATM   51  O8  UNL     1       0.619  50.964 -21.876  1.00  0.00    -0.381 OA
HETATM   52  H19 UNL     1       0.497  49.994 -21.902  1.00  0.00     0.211 HD
ENDBRANCH  31  51
BRANCH  48  53
HETATM   53  O10 UNL     1      -2.046  49.399 -17.598  1.00  0.00    -0.395 OA
HETATM   54  H40 UNL     1      -2.615  48.750 -18.047  1.00  0.00     0.210 HD
ENDBRANCH  48  53
ENDBRANCH  29  31
ENDBRANCH  28  29
ENDBRANCH   1  28
TORSDOF 15
ENDMDL
MODEL 8
REMARK minimizedAffinity -9.03412247
REMARK CNNscore 0.36919713
REMARK CNNaffinity 6.61472511
REMARK  15 active torsions:
REMARK  status: ('A' for Active; 'I' for Inactive)
REMARK    1  A    between atoms: O1_2  and  C2_3 
REMARK    2  A    between atoms: C6_8  and  C7_9 
REMARK    3  A    between atoms: C7_9  and  O3_11 
REMARK    4  A    between atoms: C8_12  and  C9_13 
REMARK    5  A    between atoms: C9_13  and  C10_14 
REMARK    6  A    between atoms: C10_14  and  N2_15 
REMARK       I    between atoms: N2_15  and  C11_16 
REMARK    7  A    between atoms: C11_16  and  C12_18 
REMARK    8  A    between atoms: C12_18  and  C13_19 
REMARK    9  A    between atoms: C13_19  and  C14_20 
REMARK   10  A    between atoms: C14_20  and  O6_22 
REMARK   11  A    between atoms: O6_22  and  C15_23 
REMARK   12  A    between atoms: C15_23  and  C16_24 
REMARK   13  A    between atoms: C16_24  and  C17_26 
REMARK   14  A    between atoms: C17_26  and  O8_27 
REMARK   15  A    between atoms: C32_43  and  O10_44 
ROOT
HETATM    1  O6  UNL     1      -5.932  47.756 -29.619  1.00  0.00    -0.314 OA
ENDROOT
BRANCH   1   2
HETATM    2  C14 UNL     1      -5.052  48.430 -28.840  1.00  0.00     0.259 C 
HETATM    3  O5  UNL     1      -4.223  49.221 -29.283  1.00  0.00    -0.265 OA
BRANCH   2   4
HETATM    4  C13 UNL     1      -5.174  48.092 -27.371  1.00  0.00     0.120 C 
BRANCH   4   5
HETATM    5  C12 UNL     1      -3.894  48.305 -26.570  1.00  0.00     0.112 C 
BRANCH   5   6
HETATM    6  C11 UNL     1      -4.179  48.576 -25.104  1.00  0.00     0.218 C 
HETATM    7  N2  UNL     1      -3.274  49.444 -24.535  1.00  0.00    -0.361 N 
HETATM    8  H12 UNL     1      -2.386  49.566 -25.007  1.00  0.00     0.162 HD
HETATM    9  O4  UNL     1      -5.137  48.100 -24.507  1.00  0.00    -0.274 OA
BRANCH   7  10
HETATM   10  C10 UNL     1      -3.292  49.705 -23.104  1.00  0.00     0.127 C 
BRANCH  10  11
HETATM   11  C9  UNL     1      -1.910  49.588 -22.462  1.00  0.00     0.061 C 
BRANCH  11  12
HETATM   12  C8  UNL     1      -1.124  50.870 -22.497  1.00  0.00    -0.011 A 
HETATM   13  C6  UNL     1      -0.800  51.701 -21.425  1.00  0.00     0.114 A 
HETATM   14  N1  UNL     1      -0.073  52.751 -21.941  1.00  0.00    -0.350 N 
HETATM   15  C5  UNL     1       0.075  52.638 -23.299  1.00  0.00     0.043 A 
HETATM   16  H6  UNL     1       0.293  53.510 -21.380  1.00  0.00     0.166 HD
HETATM   17  C4  UNL     1       0.727  53.478 -24.209  1.00  0.00     0.033 A 
HETATM   18  C36 UNL     1      -0.575  51.470 -23.682  1.00  0.00     0.002 A 
HETATM   19  C3  UNL     1       0.713  53.114 -25.561  1.00  0.00     0.039 A 
HETATM   20  C2  UNL     1       0.070  51.952 -25.985  1.00  0.00     0.069 A 
HETATM   21  C37 UNL     1      -0.570  51.124 -25.050  1.00  0.00     0.051 A 
BRANCH  13  22
HETATM   22  C7  UNL     1      -1.076  51.642 -20.018  1.00  0.00     0.194 C 
HETATM   23  O2  UNL     1      -2.180  51.591 -19.499  1.00  0.00    -0.645 OA
BRANCH  22  24
HETATM   24  O3  UNL     1       0.040  51.654 -19.264  1.00  0.00    -0.772 OA
HETATM   25  H7  UNL     1      -0.310  51.607 -18.351  1.00  0.00     0.167 HD
ENDBRANCH  22  24
ENDBRANCH  13  22
BRANCH  20  26
HETATM   26  O1  UNL     1      -0.006  51.505 -27.277  1.00  0.00    -0.356 OA
HETATM   27  C1  UNL     1       1.022  51.924 -28.166  1.00  0.00     0.210 C 
ENDBRANCH  20  26
ENDBRANCH  11  12
ENDBRANCH  10  11
ENDBRANCH   7  10
ENDBRANCH   5   6
ENDBRANCH   4   5
ENDBRANCH   2   4
ENDBRANCH   1   2
BRANCH   1  28
HETATM   28  C15 UNL     1      -6.318  48.386 -30.833  1.00  0.00     0.260 C 
BRANCH  28  29
HETATM   29  C16 UNL     1      -7.826  48.478 -30.978  1.00  0.00     0.185 C 
HETATM   30  O7  UNL     1      -8.357  49.589 -31.080  1.00  0.00    -0.292 OA
BRANCH  29  31
HETATM   31  C17 UNL     1      -8.639  47.156 -31.103  1.00  0.00     0.128 C 
HETATM   32  C18 UNL     1      -7.710  45.912 -30.924  1.00  0.00     0.047 C 
HETATM   33  C19 UNL     1      -8.508  44.864 -30.124  1.00  0.00     0.009 C 
HETATM   34  C20 UNL     1      -9.924  45.426 -30.058  1.00  0.00     0.002 C 
HETATM   35  C21 UNL     1     -10.878  44.872 -28.988  1.00  0.00    -0.002 C 
HETATM   36  C34 UNL     1      -9.703  46.955 -29.963  1.00  0.00     0.001 C 
HETATM   37  C22 UNL     1     -11.032  43.349 -29.135  1.00  0.00     0.010 C 
HETATM   38  C31 UNL     1     -12.271  45.569 -29.131  1.00  0.00     0.031 C 
HETATM   39  C23 UNL     1     -12.024  42.783 -28.129  1.00  0.00     0.035 C 
HETATM   40  C24 UNL     1     -13.364  43.473 -28.215  1.00  0.00    -0.068 C 
HETATM   41  C25 UNL     1     -14.485  42.746 -28.349  1.00  0.00     0.053 C 
HETATM   42  C29 UNL     1     -13.346  45.007 -28.116  1.00  0.00    -0.014 C 
HETATM   43  C26 UNL     1     -15.825  43.372 -28.314  1.00  0.00     0.149 C 
HETATM   44  O9  UNL     1     -16.820  42.690 -28.540  1.00  0.00    -0.293 OA
HETATM   45  C27 UNL     1     -15.909  44.824 -27.918  1.00  0.00     0.084 C 
HETATM   46  C28 UNL     1     -14.738  45.588 -28.516  1.00  0.00     0.022 C 
HETATM   47  C30 UNL     1     -13.064  45.368 -26.637  1.00  0.00     0.020 C 
HETATM   48  C32 UNL     1     -12.163  47.122 -29.195  1.00  0.00     0.124 C 
HETATM   49  C33 UNL     1     -11.080  47.623 -30.174  1.00  0.00     0.045 C 
HETATM   50  C35 UNL     1      -9.096  47.391 -28.600  1.00  0.00     0.019 C 
BRANCH  31  51
HETATM   51  O8  UNL     1      -9.221  46.988 -32.395  1.00  0.00    -0.381 OA
HETATM   52  H19 UNL     1      -9.928  47.649 -32.536  1.00  0.00     0.211 HD
ENDBRANCH  31  51
BRANCH  48  53
HETATM   53  O10 UNL     1     -11.919  47.677 -27.912  1.00  0.00    -0.395 OA
HETATM   54  H40 UNL     1     -12.008  48.643 -27.977  1.00  0.00     0.210 HD
ENDBRANCH  48  53
ENDBRANCH  29  31
ENDBRANCH  28  29
ENDBRANCH   1  28
TORSDOF 15
ENDMDL
MODEL 9
REMARK minimizedAffinity -9.14049721
REMARK CNNscore 0.353796721
REMARK CNNaffinity 6.7751832
REMARK  15 active torsions:
REMARK  status: ('A' for Active; 'I' for Inactive)
REMARK    1  A    between atoms: O1_2  and  C2_3 
REMARK    2  A    between atoms: C6_8  and  C7_9 
REMARK    3  A    between atoms: C7_9  and  O3_11 
REMARK    4  A    between atoms: C8_12  and  C9_13 
REMARK    5  A    between atoms: C9_13  and  C10_14 
REMARK    6  A    between atoms: C10_14  and  N2_15 
REMARK       I    between atoms: N2_15  and  C11_16 
REMARK    7  A    between atoms: C11_16  and  C12_18 
REMARK    8  A    between atoms: C12_18  and  C13_19 
REMARK    9  A    between atoms: C13_19  and  C14_20 
REMARK   10  A    between atoms: C14_20  and  O6_22 
REMARK   11  A    between atoms: O6_22  and  C15_23 
REMARK   12  A    between atoms: C15_23  and  C16_24 
REMARK   13  A    between atoms: C16_24  and  C17_26 
REMARK   14  A    between atoms: C17_26  and  O8_27 
REMARK   15  A    between atoms: C32_43  and  O10_44 
ROOT
HETATM    1  O6  UNL     1      -4.489  48.777 -28.784  1.00  0.00    -0.314 OA
ENDROOT
BRANCH   1   2
HETATM    2  C14 UNL     1      -3.630  49.081 -27.782  1.00  0.00     0.259 C 
HETATM    3  O5  UNL     1      -3.244  48.264 -26.949  1.00  0.00    -0.265 OA
BRANCH   2   4
HETATM    4  C13 UNL     1      -3.214  50.535 -27.773  1.00  0.00     0.120 C 
BRANCH   4   5
HETATM    5  C12 UNL     1      -1.834  50.788 -27.174  1.00  0.00     0.112 C 
BRANCH   5   6
HETATM    6  C11 UNL     1      -1.920  51.422 -25.798  1.00  0.00     0.218 C 
HETATM    7  N2  UNL     1      -0.899  52.313 -25.554  1.00  0.00    -0.361 N 
HETATM    8  H12 UNL     1      -0.069  52.241 -26.132  1.00  0.00     0.162 HD
HETATM    9  O4  UNL     1      -2.825  51.188 -25.006  1.00  0.00    -0.274 OA
BRANCH   7  10
HETATM   10  C10 UNL     1      -0.725  52.905 -24.237  1.00  0.00     0.127 C 
BRANCH  10  11
HETATM   11  C9  UNL     1       0.168  52.066 -23.323  1.00  0.00     0.061 C 
BRANCH  11  12
HETATM   12  C8  UNL     1      -0.218  52.150 -21.871  1.00  0.00    -0.011 A 
HETATM   13  C6  UNL     1       0.298  53.006 -20.900  1.00  0.00     0.114 A 
HETATM   14  N1  UNL     1      -0.360  52.719 -19.725  1.00  0.00    -0.350 N 
HETATM   15  C5  UNL     1      -1.269  51.707 -19.895  1.00  0.00     0.043 A 
HETATM   16  H6  UNL     1      -0.181  53.194 -18.849  1.00  0.00     0.166 HD
HETATM   17  C4  UNL     1      -2.133  51.105 -18.973  1.00  0.00     0.033 A 
HETATM   18  C36 UNL     1      -1.204  51.324 -21.230  1.00  0.00     0.002 A 
HETATM   19  C3  UNL     1      -2.960  50.072 -19.430  1.00  0.00     0.039 A 
HETATM   20  C2  UNL     1      -2.922  49.657 -20.761  1.00  0.00     0.069 A 
HETATM   21  C37 UNL     1      -2.052  50.283 -21.666  1.00  0.00     0.051 A 
BRANCH  13  22
HETATM   22  C7  UNL     1       1.303  54.032 -20.927  1.00  0.00     0.194 C 
HETATM   23  O2  UNL     1       1.612  54.717 -21.889  1.00  0.00    -0.645 OA
BRANCH  22  24
HETATM   24  O3  UNL     1       1.920  54.191 -19.741  1.00  0.00    -0.772 OA
HETATM   25  H7  UNL     1       2.559  54.911 -19.919  1.00  0.00     0.167 HD
ENDBRANCH  22  24
ENDBRANCH  13  22
BRANCH  20  26
HETATM   26  O1  UNL     1      -3.683  48.660 -21.311  1.00  0.00    -0.356 OA
HETATM   27  C1  UNL     1      -4.601  49.037 -22.331  1.00  0.00     0.210 C 
ENDBRANCH  20  26
ENDBRANCH  11  12
ENDBRANCH  10  11
ENDBRANCH   7  10
ENDBRANCH   5   6
ENDBRANCH   4   5
ENDBRANCH   2   4
ENDBRANCH   1   2
BRANCH   1  28
HETATM   28  C15 UNL     1      -5.706  48.146 -28.408  1.00  0.00     0.260 C 
BRANCH  28  29
HETATM   29  C16 UNL     1      -6.577  47.818 -29.607  1.00  0.00     0.185 C 
HETATM   30  O7  UNL     1      -6.078  47.238 -30.577  1.00  0.00    -0.292 OA
BRANCH  29  31
HETATM   31  C17 UNL     1      -8.101  48.131 -29.521  1.00  0.00     0.128 C 
HETATM   32  C18 UNL     1      -8.807  47.837 -30.885  1.00  0.00     0.047 C 
HETATM   33  C19 UNL     1     -10.183  47.227 -30.557  1.00  0.00     0.009 C 
HETATM   34  C20 UNL     1     -10.328  47.391 -29.048  1.00  0.00     0.002 C 
HETATM   35  C21 UNL     1     -11.368  46.526 -28.318  1.00  0.00    -0.002 C 
HETATM   36  C34 UNL     1      -8.884  47.204 -28.523  1.00  0.00     0.001 C 
HETATM   37  C22 UNL     1     -12.771  46.753 -28.907  1.00  0.00     0.010 C 
HETATM   38  C31 UNL     1     -11.359  46.887 -26.796  1.00  0.00     0.031 C 
HETATM   39  C23 UNL     1     -13.831  45.958 -28.158  1.00  0.00     0.035 C 
HETATM   40  C24 UNL     1     -13.811  46.253 -26.678  1.00  0.00    -0.068 C 
HETATM   41  C25 UNL     1     -14.944  46.608 -26.050  1.00  0.00     0.053 C 
HETATM   42  C29 UNL     1     -12.455  46.098 -25.972  1.00  0.00    -0.014 C 
HETATM   43  C26 UNL     1     -14.995  46.787 -24.582  1.00  0.00     0.149 C 
HETATM   44  O9  UNL     1     -16.021  47.209 -24.057  1.00  0.00    -0.293 OA
HETATM   45  C27 UNL     1     -13.790  46.360 -23.783  1.00  0.00     0.084 C 
HETATM   46  C28 UNL     1     -12.519  46.715 -24.540  1.00  0.00     0.022 C 
HETATM   47  C30 UNL     1     -12.175  44.581 -25.846  1.00  0.00     0.020 C 
HETATM   48  C32 UNL     1      -9.928  46.875 -26.184  1.00  0.00     0.124 C 
HETATM   49  C33 UNL     1      -8.887  47.630 -27.038  1.00  0.00     0.045 C 
HETATM   50  C35 UNL     1      -8.379  45.741 -28.663  1.00  0.00     0.019 C 
BRANCH  31  51
HETATM   51  O8  UNL     1      -8.365  49.511 -29.270  1.00  0.00    -0.381 OA
HETATM   52  H19 UNL     1      -8.081  49.751 -28.365  1.00  0.00     0.211 HD
ENDBRANCH  31  51
BRANCH  48  53
HETATM   53  O10 UNL     1      -9.470  45.550 -25.962  1.00  0.00    -0.395 OA
HETATM   54  H40 UNL     1      -8.647  45.596 -25.447  1.00  0.00     0.210 HD
ENDBRANCH  48  53
ENDBRANCH  29  31
ENDBRANCH  28  29
ENDBRANCH   1  28
TORSDOF 15
ENDMDL
